data_PCOD8044164
_publ_section_title
;
Structure prediction by ZEFSAII (Michael W. Deem and Ramdas Pophale) SiO2 
 PCOD8044164
Probable space group: P -1
;
_chemical_formula_sum "Si O2"
_cell_formula_units_Z 16
_cell_length_a 10.001447
_cell_length_b 9.335148
_cell_length_c 25.377901
_cell_angle_alpha 133.854595
_cell_angle_beta 150.674035
_cell_angle_gamma 44.166309
_cell_volume 792.613356
_symmetry_space_group_name_H-M "P -1"
_symmetry_group_IT_number 2
_symmetry_cell_setting 'triclinic'
loop_
_space_group_symop_operation_xyz
x,y,z
-x,-y,-z
loop_
_atom_site_type_symbol
_atom_site_label
_atom_site_fract_x
_atom_site_fract_y
_atom_site_fract_z
Si Si1 0.838597 0.829158 0.508491
Si Si2 0.760606 0.484458 0.153256
Si Si3 0.799789 0.555651 0.894806
Si Si4 0.217862 0.828499 0.273503
Si Si5 0.822543 0.266729 0.645696
Si Si6 0.796125 0.267127 0.216732
Si Si7 0.838942 0.562509 0.541613
Si Si8 0.871606 0.249611 0.024559
O O1 0.505215 0.891970 0.393985
O O2 0.887968 0.717725 0.553629
O O3 0.041687 0.678962 0.496970
O O4 0.926431 0.038091 0.596141
O O5 0.709581 0.343216 0.147089
O O6 0.893776 0.325535 0.110854
O O7 0.985289 0.601426 0.277345
O O8 0.463155 0.666002 0.084684
O O9 0.736731 0.351846 0.799495
O O10 0.489842 0.714776 0.843947
O O11 0.939658 0.655906 0.923672
O O12 0.000000 0.500000 0.000000
O O13 0.134901 0.753672 0.282004
O O14 0.969293 0.022977 0.214446
O O15 0.495059 0.387791 0.547494
O O16 0.983432 0.405847 0.339039
O O17 0.000000 0.000000 0.000000
#
# Coordination Sequence:
#
# PCOD8044164 Si02
#       8
#     2   2   2   2   2   2   2   2
#     4  10  19  37  64  98 131 171 219 266 317 392
#     4  11  27  45  65  98 137 172 221 273 328 396
#     4  12  26  45  69 101 128 167 228 280 322 389
#     4  11  22  40  69  97 133 173 222 267 326 389
#     4  11  21  40  64  96 132 178 216 259 327 397
#     4  12  24  41  69  97 134 172 215 278 327 380
#     4  10  20  35  62  96 131 168 215 266 318 389
#     4  11  27  49  68  93 133 177 221 273 334 391
#
# _framework density 20.186388000000001
#
# number of rings (size 3 to 8) (size 9 to 14) (size 15 to 20)
#    0.000    1.000    6.250    0.750    3.500    2.000 
#    0.000    0.625    0.000    0.000    0.000    0.000 
#    0.000    0.000    0.000    0.000    0.000    0.000 
#
# Total GULP energy -198482.267693 kJ/mol
# GULP energy per Si atom -12405.141731 kJ/mol
# Density = 2.014044 g / cm^3
# Si number density = 20.186388 Si / 1000 Ang^3
#
#
#
# Elastic Constant Matrix: (Units=GPa)
#
#
# Indices 1 2 3 4 5 6 
#
# 1 94.7287 39.5716 31.4442 2.3339 1.7546 -8.6783
# 2 39.5716 113.7951 20.2933 -4.6158 0.9112 -22.9302
# 3 31.4442 20.2933 58.7848 2.6120 -0.2669 8.2071
# 4 2.3339 -4.6158 2.6120 30.8745 0.0534 -2.3988
# 5 1.7546 0.9112 -0.2669 0.0534 34.5986 -2.7874
# 6 -8.6783 -22.9302 8.2071 -2.3988 -2.7874 17.2106
#
#
#
# Elastic Compliance Matrix: (Units=1/GPa)
#
#
# Indices 1 2 3 4 5 6 
#
# 1 0.015070 -0.001777 -0.008765 0.000068 -0.000027 0.009417
# 2 -0.001777 0.016381 -0.008568 0.005328 0.001681 0.026030
# 3 -0.008765 -0.008568 0.029190 -0.005476 -0.001575 -0.030773
# 4 0.000068 0.005328 -0.005476 0.034788 0.000948 0.014746
# 5 -0.000027 0.001681 -0.001575 0.000948 0.029482 0.007885
# 6 0.009417 0.026030 -0.030773 0.014746 0.007885 0.115539
#
#
# Mechanical properties :
#
#
# Convention : Reuss Voigt Hill
#
# Bulk Modulus (GPa) = 44.60078 49.99187 47.29632
# Shear Modulus (GPa) = 17.47378 28.27005 22.87192
#
# Velocity S-wave (km/s) = 2.94534 3.74632 3.36971
# Velocity P-wave (km/s) = 5.80596 6.59789 6.21455
#
# Compressibility (1/GPa) = 0.02242113
#
# Stress axis : x y z
#
# Youngs Moduli (GPa) = 66.35823 61.04530 34.25834
#
# Poissons Ratio (x) = 0.10847 0.30028
# Poissons Ratio (y) = 0.11791 0.29352
# Poissons Ratio (z) = 0.58165 0.52303
#
# Static dielectric constant tensor:
#      x y z
#    x 3.675470 -0.246170 -0.116880 
#    y -0.246170 3.711880 -0.016560 
#    z -0.116880 -0.016560 3.774940 
# 
# 
# High freq. dielectric constant tensor:
#      x y z
#    x 1.778550 -0.016910 -0.004190 
#    y -0.016910 1.793090 -0.003410 
#    z -0.004190 -0.003410 1.798690 
# 
# From -- ./inp_files/207163.got.cif
#   From: 2010.06.25/outbox.cif.g09.slc.cpg/sg2_104_cif.got.tgz:207163.got - 2010.06.27 13:26:56.
