data_PCOD8044898
_publ_section_title
;
Structure prediction by ZEFSAII (Michael W. Deem and Ramdas Pophale) SiO2 
 PCOD8044898
Probable space group: P 2
;
_chemical_formula_sum "Si O2"
_cell_formula_units_Z 14
_cell_length_a 12.560518
_cell_length_b 15.759864
_cell_length_c 9.297932
_cell_angle_alpha 90.000000
_cell_angle_beta 159.037716
_cell_angle_gamma 90.000000
_cell_volume 658.461005
_symmetry_space_group_name_H-M "P 2"
_symmetry_group_IT_number 3
_symmetry_cell_setting 'monoclinic'
loop_
_space_group_symop_operation_xyz
x,y,z
-x,y,-z
loop_
_atom_site_type_symbol
_atom_site_label
_atom_site_fract_x
_atom_site_fract_y
_atom_site_fract_z
Si Si1 0.336392 0.400860 0.142137
Si Si2 0.350863 0.688416 0.659082
Si Si3 0.169969 0.502226 0.363332
Si Si4 0.157318 0.950963 0.553957
Si Si5 0.673044 0.211418 0.867051
Si Si6 0.833391 0.108132 0.639924
Si Si7 0.138886 0.777624 0.829068
O O1 0.500000 0.395529 0.500000
O O2 0.561982 0.435976 0.308978
O O3 0.259212 0.306078 0.990157
O O4 0.051056 0.463419 0.794850
O O5 0.332651 0.589009 0.608043
O O6 0.013913 0.722657 0.238429
O O7 0.500000 0.705483 0.000000
O O8 0.520662 0.744240 0.750246
O O9 0.000000 0.515342 0.000000
O O10 0.190658 0.018615 0.469458
O O11 0.000000 0.989414 0.500000
O O12 0.500000 0.915300 0.000000
O O13 0.925333 0.876497 0.215780
O O14 0.500000 0.217295 0.500000
O O15 0.487203 0.152128 0.742230
O O16 0.991821 0.170202 0.245135
O O17 0.000000 0.092647 0.000000
O O18 0.000000 0.755977 0.500000
#
# Coordination Sequence:
#
# PCOD8044898 Si02
#       7
#     2   2   2   2   2   2   2
#     4   9  17  30  50  75 102 135 174 211 249 305
#     4  10  19  33  53  73  97 130 171 212 254 305
#     4  10  19  31  50  76 104 131 166 213 261 307
#     4  11  21  36  58  81 106 140 183 223 266 320
#     4   9  17  31  52  77 105 140 179 216 257 311
#     4  10  20  34  55  82 110 138 176 225 270 313
#     4   9  18  33  53  74  95 130 176 214 246 305
#
# _framework density 21.261697999999999
#
# number of rings (size 3 to 8) (size 9 to 14) (size 15 to 20)
#    0.000    2.286    0.000    4.714    0.000    3.429 
#    0.000    0.714    0.000   13.714    0.000    0.000 
#    0.000    0.000    0.000    0.000    0.000    0.000 
#
# Total GULP energy -173462.640649 kJ/mol
# GULP energy per Si atom -12390.188618 kJ/mol
# Density = 2.121330 g / cm^3
# Si number density = 21.261698 Si / 1000 Ang^3
#
#
#
# Elastic Constant Matrix: (Units=GPa)
#
#
# Indices 1 2 3 4 5 6 
#
# 1 72.4055 48.5459 42.6472 0.0000 42.3142 0.0000
# 2 48.5459 162.4077 40.2525 0.0000 25.3208 0.0000
# 3 42.6472 40.2525 63.4129 0.0000 37.2741 0.0000
# 4 0.0000 0.0000 0.0000 34.8766 0.0000 13.7615
# 5 42.3142 25.3208 37.2741 0.0000 36.1225 0.0000
# 6 0.0000 0.0000 0.0000 13.7615 0.0000 34.8861
#
#
#
# Elastic Compliance Matrix: (Units=1/GPa)
#
#
# Indices 1 2 3 4 5 6 
#
# 1 0.049935 -0.007111 0.006059 0.000000 -0.059762 0.000000
# 2 -0.007111 0.008330 -0.005005 0.000000 0.007655 0.000000
# 3 0.006059 -0.005005 0.043159 0.000000 -0.048124 0.000000
# 4 0.000000 0.000000 0.000000 0.033958 0.000000 -0.013395
# 5 -0.059762 0.007655 -0.048124 0.000000 0.141982 0.000000
# 6 0.000000 0.000000 0.000000 -0.013395 0.000000 0.033949
#
#
# Mechanical properties :
#
#
# Convention : Reuss Voigt Hill
#
# Bulk Modulus (GPa) = 11.19686 62.34636 36.77161
# Shear Modulus (GPa) = 14.15640 32.29575 23.22608
#
# Velocity S-wave (km/s) = 2.58314 3.90162 3.30872
# Velocity P-wave (km/s) = 3.76490 7.04867 5.65059
#
# Compressibility (1/GPa) = 0.08931073
#
# Stress axis : x y z
#
# Youngs Moduli (GPa) = 20.02592 120.05106 23.16991
#
# Poissons Ratio (x) = 0.85363 -0.14038
# Poissons Ratio (y) = 0.14239 0.11597
# Poissons Ratio (z) = -0.12133 0.60086
#
# Static dielectric constant tensor:
#      x y z
#    x 3.867290 0.000000 0.586750 
#    y 0.000000 3.864440 0.000000 
#    z 0.586750 0.000000 3.876560 
# 
# 
# High freq. dielectric constant tensor:
#      x y z
#    x 1.817620 0.000000 0.047680 
#    y 0.000000 1.845060 0.000000 
#    z 0.047680 0.000000 1.812490 
# 
# From -- ./inp_files/11947.got.cif
#   From: 2010.03.12/outbox.cif.g09.slc.cpg/sg3_6_cif.got.tgz:11947.got - 2010.03.31 09:20:49.
