data_PCOD8044488
_publ_section_title
;
Structure prediction by ZEFSAII (Michael W. Deem and Ramdas Pophale) SiO2 
 PCOD8044488
Probable space group: P -1
;
_chemical_formula_sum "Si O2"
_cell_formula_units_Z 16
_cell_length_a 13.367806
_cell_length_b 14.431730
_cell_length_c 8.638511
_cell_angle_alpha 131.860169
_cell_angle_beta 140.570001
_cell_angle_gamma 45.481460
_cell_volume 725.041326
_symmetry_space_group_name_H-M "P -1"
_symmetry_group_IT_number 2
_symmetry_cell_setting 'triclinic'
loop_
_space_group_symop_operation_xyz
x,y,z
-x,-y,-z
loop_
_atom_site_type_symbol
_atom_site_label
_atom_site_fract_x
_atom_site_fract_y
_atom_site_fract_z
Si Si1 0.237433 0.188581 0.548097
Si Si2 0.810088 0.067241 0.788249
Si Si3 0.837969 0.112368 0.513438
Si Si4 0.881282 0.343499 0.677911
Si Si5 0.785504 0.635901 0.839859
Si Si6 0.825843 0.573056 0.465619
Si Si7 0.519952 0.857983 0.928287
Si Si8 0.170917 0.694443 0.763565
O O1 0.283785 0.280333 0.578159
O O2 0.033421 0.248714 0.391822
O O3 0.290736 0.028483 0.388087
O O4 0.345627 0.196312 0.833659
O O5 0.813632 0.071849 0.612356
O O6 0.735177 0.217561 0.942061
O O7 0.000000 0.000000 0.000000
O O8 0.860516 0.254757 0.697199
O O9 0.666977 0.132105 0.234641
O O10 0.000000 0.000000 0.500000
O O11 0.782339 0.502605 0.772179
O O12 0.804001 0.301066 0.385719
O O13 0.081736 0.313376 0.858174
O O14 0.854324 0.602467 0.710186
O O15 0.595696 0.751444 0.757988
O O16 0.739876 0.461232 0.239962
O O17 0.000000 0.500000 0.500000
O O18 0.500000 0.000000 0.000000
#
# Coordination Sequence:
#
# PCOD8044488 Si02
#       8
#     2   2   2   2   2   2   2   2
#     4  10  19  38  61  94 127 174 214 260 327 383
#     4  10  21  36  60  91 130 167 208 269 324 384
#     4  12  25  41  66  95 126 176 229 270 328 395
#     4  10  21  39  66  99 124 169 220 263 324 402
#     4  10  22  41  68  95 132 170 214 272 329 386
#     4   9  20  36  65 102 126 168 216 262 320 400
#     4  12  24  44  63  90 140 174 217 280 324 383
#     4   9  18  38  63  95 131 163 212 267 323 386
#
# _framework density 22.067708
#
# number of rings (size 3 to 8) (size 9 to 14) (size 15 to 20)
#    0.000    1.750    2.500    2.250    7.000    0.500 
#    2.250    3.125    0.000    3.000    0.000    0.000 
#    0.000    0.000    0.000    0.000    0.000    0.000 
#
# Total GULP energy -198234.477806 kJ/mol
# GULP energy per Si atom -12389.654863 kJ/mol
# Density = 2.201748 g / cm^3
# Si number density = 22.067708 Si / 1000 Ang^3
#
#
#
# Elastic Constant Matrix: (Units=GPa)
#
#
# Indices 1 2 3 4 5 6 
#
# 1 59.4335 66.8776 33.1611 8.3362 2.5268 8.5099
# 2 66.8776 162.2057 53.3510 22.1974 7.1364 33.4239
# 3 33.1611 53.3510 95.7735 18.2536 -1.8208 6.4127
# 4 8.3362 22.1974 18.2536 35.9544 3.8175 3.6505
# 5 2.5268 7.1364 -1.8208 3.8175 26.1744 -2.9256
# 6 8.5099 33.4239 6.4127 3.6505 -2.9256 48.3374
#
#
#
# Elastic Compliance Matrix: (Units=1/GPa)
#
#
# Indices 1 2 3 4 5 6 
#
# 1 0.033826 -0.013461 -0.004960 0.002587 0.000110 0.003822
# 2 -0.013461 0.014649 -0.002373 -0.003636 -0.003152 -0.007361
# 3 -0.004960 -0.002373 0.014442 -0.005156 0.003013 0.001170
# 4 0.002587 -0.003636 -0.005156 0.032536 -0.004360 0.000022
# 5 0.000110 -0.003152 0.003013 -0.004360 0.040406 0.004535
# 6 0.003822 -0.007361 0.001170 0.000022 0.004535 0.025222
#
#
# Mechanical properties :
#
#
# Convention : Reuss Voigt Hill
#
# Bulk Modulus (GPa) = 46.88853 69.35469 58.12161
# Shear Modulus (GPa) = 23.83445 33.02810 28.43128
#
# Velocity S-wave (km/s) = 3.28999 3.87288 3.59328
# Velocity P-wave (km/s) = 5.97710 7.17602 6.60383
#
# Compressibility (1/GPa) = 0.02132718
#
# Stress axis : x y z
#
# Youngs Moduli (GPa) = 29.56331 68.26546 69.24076
#
# Poissons Ratio (x) = 0.91895 0.34344
# Poissons Ratio (y) = 0.39796 0.16433
# Poissons Ratio (z) = 0.14664 0.16201
#
# Static dielectric constant tensor:
#      x y z
#    x 3.799060 0.347490 0.016900 
#    y 0.347490 4.780490 0.117560 
#    z 0.016900 0.117560 3.981550 
# 
# 
# High freq. dielectric constant tensor:
#      x y z
#    x 1.836030 0.027150 -0.008570 
#    y 0.027150 1.886180 0.017220 
#    z -0.008570 0.017220 1.857650 
# 
# From -- ./inp_files/314161.got.cif
#   From: 2010.06.25/outbox.cif.g09.slc.cpg/sg2_158_cif.got.tgz:314161.got - 2010.06.27 13:26:56.
