data_PCOD8044947
_publ_section_title
;
Structure prediction by ZEFSAII (Michael W. Deem and Ramdas Pophale) SiO2 
 PCOD8044947
Probable space group: P 2
;
_chemical_formula_sum "Si O2"
_cell_formula_units_Z 12
_cell_length_a 8.297935
_cell_length_b 7.811989
_cell_length_c 9.281212
_cell_angle_alpha 90.000000
_cell_angle_beta 75.202855
_cell_angle_gamma 90.000000
_cell_volume 581.686801
_symmetry_space_group_name_H-M "P 2"
_symmetry_group_IT_number 3
_symmetry_cell_setting 'monoclinic'
loop_
_space_group_symop_operation_xyz
x,y,z
-x,y,-z
loop_
_atom_site_type_symbol
_atom_site_label
_atom_site_fract_x
_atom_site_fract_y
_atom_site_fract_z
Si Si1 0.341144 0.488490 0.950960
Si Si2 0.157260 0.821464 0.065545
Si Si3 0.670371 0.018845 0.406882
Si Si4 0.811224 0.139841 0.087704
Si Si5 0.509178 0.666980 0.345462
Si Si6 0.838246 0.823095 0.611472
O O1 0.224131 0.323798 0.970443
O O2 0.389667 0.543994 0.780432
O O3 0.500000 0.422963 0.000000
O O4 0.259721 0.645685 0.054173
O O5 0.106142 0.878253 0.239770
O O6 0.000000 0.778625 0.000000
O O7 0.274269 0.974660 0.971942
O O8 0.500000 0.112965 0.500000
O O9 0.613920 0.841470 0.344476
O O10 0.788261 0.983730 0.519179
O O11 0.768519 0.134675 0.267733
O O12 0.000000 0.098854 0.000000
O O13 0.500000 0.568981 0.500000
O O14 0.320639 0.699083 0.334441
O O15 0.000000 0.733221 0.500000
#
# Coordination Sequence:
#
# PCOD8044947 Si02
#       6
#     2   2   2   2   2   2
#     4  12  24  40  63  96 130 172 219 262 323 393
#     4  11  23  40  67  93 131 171 208 273 328 379
#     4   9  20  40  67  92 123 174 216 264 325 384
#     4  11  24  42  64  94 130 171 218 267 330 384
#     4   9  20  38  61  89 123 167 214 262 319 381
#     4  10  19  35  65  96 121 165 222 259 325 389
#
# _framework density 20.629659
#
# number of rings (size 3 to 8) (size 9 to 14) (size 15 to 20)
#    0.000    2.000    3.333    2.500    2.333    4.000 
#    0.000    0.000    0.000    1.000    0.000    0.000 
#    0.000    0.000    0.000    0.000    0.000    0.000 
#
# Total GULP energy -148666.739306 kJ/mol
# GULP energy per Si atom -12388.894942 kJ/mol
# Density = 2.058270 g / cm^3
# Si number density = 20.629659 Si / 1000 Ang^3
#
#
#
# Elastic Constant Matrix: (Units=GPa)
#
#
# Indices 1 2 3 4 5 6 
#
# 1 78.7014 13.2679 34.7780 0.0000 2.4940 0.0000
# 2 13.2679 95.5668 27.3502 0.0000 -4.9815 0.0000
# 3 34.7780 27.3502 156.6341 0.0000 0.6669 0.0000
# 4 0.0000 0.0000 0.0000 0.9859 0.0000 -2.1534
# 5 2.4940 -4.9815 0.6669 0.0000 38.3412 0.0000
# 6 0.0000 0.0000 0.0000 -2.1534 0.0000 11.2203
#
#
#
# Elastic Compliance Matrix: (Units=1/GPa)
#
#
# Indices 1 2 3 4 5 6 
#
# 1 0.014243 -0.001187 -0.002951 0.000000 -0.001029 0.000000
# 2 -0.001187 0.011196 -0.001698 0.000000 0.001561 0.000000
# 3 -0.002951 -0.001698 0.007337 0.000000 -0.000156 0.000000
# 4 0.000000 0.000000 0.000000 1.746414 0.000000 0.335172
# 5 -0.001029 0.001561 -0.000156 0.000000 0.026354 0.000000
# 6 0.000000 0.000000 0.000000 0.335172 0.000000 0.153450
#
#
# Mechanical properties :
#
#
# Convention : Reuss Voigt Hill
#
# Bulk Modulus (GPa) = 47.38330 53.52162 50.45246
# Shear Modulus (GPa) = 2.52819 27.14324 14.83571
#
# Velocity S-wave (km/s) = 1.10823 3.63125 2.68460
# Velocity P-wave (km/s) = 4.96548 6.60164 5.84113
#
# Compressibility (1/GPa) = 0.02110448
#
# Stress axis : x y z
#
# Youngs Moduli (GPa) = 70.21062 89.31760 136.30160
#
# Poissons Ratio (x) = 0.10598 0.40220
# Poissons Ratio (y) = 0.08331 0.23146
# Poissons Ratio (z) = 0.20718 0.15168
#
# Static dielectric constant tensor:
#      x y z
#    x 3.727510 0.000000 -0.068040 
#    y 0.000000 3.360100 0.000000 
#    z -0.068040 0.000000 4.067920 
# 
# 
# High freq. dielectric constant tensor:
#      x y z
#    x 1.804960 0.000000 -0.004380 
#    y 0.000000 1.765570 0.000000 
#    z -0.004380 0.000000 1.829580 
# 
# From -- ./inp_files/5221.got.cif
#   From: 2010.03.12/outbox.cif.g09.slc.cpg/sg3_3_cif.got.tgz:5221.got - 2010.03.31 09:20:49.
