data_PCOD8044315
_publ_section_title
;
Structure prediction by ZEFSAII (Michael W. Deem and Ramdas Pophale) SiO2 
 PCOD8044315
Probable space group: P -1
;
_chemical_formula_sum "Si O2"
_cell_formula_units_Z 16
_cell_length_a 11.707516
_cell_length_b 18.676161
_cell_length_c 12.265155
_cell_angle_alpha 38.651622
_cell_angle_beta 113.772872
_cell_angle_gamma 142.562468
_cell_volume 835.572697
_symmetry_space_group_name_H-M "P -1"
_symmetry_group_IT_number 2
_symmetry_cell_setting 'triclinic'
loop_
_space_group_symop_operation_xyz
x,y,z
-x,-y,-z
loop_
_atom_site_type_symbol
_atom_site_label
_atom_site_fract_x
_atom_site_fract_y
_atom_site_fract_z
Si Si1 0.805903 0.893172 0.821981
Si Si2 0.741300 0.857818 0.251407
Si Si3 0.307772 0.452658 0.817676
Si Si4 0.611347 0.161097 0.943371
Si Si5 0.774940 0.899080 0.556884
Si Si6 0.241790 0.494825 0.514589
Si Si7 0.783196 0.020106 0.865518
Si Si8 0.135662 0.856723 0.870719
O O1 0.726555 0.875388 0.694416
O O2 0.709803 0.908163 0.855520
O O3 0.710484 0.693848 0.050850
O O4 0.085474 0.103886 0.680411
O O5 0.479691 0.610812 0.439506
O O6 0.743067 0.974784 0.187289
O O7 0.827997 0.955089 0.048232
O O8 0.566566 0.673226 0.688284
O O9 0.220696 0.470453 0.666653
O O10 0.138974 0.346671 0.980070
O O11 0.788664 0.217172 0.009897
O O12 0.421734 0.056873 0.080733
O O13 0.746692 0.367851 0.690758
O O14 0.500000 0.000000 0.000000
O O15 0.798921 0.042872 0.341806
O O16 0.000000 0.000000 0.500000
O O17 0.020753 0.269716 0.640810
#
# Coordination Sequence:
#
# PCOD8044315 Si02
#       8
#     2   2   2   2   2   2   2   2
#     4  11  23  39  59  86 129 155 187 250 289 355
#     4  10  19  38  55  90 121 149 190 241 295 349
#     4  11  21  37  62  93 114 152 199 239 301 341
#     4  11  21  40  58  85 123 153 199 247 284 350
#     4  12  22  41  62  91 117 152 203 239 291 347
#     4  11  20  35  61  91 116 157 192 237 307 346
#     4  11  23  39  56  91 125 154 193 237 305 352
#     4  11  21  38  60  87 118 152 197 252 281 338
#
# _framework density 19.148544000000001
#
# number of rings (size 3 to 8) (size 9 to 14) (size 15 to 20)
#    0.000    1.000    8.750    0.750    0.000    3.500 
#    6.750    0.625    0.000    1.500    0.000    0.000 
#    0.000    0.000    0.000    0.000    0.000    0.000 
#
# Total GULP energy -198374.625049 kJ/mol
# GULP energy per Si atom -12398.414066 kJ/mol
# Density = 1.910496 g / cm^3
# Si number density = 19.148544 Si / 1000 Ang^3
#
#
#
# Elastic Constant Matrix: (Units=GPa)
#
#
# Indices 1 2 3 4 5 6 
#
# 1 103.8044 46.0908 40.8939 -0.2560 -1.6392 -3.2091
# 2 46.0908 84.5267 49.3784 9.0709 6.6687 -1.1710
# 3 40.8939 49.3784 132.4228 4.2010 -0.1926 2.9934
# 4 -0.2560 9.0709 4.2010 37.2772 10.2865 -9.7638
# 5 -1.6392 6.6687 -0.1926 10.2865 17.9548 1.2487
# 6 -3.2091 -1.1710 2.9934 -9.7638 1.2487 22.2126
#
#
#
# Elastic Compliance Matrix: (Units=1/GPa)
#
#
# Indices 1 2 3 4 5 6 
#
# 1 0.013397 -0.006623 -0.001782 0.001906 0.002396 0.002529
# 2 -0.006623 0.019138 -0.005027 -0.002347 -0.006426 0.000059
# 3 -0.001782 -0.005027 0.010085 -0.001390 0.002794 -0.002650
# 4 0.001906 -0.002347 -0.001390 0.038605 -0.022378 0.018566
# 5 0.002396 -0.006426 0.002794 -0.022378 0.072143 -0.014261
# 6 0.002529 0.000059 -0.002650 0.018566 -0.014261 0.054708
#
#
# Mechanical properties :
#
#
# Convention : Reuss Voigt Hill
#
# Bulk Modulus (GPa) = 63.46815 65.94222 64.70519
# Shear Modulus (GPa) = 20.81673 27.78162 24.29918
#
# Velocity S-wave (km/s) = 3.30072 3.81313 3.56614
# Velocity P-wave (km/s) = 6.90967 7.34157 7.12889
#
# Compressibility (1/GPa) = 0.01575593
#
# Stress axis : x y z
#
# Youngs Moduli (GPa) = 74.64525 52.25100 99.16171
#
# Poissons Ratio (x) = 0.34604 0.17668
# Poissons Ratio (y) = 0.49435 0.49853
# Poissons Ratio (z) = 0.13300 0.26269
#
# Static dielectric constant tensor:
#      x y z
#    x 3.426940 0.180220 -0.049350 
#    y 0.180220 3.482820 0.104180 
#    z -0.049350 0.104180 3.809600 
# 
# 
# High freq. dielectric constant tensor:
#      x y z
#    x 1.719580 0.015270 -0.013710 
#    y 0.015270 1.728490 0.002070 
#    z -0.013710 0.002070 1.758130 
# 
# From -- ./inp_files/437245.got.cif
#   From: 2010.06.25/outbox.cif.g09.slc.cpg/sg2_219_cif.got.tgz:437245.got - 2010.06.27 13:26:56.
