data_PCOD8044103
_publ_section_title
;
Structure prediction by ZEFSAII (Michael W. Deem and Ramdas Pophale) SiO2 
 PCOD8044103
Probable space group: P -1
;
_chemical_formula_sum "Si O2"
_cell_formula_units_Z 16
_cell_length_a 9.362512
_cell_length_b 13.039622
_cell_length_c 15.569272
_cell_angle_alpha 45.852084
_cell_angle_beta 145.783025
_cell_angle_gamma 131.848885
_cell_volume 747.092528
_symmetry_space_group_name_H-M "P -1"
_symmetry_group_IT_number 2
_symmetry_cell_setting 'triclinic'
loop_
_space_group_symop_operation_xyz
x,y,z
-x,-y,-z
loop_
_atom_site_type_symbol
_atom_site_label
_atom_site_fract_x
_atom_site_fract_y
_atom_site_fract_z
Si Si1 0.273527 0.097624 0.105876
Si Si2 0.482904 0.143261 0.836769
Si Si3 0.959595 0.698352 0.017720
Si Si4 0.238794 0.453955 0.341704
Si Si5 0.613624 0.981284 0.474876
Si Si6 0.061585 0.148058 0.503084
Si Si7 0.174872 0.309097 0.233232
Si Si8 0.403590 0.818353 0.953901
O O1 0.445120 0.164131 0.070400
O O2 0.407789 0.990303 0.291643
O O3 0.240426 0.239679 0.059097
O O4 0.000000 0.000000 0.000000
O O5 0.350469 0.202141 0.655250
O O6 0.792480 0.170517 0.957097
O O7 0.346271 0.971763 0.869400
O O8 0.434730 0.220737 0.859177
O O9 0.057882 0.570903 0.191409
O O10 0.803514 0.644599 0.882927
O O11 0.500000 0.500000 0.500000
O O12 0.046856 0.294344 0.359081
O O13 0.324636 0.443447 0.290006
O O14 0.699713 0.828240 0.602896
O O15 0.500000 0.000000 0.500000
O O16 0.858809 0.117082 0.499451
O O17 0.000000 0.000000 0.500000
O O18 0.876396 0.289229 0.128635
#
# Coordination Sequence:
#
# PCOD8044103 Si02
#       8
#     2   2   2   2   2   2   2   2
#     4  12  25  37  63 103 139 175 218 286 342 395
#     4  10  19  37  63  96 130 172 221 275 328 390
#     4  11  24  43  64  99 142 178 220 275 348 405
#     4  12  25  42  72 104 134 177 232 285 334 407
#     4  12  25  41  69 103 133 174 229 286 339 390
#     4  12  23  42  70  99 130 176 231 282 330 402
#     4  11  23  45  68  96 132 182 229 277 332 412
#     4  10  21  37  66  96 131 174 226 275 327 399
#
# _framework density 21.416356
#
# number of rings (size 3 to 8) (size 9 to 14) (size 15 to 20)
#    0.000    0.750    6.250    1.875    3.500    0.000 
#    0.000    2.500    2.750    1.500    0.000    0.000 
#    0.000    0.000    0.000    0.000    0.000    0.000 
#
# Total GULP energy -198221.019534 kJ/mol
# GULP energy per Si atom -12388.813721 kJ/mol
# Density = 2.136761 g / cm^3
# Si number density = 21.416356 Si / 1000 Ang^3
#
#
#
# Elastic Constant Matrix: (Units=GPa)
#
#
# Indices 1 2 3 4 5 6 
#
# 1 151.4855 32.4978 42.3813 13.0417 -16.3509 -17.8672
# 2 32.4978 69.9583 37.9091 -0.8581 -8.7417 -10.1819
# 3 42.3813 37.9091 146.6623 8.8535 -12.7195 -21.4965
# 4 13.0417 -0.8581 8.8535 42.0402 -7.2095 -11.5500
# 5 -16.3509 -8.7417 -12.7195 -7.2095 30.6894 3.5029
# 6 -17.8672 -10.1819 -21.4965 -11.5500 3.5029 27.2619
#
#
#
# Elastic Compliance Matrix: (Units=1/GPa)
#
#
# Indices 1 2 3 4 5 6 
#
# 1 0.008129 -0.002521 -0.000994 -0.001152 0.002613 0.002778
# 2 -0.002521 0.018222 -0.003426 0.003318 0.002808 0.003497
# 3 -0.000994 -0.003426 0.008838 -0.000023 0.001602 0.004823
# 4 -0.001152 0.003318 -0.000023 0.028423 0.005654 0.011781
# 5 0.002613 0.002808 0.001602 0.005654 0.036572 0.001721
# 6 0.002778 0.003497 0.004823 0.011781 0.001721 0.048381
#
#
# Mechanical properties :
#
#
# Convention : Reuss Voigt Hill
#
# Bulk Modulus (GPa) = 46.93024 65.96473 56.44748
# Shear Modulus (GPa) = 29.48981 37.01950 33.25466
#
# Velocity S-wave (km/s) = 3.71479 4.16211 3.94479
# Velocity P-wave (km/s) = 6.35298 7.34612 6.86753
#
# Compressibility (1/GPa) = 0.02130822
#
# Stress axis : x y z
#
# Youngs Moduli (GPa) = 123.01367 54.87844 113.14394
#
# Poissons Ratio (x) = 0.13834 0.11248
# Poissons Ratio (y) = 0.31009 0.38761
# Poissons Ratio (z) = 0.12229 0.18800
#
# Static dielectric constant tensor:
#      x y z
#    x 4.056440 -0.104390 -0.340940 
#    y -0.104390 3.707620 0.126990 
#    z -0.340940 0.126990 4.495160 
# 
# 
# High freq. dielectric constant tensor:
#      x y z
#    x 1.828150 -0.006690 -0.028950 
#    y -0.006690 1.826660 0.014680 
#    z -0.028950 0.014680 1.860610 
# 
# From -- ./inp_files/500121.got.cif
#   From: 2010.06.25/outbox.cif.g09.slc.cpg/sg2_251_cif.got.tgz:500121.got - 2010.06.27 13:26:56.
