data_PCOD8044670
_publ_section_title
;
Structure prediction by ZEFSAII (Michael W. Deem and Ramdas Pophale) SiO2 
 PCOD8044670
Probable space group: P -1
;
_chemical_formula_sum "Si O2"
_cell_formula_units_Z 16
_cell_length_a 7.941697
_cell_length_b 11.261630
_cell_length_c 12.218107
_cell_angle_alpha 70.373831
_cell_angle_beta 50.973367
_cell_angle_gamma 57.372241
_cell_volume 714.926818
_symmetry_space_group_name_H-M "P -1"
_symmetry_group_IT_number 2
_symmetry_cell_setting 'triclinic'
loop_
_space_group_symop_operation_xyz
x,y,z
-x,-y,-z
loop_
_atom_site_type_symbol
_atom_site_label
_atom_site_fract_x
_atom_site_fract_y
_atom_site_fract_z
Si Si1 0.202339 0.805036 0.738133
Si Si2 0.039126 0.504385 0.144215
Si Si3 0.715331 0.820703 0.903767
Si Si4 0.445074 0.124789 0.288548
Si Si5 0.887718 0.573205 0.636266
Si Si6 0.275049 0.900020 0.449823
Si Si7 0.565760 0.470225 0.150102
Si Si8 0.540631 0.724790 0.190748
O O1 0.310067 0.874860 0.763332
O O2 0.303785 0.812663 0.574996
O O3 0.285233 0.641239 0.781085
O O4 0.907374 0.884706 0.827592
O O5 0.130859 0.347139 0.112763
O O6 0.938186 0.508782 0.308737
O O7 0.818957 0.615975 0.131413
O O8 0.260986 0.546175 0.019999
O O9 0.553473 0.881542 0.842541
O O10 0.537310 0.849749 0.073298
O O11 0.196597 0.259482 0.389156
O O12 0.428351 0.986928 0.381091
O O13 0.647761 0.567543 0.782990
O O14 0.000000 0.500000 0.500000
O O15 0.388884 0.788773 0.340779
O O16 0.000000 0.000000 0.500000
O O17 0.434445 0.629485 0.202882
#
# Coordination Sequence:
#
# PCOD8044670 Si02
#       8
#     2   2   2   2   2   2   2   2
#     4  11  21  42  70  88 127 167 211 259 324 369
#     4  10  19  38  64  95 131 155 203 262 326 373
#     4  10  19  43  68  95 126 162 207 269 317 371
#     4  10  24  43  63  90 131 169 210 261 314 371
#     4  10  23  36  64  96 128 162 206 263 313 380
#     4  12  27  43  62  88 129 179 207 262 316 376
#     4  10  20  39  64  96 124 161 204 265 320 367
#     4  11  23  38  68  94 124 164 216 255 319 388
#
# _framework density 22.379913999999999
#
# number of rings (size 3 to 8) (size 9 to 14) (size 15 to 20)
#    0.000    1.500    3.750    1.500    5.250    2.000 
#    0.000    0.625    0.000    0.000    0.000    0.000 
#    0.000    0.000    0.000    0.000    0.000    0.000 
#
# Total GULP energy -198263.187766 kJ/mol
# GULP energy per Si atom -12391.449235 kJ/mol
# Density = 2.232898 g / cm^3
# Si number density = 22.379914 Si / 1000 Ang^3
#
#
#
# Elastic Constant Matrix: (Units=GPa)
#
#
# Indices 1 2 3 4 5 6 
#
# 1 85.3800 -6.8021 29.1261 -3.9762 9.3040 4.0790
# 2 -6.8021 40.2641 37.7485 -1.9035 3.5148 10.2806
# 3 29.1261 37.7485 127.7730 -12.8348 28.0186 -2.0831
# 4 -3.9762 -1.9035 -12.8348 30.5151 -0.3510 0.5114
# 5 9.3040 3.5148 28.0186 -0.3510 38.4631 -4.4213
# 6 4.0790 10.2806 -2.0831 0.5114 -4.4213 24.2621
#
#
#
# Elastic Compliance Matrix: (Units=1/GPa)
#
#
# Indices 1 2 3 4 5 6 
#
# 1 0.015331 0.010962 -0.006702 -0.000013 -0.000740 -0.007933
# 2 0.010962 0.049864 -0.018711 -0.002889 0.003653 -0.023852
# 3 -0.006702 -0.018711 0.017333 0.005006 -0.008222 0.008939
# 4 -0.000013 -0.002889 0.005006 0.034653 -0.003020 0.000375
# 5 -0.000740 0.003653 -0.008222 -0.003020 0.032244 0.003810
# 6 -0.007933 -0.023852 0.008939 0.000375 0.003810 0.054111
#
#
# Mechanical properties :
#
#
# Convention : Reuss Voigt Hill
#
# Bulk Modulus (GPa) = 18.64681 41.50691 30.07686
# Shear Modulus (GPa) = 19.97502 31.53769 25.75635
#
# Velocity S-wave (km/s) = 2.99079 3.75800 3.39613
# Velocity P-wave (km/s) = 4.50293 6.11693 5.37091
#
# Compressibility (1/GPa) = 0.05362848
#
# Stress axis : x y z
#
# Youngs Moduli (GPa) = 65.22775 20.05451 57.69210
#
# Poissons Ratio (x) = -0.21984 0.38663
# Poissons Ratio (y) = -0.71505 1.07946
# Poissons Ratio (z) = 0.43713 0.37523
#
# Static dielectric constant tensor:
#      x y z
#    x 4.102480 0.055110 0.082690 
#    y 0.055110 4.069370 -0.383230 
#    z 0.082690 -0.383230 4.189440 
# 
# 
# High freq. dielectric constant tensor:
#      x y z
#    x 1.883610 0.003920 0.010990 
#    y 0.003920 1.867660 -0.027150 
#    z 0.010990 -0.027150 1.886670 
# 
# From -- ./inp_files/187659.got.cif
#   From: 2010.06.25/outbox.cif.g09.slc.cpg/sg2_94_cif.got.tgz:187659.got - 2010.06.27 13:26:56.
