data_PCOD8044351
_publ_section_title
;
Structure prediction by ZEFSAII (Michael W. Deem and Ramdas Pophale) SiO2 
 PCOD8044351
Probable space group: P -1
;
_chemical_formula_sum "Si O2"
_cell_formula_units_Z 16
_cell_length_a 9.239916
_cell_length_b 21.036281
_cell_length_c 11.735248
_cell_angle_alpha 38.494962
_cell_angle_beta 69.714811
_cell_angle_gamma 41.656977
_cell_volume 771.816698
_symmetry_space_group_name_H-M "P -1"
_symmetry_group_IT_number 2
_symmetry_cell_setting 'triclinic'
loop_
_space_group_symop_operation_xyz
x,y,z
-x,-y,-z
loop_
_atom_site_type_symbol
_atom_site_label
_atom_site_fract_x
_atom_site_fract_y
_atom_site_fract_z
Si Si1 0.002947 0.670750 0.743814
Si Si2 0.953520 0.070483 0.036771
Si Si3 0.103964 0.829686 0.521406
Si Si4 0.306589 0.050101 0.896112
Si Si5 0.927115 0.622962 0.603245
Si Si6 0.406157 0.351094 0.229972
Si Si7 0.520172 0.132049 0.317401
Si Si8 0.564611 0.751073 0.071117
O O1 0.056144 0.561021 0.781687
O O2 0.677782 0.849820 0.603232
O O3 0.130776 0.709347 0.612857
O O4 0.152005 0.558461 0.977479
O O5 0.086465 0.932225 0.294755
O O6 0.078950 0.115708 0.940854
O O7 0.635211 0.238007 0.904060
O O8 0.000000 0.000000 0.000000
O O9 0.346071 0.715512 0.701881
O O10 0.838000 0.945740 0.504533
O O11 0.164105 0.214247 0.631829
O O12 0.500000 0.000000 0.000000
O O13 0.473706 0.878807 0.015458
O O14 0.674519 0.683060 0.597570
O O15 0.145180 0.455240 0.693630
O O16 0.478294 0.257410 0.224537
O O17 0.434354 0.187958 0.131567
#
# Coordination Sequence:
#
# PCOD8044351 Si02
#       8
#     2   2   2   2   2   2   2   2
#     4  11  20  37  60  89 121 161 198 237 292 374
#     4   9  20  40  59  83 116 153 206 252 287 353
#     4  11  22  34  60  88 119 160 197 254 307 341
#     4  11  24  41  62  89 119 150 202 262 307 344
#     4  11  21  40  66  85 118 167 199 238 304 367
#     4  11  21  37  56  91 132 149 191 255 303 349
#     4  10  19  38  58  85 119 163 203 231 291 379
#     4  10  20  40  64  85 116 159 205 240 294 374
#
# _framework density 20.730309999999999
#
# number of rings (size 3 to 8) (size 9 to 14) (size 15 to 20)
#    0.000    1.500    2.500    4.875    0.000    2.000 
#    0.000    3.750    0.000    0.000    0.000    0.000 
#    0.000    0.000    0.000    0.000    0.000    0.000 
#
# Total GULP energy -198242.966385 kJ/mol
# GULP energy per Si atom -12390.185399 kJ/mol
# Density = 2.068313 g / cm^3
# Si number density = 20.730310 Si / 1000 Ang^3
#
#
#
# Elastic Constant Matrix: (Units=GPa)
#
#
# Indices 1 2 3 4 5 6 
#
# 1 151.2815 47.8294 47.3561 -4.3754 7.4756 -23.4880
# 2 47.8294 83.1090 37.0478 -5.9088 -0.2929 -8.9902
# 3 47.3561 37.0478 83.4630 -11.8063 4.6070 -13.8045
# 4 -4.3754 -5.9088 -11.8063 24.7013 -3.1810 -2.7063
# 5 7.4756 -0.2929 4.6070 -3.1810 35.8428 5.2230
# 6 -23.4880 -8.9902 -13.8045 -2.7063 5.2230 30.7678
#
#
#
# Elastic Compliance Matrix: (Units=1/GPa)
#
#
# Indices 1 2 3 4 5 6 
#
# 1 0.009622 -0.003727 -0.002812 -0.000261 -0.002485 0.005393
# 2 -0.003727 0.016545 -0.005295 0.000927 0.001764 -0.000605
# 3 -0.002812 -0.005295 0.017917 0.007135 -0.001898 0.005294
# 4 -0.000261 0.000927 0.007135 0.045099 0.002146 0.006876
# 5 -0.002485 0.001764 -0.001898 0.002146 0.029904 -0.007121
# 6 0.005393 -0.000605 0.005294 0.006876 -0.007121 0.040631
#
#
# Mechanical properties :
#
#
# Convention : Reuss Voigt Hill
#
# Bulk Modulus (GPa) = 48.98747 64.70225 56.84486
# Shear Modulus (GPa) = 26.28921 30.63706 28.46313
#
# Velocity S-wave (km/s) = 3.56498 3.84850 3.70945
# Velocity P-wave (km/s) = 6.37398 7.14333 6.76959
#
# Compressibility (1/GPa) = 0.02041338
#
# Stress axis : x y z
#
# Youngs Moduli (GPa) = 103.93269 60.44215 55.81229
#
# Poissons Ratio (x) = 0.22530 0.15697
# Poissons Ratio (y) = 0.38741 0.29554
# Poissons Ratio (z) = 0.29230 0.32005
#
# Static dielectric constant tensor:
#      x y z
#    x 4.024430 -0.427340 -0.131920 
#    y -0.427340 4.101890 0.017460 
#    z -0.131920 0.017460 3.651820 
# 
# 
# High freq. dielectric constant tensor:
#      x y z
#    x 1.821000 -0.015490 -0.002300 
#    y -0.015490 1.803780 -0.003210 
#    z -0.002300 -0.003210 1.798640 
# 
# From -- ./inp_files/237744.got.cif
#   From: 2010.06.25/outbox.cif.g09.slc.cpg/sg2_119_cif.got.tgz:237744.got - 2010.06.27 13:26:56.
