data_PCOD8044414
_publ_section_title
;
Structure prediction by ZEFSAII (Michael W. Deem and Ramdas Pophale) SiO2 
 PCOD8044414
Probable space group: P -1
;
_chemical_formula_sum "Si O2"
_cell_formula_units_Z 14
_cell_length_a 14.881149
_cell_length_b 11.291412
_cell_length_c 10.393184
_cell_angle_alpha 64.129507
_cell_angle_beta 72.838744
_cell_angle_gamma 27.111621
_cell_volume 697.305196
_symmetry_space_group_name_H-M "P -1"
_symmetry_group_IT_number 2
_symmetry_cell_setting 'triclinic'
loop_
_space_group_symop_operation_xyz
x,y,z
-x,-y,-z
loop_
_atom_site_type_symbol
_atom_site_label
_atom_site_fract_x
_atom_site_fract_y
_atom_site_fract_z
Si Si1 0.917124 0.194779 0.832540
Si Si2 0.280941 0.656064 0.781180
Si Si3 0.525735 0.621718 0.912818
Si Si4 0.911510 0.744317 0.269719
Si Si5 0.529494 0.358424 0.444709
Si Si6 0.931642 0.724053 0.574289
Si Si7 0.172879 0.679717 0.559478
O O1 0.673787 0.472435 0.799396
O O2 0.955532 0.297028 0.812391
O O3 0.046248 0.998001 0.742157
O O4 0.000000 0.000000 0.000000
O O5 0.407815 0.636928 0.712894
O O6 0.295059 0.539300 0.709994
O O7 0.369590 0.465011 0.954936
O O8 0.318998 0.955607 0.822051
O O9 0.500000 0.500000 0.000000
O O10 0.925132 0.719071 0.427711
O O11 0.002009 0.498014 0.287194
O O12 0.500000 0.500000 0.500000
O O13 0.320153 0.533795 0.445079
O O14 0.707966 0.039509 0.566031
O O15 0.093426 0.632007 0.594715
O O16 0.000000 0.000000 0.500000
#
# Coordination Sequence:
#
# PCOD8044414 Si02
#       7
#     2   2   2   2   2   2   2
#     4  10  19  38  60  89 119 154 200 247 289 353
#     4  10  20  36  60  92 116 152 208 248 288 342
#     4  11  21  37  61  90 118 156 202 245 292 352
#     4  11  23  40  59  89 125 155 194 248 305 353
#     4  10  19  38  60  89 119 154 200 247 289 353
#     4  11  23  40  59  89 125 155 194 248 305 353
#     4  11  21  37  61  90 118 156 202 245 292 352
#
# _framework density 20.077290999999999
#
# number of rings (size 3 to 8) (size 9 to 14) (size 15 to 20)
#    0.000    1.429    7.143    0.000    0.000    5.714 
#    0.000    3.571    0.000    8.571    0.000    0.000 
#    0.000    0.000    0.000    0.000    0.000    0.000 
#
# Total GULP energy -173501.713224 kJ/mol
# GULP energy per Si atom -12392.979516 kJ/mol
# Density = 2.003159 g / cm^3
# Si number density = 20.077291 Si / 1000 Ang^3
#
#
#
# Elastic Constant Matrix: (Units=GPa)
#
#
# Indices 1 2 3 4 5 6 
#
# 1 82.3495 72.5954 36.9917 -16.8360 -16.7565 -7.7961
# 2 72.5954 133.2144 48.8783 3.4177 -31.7984 -15.6132
# 3 36.9917 48.8783 79.2780 -3.5085 -16.5599 3.5686
# 4 -16.8360 3.4177 -3.5085 35.8242 7.4247 -9.6363
# 5 -16.7565 -31.7984 -16.5599 7.4247 32.1133 0.8390
# 6 -7.7961 -15.6132 3.5686 -9.6363 0.8390 40.6822
#
#
#
# Elastic Compliance Matrix: (Units=1/GPa)
#
#
# Indices 1 2 3 4 5 6 
#
# 1 0.033378 -0.018030 -0.005461 0.019817 -0.007960 0.004814
# 2 -0.018030 0.022459 -0.003138 -0.013342 0.014246 0.001985
# 3 -0.005461 -0.003138 0.018033 -0.002557 0.004052 -0.004522
# 4 0.019817 -0.013342 -0.002557 0.043850 -0.014578 0.009589
# 5 -0.007960 0.014246 0.004052 -0.014578 0.046574 -0.000827
# 6 0.004814 0.001985 -0.004522 0.009589 -0.000827 0.028950
#
#
# Mechanical properties :
#
#
# Convention : Reuss Voigt Hill
#
# Bulk Modulus (GPa) = 48.51361 67.97474 58.24418
# Shear Modulus (GPa) = 19.73362 30.81569 25.27465
#
# Velocity S-wave (km/s) = 3.13850 3.92197 3.55190
# Velocity P-wave (km/s) = 6.11142 7.37829 6.77453
#
# Compressibility (1/GPa) = 0.02061277
#
# Stress axis : x y z
#
# Youngs Moduli (GPa) = 29.95942 44.52502 55.45281
#
# Poissons Ratio (x) = 0.80281 0.30280
# Poissons Ratio (y) = 0.54018 0.17402
# Poissons Ratio (z) = 0.16360 0.13972
#
# Static dielectric constant tensor:
#      x y z
#    x 3.823780 -0.016560 -0.049610 
#    y -0.016560 4.279120 0.427670 
#    z -0.049610 0.427670 4.219100 
# 
# 
# High freq. dielectric constant tensor:
#      x y z
#    x 1.781750 -0.018680 0.008190 
#    y -0.018680 1.784060 0.009940 
#    z 0.008190 0.009940 1.773150 
# 
# From -- ./inp_files/449742.got.cif
#   From: 2010.06.25/outbox.cif.g09.slc.cpg/sg2_225_cif.got.tgz:449742.got - 2010.06.27 13:26:56.
