data_PCOD8044713
_publ_section_title
;
Structure prediction by ZEFSAII (Michael W. Deem and Ramdas Pophale) SiO2 
 PCOD8044713
Probable space group: P -1
;
_chemical_formula_sum "Si O2"
_cell_formula_units_Z 16
_cell_length_a 9.786446
_cell_length_b 12.196391
_cell_length_c 8.993776
_cell_angle_alpha 81.525705
_cell_angle_beta 45.683630
_cell_angle_gamma 80.385461
_cell_volume 756.570194
_symmetry_space_group_name_H-M "P -1"
_symmetry_group_IT_number 2
_symmetry_cell_setting 'triclinic'
loop_
_space_group_symop_operation_xyz
x,y,z
-x,-y,-z
loop_
_atom_site_type_symbol
_atom_site_label
_atom_site_fract_x
_atom_site_fract_y
_atom_site_fract_z
Si Si1 0.663232 0.379936 0.780715
Si Si2 0.972610 0.692696 0.817835
Si Si3 0.550526 0.029185 0.789842
Si Si4 0.691044 0.791004 0.251029
Si Si5 0.759957 0.836297 0.516998
Si Si6 0.722271 0.615756 0.769475
Si Si7 0.407684 0.617523 0.495839
Si Si8 0.901044 0.165911 0.554665
O O1 0.770254 0.492779 0.689340
O O2 0.554457 0.376791 0.708514
O O3 0.821825 0.276277 0.683927
O O4 0.505852 0.368366 0.029402
O O5 0.182662 0.631209 0.707752
O O6 0.999189 0.804308 0.682315
O O7 0.848239 0.617675 0.822989
O O8 0.862868 0.718464 0.050737
O O9 0.575466 0.916132 0.696058
O O10 0.387044 0.111071 0.820401
O O11 0.744186 0.087483 0.642419
O O12 0.500000 0.000000 0.000000
O O13 0.775750 0.840642 0.326328
O O14 0.523351 0.717232 0.451841
O O15 0.761560 0.710392 0.602043
O O16 0.941642 0.892075 0.440342
O O17 0.500000 0.500000 0.500000
#
# Coordination Sequence:
#
# PCOD8044713 Si02
#       8
#     2   2   2   2   2   2   2   2
#     4  10  19  38  65  93 131 171 225 270 320 397
#     4  10  21  42  68  89 134 178 219 267 326 404
#     4  12  23  45  73  93 132 179 221 274 330 394
#     4  12  24  46  62 100 137 170 219 275 336 390
#     4  11  25  39  65  99 133 167 225 276 334 380
#     4  10  20  39  65  95 127 176 224 269 324 394
#     4  11  23  40  65  95 136 177 214 274 335 390
#     4  10  21  43  66  96 125 174 227 266 328 397
#
# _framework density 21.148071999999999
#
# number of rings (size 3 to 8) (size 9 to 14) (size 15 to 20)
#    0.000    1.250    3.750    3.750    0.000    6.000 
#    9.000    1.250    0.000    0.000    0.000    0.000 
#    0.000    0.000    0.000    0.000    0.000    0.000 
#
# Total GULP energy -198370.466655 kJ/mol
# GULP energy per Si atom -12398.154166 kJ/mol
# Density = 2.109994 g / cm^3
# Si number density = 21.148072 Si / 1000 Ang^3
#
#
#
# Elastic Constant Matrix: (Units=GPa)
#
#
# Indices 1 2 3 4 5 6 
#
# 1 99.2392 22.5100 38.6445 7.6366 5.4275 -16.1036
# 2 22.5100 93.9586 24.2814 14.0378 -0.6259 -10.3801
# 3 38.6445 24.2814 84.4279 13.4635 0.0678 -1.4910
# 4 7.6366 14.0378 13.4635 29.4324 4.8850 -0.0438
# 5 5.4275 -0.6259 0.0678 4.8850 34.1926 1.4592
# 6 -16.1036 -10.3801 -1.4910 -0.0438 1.4592 38.9812
#
#
#
# Elastic Compliance Matrix: (Units=1/GPa)
#
#
# Indices 1 2 3 4 5 6 
#
# 1 0.013563 -0.001219 -0.005783 0.000114 -0.002400 0.005147
# 2 -0.001219 0.012536 -0.002234 -0.004802 0.000998 0.002706
# 3 -0.005783 -0.002234 0.015883 -0.004979 0.001661 -0.002444
# 4 0.000114 -0.004802 -0.004979 0.039456 -0.005683 -0.001165
# 5 -0.002400 0.000998 0.001661 -0.005683 0.030531 -0.001811
# 6 0.005147 0.002706 -0.002444 -0.001165 -0.001811 0.028473
#
#
# Mechanical properties :
#
#
# Convention : Reuss Voigt Hill
#
# Bulk Modulus (GPa) = 42.53660 49.83304 46.18482
# Shear Modulus (GPa) = 29.98483 33.33390 31.65936
#
# Velocity S-wave (km/s) = 3.76952 3.97446 3.87335
# Velocity P-wave (km/s) = 6.25325 6.68407 6.47225
#
# Compressibility (1/GPa) = 0.02350917
#
# Stress axis : x y z
#
# Youngs Moduli (GPa) = 73.73168 79.77309 62.95909
#
# Poissons Ratio (x) = 0.09726 0.36407
# Poissons Ratio (y) = 0.08990 0.14068
# Poissons Ratio (z) = 0.42636 0.17824
#
# Static dielectric constant tensor:
#      x y z
#    x 3.954790 0.113540 -0.292230 
#    y 0.113540 3.811630 -0.030570 
#    z -0.292230 -0.030570 3.951880 
# 
# 
# High freq. dielectric constant tensor:
#      x y z
#    x 1.827300 0.001760 -0.010340 
#    y 0.001760 1.833040 0.006710 
#    z -0.010340 0.006710 1.824660 
# 
# From -- ./inp_files/186372.got.cif
#   From: 2010.06.25/outbox.cif.g09.slc.cpg/sg2_94_cif.got.tgz:186372.got - 2010.06.27 13:26:56.
