data_PCOD8044423
_publ_section_title
;
Structure prediction by ZEFSAII (Michael W. Deem and Ramdas Pophale) SiO2 
 PCOD8044423
Probable space group: P -1
;
_chemical_formula_sum "Si O2"
_cell_formula_units_Z 16
_cell_length_a 14.096340
_cell_length_b 11.021790
_cell_length_c 9.565539
_cell_angle_alpha 84.758734
_cell_angle_beta 86.225502
_cell_angle_gamma 147.052441
_cell_volume 776.549209
_symmetry_space_group_name_H-M "P -1"
_symmetry_group_IT_number 2
_symmetry_cell_setting 'triclinic'
loop_
_space_group_symop_operation_xyz
x,y,z
-x,-y,-z
loop_
_atom_site_type_symbol
_atom_site_label
_atom_site_fract_x
_atom_site_fract_y
_atom_site_fract_z
Si Si1 0.396514 0.022081 0.870222
Si Si2 0.219920 0.645271 0.105888
Si Si3 0.002576 0.177887 0.230193
Si Si4 0.303268 0.183251 0.918411
Si Si5 0.353610 0.931551 0.579464
Si Si6 0.295763 0.290377 0.203939
Si Si7 0.173498 0.948957 0.445343
Si Si8 0.008648 0.573326 0.343658
O O1 0.595876 0.218727 0.885475
O O2 0.316895 0.053862 0.949462
O O3 0.417235 0.068969 0.698605
O O4 0.258670 0.760703 0.946471
O O5 0.068047 0.375393 0.129580
O O6 0.165688 0.684815 0.223863
O O7 0.169213 0.269870 0.228903
O O8 0.931289 0.132236 0.395267
O O9 0.847883 0.949841 0.170973
O O10 0.495494 0.447293 0.827008
O O11 0.246273 0.174839 0.073730
O O12 0.315199 0.994571 0.461759
O O13 0.187240 0.665932 0.676682
O O14 0.500000 0.000000 0.500000
O O15 0.265615 0.168875 0.351229
O O16 0.044035 0.754859 0.354334
O O17 0.000000 0.500000 0.500000
#
# Coordination Sequence:
#
# PCOD8044423 Si02
#       8
#     2   2   2   2   2   2   2   2
#     4  11  22  40  65  96 128 173 213 272 333 386
#     4  11  22  38  68  94 132 173 211 267 340 386
#     4  12  23  45  67  97 131 169 222 269 318 389
#     4  11  24  45  67  92 132 170 221 272 318 383
#     4  11  23  39  62  99 133 163 213 271 327 393
#     4  11  26  45  67  92 132 176 218 271 318 376
#     4  11  23  43  66  93 130 173 213 264 327 383
#     4  10  19  38  60  90 129 163 204 264 324 383
#
# _framework density 20.603974000000001
#
# number of rings (size 3 to 8) (size 9 to 14) (size 15 to 20)
#    0.000    1.000    5.000    3.000    0.000    4.500 
#    2.250    0.000    0.000    0.000    0.000    0.000 
#    0.000    0.000    0.000    0.000    0.000    0.000 
#
# Total GULP energy -198347.142760 kJ/mol
# GULP energy per Si atom -12396.696423 kJ/mol
# Density = 2.055708 g / cm^3
# Si number density = 20.603974 Si / 1000 Ang^3
#
#
#
# Elastic Constant Matrix: (Units=GPa)
#
#
# Indices 1 2 3 4 5 6 
#
# 1 94.4607 32.7963 52.4956 -4.8471 -15.1899 -7.6499
# 2 32.7963 75.1048 32.0877 -5.0887 13.3072 -16.1371
# 3 52.4956 32.0877 76.9006 -6.1856 1.3637 -3.1758
# 4 -4.8471 -5.0887 -6.1856 31.5794 -6.0076 -2.5155
# 5 -15.1899 13.3072 1.3637 -6.0076 31.1685 -5.6108
# 6 -7.6499 -16.1371 -3.1758 -2.5155 -5.6108 25.9373
#
#
#
# Elastic Compliance Matrix: (Units=1/GPa)
#
#
# Indices 1 2 3 4 5 6 
#
# 1 0.023100 -0.005965 -0.013064 0.003492 0.016004 0.005303
# 2 -0.005965 0.021529 -0.004322 0.000477 -0.010208 0.008944
# 3 -0.013064 -0.004322 0.023658 0.000318 -0.006395 -0.004998
# 4 0.003492 0.000477 0.000318 0.034665 0.009382 0.006757
# 5 0.016004 -0.010208 -0.006395 0.009382 0.047925 0.008863
# 6 0.005303 0.008944 -0.004998 0.006757 0.008863 0.047644
#
#
# Mechanical properties :
#
#
# Convention : Reuss Voigt Hill
#
# Bulk Modulus (GPa) = 46.33085 53.46946 49.90016
# Shear Modulus (GPa) = 19.80853 26.34279 23.07566
#
# Velocity S-wave (km/s) = 3.10400 3.57953 3.35021
# Velocity P-wave (km/s) = 5.94824 6.56441 6.26391
#
# Compressibility (1/GPa) = 0.02158389
#
# Stress axis : x y z
#
# Youngs Moduli (GPa) = 43.29065 46.44906 42.26964
#
# Poissons Ratio (x) = 0.27709 0.55219
# Poissons Ratio (y) = 0.25824 0.18270
# Poissons Ratio (z) = 0.56553 0.20076
#
# Static dielectric constant tensor:
#      x y z
#    x 3.800650 -0.219510 -0.074120 
#    y -0.219510 4.625410 -0.021060 
#    z -0.074120 -0.021060 3.724540 
# 
# 
# High freq. dielectric constant tensor:
#      x y z
#    x 1.807310 -0.001520 -0.012220 
#    y -0.001520 1.811170 0.000820 
#    z -0.012220 0.000820 1.808280 
# 
# From -- ./inp_files/297485.got.cif
#   From: 2010.06.25/outbox.cif.g09.slc.cpg/sg2_149_cif.got.tgz:297485.got - 2010.06.27 13:26:56.
