data_PCOD8044513
_publ_section_title
;
Structure prediction by ZEFSAII (Michael W. Deem and Ramdas Pophale) SiO2 
 PCOD8044513
Probable space group: P -1
;
_chemical_formula_sum "Si O2"
_cell_formula_units_Z 16
_cell_length_a 20.709369
_cell_length_b 24.943147
_cell_length_c 8.810338
_cell_angle_alpha 134.454863
_cell_angle_beta 147.561368
_cell_angle_gamma 20.889190
_cell_volume 772.469328
_symmetry_space_group_name_H-M "P -1"
_symmetry_group_IT_number 2
_symmetry_cell_setting 'triclinic'
loop_
_space_group_symop_operation_xyz
x,y,z
-x,-y,-z
loop_
_atom_site_type_symbol
_atom_site_label
_atom_site_fract_x
_atom_site_fract_y
_atom_site_fract_z
Si Si1 0.109361 0.869976 0.175766
Si Si2 0.598859 0.822976 0.225146
Si Si3 0.254521 0.690115 0.833825
Si Si4 0.038381 0.138916 0.870004
Si Si5 0.041324 0.293365 0.072550
Si Si6 0.589926 0.659530 0.900688
Si Si7 0.269551 0.794172 0.814633
Si Si8 0.684825 0.931242 0.098208
O O1 0.343079 0.789576 0.553256
O O2 0.056827 0.822471 0.071279
O O3 0.190240 0.796104 0.025361
O O4 0.842053 0.072541 0.045679
O O5 0.832959 0.746265 0.599530
O O6 0.709180 0.676396 0.153831
O O7 0.361276 0.965951 0.160908
O O8 0.494114 0.903174 0.007750
O O9 0.360200 0.673440 0.859684
O O10 0.975129 0.799920 0.473138
O O11 0.500000 0.500000 0.000000
O O12 0.967023 0.104699 0.563847
O O13 0.903790 0.289915 0.834712
O O14 0.256141 0.163689 0.103645
O O15 0.813272 0.476393 0.922256
O O16 0.516883 0.682925 0.978155
O O17 0.500000 0.000000 0.000000
#
# Coordination Sequence:
#
# PCOD8044513 Si02
#       8
#     2   2   2   2   2   2   2   2
#     4  11  22  37  66  87 127 165 202 252 318 373
#     4  11  21  42  64  90 122 162 213 252 304 385
#     4  12  26  40  61  97 133 161 212 262 313 372
#     4  10  19  38  62  89 113 158 216 246 301 364
#     4  11  24  38  64  95 124 160 212 265 309 359
#     4  11  22  40  65  95 128 153 207 271 318 358
#     4  11  21  41  63  89 124 167 201 260 313 376
#     4  11  25  44  64  89 130 172 210 251 312 386
#
# _framework density 20.712796000000001
#
# number of rings (size 3 to 8) (size 9 to 14) (size 15 to 20)
#    0.000    1.000    5.000    3.750    5.250    1.000 
#    0.000    0.625    0.000    0.000    0.000    0.000 
#    0.000    0.000    0.000    0.000    0.000    0.000 
#
# Total GULP energy -198347.902491 kJ/mol
# GULP energy per Si atom -12396.743906 kJ/mol
# Density = 2.066565 g / cm^3
# Si number density = 20.712796 Si / 1000 Ang^3
#
#
#
# Elastic Constant Matrix: (Units=GPa)
#
#
# Indices 1 2 3 4 5 6 
#
# 1 116.7784 35.6240 34.2169 2.3493 9.4815 11.9980
# 2 35.6240 119.7408 24.8162 11.9736 7.7170 19.9965
# 3 34.2169 24.8162 75.3184 8.2712 -1.5029 6.4948
# 4 2.3493 11.9736 8.2712 29.6505 5.2331 -1.5072
# 5 9.4815 7.7170 -1.5029 5.2331 22.7943 2.0353
# 6 11.9980 19.9965 6.4948 -1.5072 2.0353 25.8921
#
#
#
# Elastic Compliance Matrix: (Units=1/GPa)
#
#
# Indices 1 2 3 4 5 6 
#
# 1 0.010990 -0.001894 -0.004482 0.001828 -0.004463 -0.002049
# 2 -0.001894 0.010975 -0.001729 -0.003905 -0.001496 -0.007274
# 3 -0.004482 -0.001729 0.016586 -0.004472 0.004693 -0.001377
# 4 0.001828 -0.003905 -0.004472 0.038327 -0.009089 0.006236
# 5 -0.004463 -0.001496 0.004693 -0.009089 0.048837 -0.002322
# 6 -0.002049 -0.007274 -0.001377 0.006236 -0.002322 0.046080
#
#
# Mechanical properties :
#
#
# Convention : Reuss Voigt Hill
#
# Bulk Modulus (GPa) = 44.76042 55.68353 50.22197
# Shear Modulus (GPa) = 25.58163 30.14607 27.86385
#
# Velocity S-wave (km/s) = 3.51816 3.81915 3.67174
# Velocity P-wave (km/s) = 6.17740 6.81101 6.50193
#
# Compressibility (1/GPa) = 0.02234117
#
# Stress axis : x y z
#
# Youngs Moduli (GPa) = 90.98988 91.11666 60.29046
#
# Poissons Ratio (x) = 0.17256 0.27022
# Poissons Ratio (y) = 0.17232 0.10427
# Poissons Ratio (z) = 0.40781 0.15758
#
# Static dielectric constant tensor:
#      x y z
#    x 3.825410 0.089120 0.032240 
#    y 0.089120 3.726230 0.171050 
#    z 0.032240 0.171050 3.730550 
# 
# 
# High freq. dielectric constant tensor:
#      x y z
#    x 1.804900 0.012820 0.000490 
#    y 0.012820 1.811860 0.011230 
#    z 0.000490 0.011230 1.799930 
# 
# From -- ./inp_files/185090.got.cif
#   From: 2010.06.25/outbox.cif.g09.slc.cpg/sg2_93_cif.got.tgz:185090.got - 2010.06.27 13:26:56.
