data_PCOD8044107
_publ_section_title
;
Structure prediction by ZEFSAII (Michael W. Deem and Ramdas Pophale) SiO2 
 PCOD8044107
Probable space group: P -1
;
_chemical_formula_sum "Si O2"
_cell_formula_units_Z 16
_cell_length_a 10.997016
_cell_length_b 14.016660
_cell_length_c 7.810787
_cell_angle_alpha 129.462098
_cell_angle_beta 123.557952
_cell_angle_gamma 52.368349
_cell_volume 708.917847
_symmetry_space_group_name_H-M "P -1"
_symmetry_group_IT_number 2
_symmetry_cell_setting 'triclinic'
loop_
_space_group_symop_operation_xyz
x,y,z
-x,-y,-z
loop_
_atom_site_type_symbol
_atom_site_label
_atom_site_fract_x
_atom_site_fract_y
_atom_site_fract_z
Si Si1 0.948090 0.121419 0.298171
Si Si2 0.794938 0.495289 0.801192
Si Si3 0.365621 0.686996 0.602537
Si Si4 0.280613 0.088640 0.659076
Si Si5 0.929377 0.184120 0.984395
Si Si6 0.602079 0.219647 0.614590
Si Si7 0.576047 0.712470 0.102495
Si Si8 0.088658 0.304214 0.003050
O O1 0.816305 0.198714 0.426094
O O2 0.125010 0.111014 0.453102
O O3 0.884305 0.210868 0.178555
O O4 0.950437 0.972494 0.118050
O O5 0.652198 0.457464 0.572955
O O6 0.952021 0.363358 0.817514
O O7 0.736104 0.582027 0.030593
O O8 0.832114 0.587063 0.790807
O O9 0.457972 0.697728 0.514485
O O10 0.444019 0.717566 0.866590
O O11 0.390390 0.152818 0.725177
O O12 0.221181 0.161063 0.878432
O O13 0.388595 0.930358 0.581137
O O14 0.773281 0.218775 0.789230
O O15 0.018519 0.277894 0.096557
O O16 0.480264 0.297231 0.760006
#
# Coordination Sequence:
#
# PCOD8044107 Si02
#       8
#     2   2   2   2   2   2   2   2
#     4  10  20  36  66  93 125 153 199 260 311 358
#     4  10  22  39  63  84 123 167 205 256 292 352
#     4  12  22  41  65  89 121 167 207 249 307 360
#     4  10  21  41  63  90 125 157 197 260 310 359
#     4  10  19  37  63  98 120 155 203 257 308 367
#     4  11  22  39  65  93 122 162 201 247 317 373
#     4  11  25  42  59  88 130 164 202 253 298 368
#     4  10  19  39  65  88 119 159 209 252 305 353
#
# _framework density 22.569607999999999
#
# number of rings (size 3 to 8) (size 9 to 14) (size 15 to 20)
#    0.000    1.500    3.750    1.500    0.000    3.000 
#    4.500    0.625    2.750    0.000    0.000    0.000 
#    0.000    0.000    0.000    0.000    0.000    0.000 
#
# Total GULP energy -198363.714800 kJ/mol
# GULP energy per Si atom -12397.732175 kJ/mol
# Density = 2.251824 g / cm^3
# Si number density = 22.569608 Si / 1000 Ang^3
#
#
#
# Elastic Constant Matrix: (Units=GPa)
#
#
# Indices 1 2 3 4 5 6 
#
# 1 145.8969 35.3428 37.6918 12.9365 1.4844 28.2226
# 2 35.3428 47.8478 20.5096 16.0453 5.6876 18.3892
# 3 37.6918 20.5096 76.9646 9.2423 21.1776 18.1887
# 4 12.9365 16.0453 9.2423 27.6810 2.3983 0.2008
# 5 1.4844 5.6876 21.1776 2.3983 32.4990 5.6397
# 6 28.2226 18.3892 18.1887 0.2008 5.6397 33.7035
#
#
#
# Elastic Compliance Matrix: (Units=1/GPa)
#
#
# Indices 1 2 3 4 5 6 
#
# 1 0.009647 -0.003767 -0.003332 -0.001466 0.003326 -0.004772
# 2 -0.003767 0.036937 -0.001714 -0.018873 -0.001043 -0.015787
# 3 -0.003332 -0.001714 0.019746 -0.003025 -0.011321 -0.005019
# 4 -0.001466 -0.018873 -0.003025 0.048710 -0.000501 0.012951
# 5 0.003326 -0.001043 -0.011321 -0.000501 0.038661 -0.002573
# 6 -0.004772 -0.015787 -0.005019 0.012951 -0.002573 0.045342
#
#
# Mechanical properties :
#
#
# Convention : Reuss Voigt Hill
#
# Bulk Modulus (GPa) = 20.53228 50.86642 35.69935
# Shear Modulus (GPa) = 21.46814 30.58771 26.02793
#
# Velocity S-wave (km/s) = 3.08749 3.68538 3.39961
# Velocity P-wave (km/s) = 4.67196 6.37933 5.59120
#
# Compressibility (1/GPa) = 0.04870379
#
# Stress axis : x y z
#
# Youngs Moduli (GPa) = 103.66141 27.07313 50.64390
#
# Poissons Ratio (x) = 0.10199 0.16874
# Poissons Ratio (y) = 0.39050 0.08680
# Poissons Ratio (z) = 0.34538 0.04640
#
# Static dielectric constant tensor:
#      x y z
#    x 4.173640 -0.038930 0.130350 
#    y -0.038930 3.907520 0.303570 
#    z 0.130350 0.303570 3.925300 
# 
# 
# High freq. dielectric constant tensor:
#      x y z
#    x 1.900200 -0.003690 0.011920 
#    y -0.003690 1.878120 0.019620 
#    z 0.011920 0.019620 1.875440 
# 
# From -- ./inp_files/202066.got.cif
#   From: 2010.06.25/outbox.cif.g09.slc.cpg/sg2_102_cif.got.tgz:202066.got - 2010.06.27 13:26:56.
