data_PCOD8044173
_publ_section_title
;
Structure prediction by ZEFSAII (Michael W. Deem and Ramdas Pophale) SiO2 
 PCOD8044173
Probable space group: P -1
;
_chemical_formula_sum "Si O2"
_cell_formula_units_Z 16
_cell_length_a 9.172048
_cell_length_b 18.549516
_cell_length_c 8.729307
_cell_angle_alpha 52.866646
_cell_angle_beta 117.614665
_cell_angle_gamma 80.740036
_cell_volume 819.921315
_symmetry_space_group_name_H-M "P -1"
_symmetry_group_IT_number 2
_symmetry_cell_setting 'triclinic'
loop_
_space_group_symop_operation_xyz
x,y,z
-x,-y,-z
loop_
_atom_site_type_symbol
_atom_site_label
_atom_site_fract_x
_atom_site_fract_y
_atom_site_fract_z
Si Si1 0.124627 0.315944 0.892202
Si Si2 0.568880 0.917407 0.497055
Si Si3 0.214054 0.950333 0.087498
Si Si4 0.348714 0.554127 0.497717
Si Si5 0.289353 0.448634 0.876480
Si Si6 0.736099 0.917456 0.275970
Si Si7 0.006434 0.290449 0.547782
Si Si8 0.652183 0.287880 0.492687
O O1 0.140218 0.418576 0.786177
O O2 0.150729 0.274119 0.781859
O O3 0.895287 0.362957 0.779637
O O4 0.308937 0.211677 0.217750
O O5 0.354073 0.965012 0.246678
O O6 0.729718 0.913652 0.462868
O O7 0.500000 0.000000 0.500000
O O8 0.334198 0.815274 0.290907
O O9 0.164411 0.021790 0.813480
O O10 0.000000 0.000000 0.000000
O O11 0.500000 0.500000 0.500000
O O12 0.388979 0.459569 0.759051
O O13 0.416977 0.624163 0.517581
O O14 0.151920 0.571634 0.743907
O O15 0.477128 0.346945 0.200258
O O16 0.852243 0.788367 0.427007
O O17 0.500000 0.000000 0.000000
O O18 0.874511 0.246149 0.586100
#
# Coordination Sequence:
#
# PCOD8044173 Si02
#       8
#     2   2   2   2   2   2   2   2
#     4  10  20  39  60  88 119 158 199 247 297 355
#     4  11  24  41  62  88 122 157 201 252 305 355
#     4  11  21  41  65  87 119 155 207 246 301 359
#     4  10  22  39  57  87 127 158 192 243 301 359
#     4  10  20  39  62  90 115 160 203 242 301 353
#     4  10  22  39  60  87 116 160 200 241 302 357
#     4  10  19  37  65  83 122 161 191 244 306 358
#     4  10  20  38  64  87 119 159 196 246 298 360
#
# _framework density 19.514068000000002
#
# number of rings (size 3 to 8) (size 9 to 14) (size 15 to 20)
#    0.000    2.000    2.500    4.500    1.750    2.000 
#   11.250    1.875    0.000    0.000    0.000    0.000 
#    0.000    0.000    0.000    0.000    0.000    0.000 
#
# Total GULP energy -198286.334424 kJ/mol
# GULP energy per Si atom -12392.895901 kJ/mol
# Density = 1.946965 g / cm^3
# Si number density = 19.514068 Si / 1000 Ang^3
#
#
#
# Elastic Constant Matrix: (Units=GPa)
#
#
# Indices 1 2 3 4 5 6 
#
# 1 108.4753 70.1737 37.1895 -2.5247 -12.0911 -15.3518
# 2 70.1737 113.0446 40.5491 -0.7722 -17.2261 -9.0508
# 3 37.1895 40.5491 77.6921 -8.2495 -11.1315 -0.8762
# 4 -2.5247 -0.7722 -8.2495 27.2299 10.5384 0.3068
# 5 -12.0911 -17.2261 -11.1315 10.5384 26.7497 -0.7826
# 6 -15.3518 -9.0508 -0.8762 0.3068 -0.7826 44.1718
#
#
#
# Elastic Compliance Matrix: (Units=1/GPa)
#
#
# Indices 1 2 3 4 5 6 
#
# 1 0.016612 -0.008731 -0.003257 0.000014 0.000640 0.003931
# 2 -0.008731 0.016764 -0.004031 -0.004209 0.006843 0.000471
# 3 -0.003257 -0.004031 0.017163 0.004283 0.001339 -0.001624
# 4 0.000014 -0.004209 0.004283 0.045182 -0.018763 -0.001419
# 5 0.000640 0.006843 0.001339 -0.018763 0.050107 0.002669
# 6 0.003931 0.000471 -0.001624 -0.001419 0.002669 0.024126
#
#
# Mechanical properties :
#
#
# Convention : Reuss Voigt Hill
#
# Bulk Modulus (GPa) = 54.05593 66.11515 60.08554
# Shear Modulus (GPa) = 24.02016 29.71694 26.86855
#
# Velocity S-wave (km/s) = 3.51225 3.90660 3.71466
# Velocity P-wave (km/s) = 6.64898 7.36906 7.01826
#
# Compressibility (1/GPa) = 0.01849936
#
# Stress axis : x y z
#
# Youngs Moduli (GPa) = 60.19884 59.65251 58.26602
#
# Poissons Ratio (x) = 0.52084 0.18978
# Poissons Ratio (y) = 0.52561 0.23487
# Poissons Ratio (z) = 0.19608 0.24046
#
# Static dielectric constant tensor:
#      x y z
#    x 3.619260 -0.020480 -0.099000 
#    y -0.020480 3.535550 -0.017000 
#    z -0.099000 -0.017000 3.660240 
# 
# 
# High freq. dielectric constant tensor:
#      x y z
#    x 1.749740 0.008430 0.001750 
#    y 0.008430 1.757520 -0.012760 
#    z 0.001750 -0.012760 1.766330 
# 
# From -- ./inp_files/215173.got.cif
#   From: 2010.06.25/outbox.cif.g09.slc.cpg/sg2_108_cif.got.tgz:215173.got - 2010.06.27 13:26:56.
