data_PCOD8044855
_publ_section_title
;
Structure prediction by ZEFSAII (Michael W. Deem and Ramdas Pophale) SiO2 
 PCOD8044855
Probable space group: P 2
;
_chemical_formula_sum "Si O2"
_cell_formula_units_Z 16
_cell_length_a 9.166916
_cell_length_b 12.017854
_cell_length_c 9.179347
_cell_angle_alpha 90.000000
_cell_angle_beta 122.876590
_cell_angle_gamma 90.000000
_cell_volume 849.296649
_symmetry_space_group_name_H-M "P 2"
_symmetry_group_IT_number 3
_symmetry_cell_setting 'monoclinic'
loop_
_space_group_symop_operation_xyz
x,y,z
-x,y,-z
loop_
_atom_site_type_symbol
_atom_site_label
_atom_site_fract_x
_atom_site_fract_y
_atom_site_fract_z
Si Si1 0.813324 0.695770 0.471617
Si Si2 0.687932 0.851957 0.174236
Si Si3 0.684790 0.296320 0.025053
Si Si4 0.461053 0.255908 0.649499
Si Si5 0.180162 0.446820 0.514406
Si Si6 0.667958 0.097842 0.189436
Si Si7 0.028043 0.727186 0.851517
Si Si8 0.957466 0.473304 0.135529
O O1 0.681801 0.780540 0.321046
O O2 0.745880 0.569898 0.406683
O O3 0.846476 0.727846 0.660086
O O4 0.000000 0.707827 0.500000
O O5 0.826367 0.805472 0.136217
O O6 0.754496 0.976740 0.251390
O O7 0.500000 0.848267 0.000000
O O8 0.645292 0.277574 0.831532
O O9 0.500000 0.315850 0.000000
O O10 0.778486 0.189897 0.155939
O O11 0.799190 0.404103 0.117759
O O12 0.500000 0.240753 0.500000
O O13 0.330043 0.356749 0.617129
O O14 0.376112 0.143981 0.672050
O O15 0.000000 0.418994 0.500000
O O16 0.133333 0.451750 0.318833
O O17 0.500000 0.079084 0.000000
O O18 0.101267 0.601370 0.893838
O O19 0.000000 0.770520 0.000000
O O20 0.000000 0.427914 0.000000
#
# Coordination Sequence:
#
# PCOD8044855 Si02
#       8
#     2   2   2   2   2   2   2   2
#     4   8  17  33  51  73 105 137 162 198 252 302
#     4  10  19  35  56  73  94 132 179 212 239 291
#     4   9  18  33  51  71 100 133 165 198 239 295
#     4  10  19  32  52  75 100 128 161 203 248 291
#     4  10  18  31  50  75 104 130 160 199 243 295
#     4   8  18  35  51  69  98 132 165 204 249 288
#     4   9  19  35  53  74 104 135 160 201 260 301
#     4  10  19  32  50  74 105 133 157 195 250 301
#
# _framework density 18.839120000000001
#
# number of rings (size 3 to 8) (size 9 to 14) (size 15 to 20)
#    0.000    3.000    0.000    3.000    0.000    1.500 
#    0.000   11.250    0.000    0.000    0.000    0.000 
#    0.000    0.000    0.000    0.000    0.000    0.000 
#
# Total GULP energy -198215.728515 kJ/mol
# GULP energy per Si atom -12388.483032 kJ/mol
# Density = 1.879624 g / cm^3
# Si number density = 18.839120 Si / 1000 Ang^3
#
#
#
# Elastic Constant Matrix: (Units=GPa)
#
#
# Indices 1 2 3 4 5 6 
#
# 1 49.6237 52.1054 29.5544 0.0000 -11.4142 0.0000
# 2 52.1054 146.6875 51.3452 0.0000 -2.5422 0.0000
# 3 29.5544 51.3452 104.9449 0.0000 -22.4348 0.0000
# 4 0.0000 0.0000 0.0000 15.7436 0.0000 -2.1333
# 5 -11.4142 -2.5422 -22.4348 0.0000 28.2979 0.0000
# 6 0.0000 0.0000 0.0000 -2.1333 0.0000 4.7015
#
#
#
# Elastic Compliance Matrix: (Units=1/GPa)
#
#
# Indices 1 2 3 4 5 6 
#
# 1 0.036968 -0.012311 -0.001730 0.000000 0.012434 0.000000
# 2 -0.012311 0.012536 -0.004199 0.000000 -0.007168 0.000000
# 3 -0.001730 -0.004199 0.014257 0.000000 0.010228 0.000000
# 4 0.000000 0.000000 0.000000 0.067679 0.000000 0.030710
# 5 0.012434 -0.007168 0.010228 0.000000 0.047819 0.000000
# 6 0.000000 0.000000 0.000000 0.030710 0.000000 0.226634
#
#
# Mechanical properties :
#
#
# Convention : Reuss Voigt Hill
#
# Bulk Modulus (GPa) = 36.65359 63.02957 49.84158
# Shear Modulus (GPa) = 11.07508 20.96533 16.02020
#
# Velocity S-wave (km/s) = 2.42725 3.33958 2.91927
# Velocity P-wave (km/s) = 5.23008 6.95699 6.15441
#
# Compressibility (1/GPa) = 0.02728246
#
# Stress axis : x y z
#
# Youngs Moduli (GPa) = 27.05024 79.77313 70.14304
#
# Poissons Ratio (x) = 0.98206 0.12132
# Poissons Ratio (y) = 0.33301 0.29450
# Poissons Ratio (z) = 0.04679 0.33493
#
# Static dielectric constant tensor:
#      x y z
#    x 3.025940 0.000000 -0.279220 
#    y 0.000000 3.881160 0.000000 
#    z -0.279220 0.000000 4.014600 
# 
# 
# High freq. dielectric constant tensor:
#      x y z
#    x 1.686600 0.000000 -0.018860 
#    y 0.000000 1.732590 0.000000 
#    z -0.018860 0.000000 1.748020 
# 
# From -- ./inp_files/6030.got.cif
#   From: 2010.03.12/outbox.cif.g09.slc.cpg/sg3_4_cif.got.tgz:6030.got - 2010.03.31 09:20:49.
