data_PCOD8044697
_publ_section_title
;
Structure prediction by ZEFSAII (Michael W. Deem and Ramdas Pophale) SiO2 
 PCOD8044697
Probable space group: P -1
;
_chemical_formula_sum "Si O2"
_cell_formula_units_Z 16
_cell_length_a 13.163157
_cell_length_b 10.408448
_cell_length_c 13.330828
_cell_angle_alpha 111.657732
_cell_angle_beta 28.679907
_cell_angle_gamma 92.033579
_cell_volume 621.611469
_symmetry_space_group_name_H-M "P -1"
_symmetry_group_IT_number 2
_symmetry_cell_setting 'triclinic'
loop_
_space_group_symop_operation_xyz
x,y,z
-x,-y,-z
loop_
_atom_site_type_symbol
_atom_site_label
_atom_site_fract_x
_atom_site_fract_y
_atom_site_fract_z
Si Si1 0.212953 0.745865 0.025486
Si Si2 0.081642 0.120287 0.477868
Si Si3 0.194107 0.984943 0.709298
Si Si4 0.297461 0.086440 0.839607
Si Si5 0.110536 0.435508 0.186693
Si Si6 0.785633 0.434785 0.689317
Si Si7 0.424132 0.165474 0.290975
Si Si8 0.383456 0.627824 0.373139
O O1 0.334090 0.846999 0.972110
O O2 0.448987 0.530969 0.733478
O O3 0.079448 0.753187 0.247611
O O4 0.004915 0.842296 0.140595
O O5 0.012365 0.227574 0.467336
O O6 0.394244 0.034462 0.214126
O O7 0.000000 0.000000 0.500000
O O8 0.510313 0.893842 0.387443
O O9 0.163134 0.830829 0.671359
O O10 0.131896 0.051825 0.898423
O O11 0.487729 0.909887 0.694490
O O12 0.088639 0.279394 0.135783
O O13 0.125974 0.455424 0.302074
O O14 0.856826 0.623021 0.407671
O O15 0.407206 0.367338 0.872077
O O16 0.762949 0.432630 0.587030
O O17 0.500000 0.500000 0.000000
#
# Coordination Sequence:
#
# PCOD8044697 Si02
#       8
#     2   2   2   2   2   2   2   2
#     4  12  23  40  64  92 131 164 210 264 315 381
#     4  11  22  40  64  89 130 168 211 261 309 378
#     4  10  22  39  64  97 118 171 219 260 322 374
#     4  10  21  40  66  89 129 165 215 268 315 381
#     4   9  19  38  61  89 122 166 209 258 317 371
#     4   9  16  32  61  87 112 162 203 243 315 364
#     4  11  24  40  62  95 127 167 209 258 324 378
#     4  10  19  38  65  89 125 168 210 260 316 378
#
# _framework density 25.739553000000001
#
# number of rings (size 3 to 8) (size 9 to 14) (size 15 to 20)
#    0.000    1.750    5.000    0.750    3.500    3.000 
#    0.000    7.500    0.000    0.000    0.000    0.000 
#    0.000    0.000    0.000    0.000    0.000    0.000 
#
# Total GULP energy -198238.077968 kJ/mol
# GULP energy per Si atom -12389.879873 kJ/mol
# Density = 2.568097 g / cm^3
# Si number density = 25.739553 Si / 1000 Ang^3
#
#
#
# Elastic Constant Matrix: (Units=GPa)
#
#
# Indices 1 2 3 4 5 6 
#
# 1 182.0097 78.4000 59.2951 38.5526 -14.9328 19.5088
# 2 78.4000 125.4941 19.2496 30.0494 -10.2713 35.6785
# 3 59.2951 19.2496 55.3756 28.5959 -1.5816 2.0902
# 4 38.5526 30.0494 28.5959 44.4257 0.9069 -11.8127
# 5 -14.9328 -10.2713 -1.5816 0.9069 31.7825 2.4198
# 6 19.5088 35.6785 2.0902 -11.8127 2.4198 46.8204
#
#
#
# Elastic Compliance Matrix: (Units=1/GPa)
#
#
# Indices 1 2 3 4 5 6 
#
# 1 0.011366 -0.005095 -0.010276 -0.000019 0.003226 -0.000566
# 2 -0.005095 0.021430 0.010678 -0.022618 0.007290 -0.020768
# 3 -0.010276 0.010678 0.040136 -0.027572 0.002376 -0.012726
# 4 -0.000019 -0.022618 -0.027572 0.065321 -0.013268 0.035641
# 5 0.003226 0.007290 0.002376 -0.013268 0.036765 -0.012253
# 6 -0.000566 -0.020768 -0.012726 0.035641 -0.012253 0.047614
#
#
# Mechanical properties :
#
#
# Convention : Reuss Voigt Hill
#
# Bulk Modulus (GPa) = 15.73629 75.19653 45.46641
# Shear Modulus (GPa) = 19.74726 38.33472 29.04099
#
# Velocity S-wave (km/s) = 2.77283 3.86337 3.36261
# Velocity P-wave (km/s) = 4.04702 7.01275 5.72525
#
# Compressibility (1/GPa) = 0.06354738
#
# Stress axis : x y z
#
# Youngs Moduli (GPa) = 87.98266 46.66276 24.91510
#
# Poissons Ratio (x) = 0.23773 0.25602
# Poissons Ratio (y) = 0.44824 -0.26604
# Poissons Ratio (z) = 0.90409 -0.49826
#
# Static dielectric constant tensor:
#      x y z
#    x 4.811830 0.348160 -0.106430 
#    y 0.348160 4.892400 -0.217280 
#    z -0.106430 -0.217280 4.748010 
# 
# 
# High freq. dielectric constant tensor:
#      x y z
#    x 2.015980 0.011680 -0.010430 
#    y 0.011680 2.053270 -0.033180 
#    z -0.010430 -0.033180 2.040070 
# 
# From -- ./inp_files/519802.got.cif
#   From: 2010.06.25/outbox.cif.g09.slc.cpg/sg2_260_cif.got.tgz:519802.got - 2010.06.27 13:26:56.
