data_PCOD8044124
_publ_section_title
;
Structure prediction by ZEFSAII (Michael W. Deem and Ramdas Pophale) SiO2 
 PCOD8044124
Probable space group: P -1
;
_chemical_formula_sum "Si O2"
_cell_formula_units_Z 16
_cell_length_a 21.384551
_cell_length_b 9.120866
_cell_length_c 22.236295
_cell_angle_alpha 143.692532
_cell_angle_beta 17.772008
_cell_angle_gamma 141.549856
_cell_volume 780.868748
_symmetry_space_group_name_H-M "P -1"
_symmetry_group_IT_number 2
_symmetry_cell_setting 'triclinic'
loop_
_space_group_symop_operation_xyz
x,y,z
-x,-y,-z
loop_
_atom_site_type_symbol
_atom_site_label
_atom_site_fract_x
_atom_site_fract_y
_atom_site_fract_z
Si Si1 0.957313 0.482973 0.298444
Si Si2 0.782420 0.871357 0.907822
Si Si3 0.976247 0.581432 0.449877
Si Si4 0.647734 0.179980 0.652846
Si Si5 0.005559 0.216688 0.916804
Si Si6 0.626137 0.068368 0.499582
Si Si7 0.824302 0.943959 0.094337
Si Si8 0.974584 0.956554 0.359932
O O1 0.745313 0.310508 0.440964
O O2 0.936254 0.682524 0.331420
O O3 0.997587 0.613464 0.369041
O O4 0.144272 0.317256 0.054662
O O5 0.855003 0.597290 0.741676
O O6 0.548095 0.832533 0.128854
O O7 0.936354 0.024611 0.863803
O O8 0.809223 0.011671 0.864875
O O9 0.755409 0.459286 0.636216
O O10 0.025198 0.851106 0.521982
O O11 0.578171 0.082674 0.619078
O O12 0.799894 0.000556 0.485543
O O13 0.234671 0.163303 0.712350
O O14 0.000000 0.500000 0.000000
O O15 0.845882 0.168389 0.101225
O O16 0.401805 0.045903 0.665593
O O17 0.000000 0.000000 0.000000
#
# Coordination Sequence:
#
# PCOD8044124 Si02
#       8
#     2   2   2   2   2   2   2   2
#     4  10  22  41  60  89 129 159 202 252 301 356
#     4  11  20  40  60  88 125 155 202 253 301 364
#     4  10  20  40  62  85 123 166 203 247 305 358
#     4  10  19  37  64  87 119 164 200 247 310 354
#     4  11  23  40  64  94 120 156 200 255 305 360
#     4  10  20  44  64  86 123 167 196 245 310 360
#     4  11  24  42  65  89 121 165 203 245 305 369
#     4  11  23  35  61  96 121 159 205 254 296 360
#
# _framework density 20.489998
#
# number of rings (size 3 to 8) (size 9 to 14) (size 15 to 20)
#    0.000    1.500    6.250    1.875    1.750    5.500 
#    2.250    0.000    0.000    6.000    0.000    0.000 
#    0.000    0.000    0.000    0.000    0.000    0.000 
#
# Total GULP energy -198309.988460 kJ/mol
# GULP energy per Si atom -12394.374279 kJ/mol
# Density = 2.044336 g / cm^3
# Si number density = 20.489998 Si / 1000 Ang^3
#
#
#
# Elastic Constant Matrix: (Units=GPa)
#
#
# Indices 1 2 3 4 5 6 
#
# 1 50.0991 25.5920 10.2558 -5.9719 -1.5454 -19.3216
# 2 25.5920 103.5263 42.4178 2.4819 -4.8860 -29.3863
# 3 10.2558 42.4178 125.4878 -21.7361 -3.6590 -6.8526
# 4 -5.9719 2.4819 -21.7361 23.2831 -1.1857 4.9280
# 5 -1.5454 -4.8860 -3.6590 -1.1857 31.7845 -6.6537
# 6 -19.3216 -29.3863 -6.8526 4.9280 -6.6537 35.1777
#
#
#
# Elastic Compliance Matrix: (Units=1/GPa)
#
#
# Indices 1 2 3 4 5 6 
#
# 1 0.026995 -0.003576 0.000734 0.005660 0.003541 0.011859
# 2 -0.003576 0.017898 -0.006955 -0.012092 0.004285 0.014137
# 3 0.000734 -0.006955 0.012319 0.013465 -0.000143 -0.004921
# 4 0.005660 -0.012092 0.013465 0.060988 -0.000481 -0.013004
# 5 0.003541 0.004285 -0.000143 -0.000481 0.034801 0.012146
# 6 0.011859 0.014137 -0.004921 -0.013004 0.012146 0.049911
#
#
# Mechanical properties :
#
#
# Convention : Reuss Voigt Hill
#
# Bulk Modulus (GPa) = 26.58358 48.40494 37.49426
# Shear Modulus (GPa) = 21.27231 31.43890 26.35561
#
# Velocity S-wave (km/s) = 3.22558 3.92133 3.59035
# Velocity P-wave (km/s) = 5.18407 6.64661 5.96037
#
# Compressibility (1/GPa) = 0.03761720
#
# Stress axis : x y z
#
# Youngs Moduli (GPa) = 37.04427 55.87149 81.17288
#
# Poissons Ratio (x) = 0.19980 -0.05958
# Poissons Ratio (y) = 0.13248 0.56459
# Poissons Ratio (z) = -0.02719 0.38861
#
# Static dielectric constant tensor:
#      x y z
#    x 3.791400 -0.108380 0.283140 
#    y -0.108380 3.630430 -0.045880 
#    z 0.283140 -0.045880 4.019360 
# 
# 
# High freq. dielectric constant tensor:
#      x y z
#    x 1.804990 -0.008250 0.019050 
#    y -0.008250 1.782660 -0.011040 
#    z 0.019050 -0.011040 1.804390 
# 
# From -- ./inp_files/285807.got.cif
#   From: 2010.06.25/outbox.cif.g09.slc.cpg/sg2_143_cif.got.tgz:285807.got - 2010.06.27 13:26:56.
