data_PCOD8044718
_publ_section_title
;
Structure prediction by ZEFSAII (Michael W. Deem and Ramdas Pophale) SiO2 
 PCOD8044718
Probable space group: P -1
;
_chemical_formula_sum "Si O2"
_cell_formula_units_Z 16
_cell_length_a 7.680730
_cell_length_b 11.165772
_cell_length_c 16.966957
_cell_angle_alpha 133.516599
_cell_angle_beta 47.469752
_cell_angle_gamma 97.458869
_cell_volume 605.094859
_symmetry_space_group_name_H-M "P -1"
_symmetry_group_IT_number 2
_symmetry_cell_setting 'triclinic'
loop_
_space_group_symop_operation_xyz
x,y,z
-x,-y,-z
loop_
_atom_site_type_symbol
_atom_site_label
_atom_site_fract_x
_atom_site_fract_y
_atom_site_fract_z
Si Si1 0.255294 0.630741 0.364215
Si Si2 0.762722 0.719778 0.010159
Si Si3 0.846095 0.537768 0.478897
Si Si4 0.725548 0.253314 0.160316
Si Si5 0.832123 0.921735 0.876381
Si Si6 0.140273 0.956897 0.236274
Si Si7 0.513736 0.823205 0.305428
Si Si8 0.079273 0.256727 0.712298
O O1 0.521934 0.401776 0.215205
O O2 0.364300 0.702958 0.291417
O O3 0.970090 0.635141 0.430433
O O4 0.144526 0.808536 0.544313
O O5 0.453762 0.903790 0.143817
O O6 0.715997 0.761090 0.137523
O O7 0.016485 0.724451 0.896521
O O8 0.857957 0.492840 0.852077
O O9 0.482509 0.686070 0.670547
O O10 0.000000 0.500000 0.500000
O O11 0.933035 0.330417 0.315230
O O12 0.871429 0.008071 0.984405
O O13 0.889683 0.036216 0.844809
O O14 0.500000 0.000000 0.000000
O O15 0.129650 0.779135 0.193100
O O16 0.706970 0.743198 0.290246
O O17 0.263045 0.080003 0.506592
#
# Coordination Sequence:
#
# PCOD8044718 Si02
#       8
#     2   2   2   2   2   2   2   2
#     4  10  19  39  64  90 117 166 205 253 304 368
#     4  12  25  41  60  94 135 166 199 260 325 363
#     4  10  19  38  65  95 118 153 214 263 298 361
#     4  11  22  38  66  90 121 169 208 250 306 374
#     4  12  21  38  68  96 114 161 224 258 297 375
#     4  11  24  40  60  96 131 159 206 265 314 370
#     4  10  22  39  65  94 123 164 218 253 299 377
#     4  10  22  40  63  91 124 169 213 252 302 377
#
# _framework density 26.442135
#
# number of rings (size 3 to 8) (size 9 to 14) (size 15 to 20)
#    0.000    1.250    6.250    1.500    1.750    3.000 
#    2.250    2.500    0.000    1.500    0.000    0.000 
#    0.000    0.000    0.000    0.000    0.000    0.000 
#
# Total GULP energy -198359.950334 kJ/mol
# GULP energy per Si atom -12397.496896 kJ/mol
# Density = 2.638195 g / cm^3
# Si number density = 26.442135 Si / 1000 Ang^3
#
#
#
# Elastic Constant Matrix: (Units=GPa)
#
#
# Indices 1 2 3 4 5 6 
#
# 1 53.1641 39.3698 26.3820 -8.2567 7.6435 25.6611
# 2 39.3698 139.1504 52.0695 -11.0122 3.8937 37.2340
# 3 26.3820 52.0695 145.8873 -1.8405 14.8812 22.8211
# 4 -8.2567 -11.0122 -1.8405 44.5478 17.5794 -7.0453
# 5 7.6435 3.8937 14.8812 17.5794 32.5871 -1.4081
# 6 25.6611 37.2340 22.8211 -7.0453 -1.4081 46.3150
#
#
#
# Elastic Compliance Matrix: (Units=1/GPa)
#
#
# Indices 1 2 3 4 5 6 
#
# 1 0.031107 -0.004212 -0.000976 0.006866 -0.010598 -0.012645
# 2 -0.004212 0.010618 -0.002242 0.000965 0.000009 -0.004950
# 3 -0.000976 -0.002242 0.008536 0.000888 -0.003960 -0.001848
# 4 0.006866 0.000965 0.000888 0.031407 -0.019109 -0.000821
# 5 -0.010598 0.000009 -0.003960 -0.019109 0.045560 0.006294
# 6 -0.012645 -0.004950 -0.001848 -0.000821 0.006294 0.033554
#
#
# Mechanical properties :
#
#
# Convention : Reuss Voigt Hill
#
# Bulk Modulus (GPa) = 28.24924 63.76048 46.00486
# Shear Modulus (GPa) = 26.67475 39.38202 33.02839
#
# Velocity S-wave (km/s) = 3.17960 3.86342 3.53807
# Velocity P-wave (km/s) = 4.91797 6.63829 5.84180
#
# Compressibility (1/GPa) = 0.03539918
#
# Stress axis : x y z
#
# Youngs Moduli (GPa) = 32.14704 94.17897 117.15642
#
# Poissons Ratio (x) = 0.39671 0.11436
# Poissons Ratio (y) = 0.13541 0.26271
# Poissons Ratio (z) = 0.03138 0.21118
#
# Static dielectric constant tensor:
#      x y z
#    x 4.358370 0.350580 -0.028730 
#    y 0.350580 5.321470 -0.218720 
#    z -0.028730 -0.218720 5.141660 
# 
# 
# High freq. dielectric constant tensor:
#      x y z
#    x 2.034440 0.015060 -0.000940 
#    y 0.015060 2.077260 -0.001030 
#    z -0.000940 -0.001030 2.076160 
# 
# From -- ./inp_files/589606.got.cif
#   From: 2010.06.25/outbox.cif.g09.slc.cpg/sg2_295_cif.got.tgz:589606.got - 2010.06.27 13:26:56.
