data_PCOD8044558
_publ_section_title
;
Structure prediction by ZEFSAII (Michael W. Deem and Ramdas Pophale) SiO2 
 PCOD8044558
Probable space group: P -1
;
_chemical_formula_sum "Si O2"
_cell_formula_units_Z 16
_cell_length_a 21.000957
_cell_length_b 18.232878
_cell_length_c 11.934573
_cell_angle_alpha 138.976536
_cell_angle_beta 147.857707
_cell_angle_gamma 18.955570
_cell_volume 760.798754
_symmetry_space_group_name_H-M "P -1"
_symmetry_group_IT_number 2
_symmetry_cell_setting 'triclinic'
loop_
_space_group_symop_operation_xyz
x,y,z
-x,-y,-z
loop_
_atom_site_type_symbol
_atom_site_label
_atom_site_fract_x
_atom_site_fract_y
_atom_site_fract_z
Si Si1 0.260233 0.756004 0.990532
Si Si2 0.520105 0.248823 0.348570
Si Si3 0.735425 0.848293 0.958011
Si Si4 0.162141 0.288013 0.577076
Si Si5 0.856275 0.629478 0.107998
Si Si6 0.908169 0.248557 0.650856
Si Si7 0.149875 0.049681 0.299012
Si Si8 0.928715 0.051211 0.626696
O O1 0.057158 0.959311 0.830960
O O2 0.500000 0.500000 0.000000
O O3 0.323974 0.819848 0.222890
O O4 0.126664 0.777502 0.899682
O O5 0.331407 0.476645 0.405442
O O6 0.719673 0.031660 0.480974
O O7 0.659342 0.211163 0.420918
O O8 0.361220 0.283155 0.089648
O O9 0.893044 0.630988 0.869002
O O10 0.453981 0.078306 0.758177
O O11 0.749234 0.806441 0.062611
O O12 0.837372 0.889552 0.141339
O O13 0.072171 0.372795 0.670094
O O14 0.000000 0.500000 0.500000
O O15 0.119765 0.195304 0.364373
O O16 0.890132 0.169442 0.437665
O O17 0.895140 0.201998 0.699824
#
# Coordination Sequence:
#
# PCOD8044558 Si02
#       8
#     2   2   2   2   2   2   2   2
#     4  10  22  40  62  84 119 168 203 257 311 366
#     4  10  19  38  63  86 115 156 206 261 300 360
#     4  10  22  40  65  93 122 164 216 260 308 380
#     4  12  26  41  62  95 135 172 205 262 328 381
#     4  10  22  40  67  93 119 164 215 264 312 370
#     4  10  21  35  59  91 119 149 204 255 310 364
#     4  10  23  39  59  91 119 158 219 250 302 392
#     4  10  21  35  57  89 119 156 195 255 313 364
#
# _framework density 21.030529999999999
#
# number of rings (size 3 to 8) (size 9 to 14) (size 15 to 20)
#    0.000    1.750    1.250    2.250    3.500    4.500 
#    0.000    3.750    0.000    0.000    0.000    0.000 
#    0.000    0.000    0.000    0.000    0.000    0.000 
#
# Total GULP energy -198434.757258 kJ/mol
# GULP energy per Si atom -12402.172329 kJ/mol
# Density = 2.098266 g / cm^3
# Si number density = 21.030530 Si / 1000 Ang^3
#
#
#
# Elastic Constant Matrix: (Units=GPa)
#
#
# Indices 1 2 3 4 5 6 
#
# 1 120.2867 39.8287 52.1234 -1.9777 20.1628 14.5878
# 2 39.8287 101.5767 52.4044 2.1883 7.3120 7.5671
# 3 52.1234 52.4044 73.6110 5.5882 2.7412 7.9472
# 4 -1.9777 2.1883 5.5882 36.1891 -0.3622 0.6263
# 5 20.1628 7.3120 2.7412 -0.3622 32.0820 6.7410
# 6 14.5878 7.5671 7.9472 0.6263 6.7410 36.9820
#
#
#
# Elastic Compliance Matrix: (Units=1/GPa)
#
#
# Indices 1 2 3 4 5 6 
#
# 1 0.014026 0.000161 -0.009702 0.002216 -0.007547 -0.002142
# 2 0.000161 0.015807 -0.011284 0.000776 -0.002646 -0.000404
# 3 -0.009702 -0.011284 0.028689 -0.004194 0.006407 -0.001126
# 4 0.002216 0.000776 -0.004194 0.028355 -0.000793 -0.000467
# 5 -0.007547 -0.002646 0.006407 -0.000793 0.036921 -0.004575
# 6 -0.002142 -0.000404 -0.001126 -0.000467 -0.004575 0.029052
#
#
# Mechanical properties :
#
#
# Convention : Reuss Voigt Hill
#
# Bulk Modulus (GPa) = 59.26914 64.90970 62.08942
# Shear Modulus (GPa) = 24.98458 31.12515 28.05486
#
# Velocity S-wave (km/s) = 3.45050 3.85125 3.65637
# Velocity P-wave (km/s) = 6.64215 7.12093 6.88570
#
# Compressibility (1/GPa) = 0.01687219
#
# Stress axis : x y z
#
# Youngs Moduli (GPa) = 71.29790 63.26328 34.85622
#
# Poissons Ratio (x) = -0.01018 0.33817
# Poissons Ratio (y) = -0.01148 0.39331
# Poissons Ratio (z) = 0.69173 0.71385
#
# Static dielectric constant tensor:
#      x y z
#    x 3.834470 -0.061950 0.187850 
#    y -0.061950 3.789860 0.118350 
#    z 0.187850 0.118350 3.679100 
# 
# 
# High freq. dielectric constant tensor:
#      x y z
#    x 1.819100 -0.009030 0.012100 
#    y -0.009030 1.831810 0.012260 
#    z 0.012100 0.012260 1.814660 
# 
# From -- ./inp_files/306993.got.cif
#   From: 2010.06.25/outbox.cif.g09.slc.cpg/sg2_154_cif.got.tgz:306993.got - 2010.06.27 13:26:56.
