data_PCOD8044636
_publ_section_title
;
Structure prediction by ZEFSAII (Michael W. Deem and Ramdas Pophale) SiO2 
 PCOD8044636
Probable space group: P -1
;
_chemical_formula_sum "Si O2"
_cell_formula_units_Z 16
_cell_length_a 18.515610
_cell_length_b 12.423297
_cell_length_c 22.044272
_cell_angle_alpha 149.934397
_cell_angle_beta 18.493935
_cell_angle_gamma 152.605614
_cell_volume 730.462348
_symmetry_space_group_name_H-M "P -1"
_symmetry_group_IT_number 2
_symmetry_cell_setting 'triclinic'
loop_
_space_group_symop_operation_xyz
x,y,z
-x,-y,-z
loop_
_atom_site_type_symbol
_atom_site_label
_atom_site_fract_x
_atom_site_fract_y
_atom_site_fract_z
Si Si1 0.096695 0.602118 0.198151
Si Si2 0.146542 0.033484 0.717884
Si Si3 0.648803 0.876068 0.714315
Si Si4 0.435052 0.138012 0.710375
Si Si5 0.911777 0.241604 0.913311
Si Si6 0.550267 0.520776 0.228188
Si Si7 0.075733 0.226908 0.120274
Si Si8 0.743521 0.639125 0.413488
O O1 0.085410 0.473621 0.208303
O O2 0.828581 0.483598 0.317546
O O3 0.141558 0.871799 0.307915
O O4 0.312696 0.598289 0.981015
O O5 0.380297 0.985606 0.483109
O O6 0.957490 0.807961 0.797920
O O7 0.245308 0.279621 0.795392
O O8 0.984051 0.061236 0.806260
O O9 0.648009 0.675702 0.665135
O O10 0.698827 0.830878 0.583016
O O11 0.380313 0.882444 0.928687
O O12 0.577634 0.356701 0.656080
O O13 0.177241 0.974903 0.803348
O O14 0.336592 0.210769 0.886063
O O15 0.027240 0.244366 0.757347
O O16 0.000000 0.500000 0.000000
O O17 0.500000 0.500000 0.500000
#
# Coordination Sequence:
#
# PCOD8044636 Si02
#       8
#     2   2   2   2   2   2   2   2
#     4  11  24  42  66  99 134 171 213 265 333 384
#     4  11  21  38  64  94 127 166 220 272 315 374
#     4  12  25  43  64  98 136 173 212 268 325 393
#     4   9  20  34  59  95 122 164 217 271 313 365
#     4  12  24  43  63  94 132 174 212 264 329 379
#     4  10  19  38  64  90 128 169 213 267 314 376
#     4   9  20  37  61  92 127 168 214 268 318 379
#     4  12  25  40  66  98 130 171 214 269 321 386
#
# _framework density 21.903935000000001
#
# number of rings (size 3 to 8) (size 9 to 14) (size 15 to 20)
#    0.000    1.250    3.750    3.000    5.250    1.000 
#    0.000    0.625    0.000    3.750    0.000    0.000 
#    0.000    0.000    0.000    0.000    0.000    0.000 
#
# Total GULP energy -198275.145170 kJ/mol
# GULP energy per Si atom -12392.196573 kJ/mol
# Density = 2.185408 g / cm^3
# Si number density = 21.903935 Si / 1000 Ang^3
#
#
#
# Elastic Constant Matrix: (Units=GPa)
#
#
# Indices 1 2 3 4 5 6 
#
# 1 89.4269 41.6574 56.1805 -1.3694 -8.0982 -23.1660
# 2 41.6574 95.0095 30.7096 6.0625 7.1894 -19.7410
# 3 56.1805 30.7096 109.4168 -0.6024 10.3004 -17.5239
# 4 -1.3694 6.0625 -0.6024 27.0853 -1.6174 0.8235
# 5 -8.0982 7.1894 10.3004 -1.6174 36.7066 0.7272
# 6 -23.1660 -19.7410 -17.5239 0.8235 0.7272 37.0753
#
#
#
# Elastic Compliance Matrix: (Units=1/GPa)
#
#
# Indices 1 2 3 4 5 6 
#
# 1 0.022669 -0.006423 -0.009721 0.002725 0.008990 0.005913
# 2 -0.006423 0.014727 0.000238 -0.004017 -0.004627 0.004121
# 3 -0.009721 0.000238 0.014859 -0.000634 -0.006413 0.001216
# 4 0.002725 -0.004017 -0.000634 0.038189 0.003281 -0.001649
# 5 0.008990 -0.004627 -0.006413 0.003281 0.032088 -0.000580
# 6 0.005913 0.004121 0.001216 -0.001649 -0.000580 0.033483
#
#
# Mechanical properties :
#
#
# Convention : Reuss Voigt Hill
#
# Bulk Modulus (GPa) = 48.91694 61.21647 55.06670
# Shear Modulus (GPa) = 25.68819 31.19383 28.44101
#
# Velocity S-wave (km/s) = 3.42828 3.77785 3.60730
# Velocity P-wave (km/s) = 6.16861 6.85842 6.52264
#
# Compressibility (1/GPa) = 0.02044282
#
# Stress axis : x y z
#
# Youngs Moduli (GPa) = 44.11352 67.90178 67.29998
#
# Poissons Ratio (x) = 0.43611 0.65423
# Poissons Ratio (y) = 0.28333 -0.01600
# Poissons Ratio (z) = 0.42883 -0.01615
#
# Static dielectric constant tensor:
#      x y z
#    x 4.219940 -0.504600 0.061270 
#    y -0.504600 3.919440 -0.176920 
#    z 0.061270 -0.176920 4.394110 
# 
# 
# High freq. dielectric constant tensor:
#      x y z
#    x 1.849540 -0.032970 0.004600 
#    y -0.032970 1.828380 -0.002480 
#    z 0.004600 -0.002480 1.885650 
# 
# From -- ./inp_files/600127.got.cif
#   From: 2010.06.25/outbox.cif.g09.slc.cpg/sg2_301_cif.got.tgz:600127.got - 2010.06.27 13:26:56.
