data_PCOD8044887
_publ_section_title
;
Structure prediction by ZEFSAII (Michael W. Deem and Ramdas Pophale) SiO2 
 PCOD8044887
Probable space group: P 2
;
_chemical_formula_sum "Si O2"
_cell_formula_units_Z 14
_cell_length_a 8.865163
_cell_length_b 8.688484
_cell_length_c 7.961812
_cell_angle_alpha 90.000000
_cell_angle_beta 97.252703
_cell_angle_gamma 90.000000
_cell_volume 608.350517
_symmetry_space_group_name_H-M "P 2"
_symmetry_group_IT_number 3
_symmetry_cell_setting 'monoclinic'
loop_
_space_group_symop_operation_xyz
x,y,z
-x,y,-z
loop_
_atom_site_type_symbol
_atom_site_label
_atom_site_fract_x
_atom_site_fract_y
_atom_site_fract_z
Si Si1 0.000000 0.699620 0.500000
Si Si2 0.790476 0.340484 0.059499
Si Si3 0.299613 0.867012 0.569177
Si Si4 0.081316 0.437190 0.271324
Si Si5 0.408585 0.783527 0.224309
Si Si6 0.165288 0.011645 0.069285
Si Si7 0.847642 0.143652 0.568131
Si Si8 0.500000 0.518549 0.000000
O O1 0.865572 0.802545 0.401376
O O2 0.928975 0.603971 0.645735
O O3 0.836598 0.434466 0.896968
O O4 0.785902 0.155665 0.040526
O O5 0.628560 0.406627 0.095460
O O6 0.910109 0.372239 0.224751
O O7 0.345864 0.775985 0.405177
O O8 0.418909 0.848565 0.737247
O O9 0.291755 0.052760 0.539559
O O10 0.171306 0.328281 0.418382
O O11 0.299856 0.885209 0.088344
O O12 0.425757 0.617685 0.140124
O O13 0.139171 0.078809 0.245958
O O14 0.000000 0.938974 0.000000
O O15 0.000000 0.093797 0.500000
#
# Coordination Sequence:
#
# PCOD8044887 Si02
#       8
#     1   2   2   2   2   2   2   1
#     4  12  20  34  62  94 114 174 200 248 306 374
#     4  10  21  42  60  88 128 159 202 263 305 364
#     4  10  22  41  60  88 131 159 205 254 309 368
#     4  10  20  37  62  91 118 156 212 252 301 360
#     4  10  24  43  60  91 127 165 205 255 310 371
#     4  10  20  42  67  90 120 162 211 265 306 354
#     4  10  18  36  61  90 121 151 204 259 298 358
#     4  12  24  42  58  92 130 170 200 244 320 378
#
# _framework density 23.013048999999999
#
# number of rings (size 3 to 8) (size 9 to 14) (size 15 to 20)
#    0.000    1.714    4.286    1.714    0.000    1.714 
#   10.286    0.000    0.000    1.714    0.000    0.000 
#    0.000    0.000    0.000    0.000    0.000    0.000 
#
# Total GULP energy -173471.195934 kJ/mol
# GULP energy per Si atom -12390.799710 kJ/mol
# Density = 2.296067 g / cm^3
# Si number density = 23.013049 Si / 1000 Ang^3
#
#
#
# Elastic Constant Matrix: (Units=GPa)
#
#
# Indices 1 2 3 4 5 6 
#
# 1 124.8630 65.6185 13.9670 0.0000 36.3887 0.0000
# 2 65.6185 98.5481 23.7634 0.0000 22.6661 0.0000
# 3 13.9670 23.7634 33.8191 0.0000 13.7537 0.0000
# 4 0.0000 0.0000 0.0000 33.2321 0.0000 4.0847
# 5 36.3887 22.6661 13.7537 0.0000 46.0920 0.0000
# 6 0.0000 0.0000 0.0000 4.0847 0.0000 36.8596
#
#
#
# Elastic Compliance Matrix: (Units=1/GPa)
#
#
# Indices 1 2 3 4 5 6 
#
# 1 0.014570 -0.008618 0.003406 0.000000 -0.008281 0.000000
# 2 -0.008618 0.017972 -0.009380 0.000000 0.000765 0.000000
# 3 0.003406 -0.009380 0.038663 0.000000 -0.009613 0.000000
# 4 0.000000 0.000000 0.000000 0.030507 0.000000 -0.003381
# 5 -0.008281 0.000765 -0.009613 0.000000 0.030726 0.000000
# 6 0.000000 0.000000 0.000000 -0.003381 0.000000 0.027505
#
#
# Mechanical properties :
#
#
# Convention : Reuss Voigt Hill
#
# Bulk Modulus (GPa) = 23.79775 51.54755 37.67265
# Shear Modulus (GPa) = 24.61437 33.49550 29.05493
#
# Velocity S-wave (km/s) = 3.27400 3.81924 3.55708
# Velocity P-wave (km/s) = 4.96543 6.47277 5.76854
#
# Compressibility (1/GPa) = 0.04202077
#
# Stress axis : x y z
#
# Youngs Moduli (GPa) = 68.63279 55.64305 25.86457
#
# Poissons Ratio (x) = 0.47955 -0.08810
# Poissons Ratio (y) = 0.59150 0.24261
# Poissons Ratio (z) = -0.23378 0.52193
#
# Static dielectric constant tensor:
#      x y z
#    x 4.347020 0.000000 0.387700 
#    y 0.000000 5.058860 0.000000 
#    z 0.387700 0.000000 4.312730 
# 
# 
# High freq. dielectric constant tensor:
#      x y z
#    x 1.907260 0.000000 0.000450 
#    y 0.000000 1.901210 0.000000 
#    z 0.000450 0.000000 1.900690 
# 
# From -- ./inp_files/5450.got.cif
#   From: 2010.03.12/outbox.cif.g09.slc.cpg/sg3_3_cif.got.tgz:5450.got - 2010.03.31 09:20:49.
