data_PCOD8044304
_publ_section_title
;
Structure prediction by ZEFSAII (Michael W. Deem and Ramdas Pophale) SiO2 
 PCOD8044304
Probable space group: P -1
;
_chemical_formula_sum "Si O2"
_cell_formula_units_Z 12
_cell_length_a 8.702914
_cell_length_b 15.247293
_cell_length_c 7.598030
_cell_angle_alpha 94.089813
_cell_angle_beta 111.036329
_cell_angle_gamma 140.686860
_cell_volume 481.255756
_symmetry_space_group_name_H-M "P -1"
_symmetry_group_IT_number 2
_symmetry_cell_setting 'triclinic'
loop_
_space_group_symop_operation_xyz
x,y,z
-x,-y,-z
loop_
_atom_site_type_symbol
_atom_site_label
_atom_site_fract_x
_atom_site_fract_y
_atom_site_fract_z
Si Si1 0.592010 0.444792 0.961921
Si Si2 0.636304 0.437421 0.356007
Si Si3 0.740921 0.166612 0.257758
Si Si4 0.673087 0.877518 0.748982
Si Si5 0.896730 0.106778 0.608994
Si Si6 0.992263 0.741822 0.974405
O O1 0.857300 0.580228 0.936399
O O2 0.264656 0.251181 0.728714
O O3 0.500000 0.500000 0.000000
O O4 0.722803 0.454549 0.189189
O O5 0.586818 0.319611 0.408957
O O6 0.297051 0.330641 0.224314
O O7 0.915112 0.625453 0.576254
O O8 0.464177 0.107738 0.183361
O O9 0.734754 0.079625 0.372853
O O10 0.722106 0.126878 0.036961
O O11 0.731772 0.940307 0.582547
O O12 0.000000 0.000000 0.000000
O O13 0.864419 0.157333 0.769674
#
# Coordination Sequence:
#
# PCOD8044304 Si02
#       6
#     2   2   2   2   2   2
#     4   8  14  32  64  85 116 157 195 245 305 348
#     4  10  19  40  65  91 124 165 202 256 311 363
#     4  12  23  38  71  95 113 168 222 246 294 381
#     4  12  24  41  62  90 135 169 191 259 330 357
#     4  10  20  41  65  89 126 165 204 250 311 372
#     4  10  19  37  71  94 120 155 219 259 295 362
#
# _framework density 24.934768999999999
#
# number of rings (size 3 to 8) (size 9 to 14) (size 15 to 20)
#    0.000    2.000    8.333    1.500    0.000    0.667 
#    0.000    1.667    7.333    0.000    0.000    0.000 
#    0.000    0.000    0.000    0.000    0.000    0.000 
#
# Total GULP energy -148697.806556 kJ/mol
# GULP energy per Si atom -12391.483880 kJ/mol
# Density = 2.487802 g / cm^3
# Si number density = 24.934769 Si / 1000 Ang^3
#
#
#
# Elastic Constant Matrix: (Units=GPa)
#
#
# Indices 1 2 3 4 5 6 
#
# 1 46.2827 40.8174 21.4853 -16.9001 3.6077 12.5340
# 2 40.8174 238.8893 40.0685 -35.1347 5.9700 -3.6643
# 3 21.4853 40.0685 96.8654 -20.0240 1.8637 -1.1599
# 4 -16.9001 -35.1347 -20.0240 30.6138 0.5770 -3.9085
# 5 3.6077 5.9700 1.8637 0.5770 17.5806 -1.3228
# 6 12.5340 -3.6643 -1.1599 -3.9085 -1.3228 51.7516
#
#
#
# Elastic Compliance Matrix: (Units=1/GPa)
#
#
# Indices 1 2 3 4 5 6 
#
# 1 0.032784 -0.003335 -0.003574 0.011082 -0.006150 -0.007577
# 2 -0.003335 0.005549 -0.000620 0.004334 -0.001165 0.001484
# 3 -0.003574 -0.000620 0.012589 0.005754 -0.000465 0.001527
# 4 0.011082 0.004334 0.005754 0.047785 -0.005833 0.001212
# 5 -0.006150 -0.001165 -0.000465 -0.005833 0.058965 0.002463
# 6 -0.007577 0.001484 0.001527 0.001212 0.002463 0.021452
#
#
# Mechanical properties :
#
#
# Convention : Reuss Voigt Hill
#
# Bulk Modulus (GPa) = 27.88154 65.19773 46.53964
# Shear Modulus (GPa) = 24.25589 38.63362 31.44476
#
# Velocity S-wave (km/s) = 3.12232 3.94050 3.55502
# Velocity P-wave (km/s) = 4.91981 6.84890 5.96288
#
# Compressibility (1/GPa) = 0.03586602
#
# Stress axis : x y z
#
# Youngs Moduli (GPa) = 30.50246 180.21209 79.43245
#
# Poissons Ratio (x) = 0.60098 0.28388
# Poissons Ratio (y) = 0.10172 0.04922
# Poissons Ratio (z) = 0.10901 0.11167
#
# Static dielectric constant tensor:
#      x y z
#    x 3.989360 0.265510 0.091040 
#    y 0.265510 6.207690 0.044370 
#    z 0.091040 0.044370 4.308970 
# 
# 
# High freq. dielectric constant tensor:
#      x y z
#    x 1.934130 0.016140 0.016230 
#    y 0.016140 2.045860 0.009820 
#    z 0.016230 0.009820 1.982040 
# 
# From -- ./inp_files/196995.got.cif
#   From: 2010.06.25/outbox.cif.g09.slc.cpg/sg2_99_cif.got.tgz:196995.got - 2010.06.27 13:26:56.
