data_PCOD8044010
_publ_section_title
;
Structure prediction by ZEFSAII (Michael W. Deem and Ramdas Pophale) SiO2 
 PCOD8044010
Probable space group: P -1
;
_chemical_formula_sum "Si O2"
_cell_formula_units_Z 16
_cell_length_a 9.250733
_cell_length_b 25.425871
_cell_length_c 21.775876
_cell_angle_alpha 19.754942
_cell_angle_beta 151.535347
_cell_angle_gamma 152.633300
_cell_volume 764.273973
_symmetry_space_group_name_H-M "P -1"
_symmetry_group_IT_number 2
_symmetry_cell_setting 'triclinic'
loop_
_space_group_symop_operation_xyz
x,y,z
-x,-y,-z
loop_
_atom_site_type_symbol
_atom_site_label
_atom_site_fract_x
_atom_site_fract_y
_atom_site_fract_z
Si Si1 0.216335 0.401750 0.665108
Si Si2 0.546872 0.842846 0.929546
Si Si3 0.183841 0.026271 0.332452
Si Si4 0.230134 0.295460 0.414888
Si Si5 0.044332 0.301255 0.049298
Si Si6 0.594538 0.274332 0.125062
Si Si7 0.275097 0.765287 0.428929
Si Si8 0.406360 0.542619 0.819035
O O1 0.593227 0.531106 0.672110
O O2 0.000000 0.500000 0.500000
O O3 0.092608 0.340384 0.617273
O O4 0.167608 0.233045 0.872578
O O5 0.337059 0.763080 0.877879
O O6 0.328530 0.770393 0.988272
O O7 0.685999 0.042927 0.758142
O O8 0.123748 0.143251 0.232626
O O9 0.269247 0.116822 0.198788
O O10 0.500000 0.000000 0.500000
O O11 0.880570 0.847707 0.415990
O O12 0.459275 0.248662 0.504271
O O13 0.917094 0.304136 0.252914
O O14 0.275673 0.386514 0.098435
O O15 0.101504 0.429125 0.872653
O O16 0.495886 0.436908 0.914598
O O17 0.317032 0.689812 0.593171
#
# Coordination Sequence:
#
# PCOD8044010 Si02
#       8
#     2   2   2   2   2   2   2   2
#     4  10  23  41  62  85 120 167 209 253 299 360
#     4  12  23  39  65  92 124 156 208 260 307 361
#     4   9  19  35  58  90 130 157 192 244 315 363
#     4  10  19  37  62  90 122 160 207 248 303 363
#     4  10  21  38  62  93 129 161 195 256 314 361
#     4  10  21  36  61  96 124 160 195 253 315 367
#     4  11  23  38  63  87 123 163 212 249 295 360
#     4  10  22  39  61  92 130 161 200 251 308 371
#
# _framework density 20.934902000000001
#
# number of rings (size 3 to 8) (size 9 to 14) (size 15 to 20)
#    0.000    1.750    1.250    3.375    3.500    3.500 
#    0.000    0.625    2.750    3.000    0.000    0.000 
#    0.000    0.000    0.000    0.000    0.000    0.000 
#
# Total GULP energy -198275.482412 kJ/mol
# GULP energy per Si atom -12392.217651 kJ/mol
# Density = 2.088725 g / cm^3
# Si number density = 20.934902 Si / 1000 Ang^3
#
#
#
# Elastic Constant Matrix: (Units=GPa)
#
#
# Indices 1 2 3 4 5 6 
#
# 1 84.3859 38.4978 40.4997 -9.9714 -0.1776 1.7949
# 2 38.4978 101.0127 51.7486 -11.3518 -9.4516 -3.4665
# 3 40.4997 51.7486 160.4901 -23.0584 -4.1267 3.0223
# 4 -9.9714 -11.3518 -23.0584 33.0348 -0.4633 -0.1548
# 5 -0.1776 -9.4516 -4.1267 -0.4633 22.9573 -8.7518
# 6 1.7949 -3.4665 3.0223 -0.1548 -8.7518 18.6261
#
#
#
# Elastic Compliance Matrix: (Units=1/GPa)
#
#
# Indices 1 2 3 4 5 6 
#
# 1 0.015432 -0.005167 -0.002056 0.001375 -0.003839 -0.003908
# 2 -0.005167 0.014701 -0.003158 0.001442 0.008414 0.007712
# 3 -0.002056 -0.003158 0.008386 0.004132 -0.000462 -0.001933
# 4 0.001375 0.001442 0.004132 0.034103 0.002363 0.000859
# 5 -0.003839 0.008414 -0.000462 0.002363 0.058148 0.029352
# 6 -0.003908 0.007712 -0.001933 0.000859 0.029352 0.069612
#
#
# Mechanical properties :
#
#
# Convention : Reuss Voigt Hill
#
# Bulk Modulus (GPa) = 56.31453 67.48677 61.90065
# Shear Modulus (GPa) = 22.02039 29.26647 25.64343
#
# Velocity S-wave (km/s) = 3.24674 3.74301 3.50367
# Velocity P-wave (km/s) = 6.40417 7.14049 6.78233
#
# Compressibility (1/GPa) = 0.01775741
#
# Stress axis : x y z
#
# Youngs Moduli (GPa) = 64.80173 68.02397 119.24431
#
# Poissons Ratio (x) = 0.35148 0.24513
# Poissons Ratio (y) = 0.33483 0.37657
# Poissons Ratio (z) = 0.13321 0.21482
#
# Static dielectric constant tensor:
#      x y z
#    x 4.037170 0.300050 -0.279480 
#    y 0.300050 4.143390 -0.430840 
#    z -0.279480 -0.430840 4.247710 
# 
# 
# High freq. dielectric constant tensor:
#      x y z
#    x 1.807090 -0.000310 0.004950 
#    y -0.000310 1.805780 -0.022080 
#    z 0.004950 -0.022080 1.836510 
# 
# From -- ./inp_files/381703.got.cif
#   From: 2010.06.25/outbox.cif.g09.slc.cpg/sg2_191_cif.got.tgz:381703.got - 2010.06.27 13:26:56.
