data_PCOD8044179
_publ_section_title
;
Structure prediction by ZEFSAII (Michael W. Deem and Ramdas Pophale) SiO2 
 PCOD8044179
Probable space group: P -1
;
_chemical_formula_sum "Si O2"
_cell_formula_units_Z 16
_cell_length_a 28.899112
_cell_length_b 8.992071
_cell_length_c 14.863205
_cell_angle_alpha 40.503716
_cell_angle_beta 19.697913
_cell_angle_gamma 42.930043
_cell_volume 843.204577
_symmetry_space_group_name_H-M "P -1"
_symmetry_group_IT_number 2
_symmetry_cell_setting 'triclinic'
loop_
_space_group_symop_operation_xyz
x,y,z
-x,-y,-z
loop_
_atom_site_type_symbol
_atom_site_label
_atom_site_fract_x
_atom_site_fract_y
_atom_site_fract_z
Si Si1 0.116974 0.256340 0.091694
Si Si2 0.255883 0.212644 0.564916
Si Si3 0.961261 0.338387 0.063339
Si Si4 0.167809 0.942560 0.293075
Si Si5 0.547704 0.789012 0.948097
Si Si6 0.617465 0.299923 0.108521
Si Si7 0.634251 0.951224 0.383591
Si Si8 0.284021 0.727411 0.346236
O O1 0.987127 0.110278 0.374055
O O2 0.165292 0.196227 0.133913
O O3 0.072424 0.522660 0.032123
O O4 0.241119 0.198307 0.822657
O O5 0.272310 0.478980 0.436978
O O6 0.332783 0.039408 0.575360
O O7 0.317176 0.156495 0.380117
O O8 0.094048 0.164029 0.880694
O O9 0.826740 0.215030 0.397538
O O10 0.000000 0.500000 0.000000
O O11 0.257926 0.925017 0.227054
O O12 0.234173 0.760328 0.181901
O O13 0.580749 0.571347 0.052666
O O14 0.434927 0.735994 0.105138
O O15 0.500000 0.000000 0.000000
O O16 0.619143 0.206771 0.251048
O O17 0.505926 0.172085 0.314440
#
# Coordination Sequence:
#
# PCOD8044179 Si02
#       8
#     2   2   2   2   2   2   2   2
#     4  10  16  26  42  83 110 124 149 211 271 299
#     4  11  18  33  55  80 101 134 172 215 263 302
#     4  10  16  28  52  80 108 124 164 216 262 307
#     4  10  18  26  48  75 108 128 160 207 260 306
#     4  12  24  36  51  74 107 143 178 212 252 307
#     4  10  19  32  47  76 102 132 168 212 258 297
#     4  10  18  29  53  76 102 127 166 215 259 303
#     4  11  18  33  54  77 103 133 172 215 255 305
#
# _framework density 18.975228999999999
#
# number of rings (size 3 to 8) (size 9 to 14) (size 15 to 20)
#    0.000    1.500    7.500    1.125    0.000    0.000 
#    0.000    1.250    0.000    0.000    0.000   16.625 
#    0.000    0.000    0.000    0.000    0.000    0.000 
#
# Total GULP energy -198311.187518 kJ/mol
# GULP energy per Si atom -12394.449220 kJ/mol
# Density = 1.893204 g / cm^3
# Si number density = 18.975229 Si / 1000 Ang^3
#
#
#
# Elastic Constant Matrix: (Units=GPa)
#
#
# Indices 1 2 3 4 5 6 
#
# 1 77.2472 52.8691 12.8061 -5.6364 23.9640 -39.7836
# 2 52.8691 77.7413 21.9715 3.8874 15.9361 -28.5860
# 3 12.8061 21.9715 80.8571 18.6016 16.0122 -2.0976
# 4 -5.6364 3.8874 18.6016 24.9900 -10.1028 8.9456
# 5 23.9640 15.9361 16.0122 -10.1028 29.1669 -4.6833
# 6 -39.7836 -28.5860 -2.0976 8.9456 -4.6833 40.0836
#
#
#
# Elastic Compliance Matrix: (Units=1/GPa)
#
#
# Indices 1 2 3 4 5 6 
#
# 1 0.063298 -0.012944 0.015180 -0.038402 -0.057540 0.056235
# 2 -0.012944 0.026782 -0.001152 -0.011573 -0.006079 0.008065
# 3 0.015180 -0.001152 0.026893 -0.038388 -0.036703 0.019931
# 4 -0.038402 -0.011573 -0.038388 0.121619 0.090650 -0.064928
# 5 -0.057540 -0.006079 -0.036703 0.090650 0.125361 -0.068950
# 6 0.056235 0.008065 0.019931 -0.064928 -0.068950 0.093991
#
#
# Mechanical properties :
#
#
# Convention : Reuss Voigt Hill
#
# Bulk Modulus (GPa) = 8.39331 45.68209 27.03770
# Shear Modulus (GPa) = 10.09105 28.72802 19.40954
#
# Velocity S-wave (km/s) = 2.30858 3.89520 3.20173
# Velocity P-wave (km/s) = 3.39691 6.66011 5.28659
#
# Compressibility (1/GPa) = 0.11914245
#
# Stress axis : x y z
#
# Youngs Moduli (GPa) = 15.79824 37.33888 37.18434
#
# Poissons Ratio (x) = 0.48330 -0.56447
# Poissons Ratio (y) = 0.20449 0.04283
# Poissons Ratio (z) = -0.23982 0.04301
#
# Static dielectric constant tensor:
#      x y z
#    x 3.518350 -0.749010 0.184080 
#    y -0.749010 3.234930 0.198300 
#    z 0.184080 0.198300 3.944360 
# 
# 
# High freq. dielectric constant tensor:
#      x y z
#    x 1.714920 -0.069700 0.017640 
#    y -0.069700 1.685120 0.024190 
#    z 0.017640 0.024190 1.762720 
# 
# From -- ./inp_files/262289.got.cif
#   From: 2010.06.25/outbox.cif.g09.slc.cpg/sg2_132_cif.got.tgz:262289.got - 2010.06.27 13:26:56.
