data_PCOD8044297
_publ_section_title
;
Structure prediction by ZEFSAII (Michael W. Deem and Ramdas Pophale) SiO2 
 PCOD8044297
Probable space group: P -1
;
_chemical_formula_sum "Si O2"
_cell_formula_units_Z 16
_cell_length_a 10.029083
_cell_length_b 12.324039
_cell_length_c 13.286378
_cell_angle_alpha 33.065000
_cell_angle_beta 85.356735
_cell_angle_gamma 108.170340
_cell_volume 639.307007
_symmetry_space_group_name_H-M "P -1"
_symmetry_group_IT_number 2
_symmetry_cell_setting 'triclinic'
loop_
_space_group_symop_operation_xyz
x,y,z
-x,-y,-z
loop_
_atom_site_type_symbol
_atom_site_label
_atom_site_fract_x
_atom_site_fract_y
_atom_site_fract_z
Si Si1 0.868034 0.584451 0.829404
Si Si2 0.519129 0.853383 0.694455
Si Si3 0.375004 0.417290 0.426820
Si Si4 0.309510 0.777339 0.054588
Si Si5 0.219316 0.284827 0.756980
Si Si6 0.684092 0.188111 0.617844
Si Si7 0.858809 0.181618 0.784379
Si Si8 0.219013 0.094538 0.495553
O O1 0.850623 0.402059 0.883062
O O2 0.881769 0.802702 0.597104
O O3 0.683571 0.402736 0.050170
O O4 0.058068 0.756553 0.750290
O O5 0.609369 0.756137 0.709472
O O6 0.500000 0.000000 0.500000
O O7 0.667235 0.086184 0.586634
O O8 0.361834 0.618054 0.219629
O O9 0.243587 0.282098 0.638159
O O10 0.591156 0.594549 0.295400
O O11 0.295051 0.166868 0.549098
O O12 0.261157 0.878843 0.065675
O O13 0.486733 0.064224 0.767654
O O14 0.178974 0.475302 0.642344
O O15 0.068722 0.968100 0.070498
O O16 0.740805 0.056043 0.785800
O O17 0.000000 0.500000 0.500000
#
# Coordination Sequence:
#
# PCOD8044297 Si02
#       8
#     2   2   2   2   2   2   2   2
#     4   9  22  41  67  98 128 175 220 272 329 390
#     4  11  24  42  64  97 133 175 218 271 330 391
#     4  10  19  37  69  98 122 171 220 267 321 386
#     4  10  19  41  67  90 130 169 216 268 325 388
#     4  11  22  40  68  95 127 168 219 264 323 393
#     4  11  23  44  67  94 127 171 220 264 323 392
#     4  12  26  41  63  97 131 170 210 267 333 386
#     4  10  21  42  68  97 131 172 224 270 328 390
#
# _framework density 25.027099
#
# number of rings (size 3 to 8) (size 9 to 14) (size 15 to 20)
#    0.000    1.500    2.500    3.000    1.750    2.000 
#    4.500    0.000    0.000    0.000    0.000    0.000 
#    0.000    0.000    0.000    0.000    0.000    0.000 
#
# Total GULP energy -198310.909557 kJ/mol
# GULP energy per Si atom -12394.431847 kJ/mol
# Density = 2.497014 g / cm^3
# Si number density = 25.027099 Si / 1000 Ang^3
#
#
#
# Elastic Constant Matrix: (Units=GPa)
#
#
# Indices 1 2 3 4 5 6 
#
# 1 68.4498 34.7199 13.5790 2.6908 16.7891 2.5499
# 2 34.7199 189.4767 45.5992 14.9497 4.8271 21.3766
# 3 13.5790 45.5992 105.7149 -12.2439 9.0990 16.0253
# 4 2.6908 14.9497 -12.2439 29.4440 -1.4356 -6.6723
# 5 16.7891 4.8271 9.0990 -1.4356 36.4659 -2.1721
# 6 2.5499 21.3766 16.0253 -6.6723 -2.1721 27.2717
#
#
#
# Elastic Compliance Matrix: (Units=1/GPa)
#
#
# Indices 1 2 3 4 5 6 
#
# 1 0.018165 -0.002970 -0.000473 -0.000708 -0.007873 0.000107
# 2 -0.002970 0.007559 -0.002788 -0.005929 0.000506 -0.005420
# 3 -0.000473 -0.002788 0.012143 0.005540 -0.002448 -0.003745
# 4 -0.000708 -0.005929 0.005540 0.042149 0.002099 0.011938
# 5 -0.007873 0.000506 -0.002448 0.002099 0.031962 0.004837
# 6 0.000107 -0.005420 -0.003745 0.011938 0.004837 0.046413
#
#
# Mechanical properties :
#
#
# Convention : Reuss Voigt Hill
#
# Bulk Modulus (GPa) = 39.36224 61.27086 50.31655
# Shear Modulus (GPa) = 27.88283 36.61921 32.25102
#
# Velocity S-wave (km/s) = 3.34144 3.82931 3.59366
# Velocity P-wave (km/s) = 5.53615 6.63976 6.11291
#
# Compressibility (1/GPa) = 0.02540506
#
# Stress axis : x y z
#
# Youngs Moduli (GPa) = 55.05179 132.28731 82.35375
#
# Poissons Ratio (x) = 0.39296 0.03892
# Poissons Ratio (y) = 0.16353 0.22959
# Poissons Ratio (z) = 0.02601 0.36879
#
# Static dielectric constant tensor:
#      x y z
#    x 4.730240 0.390970 -0.235680 
#    y 0.390970 4.713560 -0.971120 
#    z -0.235680 -0.971120 4.340290 
# 
# 
# High freq. dielectric constant tensor:
#      x y z
#    x 2.004100 0.023390 0.002320 
#    y 0.023390 2.007530 -0.008470 
#    z 0.002320 -0.008470 2.008330 
# 
# From -- ./inp_files/427394.got.cif
#   From: 2010.06.25/outbox.cif.g09.slc.cpg/sg2_214_cif.got.tgz:427394.got - 2010.06.27 13:26:56.
