data_PCOD8044629
_publ_section_title
;
Structure prediction by ZEFSAII (Michael W. Deem and Ramdas Pophale) SiO2 
 PCOD8044629
Probable space group: P -1
;
_chemical_formula_sum "Si O2"
_cell_formula_units_Z 16
_cell_length_a 14.045462
_cell_length_b 9.263028
_cell_length_c 11.463146
_cell_angle_alpha 72.007046
_cell_angle_beta 133.203785
_cell_angle_gamma 129.788256
_cell_volume 812.823650
_symmetry_space_group_name_H-M "P -1"
_symmetry_group_IT_number 2
_symmetry_cell_setting 'triclinic'
loop_
_space_group_symop_operation_xyz
x,y,z
-x,-y,-z
loop_
_atom_site_type_symbol
_atom_site_label
_atom_site_fract_x
_atom_site_fract_y
_atom_site_fract_z
Si Si1 0.318889 0.917775 0.122894
Si Si2 0.284479 0.490081 0.846870
Si Si3 0.042453 0.708243 0.490727
Si Si4 0.573949 0.682641 0.857880
Si Si5 0.192568 0.641643 0.284544
Si Si6 0.845177 0.311352 0.182036
Si Si7 0.471847 0.622722 0.526634
Si Si8 0.349696 0.963963 0.523477
O O1 0.186053 0.730671 0.136442
O O2 0.304119 0.084771 0.099853
O O3 0.504208 0.990522 0.282461
O O4 0.274211 0.858736 0.965656
O O5 0.432353 0.620045 0.848093
O O6 0.256575 0.627063 0.857335
O O7 0.123464 0.321891 0.678862
O O8 0.322275 0.389471 0.999182
O O9 0.097414 0.775181 0.654054
O O10 0.186073 0.867733 0.486541
O O11 0.000000 0.500000 0.500000
O O12 0.496889 0.593845 0.689117
O O13 0.281856 0.542926 0.366847
O O14 0.317318 0.817070 0.433365
O O15 0.007191 0.498114 0.210746
O O16 0.500000 0.500000 0.500000
O O17 0.605505 0.845448 0.546449
#
# Coordination Sequence:
#
# PCOD8044629 Si02
#       8
#     2   2   2   2   2   2   2   2
#     4  11  22  38  61  97 123 156 209 256 301 360
#     4  10  23  39  64  87 123 166 203 249 311 368
#     4  10  19  38  64  90 117 159 208 249 303 365
#     4  11  22  41  61  88 129 164 197 255 314 364
#     4  11  20  42  66  90 122 164 208 250 303 369
#     4  11  23  39  66  92 123 159 208 257 302 361
#     4  11  24  41  64  92 124 167 207 251 308 367
#     4  11  20  40  69  89 119 165 210 250 302 370
#
# _framework density 19.684466
#
# number of rings (size 3 to 8) (size 9 to 14) (size 15 to 20)
#    0.000    1.250    5.000    3.375    3.500    2.000 
#    4.500    1.875    0.000    0.000    0.000    0.000 
#    0.000    0.000    0.000    0.000    0.000    0.000 
#
# Total GULP energy -198426.575235 kJ/mol
# GULP energy per Si atom -12401.660952 kJ/mol
# Density = 1.963966 g / cm^3
# Si number density = 19.684466 Si / 1000 Ang^3
#
#
#
# Elastic Constant Matrix: (Units=GPa)
#
#
# Indices 1 2 3 4 5 6 
#
# 1 82.0696 24.9704 27.5995 -4.0910 -8.1479 -6.7500
# 2 24.9704 56.5643 20.9255 -12.1409 0.8223 -4.1841
# 3 27.5995 20.9255 98.8855 -9.6318 -21.9109 -5.8931
# 4 -4.0910 -12.1409 -9.6318 31.9811 2.4083 -7.9804
# 5 -8.1479 0.8223 -21.9109 2.4083 34.9507 7.2653
# 6 -6.7500 -4.1841 -5.8931 -7.9804 7.2653 32.0505
#
#
#
# Elastic Compliance Matrix: (Units=1/GPa)
#
#
# Indices 1 2 3 4 5 6 
#
# 1 0.015066 -0.005812 -0.002578 -0.000865 0.001820 0.001312
# 2 -0.005812 0.023903 -0.003562 0.008878 -0.005751 0.004756
# 3 -0.002578 -0.003562 0.013500 0.001839 0.007785 0.000168
# 4 -0.000865 0.008878 0.001839 0.038370 -0.004366 0.011859
# 5 0.001820 -0.005751 0.007785 -0.004366 0.036056 -0.008197
# 6 0.001312 0.004756 0.000168 0.011859 -0.008197 0.036940
#
#
# Mechanical properties :
#
#
# Convention : Reuss Voigt Hill
#
# Bulk Modulus (GPa) = 35.00825 42.72334 38.86579
# Shear Modulus (GPa) = 25.34716 30.73139 28.03928
#
# Velocity S-wave (km/s) = 3.59231 3.95549 3.77827
# Velocity P-wave (km/s) = 5.91858 6.52782 6.23065
#
# Compressibility (1/GPa) = 0.02856470
#
# Stress axis : x y z
#
# Youngs Moduli (GPa) = 66.37664 41.83493 74.07387
#
# Poissons Ratio (x) = 0.24315 0.19095
# Poissons Ratio (y) = 0.38579 0.26387
# Poissons Ratio (z) = 0.17111 0.14902
#
# Static dielectric constant tensor:
#      x y z
#    x 3.560220 0.151330 -0.163990 
#    y 0.151330 3.526990 -0.148020 
#    z -0.163990 -0.148020 3.956680 
# 
# 
# High freq. dielectric constant tensor:
#      x y z
#    x 1.765990 0.019190 -0.009860 
#    y 0.019190 1.754050 -0.006100 
#    z -0.009860 -0.006100 1.779420 
# 
# From -- ./inp_files/206995.got.cif
#   From: 2010.06.25/outbox.cif.g09.slc.cpg/sg2_104_cif.got.tgz:206995.got - 2010.06.27 13:26:56.
