data_PCOD8044413
_publ_section_title
;
Structure prediction by ZEFSAII (Michael W. Deem and Ramdas Pophale) SiO2 
 PCOD8044413
Probable space group: P -1
;
_chemical_formula_sum "Si O2"
_cell_formula_units_Z 16
_cell_length_a 9.199081
_cell_length_b 28.479764
_cell_length_c 16.697275
_cell_angle_alpha 162.066547
_cell_angle_beta 38.513668
_cell_angle_gamma 134.811486
_cell_volume 820.605190
_symmetry_space_group_name_H-M "P -1"
_symmetry_group_IT_number 2
_symmetry_cell_setting 'triclinic'
loop_
_space_group_symop_operation_xyz
x,y,z
-x,-y,-z
loop_
_atom_site_type_symbol
_atom_site_label
_atom_site_fract_x
_atom_site_fract_y
_atom_site_fract_z
Si Si1 0.633784 0.722691 0.285626
Si Si2 0.930524 0.777771 0.693363
Si Si3 0.248689 0.895360 0.631367
Si Si4 0.410283 0.840576 0.297253
Si Si5 0.672711 0.405973 0.677224
Si Si6 0.728401 0.503657 0.636108
Si Si7 0.197014 0.695763 0.007394
Si Si8 0.501673 0.356554 0.355368
O O1 0.504365 0.870791 0.528142
O O2 0.503037 0.710612 0.408704
O O3 0.911741 0.721730 0.171847
O O4 0.571141 0.580068 0.031933
O O5 0.678510 0.756500 0.732751
O O6 0.099045 0.777380 0.543249
O O7 0.060712 0.645623 0.484666
O O8 0.896846 0.931904 0.011258
O O9 0.257383 0.866808 0.486589
O O10 0.254920 0.805491 0.231849
O O11 0.500000 0.000000 0.500000
O O12 0.612153 0.686422 0.974859
O O13 0.679725 0.417372 0.597644
O O14 0.647810 0.390646 0.423374
O O15 0.000000 0.500000 0.500000
O O16 0.323639 0.515918 0.666199
O O17 0.309015 0.737665 0.943419
#
# Coordination Sequence:
#
# PCOD8044413 Si02
#       8
#     2   2   2   2   2   2   2   2
#     4  10  19  38  60  89 117 148 195 243 287 340
#     4  10  21  40  63  86 119 158 191 235 293 352
#     4  10  22  39  61  88 120 155 194 235 290 353
#     4  11  24  40  58  85 120 157 192 238 297 345
#     4  10  20  36  64  86 115 155 191 240 291 340
#     4  11  24  38  59  89 117 151 199 244 284 346
#     4  10  21  37  59  86 117 153 195 241 285 347
#     4  10  21  36  59  86 116 155 194 237 292 340
#
# _framework density 19.497805
#
# number of rings (size 3 to 8) (size 9 to 14) (size 15 to 20)
#    0.000    1.750    2.500    1.500    5.250    1.000 
#    2.250    3.750    0.000    4.500    0.000    0.000 
#    0.000    0.000    0.000    0.000    0.000    0.000 
#
# Total GULP energy -198248.485345 kJ/mol
# GULP energy per Si atom -12390.530334 kJ/mol
# Density = 1.945343 g / cm^3
# Si number density = 19.497805 Si / 1000 Ang^3
#
#
#
# Elastic Constant Matrix: (Units=GPa)
#
#
# Indices 1 2 3 4 5 6 
#
# 1 122.9683 83.4577 45.1831 -27.4481 11.8544 4.1750
# 2 83.4577 119.9163 47.7381 -26.2531 8.8200 -2.1209
# 3 45.1831 47.7381 76.4448 -19.1738 11.5740 -6.9972
# 4 -27.4481 -26.2531 -19.1738 33.4472 -1.6696 -1.3993
# 5 11.8544 8.8200 11.5740 -1.6696 28.4632 -7.1132
# 6 4.1750 -2.1209 -6.9972 -1.3993 -7.1132 39.9178
#
#
#
# Elastic Compliance Matrix: (Units=1/GPa)
#
#
# Indices 1 2 3 4 5 6 
#
# 1 0.017171 -0.009645 -0.002713 0.004649 -0.003602 -0.003263
# 2 -0.009645 0.017500 -0.004379 0.003418 0.000940 0.001458
# 3 -0.002713 -0.004379 0.019761 0.005562 -0.004496 0.002909
# 4 0.004649 0.003418 0.005562 0.039525 -0.002538 0.001604
# 5 -0.003602 0.000940 -0.004496 -0.002538 0.039675 0.006620
# 6 -0.003263 0.001458 0.002909 0.001604 0.006620 0.027216
#
#
# Mechanical properties :
#
#
# Convention : Reuss Voigt Hill
#
# Bulk Modulus (GPa) = 47.71432 74.67636 61.19534
# Shear Modulus (GPa) = 24.83732 29.89569 27.36651
#
# Velocity S-wave (km/s) = 3.57298 3.91997 3.75049
# Velocity P-wave (km/s) = 6.44564 7.67276 7.08581
#
# Compressibility (1/GPa) = 0.02095807
#
# Stress axis : x y z
#
# Youngs Moduli (GPa) = 58.23777 57.14166 50.60367
#
# Poissons Ratio (x) = 0.55116 0.13728
# Poissons Ratio (y) = 0.56173 0.22160
# Poissons Ratio (z) = 0.15799 0.25023
#
# Static dielectric constant tensor:
#      x y z
#    x 3.524180 -0.038970 0.011550 
#    y -0.038970 3.758690 -0.018410 
#    z 0.011550 -0.018410 3.685150 
# 
# 
# High freq. dielectric constant tensor:
#      x y z
#    x 1.748710 -0.003430 -0.007030 
#    y -0.003430 1.762920 -0.011690 
#    z -0.007030 -0.011690 1.764160 
# 
# From -- ./inp_files/243132.got.cif
#   From: 2010.06.25/outbox.cif.g09.slc.cpg/sg2_122_cif.got.tgz:243132.got - 2010.06.27 13:26:56.
