data_PCOD8044261
_publ_section_title
;
Structure prediction by ZEFSAII (Michael W. Deem and Ramdas Pophale) SiO2 
 PCOD8044261
Probable space group: P -1
;
_chemical_formula_sum "Si O2"
_cell_formula_units_Z 16
_cell_length_a 13.716175
_cell_length_b 14.790295
_cell_length_c 5.449813
_cell_angle_alpha 74.068545
_cell_angle_beta 99.434169
_cell_angle_gamma 141.448854
_cell_volume 660.169396
_symmetry_space_group_name_H-M "P -1"
_symmetry_group_IT_number 2
_symmetry_cell_setting 'triclinic'
loop_
_space_group_symop_operation_xyz
x,y,z
-x,-y,-z
loop_
_atom_site_type_symbol
_atom_site_label
_atom_site_fract_x
_atom_site_fract_y
_atom_site_fract_z
Si Si1 0.088006 0.178363 0.661678
Si Si2 0.172655 0.438423 0.615845
Si Si3 0.470524 0.587856 0.904441
Si Si4 0.379452 0.996231 0.934468
Si Si5 0.312553 0.882229 0.494401
Si Si6 0.616237 0.324346 0.850220
Si Si7 0.137721 0.580008 0.807399
Si Si8 0.194038 0.165457 0.221945
O O1 0.062568 0.272594 0.596726
O O2 0.177898 0.220840 0.413058
O O3 0.173550 0.207380 0.925747
O O4 0.919046 0.006873 0.693558
O O5 0.329571 0.504213 0.727737
O O6 0.232167 0.553630 0.348656
O O7 0.081156 0.440862 0.758564
O O8 0.633051 0.751814 0.750167
O O9 0.500000 0.500000 0.000000
O O10 0.435521 0.609932 0.135084
O O11 0.281817 0.922736 0.206372
O O12 0.268453 0.901793 0.719139
O O13 0.500000 0.000000 0.000000
O O14 0.467436 0.160149 0.800732
O O15 0.185327 0.701923 0.556643
O O16 0.500000 0.000000 0.500000
O O17 0.686649 0.310014 0.101048
O O18 0.000000 0.500000 0.000000
#
# Coordination Sequence:
#
# PCOD8044261 Si02
#       8
#     2   2   2   2   2   2   2   2
#     4  10  22  42  69  93 139 182 226 276 355 408
#     4  11  24  41  70  96 139 181 233 290 351 418
#     4  11  23  40  66 101 136 176 234 285 343 406
#     4  10  19  37  67  89 125 168 216 269 335 393
#     4  10  19  39  68  91 125 172 215 270 342 396
#     4  11  24  40  66 100 133 177 230 290 344 417
#     4  11  25  44  65 100 135 180 230 289 353 423
#     4  10  22  42  66  98 134 184 227 284 339 418
#
# _framework density 24.236205000000002
#
# number of rings (size 3 to 8) (size 9 to 14) (size 15 to 20)
#    0.000    1.500    3.750    2.250    5.250    1.500 
#    2.250    0.000    0.000    0.000    0.000    0.000 
#    0.000    0.000    0.000    0.000    0.000    0.000 
#
# Total GULP energy -198213.817068 kJ/mol
# GULP energy per Si atom -12388.363567 kJ/mol
# Density = 2.418104 g / cm^3
# Si number density = 24.236205 Si / 1000 Ang^3
#
#
#
# Elastic Constant Matrix: (Units=GPa)
#
#
# Indices 1 2 3 4 5 6 
#
# 1 81.1715 50.2455 30.3524 2.3735 -27.0248 -19.0656
# 2 50.2455 129.4581 42.9607 -4.4836 -13.1753 -33.5787
# 3 30.3524 42.9607 150.6339 11.1620 -22.8459 -17.6984
# 4 2.3735 -4.4836 11.1620 43.8082 -4.0002 -6.7970
# 5 -27.0248 -13.1753 -22.8459 -4.0002 30.6091 -2.2730
# 6 -19.0656 -33.5787 -17.6984 -6.7970 -2.2730 37.6627
#
#
#
# Elastic Compliance Matrix: (Units=1/GPa)
#
#
# Indices 1 2 3 4 5 6 
#
# 1 0.024268 -0.004991 0.000707 0.001385 0.020704 0.009667
# 2 -0.004991 0.012679 -0.001719 0.003425 0.000857 0.008639
# 3 0.000707 -0.001719 0.008359 -0.001334 0.006163 0.002884
# 4 0.001385 0.003425 -0.001334 0.025196 0.005589 0.008012
# 5 0.020704 0.000857 0.006163 0.005589 0.058034 0.018652
# 6 0.009667 0.008639 0.002884 0.008012 0.018652 0.043074
#
#
# Mechanical properties :
#
#
# Convention : Reuss Voigt Hill
#
# Bulk Modulus (GPa) = 30.03094 67.59786 48.81440
# Shear Modulus (GPa) = 25.67841 38.26298 31.97070
#
# Velocity S-wave (km/s) = 3.25854 3.97766 3.63592
# Velocity P-wave (km/s) = 5.15512 7.00340 6.14910
#
# Compressibility (1/GPa) = 0.03329900
#
# Stress axis : x y z
#
# Youngs Moduli (GPa) = 41.20650 78.87179 119.63322
#
# Poissons Ratio (x) = 0.39366 -0.08455
# Poissons Ratio (y) = 0.20566 0.20566
# Poissons Ratio (z) = -0.02912 0.13558
#
# Static dielectric constant tensor:
#      x y z
#    x 3.828080 0.018380 -0.577200 
#    y 0.018380 4.589290 0.485640 
#    z -0.577200 0.485640 4.265380 
# 
# 
# High freq. dielectric constant tensor:
#      x y z
#    x 1.931000 -0.013050 -0.012440 
#    y -0.013050 1.977940 -0.000490 
#    z -0.012440 -0.000490 1.969060 
# 
# From -- ./inp_files/97014.got.cif
#   From: 2010.06.25/outbox.cif.g09.slc.cpg/sg2_49_cif.got.tgz:97014.got - 2010.06.27 13:26:56.
