data_PCOD8044198
_publ_section_title
;
Structure prediction by ZEFSAII (Michael W. Deem and Ramdas Pophale) SiO2 
 PCOD8044198
Probable space group: P -1
;
_chemical_formula_sum "Si O2"
_cell_formula_units_Z 16
_cell_length_a 8.639459
_cell_length_b 15.150781
_cell_length_c 15.173867
_cell_angle_alpha 133.643453
_cell_angle_beta 144.323573
_cell_angle_gamma 71.321804
_cell_volume 688.974244
_symmetry_space_group_name_H-M "P -1"
_symmetry_group_IT_number 2
_symmetry_cell_setting 'triclinic'
loop_
_space_group_symop_operation_xyz
x,y,z
-x,-y,-z
loop_
_atom_site_type_symbol
_atom_site_label
_atom_site_fract_x
_atom_site_fract_y
_atom_site_fract_z
Si Si1 0.328046 0.671706 0.174352
Si Si2 0.082314 0.026341 0.334339
Si Si3 0.209333 0.798279 0.650850
Si Si4 0.032043 0.631795 0.285193
Si Si5 0.079118 0.079439 0.997429
Si Si6 0.857983 0.712418 0.087238
Si Si7 0.274667 0.410315 0.586406
Si Si8 0.350633 0.361716 0.397699
O O1 0.508408 0.646840 0.319336
O O2 0.005812 0.653014 0.046300
O O3 0.579266 0.841248 0.373909
O O4 0.222767 0.547173 0.964605
O O5 0.943360 0.872600 0.213313
O O6 0.821089 0.065373 0.251664
O O7 0.161192 0.017458 0.260637
O O8 0.974233 0.692314 0.389594
O O9 0.578033 0.868719 0.850190
O O10 0.074520 0.684592 0.593111
O O11 0.393881 0.674706 0.481487
O O12 0.998696 0.721822 0.254709
O O13 0.076710 0.223506 0.116138
O O14 0.000000 0.000000 0.000000
O O15 0.470917 0.587293 0.818122
O O16 0.197535 0.380412 0.426512
O O17 0.500000 0.500000 0.500000
#
# Coordination Sequence:
#
# PCOD8044198 Si02
#       8
#     2   2   2   2   2   2   2   2
#     4  10  19  37  65  92 125 165 211 264 304 374
#     4  11  24  38  62  97 129 168 206 257 324 373
#     4  10  24  42  64  90 128 169 209 255 322 386
#     4  10  21  40  64  87 125 166 215 257 314 367
#     4  11  24  43  66  89 127 171 209 261 316 386
#     4  11  20  37  65  96 130 159 211 266 311 376
#     4  10  19  39  66  92 123 168 211 263 318 361
#     4  11  21  39  65  95 120 162 223 264 299 370
#
# _framework density 23.222930000000002
#
# number of rings (size 3 to 8) (size 9 to 14) (size 15 to 20)
#    0.000    1.500    2.500    3.750    1.750    5.000 
#    0.000    8.125    0.000    0.000    0.000    0.000 
#    0.000    0.000    0.000    0.000    0.000    0.000 
#
# Total GULP energy -198317.473236 kJ/mol
# GULP energy per Si atom -12394.842077 kJ/mol
# Density = 2.317007 g / cm^3
# Si number density = 23.222930 Si / 1000 Ang^3
#
#
#
# Elastic Constant Matrix: (Units=GPa)
#
#
# Indices 1 2 3 4 5 6 
#
# 1 103.6880 43.9119 30.8934 12.2513 -11.6000 32.9633
# 2 43.9119 94.0306 36.5073 37.9999 -12.5490 22.1306
# 3 30.8934 36.5073 93.6181 34.7522 -16.6060 9.0637
# 4 12.2513 37.9999 34.7522 44.6396 1.6030 4.2451
# 5 -11.6000 -12.5490 -16.6060 1.6030 54.4207 1.5697
# 6 32.9633 22.1306 9.0637 4.2451 1.5697 26.6583
#
#
#
# Elastic Compliance Matrix: (Units=1/GPa)
#
#
# Indices 1 2 3 4 5 6 
#
# 1 0.018049 -0.003098 -0.003091 0.001814 0.002688 -0.019143
# 2 -0.003098 0.023029 0.001339 -0.018764 0.005989 -0.013107
# 3 -0.003091 0.001339 0.017444 -0.013941 0.005421 -0.001319
# 4 0.001814 -0.018764 -0.013941 0.048039 -0.009927 0.011009
# 5 0.002688 0.005989 0.005421 -0.009927 0.022561 -0.009887
# 6 -0.019143 -0.013107 -0.001319 0.011009 -0.009887 0.071341
#
#
# Mechanical properties :
#
#
# Convention : Reuss Voigt Hill
#
# Bulk Modulus (GPa) = 20.48265 57.10688 38.79476
# Shear Modulus (GPa) = 22.08108 37.14532 29.61320
#
# Velocity S-wave (km/s) = 3.08690 4.00373 3.57483
# Velocity P-wave (km/s) = 4.64160 6.78360 5.81213
#
# Compressibility (1/GPa) = 0.04882181
#
# Stress axis : x y z
#
# Youngs Moduli (GPa) = 55.40359 43.42400 57.32601
#
# Poissons Ratio (x) = 0.13451 0.17721
# Poissons Ratio (y) = 0.17162 -0.07674
# Poissons Ratio (z) = 0.17127 -0.05813
#
# Static dielectric constant tensor:
#      x y z
#    x 4.256220 0.048700 -0.226690 
#    y 0.048700 3.994730 0.128570 
#    z -0.226690 0.128570 4.672090 
# 
# 
# High freq. dielectric constant tensor:
#      x y z
#    x 1.909340 0.007300 -0.015390 
#    y 0.007300 1.900090 0.019650 
#    z -0.015390 0.019650 1.933360 
# 
# From -- ./inp_files/398466.got.cif
#   From: 2010.06.25/outbox.cif.g09.slc.cpg/sg2_200_cif.got.tgz:398466.got - 2010.06.27 13:26:56.
