data_PCOD8044496
_publ_section_title
;
Structure prediction by ZEFSAII (Michael W. Deem and Ramdas Pophale) SiO2 
 PCOD8044496
Probable space group: P -1
;
_chemical_formula_sum "Si O2"
_cell_formula_units_Z 16
_cell_length_a 20.293683
_cell_length_b 21.151632
_cell_length_c 8.205677
_cell_angle_alpha 43.003037
_cell_angle_beta 135.088398
_cell_angle_gamma 161.154131
_cell_volume 773.928291
_symmetry_space_group_name_H-M "P -1"
_symmetry_group_IT_number 2
_symmetry_cell_setting 'triclinic'
loop_
_space_group_symop_operation_xyz
x,y,z
-x,-y,-z
loop_
_atom_site_type_symbol
_atom_site_label
_atom_site_fract_x
_atom_site_fract_y
_atom_site_fract_z
Si Si1 0.665876 0.979669 0.928192
Si Si2 0.061249 0.280529 0.654284
Si Si3 0.261374 0.295535 0.423317
Si Si4 0.420544 0.499078 0.995592
Si Si5 0.979839 0.754056 0.723767
Si Si6 0.242466 0.108348 0.942124
Si Si7 0.790151 0.400747 0.161401
Si Si8 0.020755 0.622484 0.464215
O O1 0.622819 0.851552 0.983700
O O2 0.444844 0.826389 0.870244
O O3 0.789807 0.169501 0.697417
O O4 0.792765 0.057586 0.160951
O O5 0.020928 0.351409 0.499890
O O6 0.994544 0.197631 0.510993
O O7 0.946663 0.107584 0.896693
O O8 0.301089 0.474242 0.736991
O O9 0.500000 0.500000 0.500000
O O10 0.264224 0.311158 0.203568
O O11 0.148916 0.283003 0.334029
O O12 0.157111 0.106869 0.659361
O O13 0.500000 0.500000 0.000000
O O14 0.619050 0.716762 0.016356
O O15 0.858272 0.550617 0.899094
O O16 0.922965 0.430441 0.276629
O O17 0.824898 0.446160 0.331700
#
# Coordination Sequence:
#
# PCOD8044496 Si02
#       8
#     2   2   2   2   2   2   2   2
#     4  10  20  37  59  85 112 149 197 235 285 352
#     4  11  23  39  55  86 121 148 195 241 283 340
#     4  10  20  38  58  82 112 150 194 231 280 345
#     4  11  23  38  60  87 115 149 191 237 287 342
#     4  11  24  37  56  85 118 155 195 237 284 347
#     4  10  22  38  60  82 114 156 188 238 288 331
#     4  10  19  38  62  84 112 151 191 241 297 338
#     4   9  20  37  62  87 111 146 194 244 290 346
#
# _framework density 20.673749000000001
#
# number of rings (size 3 to 8) (size 9 to 14) (size 15 to 20)
#    0.000    1.750    0.000    6.375    0.000    6.500 
#    0.000    0.625    0.000    0.000    0.000    0.000 
#    0.000    0.000    0.000    0.000    0.000    0.000 
#
# Total GULP energy -198379.468881 kJ/mol
# GULP energy per Si atom -12398.716805 kJ/mol
# Density = 2.062669 g / cm^3
# Si number density = 20.673749 Si / 1000 Ang^3
#
#
#
# Elastic Constant Matrix: (Units=GPa)
#
#
# Indices 1 2 3 4 5 6 
#
# 1 128.8425 29.7162 48.3301 1.2325 0.5799 -6.4327
# 2 29.7162 75.8143 21.9120 17.1574 10.1679 1.3546
# 3 48.3301 21.9120 97.1611 0.2044 16.9981 4.1753
# 4 1.2325 17.1574 0.2044 36.1199 -6.7997 6.9298
# 5 0.5799 10.1679 16.9981 -6.7997 29.9336 3.1778
# 6 -6.4327 1.3546 4.1753 6.9298 3.1778 28.3684
#
#
#
# Elastic Compliance Matrix: (Units=1/GPa)
#
#
# Indices 1 2 3 4 5 6 
#
# 1 0.010694 -0.003639 -0.005342 0.001701 0.004183 0.002501
# 2 -0.003639 0.018331 -0.000949 -0.010491 -0.008204 0.001921
# 3 -0.005342 -0.000949 0.014617 -0.000456 -0.007730 -0.002340
# 4 0.001701 -0.010491 -0.000456 0.036928 0.013191 -0.009545
# 5 0.004183 -0.008204 -0.007730 0.013191 0.044103 -0.005685
# 6 0.002501 0.001921 -0.002340 -0.009545 -0.005685 0.039039
#
#
# Mechanical properties :
#
#
# Convention : Reuss Voigt Hill
#
# Bulk Modulus (GPa) = 42.04705 55.74827 48.89766
# Shear Modulus (GPa) = 26.10991 32.34167 29.22579
#
# Velocity S-wave (km/s) = 3.55766 3.95952 3.76395
# Velocity P-wave (km/s) = 6.10397 6.92300 6.52635
#
# Compressibility (1/GPa) = 0.02378288
#
# Stress axis : x y z
#
# Youngs Moduli (GPa) = 93.50934 54.55296 68.41240
#
# Poissons Ratio (x) = 0.19849 0.36545
# Poissons Ratio (y) = 0.34024 0.06494
# Poissons Ratio (z) = 0.49951 0.05179
#
# Static dielectric constant tensor:
#      x y z
#    x 3.612930 -0.052490 0.086760 
#    y -0.052490 3.732870 -0.000880 
#    z 0.086760 -0.000880 4.012580 
# 
# 
# High freq. dielectric constant tensor:
#      x y z
#    x 1.795370 -0.003780 0.015550 
#    y -0.003780 1.815240 0.009580 
#    z 0.015550 0.009580 1.816140 
# 
# From -- ./inp_files/315574.got.cif
#   From: 2010.06.25/outbox.cif.g09.slc.cpg/sg2_158_cif.got.tgz:315574.got - 2010.06.27 13:26:56.
