data_PCOD8044305
_publ_section_title
;
Structure prediction by ZEFSAII (Michael W. Deem and Ramdas Pophale) SiO2 
 PCOD8044305
Probable space group: P -1
;
_chemical_formula_sum "Si O2"
_cell_formula_units_Z 12
_cell_length_a 9.884986
_cell_length_b 13.712522
_cell_length_c 8.548478
_cell_angle_alpha 155.312009
_cell_angle_beta 102.045432
_cell_angle_gamma 78.730366
_cell_volume 473.270508
_symmetry_space_group_name_H-M "P -1"
_symmetry_group_IT_number 2
_symmetry_cell_setting 'triclinic'
loop_
_space_group_symop_operation_xyz
x,y,z
-x,-y,-z
loop_
_atom_site_type_symbol
_atom_site_label
_atom_site_fract_x
_atom_site_fract_y
_atom_site_fract_z
Si Si1 0.809978 0.661580 0.316395
Si Si2 0.041898 0.743575 0.697432
Si Si3 0.477940 0.291678 0.571017
Si Si4 0.623352 0.987521 0.388578
Si Si5 0.894784 0.081325 0.725124
Si Si6 0.703437 0.471282 0.710153
O O1 0.686430 0.748076 0.530084
O O2 0.934403 0.569335 0.327526
O O3 0.859678 0.875723 0.536825
O O4 0.765694 0.465021 0.894154
O O5 0.199368 0.682640 0.600965
O O6 0.035689 0.725781 0.860919
O O7 0.000000 0.000000 0.000000
O O8 0.549054 0.359322 0.520833
O O9 0.560884 0.061310 0.314658
O O10 0.500000 0.500000 0.000000
O O11 0.500000 0.000000 0.500000
O O12 0.748403 0.160681 0.725334
O O13 0.690016 0.730562 0.015585
O O14 0.000000 0.000000 0.500000
#
# Coordination Sequence:
#
# PCOD8044305 Si02
#       6
#     2   2   2   2   2   2
#     4   9  19  39  66  95 128 165 218 262 315 397
#     4  10  22  41  63  94 132 168 222 266 315 391
#     4  10  19  37  71  97 123 174 213 257 331 378
#     4  11  20  41  67  95 131 164 222 264 310 398
#     4  10  22  40  64  90 127 177 211 270 328 367
#     4  10  21  39  69  98 126 175 209 266 331 367
#
# _framework density 25.355475999999999
#
# number of rings (size 3 to 8) (size 9 to 14) (size 15 to 20)
#    0.000    2.000    5.000    0.500    4.667    0.000 
#    3.000    9.167    0.000    0.000    0.000    0.000 
#    0.000    0.000    0.000    0.000    0.000    0.000 
#
# Total GULP energy -148697.843261 kJ/mol
# GULP energy per Si atom -12391.486938 kJ/mol
# Density = 2.529777 g / cm^3
# Si number density = 25.355476 Si / 1000 Ang^3
#
#
#
# Elastic Constant Matrix: (Units=GPa)
#
#
# Indices 1 2 3 4 5 6 
#
# 1 178.8864 21.7950 35.5260 -18.4727 -23.0367 8.0978
# 2 21.7950 60.9637 11.3297 -4.0289 -11.5970 -8.2054
# 3 35.5260 11.3297 66.7138 -11.7353 -26.5112 2.0912
# 4 -18.4727 -4.0289 -11.7353 30.2938 -3.8910 -10.1220
# 5 -23.0367 -11.5970 -26.5112 -3.8910 43.8822 1.4597
# 6 8.0978 -8.2054 2.0912 -10.1220 1.4597 27.9560
#
#
#
# Elastic Compliance Matrix: (Units=1/GPa)
#
#
# Indices 1 2 3 4 5 6 
#
# 1 0.006839 -0.001625 -0.001836 0.003106 0.002371 -0.001320
# 2 -0.001625 0.019137 -0.000108 0.004580 0.004295 0.007530
# 3 -0.001836 -0.000108 0.023261 0.010247 0.013911 0.001743
# 4 0.003106 0.004580 0.010247 0.046388 0.012619 0.015815
# 5 0.002371 0.004295 0.013911 0.012619 0.034615 0.002295
# 6 -0.001320 0.007530 0.001743 0.015815 0.002295 0.043839
#
#
# Mechanical properties :
#
#
# Convention : Reuss Voigt Hill
#
# Bulk Modulus (GPa) = 23.75355 49.31837 36.53596
# Shear Modulus (GPa) = 25.60821 36.28728 30.94775
#
# Velocity S-wave (km/s) = 3.18145 3.78715 3.49743
# Velocity P-wave (km/s) = 4.78372 6.21420 5.54528
#
# Compressibility (1/GPa) = 0.04209897
#
# Stress axis : x y z
#
# Youngs Moduli (GPa) = 146.23055 52.25369 42.98967
#
# Poissons Ratio (x) = 0.08491 0.07892
# Poissons Ratio (y) = 0.23762 0.00466
# Poissons Ratio (z) = 0.26843 0.00567
#
# Static dielectric constant tensor:
#      x y z
#    x 5.509730 -0.349120 0.825550 
#    y -0.349120 5.459160 -0.351280 
#    z 0.825550 -0.351280 5.034080 
# 
# 
# High freq. dielectric constant tensor:
#      x y z
#    x 2.031050 0.002090 0.008640 
#    y 0.002090 2.005560 0.007310 
#    z 0.008640 0.007310 1.986300 
# 
# From -- ./inp_files/194769.got.cif
#   From: 2010.06.25/outbox.cif.g09.slc.cpg/sg2_98_cif.got.tgz:194769.got - 2010.06.27 13:26:56.
