data_PCOD8044177
_publ_section_title
;
Structure prediction by ZEFSAII (Michael W. Deem and Ramdas Pophale) SiO2 
 PCOD8044177
Probable space group: P -1
;
_chemical_formula_sum "Si O2"
_cell_formula_units_Z 14
_cell_length_a 10.173362
_cell_length_b 5.197452
_cell_length_c 16.645432
_cell_angle_alpha 89.116454
_cell_angle_beta 122.136417
_cell_angle_gamma 65.436420
_cell_volume 645.072798
_symmetry_space_group_name_H-M "P -1"
_symmetry_group_IT_number 2
_symmetry_cell_setting 'triclinic'
loop_
_space_group_symop_operation_xyz
x,y,z
-x,-y,-z
loop_
_atom_site_type_symbol
_atom_site_label
_atom_site_fract_x
_atom_site_fract_y
_atom_site_fract_z
Si Si1 0.744242 0.379774 0.501420
Si Si2 0.760601 0.649831 0.655906
Si Si3 0.662619 0.768129 0.231826
Si Si4 0.593862 0.997835 0.376650
Si Si5 0.428192 0.808756 0.020318
Si Si6 0.983610 0.175107 0.336960
Si Si7 0.102682 0.117129 0.820095
O O1 0.681514 0.486592 0.573500
O O2 0.731526 0.657011 0.447143
O O3 0.635631 0.246254 0.422014
O O4 0.952738 0.110482 0.581657
O O5 0.847017 0.774568 0.618583
O O6 0.914214 0.422122 0.768673
O O7 0.603160 0.912813 0.654193
O O8 0.587366 0.009682 0.277558
O O9 0.768646 0.845566 0.201050
O O10 0.805894 0.445768 0.316899
O O11 0.494380 0.760160 0.134677
O O12 0.209488 0.992926 0.939707
O O13 0.500000 0.500000 0.000000
O O14 0.500000 0.000000 0.000000
O O15 0.935664 0.127264 0.230847
#
# Coordination Sequence:
#
# PCOD8044177 Si02
#       7
#     2   2   2   2   2   2   2
#     4  11  24  40  60  84 117 164 205 233 289 347
#     4  10  22  41  61  87 116 160 206 234 287 353
#     4  10  23  39  59  94 120 148 197 246 303 340
#     4  12  26  38  61  86 124 157 193 252 289 341
#     4  10  19  37  65  88 114 152 193 238 292 355
#     4  10  20  39  61  88 116 154 205 240 281 357
#     4   9  20  38  64  89 116 153 198 242 288 355
#
# _framework density 21.702976
#
# number of rings (size 3 to 8) (size 9 to 14) (size 15 to 20)
#    0.000    1.714    2.857    0.857    6.000    1.143 
#    0.000    0.714    0.000    0.857    0.000    0.000 
#    0.000    0.000    0.000    0.000    0.000    0.000 
#
# Total GULP energy -173449.264128 kJ/mol
# GULP energy per Si atom -12389.233152 kJ/mol
# Density = 2.165358 g / cm^3
# Si number density = 21.702976 Si / 1000 Ang^3
#
#
#
# Elastic Constant Matrix: (Units=GPa)
#
#
# Indices 1 2 3 4 5 6 
#
# 1 27.9671 25.0605 30.7408 6.0582 3.0677 -1.2835
# 2 25.0605 107.8995 56.6072 6.7435 0.3000 7.5113
# 3 30.7408 56.6072 144.4128 8.6104 15.2705 -14.7068
# 4 6.0582 6.7435 8.6104 30.5640 4.0036 0.2944
# 5 3.0677 0.3000 15.2705 4.0036 18.4772 6.1026
# 6 -1.2835 7.5113 -14.7068 0.2944 6.1026 30.0136
#
#
#
# Elastic Compliance Matrix: (Units=1/GPa)
#
#
# Indices 1 2 3 4 5 6 
#
# 1 0.052698 -0.007983 -0.007467 -0.006411 -0.001368 0.000934
# 2 -0.007983 0.014900 -0.005941 -0.001146 0.009158 -0.008832
# 3 -0.007467 -0.005941 0.013247 0.000685 -0.013172 0.010330
# 4 -0.006411 -0.001146 0.000685 0.035027 -0.007584 0.001547
# 5 -0.001368 0.009158 -0.013172 -0.007584 0.074623 -0.023903
# 6 0.000934 -0.008832 0.010330 0.001547 -0.023903 0.045475
#
#
# Mechanical properties :
#
#
# Convention : Reuss Voigt Hill
#
# Bulk Modulus (GPa) = 26.27140 56.12179 41.19660
# Shear Modulus (GPa) = 17.15630 27.00236 22.07933
#
# Velocity S-wave (km/s) = 2.81464 3.53112 3.19304
# Velocity P-wave (km/s) = 4.76384 6.52229 5.71115
#
# Compressibility (1/GPa) = 0.03806421
#
# Stress axis : x y z
#
# Youngs Moduli (GPa) = 18.97592 67.11590 75.49160
#
# Poissons Ratio (x) = 0.53579 0.56366
# Poissons Ratio (y) = 0.15148 0.44847
# Poissons Ratio (z) = 0.14168 0.39871
#
# Static dielectric constant tensor:
#      x y z
#    x 3.331620 0.163280 0.366970 
#    y 0.163280 4.178110 -0.120450 
#    z 0.366970 -0.120450 4.703220 
# 
# 
# High freq. dielectric constant tensor:
#      x y z
#    x 1.792250 0.020950 0.025510 
#    y 0.020950 1.866280 -0.004360 
#    z 0.025510 -0.004360 1.863660 
# 
# From -- ./inp_files/39845.got.cif
#   From: 2010.06.25/outbox.cif.g09.slc.cpg/sg2_20_cif.got.tgz:39845.got - 2010.06.27 13:26:56.
