data_PCOD8044915
_publ_section_title
;
Structure prediction by ZEFSAII (Michael W. Deem and Ramdas Pophale) SiO2 
 PCOD8044915
Probable space group: P 2
;
_chemical_formula_sum "Si O2"
_cell_formula_units_Z 16
_cell_length_a 8.873438
_cell_length_b 12.174507
_cell_length_c 8.933113
_cell_angle_alpha 90.000000
_cell_angle_beta 121.681960
_cell_angle_gamma 90.000000
_cell_volume 821.227919
_symmetry_space_group_name_H-M "P 2"
_symmetry_group_IT_number 3
_symmetry_cell_setting 'monoclinic'
loop_
_space_group_symop_operation_xyz
x,y,z
-x,y,-z
loop_
_atom_site_type_symbol
_atom_site_label
_atom_site_fract_x
_atom_site_fract_y
_atom_site_fract_z
Si Si1 0.478975 0.387780 0.160212
Si Si2 0.976972 0.918041 0.663205
Si Si3 0.830091 0.758063 0.810712
Si Si4 0.198153 0.957635 0.037687
Si Si5 0.163317 0.377504 0.472553
Si Si6 0.182226 0.515140 0.184644
Si Si7 0.169080 0.132903 0.482141
Si Si8 0.527041 0.135775 0.845933
O O1 0.662722 0.403192 0.341409
O O2 0.330927 0.457153 0.165146
O O3 0.414100 0.262036 0.129910
O O4 0.500000 0.427996 0.000000
O O5 0.880593 0.809512 0.675894
O O6 0.000000 0.899360 0.500000
O O7 0.857503 0.027638 0.639721
O O8 0.168325 0.937147 0.843689
O O9 0.711909 0.848847 0.839262
O O10 0.742972 0.638475 0.744110
O O11 0.000000 0.735269 0.000000
O O12 0.314365 0.063297 0.138571
O O13 0.000000 0.971064 0.000000
O O14 0.149205 0.459073 0.327038
O O15 0.172188 0.253436 0.407530
O O16 0.000000 0.392711 0.500000
O O17 0.000000 0.511405 0.000000
O O18 0.348923 0.113490 0.664414
O O19 0.000000 0.130368 0.500000
O O20 0.500000 0.096031 0.000000
#
# Coordination Sequence:
#
# PCOD8044915 Si02
#       8
#     2   2   2   2   2   2   2   2
#     4  10  22  39  57  83 117 148 184 231 279 332
#     4   9  16  31  56  80 107 140 176 222 270 319
#     4   8  19  37  53  75 108 143 182 227 270 319
#     4   9  19  36  55  78 112 144 176 220 270 325
#     4  10  21  38  59  85 115 147 186 231 279 332
#     4  11  22  38  60  82 110 150 192 233 280 329
#     4   9  18  32  52  82 115 141 174 223 273 326
#     4  10  19  33  56  83 111 143 179 219 271 332
#
# _framework density 19.483018999999999
#
# number of rings (size 3 to 8) (size 9 to 14) (size 15 to 20)
#    0.000    2.750    0.000    2.625    0.000    6.000 
#    0.000   10.000    0.000    0.000    0.000    0.000 
#    0.000    0.000    0.000    0.000    0.000    0.000 
#
# Total GULP energy -198233.590029 kJ/mol
# GULP energy per Si atom -12389.599377 kJ/mol
# Density = 1.943867 g / cm^3
# Si number density = 19.483019 Si / 1000 Ang^3
#
#
#
# Elastic Constant Matrix: (Units=GPa)
#
#
# Indices 1 2 3 4 5 6 
#
# 1 98.1239 68.1840 43.5489 0.0000 1.1695 0.0000
# 2 68.1840 158.2704 61.5313 0.0000 -5.9633 0.0000
# 3 43.5489 61.5313 101.7565 0.0000 -13.6112 0.0000
# 4 0.0000 0.0000 0.0000 26.1765 0.0000 -7.1343
# 5 1.1695 -5.9633 -13.6112 0.0000 31.4324 0.0000
# 6 0.0000 0.0000 0.0000 -7.1343 0.0000 13.8002
#
#
#
# Elastic Compliance Matrix: (Units=1/GPa)
#
#
# Indices 1 2 3 4 5 6 
#
# 1 0.015695 -0.005364 -0.003915 0.000000 -0.003297 0.000000
# 2 -0.005364 0.010105 -0.003749 0.000000 0.000493 0.000000
# 3 -0.003915 -0.003749 0.014536 0.000000 0.005729 0.000000
# 4 0.000000 0.000000 0.000000 0.044468 0.000000 0.022989
# 5 -0.003297 0.000493 0.005729 0.000000 0.034511 0.000000
# 6 0.000000 0.000000 0.000000 0.022989 0.000000 0.084347
#
#
# Mechanical properties :
#
#
# Convention : Reuss Voigt Hill
#
# Bulk Modulus (GPa) = 70.02068 78.29768 74.15918
# Shear Modulus (GPa) = 21.32397 26.60759 23.96578
#
# Velocity S-wave (km/s) = 3.31190 3.69952 3.51106
# Velocity P-wave (km/s) = 7.11634 7.65007 7.38802
#
# Compressibility (1/GPa) = 0.01428150
#
# Stress axis : x y z
#
# Youngs Moduli (GPa) = 63.71432 98.95924 68.79488
#
# Poissons Ratio (x) = 0.53081 0.26930
# Poissons Ratio (y) = 0.34176 0.25791
# Poissons Ratio (z) = 0.24941 0.37099
#
# Static dielectric constant tensor:
#      x y z
#    x 3.285060 0.000000 -0.083620 
#    y 0.000000 4.196410 0.000000 
#    z -0.083620 0.000000 3.657060 
# 
# 
# High freq. dielectric constant tensor:
#      x y z
#    x 1.736270 0.000000 -0.004930 
#    y 0.000000 1.766790 0.000000 
#    z -0.004930 0.000000 1.764500 
# 
# From -- ./inp_files/6046.got.cif
#   From: 2010.03.12/outbox.cif.g09.slc.cpg/sg3_4_cif.got.tgz:6046.got - 2010.03.31 09:20:49.
