data_PCOD8044358
_publ_section_title
;
Structure prediction by ZEFSAII (Michael W. Deem and Ramdas Pophale) SiO2 
 PCOD8044358
Probable space group: P -1
;
_chemical_formula_sum "Si O2"
_cell_formula_units_Z 16
_cell_length_a 9.109798
_cell_length_b 7.908417
_cell_length_c 17.222021
_cell_angle_alpha 53.146591
_cell_angle_beta 132.709453
_cell_angle_gamma 112.291934
_cell_volume 728.721846
_symmetry_space_group_name_H-M "P -1"
_symmetry_group_IT_number 2
_symmetry_cell_setting 'triclinic'
loop_
_space_group_symop_operation_xyz
x,y,z
-x,-y,-z
loop_
_atom_site_type_symbol
_atom_site_label
_atom_site_fract_x
_atom_site_fract_y
_atom_site_fract_z
Si Si1 0.321516 0.135441 0.678521
Si Si2 0.770329 0.443845 0.838055
Si Si3 0.002818 0.841901 0.114360
Si Si4 0.360515 0.591263 0.578410
Si Si5 0.832232 0.891358 0.762077
Si Si6 0.091924 0.989485 0.406071
Si Si7 0.467916 0.158247 0.558791
Si Si8 0.607916 0.026837 0.950757
O O1 0.243788 0.374993 0.602350
O O2 0.469973 0.154541 0.653785
O O3 0.452692 0.026845 0.824250
O O4 0.121127 0.008268 0.625884
O O5 0.560830 0.552948 0.709367
O O6 0.871894 0.640286 0.865638
O O7 0.734166 0.242820 0.936284
O O8 0.894984 0.376575 0.822524
O O9 0.124142 0.944242 0.199561
O O10 0.768705 0.825790 0.058233
O O11 0.000000 0.000000 0.000000
O O12 0.210785 0.763876 0.516178
O O13 0.421046 0.647103 0.495191
O O14 0.966243 0.945700 0.720772
O O15 0.599094 0.945951 0.638282
O O16 0.236914 0.158994 0.448130
O O17 0.500000 0.000000 0.000000
#
# Coordination Sequence:
#
# PCOD8044358 Si02
#       8
#     2   2   2   2   2   2   2   2
#     4  11  23  36  61  87 120 164 200 244 309 359
#     4  10  20  39  65  90 116 159 205 246 303 367
#     4  10  22  38  61  88 114 152 212 259 293 346
#     4  10  19  38  58  90 121 160 199 236 297 377
#     4  11  20  39  65  89 122 161 200 249 308 359
#     4  11  21  37  58  92 129 157 189 245 305 368
#     4  11  20  37  60  90 130 152 194 247 296 368
#     4  10  22  42  59  84 121 157 205 259 302 348
#
# _framework density 21.956250000000001
#
# number of rings (size 3 to 8) (size 9 to 14) (size 15 to 20)
#    0.000    1.500    2.500    4.875    0.000    3.000 
#    0.000    3.750    0.000    6.750    0.000    0.000 
#    0.000    0.000    0.000    0.000    0.000    0.000 
#
# Total GULP energy -198209.931547 kJ/mol
# GULP energy per Si atom -12388.120722 kJ/mol
# Density = 2.190628 g / cm^3
# Si number density = 21.956250 Si / 1000 Ang^3
#
#
#
# Elastic Constant Matrix: (Units=GPa)
#
#
# Indices 1 2 3 4 5 6 
#
# 1 104.5026 11.6781 24.8434 3.2527 5.4713 6.8192
# 2 11.6781 64.3401 23.0869 -1.8509 10.6380 -1.6406
# 3 24.8434 23.0869 52.8356 -0.4785 -3.8610 11.3626
# 4 3.2527 -1.8509 -0.4785 29.5906 -3.9941 2.1525
# 5 5.4713 10.6380 -3.8610 -3.9941 35.5276 8.8267
# 6 6.8192 -1.6406 11.3626 2.1525 8.8267 25.3165
#
#
#
# Elastic Compliance Matrix: (Units=1/GPa)
#
#
# Indices 1 2 3 4 5 6 
#
# 1 0.011048 0.000541 -0.005839 -0.001727 -0.002900 0.000838
# 2 0.000541 0.022276 -0.013221 -0.001195 -0.011109 0.011206
# 3 -0.005839 -0.013221 0.032527 0.003534 0.013482 -0.018884
# 4 -0.001727 -0.001195 0.003534 0.035330 0.006595 -0.006502
# 5 -0.002900 -0.011109 0.013482 0.006595 0.039145 -0.020198
# 6 0.000838 0.011206 -0.018884 -0.006502 -0.020198 0.056071
#
#
# Mechanical properties :
#
#
# Convention : Reuss Voigt Hill
#
# Bulk Modulus (GPa) = 34.70514 37.87724 36.29119
# Shear Modulus (GPa) = 20.57282 28.89158 24.73220
#
# Velocity S-wave (km/s) = 3.06435 3.63143 3.35988
# Velocity P-wave (km/s) = 5.32552 5.90523 5.62285
#
# Compressibility (1/GPa) = 0.02881417
#
# Stress axis : x y z
#
# Youngs Moduli (GPa) = 90.51674 44.89081 30.74341
#
# Poissons Ratio (x) = -0.02429 0.17951
# Poissons Ratio (y) = -0.04898 0.40645
# Poissons Ratio (z) = 0.52852 0.59349
#
# Static dielectric constant tensor:
#      x y z
#    x 4.337240 -0.301480 0.212350 
#    y -0.301480 4.176250 -0.359630 
#    z 0.212350 -0.359630 3.898980 
# 
# 
# High freq. dielectric constant tensor:
#      x y z
#    x 1.862370 -0.002270 0.008980 
#    y -0.002270 1.840560 0.001170 
#    z 0.008980 0.001170 1.868700 
# 
# From -- ./inp_files/179434.got.cif
#   From: 2010.06.25/outbox.cif.g09.slc.cpg/sg2_90_cif.got.tgz:179434.got - 2010.06.27 13:26:56.
