data_PCOD8044734
_publ_section_title
;
Structure prediction by ZEFSAII (Michael W. Deem and Ramdas Pophale) SiO2 
 PCOD8044734
Probable space group: P -1
;
_chemical_formula_sum "Si O2"
_cell_formula_units_Z 14
_cell_length_a 19.709801
_cell_length_b 12.185432
_cell_length_c 9.507644
_cell_angle_alpha 69.175266
_cell_angle_beta 146.832613
_cell_angle_gamma 136.277270
_cell_volume 648.934471
_symmetry_space_group_name_H-M "P -1"
_symmetry_group_IT_number 2
_symmetry_cell_setting 'triclinic'
loop_
_space_group_symop_operation_xyz
x,y,z
-x,-y,-z
loop_
_atom_site_type_symbol
_atom_site_label
_atom_site_fract_x
_atom_site_fract_y
_atom_site_fract_z
Si Si1 0.945303 0.765578 0.785101
Si Si2 0.906009 0.640738 0.080283
Si Si3 0.480362 0.595576 0.322978
Si Si4 0.267519 0.825019 0.253768
Si Si5 0.862639 0.387097 0.601689
Si Si6 0.370180 0.561345 0.856452
Si Si7 0.163361 0.065602 0.418264
O O1 0.743150 0.588787 0.404531
O O2 0.979479 0.930739 0.793663
O O3 0.869652 0.640759 0.852940
O O4 0.172444 0.884324 0.067818
O O5 0.073035 0.661837 0.379409
O O6 0.003175 0.828196 0.249319
O O7 0.665213 0.423846 0.832428
O O8 0.500000 0.500000 0.500000
O O9 0.726192 0.836490 0.593493
O O10 0.351488 0.466767 0.009140
O O11 0.297894 0.796979 0.475558
O O12 0.500000 0.000000 0.500000
O O13 0.096273 0.608705 0.972862
O O14 0.737876 0.397774 0.310237
O O15 0.635784 0.791187 0.184535
#
# Coordination Sequence:
#
# PCOD8044734 Si02
#       7
#     2   2   2   2   2   2   2
#     4  10  19  38  66  84 119 158 201 254 299 352
#     4  11  21  38  62  87 123 163 200 243 305 371
#     4  10  22  39  61  86 123 161 203 249 308 359
#     4   9  19  38  61  91 121 160 204 250 301 357
#     4   9  20  38  59  87 126 162 197 249 305 355
#     4   9  21  41  60  88 123 161 201 255 302 352
#     4  10  22  38  60  89 124 157 201 250 307 362
#
# _framework density 21.573827999999999
#
# number of rings (size 3 to 8) (size 9 to 14) (size 15 to 20)
#    0.857    1.429    1.429    1.714    0.000    3.429 
#    5.143    0.714    0.000    0.000    0.000    0.000 
#    0.000    0.000    0.000    0.000    0.000    0.000 
#
# Total GULP energy -173449.522488 kJ/mol
# GULP energy per Si atom -12389.251606 kJ/mol
# Density = 2.152472 g / cm^3
# Si number density = 21.573828 Si / 1000 Ang^3
#
#
#
# Elastic Constant Matrix: (Units=GPa)
#
#
# Indices 1 2 3 4 5 6 
#
# 1 124.6949 38.6056 37.2571 8.1549 25.5343 -16.5054
# 2 38.6056 72.4505 24.1240 -4.7946 12.9037 -20.5282
# 3 37.2571 24.1240 85.0015 -13.7435 1.2686 -2.2370
# 4 8.1549 -4.7946 -13.7435 21.0642 6.4400 5.2726
# 5 25.5343 12.9037 1.2686 6.4400 36.8643 -4.4881
# 6 -16.5054 -20.5282 -2.2370 5.2726 -4.4881 40.8029
#
#
#
# Elastic Compliance Matrix: (Units=1/GPa)
#
#
# Indices 1 2 3 4 5 6 
#
# 1 0.013167 -0.003529 -0.006053 -0.009072 -0.005632 0.003772
# 2 -0.003529 0.019844 -0.003335 0.003043 -0.004000 0.007540
# 3 -0.006053 -0.003335 0.017407 0.013569 0.001815 -0.004726
# 4 -0.009072 0.003043 0.013569 0.065683 -0.008034 -0.010766
# 5 -0.005632 -0.004000 0.001815 -0.008034 0.033838 0.000569
# 6 0.003772 0.007540 -0.004726 -0.010766 0.000569 0.031022
#
#
# Mechanical properties :
#
#
# Convention : Reuss Voigt Hill
#
# Bulk Modulus (GPa) = 40.67841 53.56893 47.12367
# Shear Modulus (GPa) = 23.25714 31.89028 27.57371
#
# Velocity S-wave (km/s) = 3.28689 3.84890 3.57894
# Velocity P-wave (km/s) = 5.77072 6.68105 6.24250
#
# Compressibility (1/GPa) = 0.02458306
#
# Stress axis : x y z
#
# Youngs Moduli (GPa) = 75.94984 50.39412 57.44962
#
# Poissons Ratio (x) = 0.17784 0.34774
# Poissons Ratio (y) = 0.26802 0.19159
# Poissons Ratio (z) = 0.45973 0.16806
#
# Static dielectric constant tensor:
#      x y z
#    x 4.068040 -0.128840 0.269480 
#    y -0.128840 3.653400 -0.201120 
#    z 0.269480 -0.201120 3.936870 
# 
# 
# High freq. dielectric constant tensor:
#      x y z
#    x 1.849640 -0.012130 0.015270 
#    y -0.012130 1.817680 -0.015520 
#    z 0.015270 -0.015520 1.846840 
# 
# From -- ./inp_files/332020.got.cif
#   From: 2010.06.25/outbox.cif.g09.slc.cpg/sg2_167_cif.got.tgz:332020.got - 2010.06.27 13:26:56.
