data_PCOD8044658
_publ_section_title
;
Structure prediction by ZEFSAII (Michael W. Deem and Ramdas Pophale) SiO2 
 PCOD8044658
Probable space group: P -1
;
_chemical_formula_sum "Si O2"
_cell_formula_units_Z 16
_cell_length_a 8.795372
_cell_length_b 18.249478
_cell_length_c 14.586357
_cell_angle_alpha 151.036169
_cell_angle_beta 42.855993
_cell_angle_gamma 138.894057
_cell_volume 725.095916
_symmetry_space_group_name_H-M "P -1"
_symmetry_group_IT_number 2
_symmetry_cell_setting 'triclinic'
loop_
_space_group_symop_operation_xyz
x,y,z
-x,-y,-z
loop_
_atom_site_type_symbol
_atom_site_label
_atom_site_fract_x
_atom_site_fract_y
_atom_site_fract_z
Si Si1 0.930650 0.292520 0.210689
Si Si2 0.744796 0.487872 0.842591
Si Si3 0.023377 0.419200 0.804761
Si Si4 0.849945 0.945374 0.800299
Si Si5 0.551507 0.689967 0.521095
Si Si6 0.506749 0.182315 0.501725
Si Si7 0.253120 0.952520 0.505632
Si Si8 0.029285 0.844129 0.779003
O O1 0.729845 0.379641 0.404718
O O2 0.052295 0.300095 0.266853
O O3 0.133904 0.381932 0.146931
O O4 0.806239 0.102715 0.032712
O O5 0.933070 0.513295 0.869479
O O6 0.679541 0.312735 0.637007
O O7 0.500000 0.500000 0.000000
O O8 0.854577 0.233986 0.677926
O O9 0.294953 0.430316 0.669576
O O10 0.000000 0.500000 0.000000
O O11 0.641173 0.846294 0.717228
O O12 0.089392 0.013283 0.710259
O O13 0.880051 0.813239 0.716299
O O14 0.594705 0.740154 0.450537
O O15 0.685705 0.097110 0.293092
O O16 0.283619 0.055006 0.511018
O O17 0.500000 0.000000 0.500000
O O18 0.000000 0.000000 0.000000
#
# Coordination Sequence:
#
# PCOD8044658 Si02
#       8
#     2   2   2   2   2   2   2   2
#     4  10  23  39  64  91 125 167 213 259 330 376
#     4  12  25  42  65  90 126 165 214 268 319 384
#     4  11  25  43  63  96 134 165 211 269 322 379
#     4  10  19  38  64  94 128 158 219 264 313 378
#     4  10  23  41  61  91 129 170 208 262 320 389
#     4  11  21  39  62  91 123 165 217 259 308 383
#     4  11  20  38  69  93 122 172 213 262 319 370
#     4   9  19  36  59  89 120 159 212 262 306 371
#
# _framework density 22.066044999999999
#
# number of rings (size 3 to 8) (size 9 to 14) (size 15 to 20)
#    0.000    1.500    2.500    2.625    0.000    5.500 
#    0.000    3.750    0.000    0.000    0.000    0.000 
#    0.000    0.000    0.000    0.000    0.000    0.000 
#
# Total GULP energy -198253.175471 kJ/mol
# GULP energy per Si atom -12390.823467 kJ/mol
# Density = 2.201582 g / cm^3
# Si number density = 22.066045 Si / 1000 Ang^3
#
#
#
# Elastic Constant Matrix: (Units=GPa)
#
#
# Indices 1 2 3 4 5 6 
#
# 1 116.9775 48.5466 42.1897 -20.0970 -9.1866 -16.3161
# 2 48.5466 118.6400 34.0726 -23.5764 -6.7767 -23.5932
# 3 42.1897 34.0726 110.9600 -20.0016 -12.0261 3.3450
# 4 -20.0970 -23.5764 -20.0016 33.1880 7.5542 5.9506
# 5 -9.1866 -6.7767 -12.0261 7.5542 41.9538 -4.6585
# 6 -16.3161 -23.5932 3.3450 5.9506 -4.6585 32.6134
#
#
#
# Elastic Compliance Matrix: (Units=1/GPa)
#
#
# Indices 1 2 3 4 5 6 
#
# 1 0.011885 -0.002537 -0.003302 0.002358 0.001288 0.004203
# 2 -0.002537 0.012489 -0.002184 0.004525 0.000830 0.007283
# 3 -0.003302 -0.002184 0.011988 0.004361 0.001007 -0.005114
# 4 0.002358 0.004525 0.004361 0.039232 -0.004996 -0.003866
# 5 0.001288 0.000830 0.001007 -0.004996 0.026082 0.005778
# 6 0.004203 0.007283 -0.005114 -0.003866 0.005778 0.040089
#
#
# Mechanical properties :
#
#
# Convention : Reuss Voigt Hill
#
# Bulk Modulus (GPa) = 49.22391 66.24393 57.73392
# Shear Modulus (GPa) = 30.37976 36.33562 33.35769
#
# Velocity S-wave (km/s) = 3.71450 4.06233 3.89230
# Velocity P-wave (km/s) = 6.38378 7.21729 6.81329
#
# Compressibility (1/GPa) = 0.02031533
#
# Stress axis : x y z
#
# Youngs Moduli (GPa) = 84.14031 80.06977 83.41675
#
# Poissons Ratio (x) = 0.20313 0.27544
# Poissons Ratio (y) = 0.21346 0.18222
# Poissons Ratio (z) = 0.27783 0.17491
#
# Static dielectric constant tensor:
#      x y z
#    x 4.092770 -1.038860 0.308050 
#    y -1.038860 4.424780 -0.098800 
#    z 0.308050 -0.098800 3.935430 
# 
# 
# High freq. dielectric constant tensor:
#      x y z
#    x 1.881000 -0.013990 0.000200 
#    y -0.013990 1.846190 -0.021780 
#    z 0.000200 -0.021780 1.879750 
# 
# From -- ./inp_files/218252.got.cif
#   From: 2010.06.25/outbox.cif.g09.slc.cpg/sg2_110_cif.got.tgz:218252.got - 2010.06.27 13:26:56.
