data_PCOD8044916
_publ_section_title
;
Structure prediction by ZEFSAII (Michael W. Deem and Ramdas Pophale) SiO2 
 PCOD8044916
Probable space group: P 2
;
_chemical_formula_sum "Si O2"
_cell_formula_units_Z 13
_cell_length_a 10.420160
_cell_length_b 8.785576
_cell_length_c 11.199029
_cell_angle_alpha 90.000000
_cell_angle_beta 139.095567
_cell_angle_gamma 90.000000
_cell_volume 671.325584
_symmetry_space_group_name_H-M "P 2"
_symmetry_group_IT_number 3
_symmetry_cell_setting 'monoclinic'
loop_
_space_group_symop_operation_xyz
x,y,z
-x,y,-z
loop_
_atom_site_type_symbol
_atom_site_label
_atom_site_fract_x
_atom_site_fract_y
_atom_site_fract_z
Si Si1 0.000000 0.237840 0.000000
Si Si2 0.752688 0.961866 0.417315
Si Si3 0.126480 0.101327 0.749441
Si Si4 0.460075 0.424074 0.106889
Si Si5 0.635390 0.110952 0.857437
Si Si6 0.963494 0.416158 0.210957
Si Si7 0.819701 0.605562 0.456968
O O1 0.044774 0.341710 0.146756
O O2 0.190022 0.130415 0.115479
O O3 0.783247 0.046900 0.312153
O O4 0.531979 0.995937 0.307585
O O5 0.912789 0.027169 0.621562
O O6 0.790064 0.784112 0.438513
O O7 0.093955 0.283599 0.733652
O O8 0.272806 0.045128 0.955595
O O9 0.466708 0.273940 0.192929
O O10 0.617541 0.541756 0.265522
O O11 0.500000 0.374056 0.000000
O O12 0.243133 0.501529 0.962380
O O13 0.125675 0.533086 0.375617
O O14 0.000000 0.560231 0.500000
#
# Coordination Sequence:
#
# PCOD8044916 Si02
#       7
#     1   2   2   2   2   2   2
#     4   8  20  42  64  86 106 160 214 262 272 322
#     4  11  21  34  54  92 127 152 184 233 310 367
#     4   9  19  35  56  86 118 154 187 246 295 352
#     4  10  19  33  56  87 116 154 194 241 299 350
#     4  10  20  37  61  82 112 154 207 246 288 333
#     4  10  21  38  63  84 120 150 210 247 287 338
#     4  12  23  34  55  94 131 155 182 235 309 374
#
# _framework density 19.364673
#
# number of rings (size 3 to 8) (size 9 to 14) (size 15 to 20)
#    0.000    2.154    3.077    3.231    2.154    2.462 
#    0.000   12.308    0.000   22.154    0.000    0.000 
#    0.000    0.000    0.000    0.000    0.000    0.000 
#
# Total GULP energy -161128.560167 kJ/mol
# GULP energy per Si atom -12394.504628 kJ/mol
# Density = 1.932060 g / cm^3
# Si number density = 19.364673 Si / 1000 Ang^3
#
#
#
# Elastic Constant Matrix: (Units=GPa)
#
#
# Indices 1 2 3 4 5 6 
#
# 1 97.0646 35.6585 34.4916 0.0000 13.6098 0.0000
# 2 35.6585 87.6631 61.7300 0.0000 5.8719 0.0000
# 3 34.4916 61.7300 108.3773 0.0000 31.6843 0.0000
# 4 0.0000 0.0000 0.0000 17.3584 0.0000 9.4338
# 5 13.6098 5.8719 31.6843 0.0000 34.1133 0.0000
# 6 0.0000 0.0000 0.0000 9.4338 0.0000 19.1744
#
#
#
# Elastic Compliance Matrix: (Units=1/GPa)
#
#
# Indices 1 2 3 4 5 6 
#
# 1 0.012686 -0.004836 -0.000064 0.000000 -0.004169 0.000000
# 2 -0.004836 0.023331 -0.015293 0.000000 0.012117 0.000000
# 3 -0.000064 -0.015293 0.023585 0.000000 -0.019248 0.000000
# 4 0.000000 0.000000 0.000000 0.078635 0.000000 -0.038689
# 5 -0.004169 0.012117 -0.019248 0.000000 0.046769 0.000000
# 6 0.000000 0.000000 0.000000 -0.038689 0.000000 0.071188
#
#
# Mechanical properties :
#
#
# Convention : Reuss Voigt Hill
#
# Bulk Modulus (GPa) = 52.03591 61.87389 56.95490
# Shear Modulus (GPa) = 16.50243 24.87755 20.68999
#
# Velocity S-wave (km/s) = 2.92240 3.58814 3.27225
# Velocity P-wave (km/s) = 6.19008 7.01339 6.61456
#
# Compressibility (1/GPa) = 0.01921750
#
# Stress axis : x y z
#
# Youngs Moduli (GPa) = 78.82464 42.86062 42.39995
#
# Poissons Ratio (x) = 0.20728 0.00271
# Poissons Ratio (y) = 0.38120 0.64840
# Poissons Ratio (z) = 0.00505 0.65545
#
# Static dielectric constant tensor:
#      x y z
#    x 3.474400 0.000000 0.307020 
#    y 0.000000 3.261100 0.000000 
#    z 0.307020 0.000000 3.823860 
# 
# 
# High freq. dielectric constant tensor:
#      x y z
#    x 1.735570 0.000000 0.024370 
#    y 0.000000 1.729680 0.000000 
#    z 0.024370 0.000000 1.765440 
# 
# From -- ./inp_files/11607.got.cif
#   From: 2010.03.12/outbox.cif.g09.slc.cpg/sg3_6_cif.got.tgz:11607.got - 2010.03.31 09:20:49.
