data_PCOD8044821
_publ_section_title
;
Structure prediction by ZEFSAII (Michael W. Deem and Ramdas Pophale) SiO2 
 PCOD8044821
Probable space group: P -1
;
_chemical_formula_sum "Si O2"
_cell_formula_units_Z 16
_cell_length_a 17.247795
_cell_length_b 8.811245
_cell_length_c 9.062096
_cell_angle_alpha 130.621028
_cell_angle_beta 52.488140
_cell_angle_gamma 112.460769
_cell_volume 828.959650
_symmetry_space_group_name_H-M "P -1"
_symmetry_group_IT_number 2
_symmetry_cell_setting 'triclinic'
loop_
_space_group_symop_operation_xyz
x,y,z
-x,-y,-z
loop_
_atom_site_type_symbol
_atom_site_label
_atom_site_fract_x
_atom_site_fract_y
_atom_site_fract_z
Si Si1 0.125552 0.026459 0.131902
Si Si2 0.030972 0.708532 0.667315
Si Si3 0.781784 0.049763 0.492021
Si Si4 0.921167 0.394475 0.120550
Si Si5 0.384138 0.320898 0.077428
Si Si6 0.207298 0.241750 0.433556
Si Si7 0.302574 0.079057 0.773521
Si Si8 0.405195 0.771790 0.282544
O O1 0.128706 0.176749 0.361284
O O2 0.053604 0.124904 0.156159
O O3 0.232396 0.980386 0.911929
O O4 0.095175 0.807487 0.080639
O O5 0.131299 0.795991 0.540308
O O6 0.040847 0.672850 0.806424
O O7 0.000000 0.500000 0.500000
O O8 0.681782 0.185780 0.708463
O O9 0.799211 0.923047 0.537161
O O10 0.764187 0.889014 0.276929
O O11 0.824615 0.537341 0.334621
O O12 0.000000 0.500000 0.000000
O O13 0.315309 0.245347 0.240660
O O14 0.395504 0.555326 0.228934
O O15 0.343402 0.277191 0.930530
O O16 0.489243 0.207490 0.903627
O O17 0.392621 0.927424 0.532493
#
# Coordination Sequence:
#
# PCOD8044821 Si02
#       8
#     2   2   2   2   2   2   2   2
#     4  11  23  40  62  82 122 162 201 243 297 357
#     4  12  24  41  63  87 120 165 201 249 297 361
#     4  10  23  40  58  85 131 150 204 251 291 361
#     4  12  25  39  60  88 120 157 203 250 299 349
#     4  10  19  38  69  84 118 156 204 244 308 351
#     4  11  24  41  56  93 121 161 198 253 295 354
#     4   9  20  37  61  86 115 155 197 241 294 359
#     4   9  20  38  63  92 115 155 202 251 293 368
#
# _framework density 19.301300000000001
#
# number of rings (size 3 to 8) (size 9 to 14) (size 15 to 20)
#    0.750    0.750    2.500    3.000    5.250    1.500 
#    2.250    0.000    0.000    1.500    0.000    0.000 
#    0.000    0.000    0.000    0.000    0.000    0.000 
#
# Total GULP energy -198241.420012 kJ/mol
# GULP energy per Si atom -12390.088751 kJ/mol
# Density = 1.925737 g / cm^3
# Si number density = 19.301300 Si / 1000 Ang^3
#
#
#
# Elastic Constant Matrix: (Units=GPa)
#
#
# Indices 1 2 3 4 5 6 
#
# 1 77.3400 37.8135 27.8523 -13.3461 -16.3326 0.5560
# 2 37.8135 110.3651 44.7241 -14.1204 -10.7695 -0.1684
# 3 27.8523 44.7241 96.4310 -0.9456 -19.6848 4.3027
# 4 -13.3461 -14.1204 -0.9456 29.4791 -2.0363 1.5374
# 5 -16.3326 -10.7695 -19.6848 -2.0363 29.0952 1.1790
# 6 0.5560 -0.1684 4.3027 1.5374 1.1790 32.9551
#
#
#
# Elastic Compliance Matrix: (Units=1/GPa)
#
#
# Indices 1 2 3 4 5 6 
#
# 1 0.018421 -0.003912 -0.001721 0.007018 0.008249 -0.000729
# 2 -0.003912 0.012888 -0.004934 0.004178 -0.000496 0.000599
# 3 -0.001721 -0.004934 0.014671 -0.002076 0.007072 -0.002068
# 4 0.007018 0.004178 -0.002076 0.039614 0.006932 -0.001922
# 5 0.008249 -0.000496 0.007072 0.006932 0.044207 -0.002970
# 6 -0.000729 0.000599 -0.002068 -0.001922 -0.002970 0.030826
#
#
# Mechanical properties :
#
#
# Convention : Reuss Voigt Hill
#
# Bulk Modulus (GPa) = 40.24938 56.10176 48.17557
# Shear Modulus (GPa) = 26.30985 29.88897 28.09941
#
# Velocity S-wave (km/s) = 3.69604 3.93943 3.81967
# Velocity P-wave (km/s) = 6.25402 7.05844 6.66837
#
# Compressibility (1/GPa) = 0.02484510
#
# Stress axis : x y z
#
# Youngs Moduli (GPa) = 54.28653 77.59188 68.16058
#
# Poissons Ratio (x) = 0.30356 0.11729
# Poissons Ratio (y) = 0.21238 0.33633
# Poissons Ratio (z) = 0.09342 0.38287
#
# Static dielectric constant tensor:
#      x y z
#    x 3.652250 0.235110 -0.006850 
#    y 0.235110 3.481650 0.102460 
#    z -0.006850 0.102460 3.726480 
# 
# 
# High freq. dielectric constant tensor:
#      x y z
#    x 1.743360 0.016530 -0.006420 
#    y 0.016530 1.743260 0.004510 
#    z -0.006420 0.004510 1.760520 
# 
# From -- ./inp_files/329518.got.cif
#   From: 2010.06.25/outbox.cif.g09.slc.cpg/sg2_165_cif.got.tgz:329518.got - 2010.06.27 13:26:56.
