data_PCOD8044328
_publ_section_title
;
Structure prediction by ZEFSAII (Michael W. Deem and Ramdas Pophale) SiO2 
 PCOD8044328
Probable space group: P -1
;
_chemical_formula_sum "Si O2"
_cell_formula_units_Z 16
_cell_length_a 13.627623
_cell_length_b 8.098321
_cell_length_c 12.669071
_cell_angle_alpha 105.061100
_cell_angle_beta 135.386166
_cell_angle_gamma 58.029241
_cell_volume 816.783233
_symmetry_space_group_name_H-M "P -1"
_symmetry_group_IT_number 2
_symmetry_cell_setting 'triclinic'
loop_
_space_group_symop_operation_xyz
x,y,z
-x,-y,-z
loop_
_atom_site_type_symbol
_atom_site_label
_atom_site_fract_x
_atom_site_fract_y
_atom_site_fract_z
Si Si1 0.464286 0.607788 0.380801
Si Si2 0.608949 0.858827 0.198630
Si Si3 0.954375 0.072357 0.309098
Si Si4 0.971851 0.742399 0.411922
Si Si5 0.245911 0.965971 0.399191
Si Si6 0.558762 0.249239 0.281943
Si Si7 0.401233 0.714948 0.912784
Si Si8 0.724300 0.664469 0.470058
O O1 0.500000 0.500000 0.500000
O O2 0.320347 0.833692 0.328093
O O3 0.419953 0.474331 0.247038
O O4 0.625167 0.600203 0.459421
O O5 0.633418 0.725931 0.298126
O O6 0.783484 0.802179 0.274516
O O7 0.500599 0.092882 0.186625
O O8 0.502669 0.825355 0.025778
O O9 0.986757 0.216565 0.432502
O O10 0.771135 0.176805 0.143624
O O11 0.002764 0.868761 0.370878
O O12 0.056490 0.036404 0.273610
O O13 0.090808 0.512237 0.435128
O O14 0.312196 0.845256 0.540222
O O15 0.274949 0.150076 0.444139
O O16 0.639376 0.277283 0.241917
O O17 0.500000 0.500000 0.000000
#
# Coordination Sequence:
#
# PCOD8044328 Si02
#       8
#     2   2   2   2   2   2   2   2
#     4  10  20  36  58  84 112 150 195 240 286 324
#     4  11  22  36  56  89 121 153 183 231 289 349
#     4  11  20  36  55  83 118 151 189 233 285 340
#     4  11  20  34  59  84 121 147 184 236 293 336
#     4  10  21  36  58  87 113 150 193 246 279 326
#     4  10  19  38  57  82 114 151 189 235 279 339
#     4  12  24  35  57  85 121 155 188 224 292 350
#     4  11  21  34  59  89 117 145 191 240 285 337
#
# _framework density 19.589041999999999
#
# number of rings (size 3 to 8) (size 9 to 14) (size 15 to 20)
#    0.000    1.250    3.750    5.625    1.750    0.000 
#    0.000    0.000    0.000    3.750    3.250    0.000 
#    0.000    0.000    0.000    0.000    0.000    0.000 
#
# Total GULP energy -198288.097446 kJ/mol
# GULP energy per Si atom -12393.006090 kJ/mol
# Density = 1.954446 g / cm^3
# Si number density = 19.589042 Si / 1000 Ang^3
#
#
#
# Elastic Constant Matrix: (Units=GPa)
#
#
# Indices 1 2 3 4 5 6 
#
# 1 101.2547 46.4789 24.4594 7.3444 15.6574 -5.8743
# 2 46.4789 169.6992 41.5719 3.8538 11.8128 -18.5229
# 3 24.4594 41.5719 66.0024 3.6325 20.1033 -8.4979
# 4 7.3444 3.8538 3.6325 19.5547 4.8502 -0.9658
# 5 15.6574 11.8128 20.1033 4.8502 27.2311 -6.1628
# 6 -5.8743 -18.5229 -8.4979 -0.9658 -6.1628 31.9977
#
#
#
# Elastic Compliance Matrix: (Units=1/GPa)
#
#
# Indices 1 2 3 4 5 6 
#
# 1 0.012328 -0.002725 -0.001406 -0.002741 -0.004526 -0.000642
# 2 -0.002725 0.007877 -0.004113 -0.000085 0.001958 0.003342
# 3 -0.001406 -0.004113 0.022593 0.000660 -0.014052 0.000675
# 4 -0.002741 -0.000085 0.000660 0.054179 -0.008615 -0.000401
# 5 -0.004526 0.001958 -0.014052 -0.008615 0.051807 0.006289
# 6 -0.000642 0.003342 0.000675 -0.000401 0.006289 0.034447
#
#
# Mechanical properties :
#
#
# Convention : Reuss Voigt Hill
#
# Bulk Modulus (GPa) = 38.00685 62.44186 50.22435
# Shear Modulus (GPa) = 23.98214 30.71975 27.35095
#
# Velocity S-wave (km/s) = 3.50274 3.96436 3.74068
# Velocity P-wave (km/s) = 5.98357 7.27324 6.65970
#
# Compressibility (1/GPa) = 0.02631105
#
# Stress axis : x y z
#
# Youngs Moduli (GPa) = 81.11716 126.95015 44.26181
#
# Poissons Ratio (x) = 0.34593 0.06221
# Poissons Ratio (y) = 0.22104 0.18204
# Poissons Ratio (z) = 0.11401 0.52213
#
# Static dielectric constant tensor:
#      x y z
#    x 3.688920 -0.191950 0.026760 
#    y -0.191950 4.343940 0.027020 
#    z 0.026760 0.027020 3.271690 
# 
# 
# High freq. dielectric constant tensor:
#      x y z
#    x 1.763300 0.013690 0.005910 
#    y 0.013690 1.786910 -0.003740 
#    z 0.005910 -0.003740 1.714950 
# 
# From -- ./inp_files/462125.got.cif
#   From: 2010.06.25/outbox.cif.g09.slc.cpg/sg2_232_cif.got.tgz:462125.got - 2010.06.27 13:26:56.
