data_PCOD8044729
_publ_section_title
;
Structure prediction by ZEFSAII (Michael W. Deem and Ramdas Pophale) SiO2 
 PCOD8044729
Probable space group: P -1
;
_chemical_formula_sum "Si O2"
_cell_formula_units_Z 16
_cell_length_a 11.602132
_cell_length_b 13.551308
_cell_length_c 9.233274
_cell_angle_alpha 104.949669
_cell_angle_beta 76.649237
_cell_angle_gamma 147.411852
_cell_volume 755.156030
_symmetry_space_group_name_H-M "P -1"
_symmetry_group_IT_number 2
_symmetry_cell_setting 'triclinic'
loop_
_space_group_symop_operation_xyz
x,y,z
-x,-y,-z
loop_
_atom_site_type_symbol
_atom_site_label
_atom_site_fract_x
_atom_site_fract_y
_atom_site_fract_z
Si Si1 0.791912 0.776280 0.637418
Si Si2 0.008615 0.202563 0.669753
Si Si3 0.046518 0.227158 0.179452
Si Si4 0.881891 0.848105 0.141792
Si Si5 0.144547 0.519373 0.783195
Si Si6 0.818883 0.464278 0.881323
Si Si7 0.612239 0.836412 0.264776
Si Si8 0.436702 0.203749 0.395587
O O1 0.913850 0.821129 0.481287
O O2 0.762244 0.660432 0.715841
O O3 0.583893 0.691051 0.612917
O O4 0.945189 0.963285 0.748395
O O5 0.141907 0.273640 0.805036
O O6 0.043654 0.345500 0.675528
O O7 0.756085 0.003118 0.687678
O O8 0.090805 0.365954 0.145551
O O9 0.042543 0.129502 0.031277
O O10 0.813613 0.057318 0.261108
O O11 0.664102 0.757791 0.167114
O O12 0.355556 0.697069 0.698404
O O13 0.981133 0.493451 0.796369
O O14 0.200099 0.542893 0.943743
O O15 0.588157 0.269529 0.810884
O O16 0.549674 0.792384 0.434368
#
# Coordination Sequence:
#
# PCOD8044729 Si02
#       8
#     2   2   2   2   2   2   2   2
#     4  10  20  38  67 100 134 159 203 259 321 397
#     4  11  20  43  67  96 132 167 203 260 324 383
#     4  11  23  41  67  98 133 169 203 262 324 373
#     4  10  19  38  66 101 130 163 205 255 325 390
#     4  11  28  46  65  88 126 175 226 263 307 374
#     4  11  28  48  60  92 128 170 228 267 300 374
#     4  11  23  41  68  98 132 163 208 263 322 382
#     4  11  23  41  69  98 128 170 205 257 329 382
#
# _framework density 21.187676
#
# number of rings (size 3 to 8) (size 9 to 14) (size 15 to 20)
#    0.000    1.250    5.000    2.250    7.000    3.500 
#    0.000    3.750    0.000    0.000    0.000    0.000 
#    0.000    0.000    0.000    0.000    0.000    0.000 
#
# Total GULP energy -198332.996540 kJ/mol
# GULP energy per Si atom -12395.812284 kJ/mol
# Density = 2.113945 g / cm^3
# Si number density = 21.187676 Si / 1000 Ang^3
#
#
#
# Elastic Constant Matrix: (Units=GPa)
#
#
# Indices 1 2 3 4 5 6 
#
# 1 86.8726 27.1241 36.7342 -4.6056 9.6442 11.1463
# 2 27.1241 55.3300 31.0380 -9.3607 -1.6443 8.6188
# 3 36.7342 31.0380 99.3673 -21.9177 6.4582 12.7284
# 4 -4.6056 -9.3607 -21.9177 28.9383 3.4079 -0.6600
# 5 9.6442 -1.6443 6.4582 3.4079 35.7954 0.4003
# 6 11.1463 8.6188 12.7284 -0.6600 0.4003 29.2596
#
#
#
# Elastic Compliance Matrix: (Units=1/GPa)
#
#
# Indices 1 2 3 4 5 6 
#
# 1 0.015468 -0.005425 -0.003876 -0.001874 -0.003510 -0.002603
# 2 -0.005425 0.024503 -0.004813 0.002971 0.003206 -0.003034
# 3 -0.003876 -0.004813 0.015911 0.010142 -0.002971 -0.003758
# 4 -0.001874 0.002971 0.010142 0.043442 -0.005285 -0.003521
# 5 -0.003510 0.003206 -0.002971 -0.005285 0.030056 0.001155
# 6 -0.002603 -0.003034 -0.003758 -0.003521 0.001155 0.037602
#
#
# Mechanical properties :
#
#
# Convention : Reuss Voigt Hill
#
# Bulk Modulus (GPa) = 36.15853 47.92916 42.04385
# Shear Modulus (GPa) = 24.45867 28.57690 26.51778
#
# Velocity S-wave (km/s) = 3.40131 3.67652 3.54159
# Velocity P-wave (km/s) = 5.70334 6.37909 6.05065
#
# Compressibility (1/GPa) = 0.02765599
#
# Stress axis : x y z
#
# Youngs Moduli (GPa) = 64.65012 40.81141 62.84880
#
# Poissons Ratio (x) = 0.22138 0.24358
# Poissons Ratio (y) = 0.35070 0.30248
# Poissons Ratio (z) = 0.25056 0.19641
#
# Static dielectric constant tensor:
#      x y z
#    x 4.203930 -0.021220 0.331160 
#    y -0.021220 3.555700 -0.074510 
#    z 0.331160 -0.074510 4.016950 
# 
# 
# High freq. dielectric constant tensor:
#      x y z
#    x 1.830240 -0.002940 0.014130 
#    y -0.002940 1.812570 -0.007040 
#    z 0.014130 -0.007040 1.845720 
# 
# From -- ./inp_files/273699.got.cif
#   From: 2010.06.25/outbox.cif.g09.slc.cpg/sg2_137_cif.got.tgz:273699.got - 2010.06.27 13:26:56.
