data_PCOD8044421
_publ_section_title
;
Structure prediction by ZEFSAII (Michael W. Deem and Ramdas Pophale) SiO2 
 PCOD8044421
Probable space group: P -1
;
_chemical_formula_sum "Si O2"
_cell_formula_units_Z 16
_cell_length_a 8.793085
_cell_length_b 5.228383
_cell_length_c 19.547478
_cell_angle_alpha 61.684881
_cell_angle_beta 117.004677
_cell_angle_gamma 119.409066
_cell_volume 659.917195
_symmetry_space_group_name_H-M "P -1"
_symmetry_group_IT_number 2
_symmetry_cell_setting 'triclinic'
loop_
_space_group_symop_operation_xyz
x,y,z
-x,-y,-z
loop_
_atom_site_type_symbol
_atom_site_label
_atom_site_fract_x
_atom_site_fract_y
_atom_site_fract_z
Si Si1 0.795835 0.041818 0.526375
Si Si2 0.776868 0.692772 0.432054
Si Si3 0.121740 0.680450 0.234903
Si Si4 0.210401 0.127676 0.307093
Si Si5 0.465230 0.489479 0.190686
Si Si6 0.321605 0.699360 0.006055
Si Si7 0.875291 0.853106 0.055626
Si Si8 0.547821 0.947878 0.251364
O O1 0.727514 0.325054 0.458257
O O2 0.013320 0.146471 0.566460
O O3 0.735577 0.774904 0.490543
O O4 0.703129 0.909811 0.597305
O O5 0.650016 0.815334 0.344015
O O6 0.071466 0.310357 0.271203
O O7 0.984015 0.759134 0.148234
O O8 0.099950 0.794105 0.293189
O O9 0.330797 0.851503 0.233087
O O10 0.363583 0.329771 0.259997
O O11 0.329232 0.501828 0.100747
O O12 0.608699 0.324095 0.217347
O O13 0.581022 0.838871 0.195674
O O14 0.287209 0.458648 0.965408
O O15 0.500000 0.000000 0.000000
O O16 0.170337 0.857253 0.960594
O O17 0.000000 0.000000 0.000000
#
# Coordination Sequence:
#
# PCOD8044421 Si02
#       8
#     2   2   2   2   2   2   2   2
#     4  10  21  38  61  87 126 165 215 259 321 409
#     4  10  21  39  60  88 125 169 206 262 332 393
#     4  10  21  37  59  90 127 155 220 266 319 390
#     4  10  19  38  60  90 124 165 208 277 314 387
#     4  10  21  40  62  86 130 162 212 268 324 392
#     4  12  26  46  69 101 142 180 230 287 348 403
#     4  12  23  43  73  98 132 188 229 281 343 407
#     4  10  20  39  62  90 124 167 208 271 331 383
#
# _framework density 24.245467000000001
#
# number of rings (size 3 to 8) (size 9 to 14) (size 15 to 20)
#    0.000    1.500    0.000    6.750    0.000    0.000 
#    6.750   15.000    0.000    0.000    0.000    0.000 
#    0.000    0.000    0.000    0.000    0.000    0.000 
#
# Total GULP energy -198247.195284 kJ/mol
# GULP energy per Si atom -12390.449705 kJ/mol
# Density = 2.419028 g / cm^3
# Si number density = 24.245467 Si / 1000 Ang^3
#
#
#
# Elastic Constant Matrix: (Units=GPa)
#
#
# Indices 1 2 3 4 5 6 
#
# 1 42.0559 32.9225 20.0017 -2.2865 7.9744 -27.7683
# 2 32.9225 108.6019 18.5784 -1.9807 3.5001 -52.4742
# 3 20.0017 18.5784 112.6548 5.5324 25.6578 -20.2775
# 4 -2.2865 -1.9807 5.5324 40.3769 -16.0992 2.6870
# 5 7.9744 3.5001 25.6578 -16.0992 29.6100 -1.8158
# 6 -27.7683 -52.4742 -20.2775 2.6870 -1.8158 56.9007
#
#
#
# Elastic Compliance Matrix: (Units=1/GPa)
#
#
# Indices 1 2 3 4 5 6 
#
# 1 0.038920 -0.004432 -0.001406 -0.002431 -0.009188 0.014226
# 2 -0.004432 0.017190 0.000769 -0.000895 -0.001135 0.013970
# 3 -0.001406 0.000769 0.014052 -0.008829 -0.016386 0.004924
# 4 -0.002431 -0.000895 -0.008829 0.037540 0.028452 -0.006023
# 5 -0.009188 -0.001135 -0.016386 0.028452 0.065398 -0.010627
# 6 0.014226 0.013970 0.004924 -0.006023 -0.010627 0.039101
#
#
# Mechanical properties :
#
#
# Convention : Reuss Voigt Hill
#
# Bulk Modulus (GPa) = 16.66047 45.14642 30.90344
# Shear Modulus (GPa) = 20.63154 38.16487 29.39821
#
# Velocity S-wave (km/s) = 2.92026 3.97180 3.48591
# Velocity P-wave (km/s) = 4.27283 6.30036 5.38292
#
# Compressibility (1/GPa) = 0.06002233
#
# Stress axis : x y z
#
# Youngs Moduli (GPa) = 25.69399 58.17222 71.16628
#
# Poissons Ratio (x) = 0.25783 0.10009
# Poissons Ratio (y) = 0.11388 -0.05473
# Poissons Ratio (z) = 0.03614 -0.04473
#
# Static dielectric constant tensor:
#      x y z
#    x 3.306310 -0.303810 0.375910 
#    y -0.303810 5.395050 -0.230090 
#    z 0.375910 -0.230090 4.142340 
# 
# 
# High freq. dielectric constant tensor:
#      x y z
#    x 1.945030 -0.042250 0.002990 
#    y -0.042250 1.978830 -0.004110 
#    z 0.002990 -0.004110 1.970220 
# 
# From -- ./inp_files/585574.got.cif
#   From: 2010.06.25/outbox.cif.g09.slc.cpg/sg2_293_cif.got.tgz:585574.got - 2010.06.27 13:26:56.
