data_PCOD8044094
_publ_section_title
;
Structure prediction by ZEFSAII (Michael W. Deem and Ramdas Pophale) SiO2 
 PCOD8044094
Probable space group: P -1
;
_chemical_formula_sum "Si O2"
_cell_formula_units_Z 16
_cell_length_a 11.192399
_cell_length_b 13.302767
_cell_length_c 11.102669
_cell_angle_alpha 67.781663
_cell_angle_beta 40.830086
_cell_angle_gamma 47.978835
_cell_volume 774.382324
_symmetry_space_group_name_H-M "P -1"
_symmetry_group_IT_number 2
_symmetry_cell_setting 'triclinic'
loop_
_space_group_symop_operation_xyz
x,y,z
-x,-y,-z
loop_
_atom_site_type_symbol
_atom_site_label
_atom_site_fract_x
_atom_site_fract_y
_atom_site_fract_z
Si Si1 0.155799 0.621277 0.172396
Si Si2 0.164247 0.408879 0.100150
Si Si3 0.703767 0.548070 0.259577
Si Si4 0.438613 0.184903 0.185812
Si Si5 0.546363 0.611162 0.775826
Si Si6 0.014245 0.004966 0.131395
Si Si7 0.675089 0.319431 0.326961
Si Si8 0.726792 0.902989 0.453189
O O1 0.205110 0.504654 0.097143
O O2 0.263781 0.549614 0.253067
O O3 0.882767 0.751032 0.339350
O O4 0.287230 0.679365 0.996606
O O5 0.287962 0.263351 0.143838
O O6 0.886279 0.496468 0.253548
O O7 0.279026 0.370196 0.896859
O O8 0.764223 0.409352 0.216225
O O9 0.440580 0.658708 0.463877
O O10 0.377359 0.298984 0.279849
O O11 0.356344 0.102190 0.346887
O O12 0.716695 0.084681 0.989066
O O13 0.535016 0.616004 0.638857
O O14 0.879114 0.955907 0.320982
O O15 0.891074 0.160287 0.202840
O O16 0.000000 0.000000 0.000000
O O17 0.500000 0.000000 0.500000
#
# Coordination Sequence:
#
# PCOD8044094 Si02
#       8
#     2   2   2   2   2   2   2   2
#     4  10  21  35  64  96 129 164 204 271 331 375
#     4  10  23  43  63  94 126 168 220 269 314 373
#     4  10  24  42  66  88 126 174 219 265 309 377
#     4  11  24  41  65  99 132 165 210 271 326 381
#     4  10  19  37  63  94 128 163 202 275 331 366
#     4  12  23  43  65  96 137 166 206 266 330 386
#     4  11  22  41  66  94 123 171 219 260 320 388
#     4  12  24  36  62 102 131 170 203 249 344 392
#
# _framework density 20.661629999999999
#
# number of rings (size 3 to 8) (size 9 to 14) (size 15 to 20)
#    0.000    1.250    5.000    0.000    5.250    1.000 
#    4.500    1.250    0.000    0.000    0.000    0.000 
#    0.000    0.000    0.000    0.000    0.000    0.000 
#
# Total GULP energy -198387.536558 kJ/mol
# GULP energy per Si atom -12399.221035 kJ/mol
# Density = 2.061460 g / cm^3
# Si number density = 20.661630 Si / 1000 Ang^3
#
#
#
# Elastic Constant Matrix: (Units=GPa)
#
#
# Indices 1 2 3 4 5 6 
#
# 1 67.6264 30.7798 21.8031 -6.4423 2.0024 -16.2160
# 2 30.7798 101.4593 59.9882 -1.5636 7.7787 -19.2239
# 3 21.8031 59.9882 115.4308 -7.8054 -5.6043 -10.6104
# 4 -6.4423 -1.5636 -7.8054 39.5884 1.7001 0.4826
# 5 2.0024 7.7787 -5.6043 1.7001 23.8337 -0.4043
# 6 -16.2160 -19.2239 -10.6104 0.4826 -0.4043 40.2325
#
#
#
# Elastic Compliance Matrix: (Units=1/GPa)
#
#
# Indices 1 2 3 4 5 6 
#
# 1 0.018401 -0.004092 -0.000712 0.002649 -0.000478 0.005237
# 2 -0.004092 0.017346 -0.008273 -0.001361 -0.007091 0.004402
# 3 -0.000712 -0.008273 0.013450 0.001969 0.005771 -0.000659
# 4 0.002649 -0.001361 0.001969 0.026068 -0.001164 0.000612
# 5 -0.000478 -0.007091 0.005771 -0.001164 0.045725 -0.001585
# 6 0.005237 0.004402 -0.000659 0.000612 -0.001585 0.028873
#
#
# Mechanical properties :
#
#
# Convention : Reuss Voigt Hill
#
# Bulk Modulus (GPa) = 43.39635 56.62874 50.01255
# Shear Modulus (GPa) = 27.21856 32.19396 29.70626
#
# Velocity S-wave (km/s) = 3.63347 3.95163 3.79588
# Velocity P-wave (km/s) = 6.21705 6.94893 6.59315
#
# Compressibility (1/GPa) = 0.02304341
#
# Stress axis : x y z
#
# Youngs Moduli (GPa) = 54.34386 57.65078 74.34921
#
# Poissons Ratio (x) = 0.23589 0.05294
# Poissons Ratio (y) = 0.22236 0.61511
# Poissons Ratio (z) = 0.03869 0.47696
#
# Static dielectric constant tensor:
#      x y z
#    x 3.606210 -0.128070 -0.091400 
#    y -0.128070 3.832390 -0.168120 
#    z -0.091400 -0.168120 3.765970 
# 
# 
# High freq. dielectric constant tensor:
#      x y z
#    x 1.787180 -0.010270 -0.009640 
#    y -0.010270 1.805110 -0.009490 
#    z -0.009640 -0.009490 1.817230 
# 
# From -- ./inp_files/283173.got.cif
#   From: 2010.06.25/outbox.cif.g09.slc.cpg/sg2_142_cif.got.tgz:283173.got - 2010.06.27 13:26:56.
