data_PCOD8044983
_publ_section_title
;
Structure prediction by ZEFSAII (Michael W. Deem and Ramdas Pophale) SiO2 
 PCOD8044983
Probable space group: P 2
;
_chemical_formula_sum "Si O2"
_cell_formula_units_Z 16
_cell_length_a 8.526755
_cell_length_b 9.223070
_cell_length_c 19.980291
_cell_angle_alpha 90.000000
_cell_angle_beta 31.403726
_cell_angle_gamma 90.000000
_cell_volume 818.753399
_symmetry_space_group_name_H-M "P 2"
_symmetry_group_IT_number 3
_symmetry_cell_setting 'monoclinic'
loop_
_space_group_symop_operation_xyz
x,y,z
-x,y,-z
loop_
_atom_site_type_symbol
_atom_site_label
_atom_site_fract_x
_atom_site_fract_y
_atom_site_fract_z
Si Si1 0.271803 0.369780 0.020509
Si Si2 0.353838 0.369781 0.479491
Si Si3 0.858636 0.062392 0.749999
Si Si4 0.787647 0.063030 0.513996
Si Si5 0.156555 0.558919 0.750000
Si Si6 0.816696 0.900245 0.250000
Si Si7 0.156372 0.063030 0.013995
Si Si8 0.839702 0.395627 0.750000
O O1 0.114015 0.215897 0.067149
O O2 0.016735 0.490820 0.123138
O O3 0.500000 0.360078 0.000000
O O4 0.476360 0.412593 0.880672
O O5 0.500000 0.360081 0.500000
O O6 0.382615 0.215896 0.432851
O O7 0.509289 0.490819 0.376861
O O8 0.999048 0.412593 0.619327
O O9 0.910648 0.231078 0.749999
O O10 0.012292 0.023171 0.623385
O O11 0.505835 0.023172 0.876614
O O12 0.009937 0.962957 0.749999
O O13 0.000000 0.071244 0.500000
O O14 0.532094 0.944348 0.620648
O O15 0.175881 0.728258 0.749999
O O16 0.974585 0.515708 0.750000
O O17 0.985322 0.944347 0.120646
O O18 0.000000 0.071239 0.000000
#
# Coordination Sequence:
#
# PCOD8044983 Si02
#       8
#     2   2   2   2   2   2   2   2
#     4   9  17  34  57  82 109 142 190 242 283 331
#     4   9  17  34  57  82 109 142 190 242 283 331
#     4  10  21  38  61  88 113 148 200 246 284 332
#     4  11  22  38  61  88 116 151 193 242 291 338
#     4  10  20  32  54  84 112 146 188 232 283 338
#     4  12  23  37  58  85 120 157 191 232 284 352
#     4  11  22  38  61  88 116 151 193 242 291 338
#     4   8  16  31  53  79 107 135 183 244 279 312
#
# _framework density 19.541905
#
# number of rings (size 3 to 8) (size 9 to 14) (size 15 to 20)
#    0.000    2.000    0.000    6.750    0.000    6.000 
#    0.000    1.250    0.000    9.000    0.000    0.000 
#    0.000    0.000    0.000    0.000    0.000    0.000 
#
# Total GULP energy -198326.508610 kJ/mol
# GULP energy per Si atom -12395.406788 kJ/mol
# Density = 1.949743 g / cm^3
# Si number density = 19.541905 Si / 1000 Ang^3
#
#
#
# Elastic Constant Matrix: (Units=GPa)
#
#
# Indices 1 2 3 4 5 6 
#
# 1 83.8051 36.6622 32.5696 0.0000 -0.0926 0.0000
# 2 36.6622 158.3237 86.6045 0.0000 0.4342 0.0000
# 3 32.5696 86.6045 179.7585 0.0000 0.9273 0.0000
# 4 0.0000 0.0000 0.0000 16.1990 0.0000 0.1252
# 5 -0.0926 0.4342 0.9273 0.0000 20.2168 0.0000
# 6 0.0000 0.0000 0.0000 0.1252 0.0000 1.7672
#
#
#
# Elastic Compliance Matrix: (Units=1/GPa)
#
#
# Indices 1 2 3 4 5 6 
#
# 1 0.013490 -0.002426 -0.001276 0.000000 0.000172 0.000000
# 2 -0.002426 0.009013 -0.003902 0.000000 -0.000026 0.000000
# 3 -0.001276 -0.003902 0.007676 0.000000 -0.000274 0.000000
# 4 0.000000 0.000000 0.000000 0.061766 0.000000 -0.004376
# 5 0.000172 -0.000026 -0.000274 0.000000 0.049478 0.000000
# 6 0.000000 0.000000 0.000000 -0.004376 0.000000 0.566192
#
#
# Mechanical properties :
#
#
# Convention : Reuss Voigt Hill
#
# Bulk Modulus (GPa) = 66.80534 81.50664 74.15599
# Shear Modulus (GPa) = 6.86989 25.37332 16.12161
#
# Velocity S-wave (km/s) = 1.87699 3.60725 2.87536
# Velocity P-wave (km/s) = 6.24158 7.69083 7.00379
#
# Compressibility (1/GPa) = 0.01496886
#
# Stress axis : x y z
#
# Youngs Moduli (GPa) = 74.12896 110.95389 130.27966
#
# Poissons Ratio (x) = 0.26920 0.16626
# Poissons Ratio (y) = 0.17985 0.50841
# Poissons Ratio (z) = 0.09460 0.43299
#
# Static dielectric constant tensor:
#      x y z
#    x 3.190500 0.000000 0.009130 
#    y 0.000000 3.324630 0.000000 
#    z 0.009130 0.000000 4.242430 
# 
# 
# High freq. dielectric constant tensor:
#      x y z
#    x 1.722530 0.000000 0.000660 
#    y 0.000000 1.739340 0.000000 
#    z 0.000660 0.000000 1.798850 
# 
# From -- ./inp_files/15817.got.cif
#   From: 2010.03.12/outbox.cif.g09.slc.cpg/sg3_8_cif.got.tgz:15817.got - 2010.03.31 09:20:49.
