data_PCOD8044978
_publ_section_title
;
Structure prediction by ZEFSAII (Michael W. Deem and Ramdas Pophale) SiO2 
 PCOD8044978
Probable space group: P 2
;
_chemical_formula_sum "Si O2"
_cell_formula_units_Z 11
_cell_length_a 8.952360
_cell_length_b 6.136414
_cell_length_c 13.572935
_cell_angle_alpha 90.000000
_cell_angle_beta 48.991999
_cell_angle_gamma 90.000000
_cell_volume 562.669139
_symmetry_space_group_name_H-M "P 2"
_symmetry_group_IT_number 3
_symmetry_cell_setting 'monoclinic'
loop_
_space_group_symop_operation_xyz
x,y,z
-x,y,-z
loop_
_atom_site_type_symbol
_atom_site_label
_atom_site_fract_x
_atom_site_fract_y
_atom_site_fract_z
Si Si1 0.500000 0.648780 0.500000
Si Si2 0.777020 0.032765 0.372116
Si Si3 0.354129 0.347628 0.897599
Si Si4 0.848795 0.951623 0.898297
Si Si5 0.000000 0.649301 0.000000
Si Si6 0.500000 0.649766 0.000000
Si Si7 0.467705 0.267974 0.377123
O O1 0.446298 0.513763 0.425170
O O2 0.695993 0.789167 0.394809
O O3 0.668857 0.181412 0.338717
O O4 0.722523 0.125139 0.505011
O O5 0.010339 0.045456 0.248819
O O6 0.191908 0.494376 0.911113
O O7 0.486909 0.496729 0.910576
O O8 0.508369 0.253701 0.750749
O O9 0.253950 0.149313 0.999401
O O10 0.690863 0.803259 0.910176
O O11 0.983795 0.805200 0.912122
#
# Coordination Sequence:
#
# PCOD8044978 Si02
#       7
#     1   2   2   2   1   1   2
#     4   8  16  32  52  86 122 136 170 228 278 346
#     4   9  18  31  55  87 114 143 176 228 290 332
#     4  11  21  38  58  84 117 149 190 238 278 334
#     4  11  21  38  58  84 117 149 190 238 278 334
#     4  10  20  30  60  94 110 146 190 228 286 336
#     4  10  26  38  56  78 112 162 198 228 284 328
#     4   9  18  31  55  87 114 143 176 228 290 332
#
# _framework density 19.549675000000001
#
# number of rings (size 3 to 8) (size 9 to 14) (size 15 to 20)
#    0.000    2.545    0.000    4.364    0.000    8.727 
#    0.000    0.000    0.000   16.364    0.000    2.545 
#    0.000    0.000    0.000    0.000    0.000    0.000 
#
# Total GULP energy -136360.937943 kJ/mol
# GULP energy per Si atom -12396.448904 kJ/mol
# Density = 1.950518 g / cm^3
# Si number density = 19.549675 Si / 1000 Ang^3
#
#
#
# Elastic Constant Matrix: (Units=GPa)
#
#
# Indices 1 2 3 4 5 6 
#
# 1 94.7193 39.4450 54.9645 0.0000 -3.9307 0.0000
# 2 39.4450 113.4917 56.3572 0.0000 1.1972 0.0000
# 3 54.9645 56.3572 181.9266 0.0000 12.9579 0.0000
# 4 0.0000 0.0000 0.0000 21.6785 0.0000 0.1756
# 5 -3.9307 1.1972 12.9579 0.0000 8.7404 0.0000
# 6 0.0000 0.0000 0.0000 0.1756 0.0000 17.0606
#
#
#
# Elastic Compliance Matrix: (Units=1/GPa)
#
#
# Indices 1 2 3 4 5 6 
#
# 1 0.015106 -0.003115 -0.004599 0.000000 0.014038 0.000000
# 2 -0.003115 0.011166 -0.002582 0.000000 0.000898 0.000000
# 3 -0.004599 -0.002582 0.008730 0.000000 -0.014657 0.000000
# 4 0.000000 0.000000 0.000000 0.046132 0.000000 -0.000475
# 5 0.014038 0.000898 -0.014657 0.000000 0.142330 0.000000
# 6 0.000000 0.000000 0.000000 -0.000475 0.000000 0.058620
#
#
# Mechanical properties :
#
#
# Convention : Reuss Voigt Hill
#
# Bulk Modulus (GPa) = 69.39063 76.85235 73.12149
# Shear Modulus (GPa) = 16.26126 25.45397 20.85761
#
# Velocity S-wave (km/s) = 2.88721 3.61226 3.26989
# Velocity P-wave (km/s) = 6.83273 7.53622 7.19308
#
# Compressibility (1/GPa) = 0.01441117
#
# Stress axis : x y z
#
# Youngs Moduli (GPa) = 66.20004 89.55407 114.54760
#
# Poissons Ratio (x) = 0.27892 0.52679
# Poissons Ratio (y) = 0.20618 0.29578
# Poissons Ratio (z) = 0.30444 0.23124
#
# Static dielectric constant tensor:
#      x y z
#    x 3.303150 0.000000 0.032710 
#    y 0.000000 3.872670 0.000000 
#    z 0.032710 0.000000 3.536730 
# 
# 
# High freq. dielectric constant tensor:
#      x y z
#    x 1.722140 0.000000 0.004170 
#    y 0.000000 1.782440 0.000000 
#    z 0.004170 0.000000 1.761270 
# 
# From -- ./inp_files/2107.got.cif
#   From: 2010.03.12/outbox.cif.g09.slc.cpg/sg3_2_cif.got.tgz:2107.got - 2010.03.31 09:20:49.
