data_PCOD8044896
_publ_section_title
;
Structure prediction by ZEFSAII (Michael W. Deem and Ramdas Pophale) SiO2 
 PCOD8044896
Probable space group: P 2
;
_chemical_formula_sum "Si O2"
_cell_formula_units_Z 15
_cell_length_a 14.756052
_cell_length_b 9.199712
_cell_length_c 19.626152
_cell_angle_alpha 90.000000
_cell_angle_beta 19.162136
_cell_angle_gamma 90.000000
_cell_volume 874.529281
_symmetry_space_group_name_H-M "P 2"
_symmetry_group_IT_number 3
_symmetry_cell_setting 'monoclinic'
loop_
_space_group_symop_operation_xyz
x,y,z
-x,y,-z
loop_
_atom_site_type_symbol
_atom_site_label
_atom_site_fract_x
_atom_site_fract_y
_atom_site_fract_z
Si Si1 0.955888 0.370600 0.772001
Si Si2 0.963214 0.868900 0.915510
Si Si3 0.743478 0.639045 0.378234
Si Si4 0.663196 0.126329 0.064955
Si Si5 0.448289 0.869007 0.672926
Si Si6 0.500000 0.379024 0.000000
Si Si7 0.199795 0.147852 0.300173
Si Si8 0.249727 0.126449 0.478488
O O1 0.728596 0.457864 0.885680
O O2 0.135005 0.489074 0.682484
O O3 0.158983 0.270983 0.582599
O O4 0.807660 0.270787 0.933906
O O5 0.019497 0.729622 0.828740
O O6 0.235709 0.912450 0.764254
O O7 0.709793 0.829587 0.145142
O O8 0.890924 0.004645 0.918665
O O9 0.500000 0.598107 0.500000
O O10 0.626812 0.729816 0.524962
O O11 0.450836 0.059833 0.158270
O O12 0.499379 0.168069 0.250246
O O13 0.652316 0.004829 0.538006
O O14 0.677373 0.286138 0.822598
O O15 0.000000 0.210414 0.500000
O O16 0.014201 0.059891 0.376613
#
# Coordination Sequence:
#
# PCOD8044896 Si02
#       8
#     2   2   2   2   2   1   2   2
#     4  10  19  31  48  70  94 120 152 189 227 268
#     4   9  18  33  50  67  91 123 154 185 226 273
#     4  10  21  34  47  65  93 127 155 184 227 274
#     4   9  17  30  50  72  92 117 151 190 227 266
#     4   9  18  33  50  67  91 123 154 185 226 273
#     4   8  16  30  44  62  92 124 148 176 224 276
#     4   8  14  26  45  69  93 115 143 182 228 270
#     4   9  17  30  50  72  92 117 151 190 227 266
#
# _framework density 17.152083999999999
#
# number of rings (size 3 to 8) (size 9 to 14) (size 15 to 20)
#    0.000    2.933    0.000    0.800    0.000    2.133 
#    0.000    1.333    0.000    0.000    0.000    0.000 
#    0.000    0.000    0.000    0.000    0.000    0.000 
#
# Total GULP energy -185829.706700 kJ/mol
# GULP energy per Si atom -12388.647113 kJ/mol
# Density = 1.711305 g / cm^3
# Si number density = 17.152084 Si / 1000 Ang^3
#
#
#
# Elastic Constant Matrix: (Units=GPa)
#
#
# Indices 1 2 3 4 5 6 
#
# 1 98.5830 65.2631 50.2324 0.0000 -8.2474 0.0000
# 2 65.2631 95.4349 54.3057 0.0000 -13.7032 0.0000
# 3 50.2324 54.3057 88.4128 0.0000 -4.3832 0.0000
# 4 0.0000 0.0000 0.0000 15.7882 0.0000 7.9706
# 5 -8.2474 -13.7032 -4.3832 0.0000 25.6981 0.0000
# 6 0.0000 0.0000 0.0000 7.9706 0.0000 9.4272
#
#
#
# Elastic Compliance Matrix: (Units=1/GPa)
#
#
# Indices 1 2 3 4 5 6 
#
# 1 0.019621 -0.010927 -0.004451 0.000000 -0.000289 0.000000
# 2 -0.010927 0.023531 -0.007863 0.000000 0.007699 0.000000
# 3 -0.004451 -0.007863 0.018547 0.000000 -0.002458 0.000000
# 4 0.000000 0.000000 0.000000 0.110507 0.000000 -0.093433
# 5 -0.000289 0.007699 -0.002458 0.000000 0.042507 0.000000
# 6 0.000000 0.000000 0.000000 -0.093433 0.000000 0.185073
#
#
# Mechanical properties :
#
#
# Convention : Reuss Voigt Hill
#
# Bulk Modulus (GPa) = 65.71384 69.11479 67.41431
# Shear Modulus (GPa) = 11.07812 17.69134 14.38473
#
# Velocity S-wave (km/s) = 2.54417 3.21509 2.89910
# Velocity P-wave (km/s) = 6.85755 7.35970 7.11306
#
# Compressibility (1/GPa) = 0.01521749
#
# Stress axis : x y z
#
# Youngs Moduli (GPa) = 50.96593 42.49785 53.91617
#
# Poissons Ratio (x) = 0.46436 0.23996
# Poissons Ratio (y) = 0.55689 0.42396
# Poissons Ratio (z) = 0.22683 0.33418
#
# Static dielectric constant tensor:
#      x y z
#    x 3.619870 0.000000 -0.118160 
#    y 0.000000 2.708970 0.000000 
#    z -0.118160 0.000000 3.525080 
# 
# 
# High freq. dielectric constant tensor:
#      x y z
#    x 1.682510 0.000000 0.001310 
#    y 0.000000 1.606790 0.000000 
#    z 0.001310 0.000000 1.683520 
# 
# From -- ./inp_files/10450.got.cif
#   From: 2010.03.12/outbox.cif.g09.slc.cpg/sg3_6_cif.got.tgz:10450.got - 2010.03.31 09:20:49.
