data_PCOD8044944
_publ_section_title
;
Structure prediction by ZEFSAII (Michael W. Deem and Ramdas Pophale) SiO2 
 PCOD8044944
Probable space group: P 2
;
_chemical_formula_sum "Si O2"
_cell_formula_units_Z 14
_cell_length_a 24.043758
_cell_length_b 5.376269
_cell_length_c 7.376152
_cell_angle_alpha 90.000000
_cell_angle_beta 142.943807
_cell_angle_gamma 90.000000
_cell_volume 574.567267
_symmetry_space_group_name_H-M "P 2"
_symmetry_group_IT_number 3
_symmetry_cell_setting 'monoclinic'
loop_
_space_group_symop_operation_xyz
x,y,z
-x,y,-z
loop_
_atom_site_type_symbol
_atom_site_label
_atom_site_fract_x
_atom_site_fract_y
_atom_site_fract_z
Si Si1 0.738980 0.245800 0.328559
Si Si2 0.736173 0.540121 0.986160
Si Si3 0.922491 0.785411 0.042525
Si Si4 0.457240 0.070451 0.187559
Si Si5 0.532794 0.576938 0.378361
Si Si6 0.164563 0.297000 0.065154
Si Si7 0.873549 0.876205 0.524344
O O1 0.706198 0.463178 0.110520
O O2 0.758427 0.345546 0.580167
O O3 0.834082 0.141361 0.487138
O O4 0.654063 0.052402 0.106392
O O5 0.805499 0.768586 0.194846
O O6 0.642728 0.612329 0.640850
O O7 0.787244 0.322423 0.005094
O O8 0.911553 0.521517 0.118455
O O9 0.883238 0.723892 0.738884
O O10 0.871242 0.014646 0.009368
O O11 0.026884 0.886966 0.310469
O O12 0.500000 0.062477 0.500000
O O13 0.495765 0.321056 0.189226
O O14 0.490128 0.820508 0.169465
O O15 0.500000 0.568026 0.500000
#
# Coordination Sequence:
#
# PCOD8044944 Si02
#       7
#     2   2   2   2   2   2   2
#     4  11  23  44  69  98 135 182 230 277 347 409
#     4  12  24  42  71  99 134 182 228 277 355 406
#     4  10  24  47  65 100 140 176 231 288 335 405
#     4  10  19  35  64  92 126 165 215 275 325 391
#     4  10  20  36  62  96 125 165 218 273 323 404
#     4  11  27  44  67 101 141 172 230 289 336 409
#     4  10  23  41  75  92 134 190 228 274 350 408
#
# _framework density 24.366166
#
# number of rings (size 3 to 8) (size 9 to 14) (size 15 to 20)
#    0.000    1.429    4.286    1.714    4.000    1.714 
#    0.000    0.714    0.000    3.429    0.000    0.000 
#    0.000    0.000    0.000    0.000    0.000    0.000 
#
# Total GULP energy -173471.647543 kJ/mol
# GULP energy per Si atom -12390.831967 kJ/mol
# Density = 2.431071 g / cm^3
# Si number density = 24.366166 Si / 1000 Ang^3
#
#
#
# Elastic Constant Matrix: (Units=GPa)
#
#
# Indices 1 2 3 4 5 6 
#
# 1 61.2501 11.5190 26.3671 0.0000 4.1949 0.0000
# 2 11.5190 142.9904 16.9894 0.0000 6.4325 0.0000
# 3 26.3671 16.9894 87.6559 0.0000 30.1423 0.0000
# 4 0.0000 0.0000 0.0000 27.5051 0.0000 8.2809
# 5 4.1949 6.4325 30.1423 0.0000 33.3362 0.0000
# 6 0.0000 0.0000 0.0000 8.2809 0.0000 27.1649
#
#
#
# Elastic Compliance Matrix: (Units=1/GPa)
#
#
# Indices 1 2 3 4 5 6 
#
# 1 0.019238 -0.000900 -0.007024 0.000000 0.004103 0.000000
# 2 -0.000900 0.007201 -0.000996 0.000000 -0.000376 0.000000
# 3 -0.007024 -0.000996 0.019365 0.000000 -0.016434 0.000000
# 4 0.000000 0.000000 0.000000 0.040031 0.000000 -0.012203
# 5 0.004103 -0.000376 -0.016434 0.000000 0.044413 0.000000
# 6 0.000000 0.000000 0.000000 -0.012203 0.000000 0.040532
#
#
# Mechanical properties :
#
#
# Convention : Reuss Voigt Hill
#
# Bulk Modulus (GPa) = 35.75759 44.62749 40.19254
# Shear Modulus (GPa) = 25.26009 33.40262 29.33136
#
# Velocity S-wave (km/s) = 3.22326 3.70653 3.47331
# Velocity P-wave (km/s) = 5.34410 6.05582 5.71106
#
# Compressibility (1/GPa) = 0.02796609
#
# Stress axis : x y z
#
# Youngs Moduli (GPa) = 51.97989 138.86582 51.63946
#
# Poissons Ratio (x) = 0.12496 0.36269
# Poissons Ratio (y) = 0.04678 0.05142
# Poissons Ratio (z) = 0.36508 0.13828
#
# Static dielectric constant tensor:
#      x y z
#    x 4.113600 0.000000 0.122360 
#    y 0.000000 5.428880 0.000000 
#    z 0.122360 0.000000 4.523470 
# 
# 
# High freq. dielectric constant tensor:
#      x y z
#    x 1.946590 0.000000 0.009990 
#    y 0.000000 1.966550 0.000000 
#    z 0.009990 0.000000 1.968170 
# 
# From -- ./inp_files/9590.got.cif
#   From: 2010.03.12/outbox.cif.g09.slc.cpg/sg3_5_cif.got.tgz:9590.got - 2010.03.31 09:20:49.
