data_PCOD8044849
_publ_section_title
;
Structure prediction by ZEFSAII (Michael W. Deem and Ramdas Pophale) SiO2 
 PCOD8044849
Probable space group: P 2
;
_chemical_formula_sum "Si O2"
_cell_formula_units_Z 16
_cell_length_a 11.083650
_cell_length_b 5.071120
_cell_length_c 16.700966
_cell_angle_alpha 90.000000
_cell_angle_beta 62.171485
_cell_angle_gamma 90.000000
_cell_volume 830.140975
_symmetry_space_group_name_H-M "P 2"
_symmetry_group_IT_number 3
_symmetry_cell_setting 'monoclinic'
loop_
_space_group_symop_operation_xyz
x,y,z
-x,y,-z
loop_
_atom_site_type_symbol
_atom_site_label
_atom_site_fract_x
_atom_site_fract_y
_atom_site_fract_z
Si Si1 0.903301 0.133590 0.603616
Si Si2 0.425968 0.632164 0.761357
Si Si3 0.728051 0.573416 0.031836
Si Si4 0.833835 0.617810 0.833490
Si Si5 0.008325 0.122040 0.746248
Si Si6 0.738585 0.629901 0.686116
Si Si7 0.853550 0.062001 0.049010
Si Si8 0.277661 0.113354 0.749697
O O1 0.834807 0.418065 0.612637
O O2 0.000000 0.067732 0.500000
O O3 0.993753 0.126720 0.655326
O O4 0.783054 0.919472 0.645169
O O5 0.389078 0.669894 0.868504
O O6 0.585267 0.576547 0.706141
O O7 0.344383 0.395832 0.744909
O O8 0.394656 0.888330 0.715621
O O9 0.749072 0.264423 0.040336
O O10 0.854180 0.771898 0.009345
O O11 0.714602 0.607464 0.939501
O O12 0.939829 0.376137 0.809038
O O13 0.748508 0.597963 0.778504
O O14 0.927678 0.876256 0.808960
O O15 0.173816 0.116747 0.706433
O O16 0.824688 0.024579 0.150164
O O17 0.000000 0.195590 0.000000
#
# Coordination Sequence:
#
# PCOD8044849 Si02
#       8
#     2   2   2   2   2   2   2   2
#     4  10  21  39  64  85 100 125 165 219 272 316
#     4  10  21  34  50  75 108 150 179 200 247 305
#     4  10  19  29  44  69 101 140 182 211 243 291
#     4  10  19  32  51  76 105 138 179 226 260 286
#     4  10  20  34  54  80 105 132 172 222 270 300
#     4  10  21  37  57  80 107 136 169 211 261 315
#     4  10  18  27  42  65  97 138 181 220 250 281
#     4  10  19  32  50  72 105 143 177 211 250 308
#
# _framework density 19.273834999999998
#
# number of rings (size 3 to 8) (size 9 to 14) (size 15 to 20)
#    0.000    2.000    0.000    4.500    0.000    2.500 
#    0.000    0.000    0.000   13.500    0.000    0.000 
#    0.000    0.000    0.000    0.000    0.000    0.000 
#
# Total GULP energy -198252.560567 kJ/mol
# GULP energy per Si atom -12390.785035 kJ/mol
# Density = 1.922997 g / cm^3
# Si number density = 19.273835 Si / 1000 Ang^3
#
#
#
# Elastic Constant Matrix: (Units=GPa)
#
#
# Indices 1 2 3 4 5 6 
#
# 1 96.8878 23.4085 27.0692 0.0000 -9.8052 0.0000
# 2 23.4085 112.0885 9.7846 0.0000 3.7330 0.0000
# 3 27.0692 9.7846 72.0059 0.0000 5.5057 0.0000
# 4 0.0000 0.0000 0.0000 14.4022 0.0000 0.1967
# 5 -9.8052 3.7330 5.5057 0.0000 15.2981 0.0000
# 6 0.0000 0.0000 0.0000 0.1967 0.0000 21.3534
#
#
#
# Elastic Compliance Matrix: (Units=1/GPa)
#
#
# Indices 1 2 3 4 5 6 
#
# 1 0.013737 -0.002758 -0.005670 0.000000 0.011519 0.000000
# 2 -0.002758 0.009631 0.000044 0.000000 -0.004133 0.000000
# 3 -0.005670 0.000044 0.016753 0.000000 -0.009675 0.000000
# 4 0.000000 0.000000 0.000000 0.069443 0.000000 -0.000640
# 5 0.011519 -0.004133 -0.009675 0.000000 0.077241 0.000000
# 6 0.000000 0.000000 0.000000 -0.000640 0.000000 0.046837
#
#
# Mechanical properties :
#
#
# Convention : Reuss Voigt Hill
#
# Bulk Modulus (GPa) = 42.81935 44.61189 43.71562
# Shear Modulus (GPa) = 19.36525 24.92540 22.14533
#
# Velocity S-wave (km/s) = 3.17321 3.60004 3.39334
# Velocity P-wave (km/s) = 5.97413 6.36216 6.17119
#
# Compressibility (1/GPa) = 0.02335393
#
# Stress axis : x y z
#
# Youngs Moduli (GPa) = 72.79422 103.82900 59.69019
#
# Poissons Ratio (x) = 0.28631 0.33846
# Poissons Ratio (y) = 0.20073 -0.00262
# Poissons Ratio (z) = 0.41277 -0.00456
#
# Static dielectric constant tensor:
#      x y z
#    x 3.507370 0.000000 0.191240 
#    y 0.000000 3.734270 0.000000 
#    z 0.191240 0.000000 3.291980 
# 
# 
# High freq. dielectric constant tensor:
#      x y z
#    x 1.731280 0.000000 0.004770 
#    y 0.000000 1.771940 0.000000 
#    z 0.004770 0.000000 1.720280 
# 
# From -- ./inp_files/8898.got.cif
#   From: 2010.03.12/outbox.cif.g09.slc.cpg/sg3_5_cif.got.tgz:8898.got - 2010.03.31 09:20:49.
