data_PCOD8044547
_publ_section_title
;
Structure prediction by ZEFSAII (Michael W. Deem and Ramdas Pophale) SiO2 
 PCOD8044547
Probable space group: P -1
;
_chemical_formula_sum "Si O2"
_cell_formula_units_Z 14
_cell_length_a 8.878603
_cell_length_b 9.465454
_cell_length_c 11.345747
_cell_angle_alpha 110.043806
_cell_angle_beta 39.029582
_cell_angle_gamma 106.123880
_cell_volume 563.963412
_symmetry_space_group_name_H-M "P -1"
_symmetry_group_IT_number 2
_symmetry_cell_setting 'triclinic'
loop_
_space_group_symop_operation_xyz
x,y,z
-x,-y,-z
loop_
_atom_site_type_symbol
_atom_site_label
_atom_site_fract_x
_atom_site_fract_y
_atom_site_fract_z
Si Si1 0.412174 0.038095 0.802644
Si Si2 0.853840 0.560435 0.861983
Si Si3 0.701863 0.220060 0.364488
Si Si4 0.651871 0.787960 0.881887
Si Si5 0.879665 0.248711 0.838543
Si Si6 0.740060 0.709972 0.196248
Si Si7 0.906914 0.063997 0.415373
O O1 0.258192 0.134752 0.832982
O O2 0.693633 0.090993 0.645507
O O3 0.374294 0.865198 0.734992
O O4 0.323601 0.073776 0.998455
O O5 0.692550 0.626449 0.873229
O O6 0.892194 0.382439 0.770746
O O7 0.105714 0.649965 0.742166
O O8 0.716365 0.577258 0.075846
O O9 0.473603 0.301083 0.582552
O O10 0.801827 0.095423 0.358190
O O11 0.863386 0.824612 0.669503
O O12 0.397333 0.790818 0.973930
O O13 0.006489 0.303943 0.896731
O O14 0.017771 0.107407 0.662714
#
# Coordination Sequence:
#
# PCOD8044547 Si02
#       7
#     2   2   2   2   2   2   2
#     4  10  19  38  63  83 109 147 189 231 277 331
#     4  10  24  38  59  81 114 155 185 221 282 337
#     4  10  19  38  63  83 109 147 189 231 277 331
#     4  10  24  38  59  81 114 155 185 221 282 337
#     4  12  21  39  57  86 119 143 184 238 275 327
#     4  10  20  38  60  85 111 145 190 234 274 324
#     4  10  20  38  60  85 111 145 190 234 274 324
#
# _framework density 24.824307000000001
#
# number of rings (size 3 to 8) (size 9 to 14) (size 15 to 20)
#    0.000    1.714    2.857    2.143    2.000    2.857 
#    0.000    1.429    0.000    6.857    0.000    0.000 
#    0.000    0.000    0.000    0.000    0.000    0.000 
#
# Total GULP energy -173578.874185 kJ/mol
# GULP energy per Si atom -12398.491013 kJ/mol
# Density = 2.476781 g / cm^3
# Si number density = 24.824307 Si / 1000 Ang^3
#
#
#
# Elastic Constant Matrix: (Units=GPa)
#
#
# Indices 1 2 3 4 5 6 
#
# 1 71.9802 20.2119 32.0231 1.2430 -34.9996 -10.1801
# 2 20.2119 95.7308 11.2906 12.9759 -10.9422 -20.9309
# 3 32.0231 11.2906 76.3421 0.6088 -25.8635 -3.2377
# 4 1.2430 12.9759 0.6088 19.2556 2.3098 -7.6852
# 5 -34.9996 -10.9422 -25.8635 2.3098 36.2514 -2.1756
# 6 -10.1801 -20.9309 -3.2377 -7.6852 -2.1756 22.2808
#
#
#
# Elastic Compliance Matrix: (Units=1/GPa)
#
#
# Indices 1 2 3 4 5 6 
#
# 1 0.032309 0.000909 -0.002492 0.001136 0.030736 0.018646
# 2 0.000909 0.014531 0.000293 -0.005524 0.006595 0.012847
# 3 -0.002492 0.000293 0.017798 -0.000892 0.010584 0.002449
# 4 0.001136 -0.005524 -0.000892 0.062662 -0.004215 0.016403
# 5 0.030736 0.006595 0.010584 -0.004215 0.068692 0.027031
# 6 0.018646 0.012847 0.002449 0.016403 0.027031 0.074123
#
#
# Mechanical properties :
#
#
# Convention : Reuss Voigt Hill
#
# Bulk Modulus (GPa) = 16.11439 41.23382 28.67410
# Shear Modulus (GPa) = 17.04264 27.59274 22.31769
#
# Velocity S-wave (km/s) = 2.62301 3.33756 3.00163
# Velocity P-wave (km/s) = 3.95968 5.61238 4.85684
#
# Compressibility (1/GPa) = 0.06205633
#
# Stress axis : x y z
#
# Youngs Moduli (GPa) = 30.95113 68.81807 56.18752
#
# Poissons Ratio (x) = -0.06253 0.14004
# Poissons Ratio (y) = -0.02812 -0.01647
# Poissons Ratio (z) = 0.07714 -0.02017
#
# Static dielectric constant tensor:
#      x y z
#    x 4.388540 -0.137120 -0.330940 
#    y -0.137120 4.296230 0.048400 
#    z -0.330940 0.048400 4.521000 
# 
# 
# High freq. dielectric constant tensor:
#      x y z
#    x 1.982950 -0.009860 -0.025820 
#    y -0.009860 1.972230 -0.001220 
#    z -0.025820 -0.001220 1.983080 
# 
# From -- ./inp_files/163142.got.cif
#   From: 2010.06.25/outbox.cif.g09.slc.cpg/sg2_82_cif.got.tgz:163142.got - 2010.06.27 13:26:56.
