data_PCOD8044497
_publ_section_title
;
Structure prediction by ZEFSAII (Michael W. Deem and Ramdas Pophale) SiO2 
 PCOD8044497
Probable space group: P -1
;
_chemical_formula_sum "Si O2"
_cell_formula_units_Z 16
_cell_length_a 8.793559
_cell_length_b 13.755753
_cell_length_c 8.535587
_cell_angle_alpha 69.089926
_cell_angle_beta 125.555793
_cell_angle_gamma 101.585115
_cell_volume 784.625362
_symmetry_space_group_name_H-M "P -1"
_symmetry_group_IT_number 2
_symmetry_cell_setting 'triclinic'
loop_
_space_group_symop_operation_xyz
x,y,z
-x,-y,-z
loop_
_atom_site_type_symbol
_atom_site_label
_atom_site_fract_x
_atom_site_fract_y
_atom_site_fract_z
Si Si1 0.637379 0.092169 0.260877
Si Si2 0.359443 0.138300 0.589575
Si Si3 0.102534 0.631967 0.861238
Si Si4 0.144730 0.399986 0.978500
Si Si5 0.004889 0.820144 0.474991
Si Si6 0.479572 0.252075 0.304246
Si Si7 0.875650 0.261885 0.707775
Si Si8 0.682661 0.210771 0.917924
O O1 0.832380 0.095035 0.468595
O O2 0.505633 0.181310 0.205838
O O3 0.548990 0.977832 0.292526
O O4 0.685586 0.114962 0.095146
O O5 0.352436 0.183570 0.384929
O O6 0.477330 0.218867 0.717349
O O7 0.164661 0.127095 0.566802
O O8 0.168469 0.522660 0.891019
O O9 0.054793 0.709590 0.647401
O O10 0.273874 0.680021 0.035191
O O11 0.922897 0.618743 0.872856
O O12 0.989567 0.361528 0.782062
O O13 0.351331 0.348997 0.115961
O O14 0.980284 0.798378 0.287105
O O15 0.678879 0.287548 0.481145
O O16 0.828120 0.190906 0.872273
#
# Coordination Sequence:
#
# PCOD8044497 Si02
#       8
#     2   2   2   2   2   2   2   2
#     4  10  21  37  58  81 117 151 189 236 284 338
#     4  11  20  36  59  85 112 153 191 232 288 337
#     4   9  19  38  59  83 115 149 185 239 284 339
#     4  10  19  38  62  84 115 153 188 230 295 335
#     4  10  20  37  56  83 117 149 188 236 283 336
#     4  10  21  38  60  87 116 149 191 236 284 339
#     4   9  21  38  56  82 121 148 188 240 274 336
#     4   9  20  38  55  81 116 147 187 243 275 332
#
# _framework density 20.391898000000001
#
# number of rings (size 3 to 8) (size 9 to 14) (size 15 to 20)
#    0.000    2.250    1.250    1.125    1.750    0.500 
#    2.250    8.750    0.000    0.000    0.000    0.000 
#    0.000    0.000    0.000    0.000    0.000    0.000 
#
# Total GULP energy -198248.093947 kJ/mol
# GULP energy per Si atom -12390.505872 kJ/mol
# Density = 2.034548 g / cm^3
# Si number density = 20.391898 Si / 1000 Ang^3
#
#
#
# Elastic Constant Matrix: (Units=GPa)
#
#
# Indices 1 2 3 4 5 6 
#
# 1 77.1920 32.1104 20.7141 7.3712 -3.0666 -15.3317
# 2 32.1104 99.6489 40.0072 -0.7168 3.9145 -6.4106
# 3 20.7141 40.0072 68.0149 8.3195 -5.0556 -7.9535
# 4 7.3712 -0.7168 8.3195 25.0552 -5.2552 -0.4895
# 5 -3.0666 3.9145 -5.0556 -5.2552 34.4836 1.1069
# 6 -15.3317 -6.4106 -7.9535 -0.4895 1.1069 31.1350
#
#
#
# Elastic Compliance Matrix: (Units=1/GPa)
#
#
# Indices 1 2 3 4 5 6 
#
# 1 0.017051 -0.004724 -0.000965 -0.004483 0.001001 0.007071
# 2 -0.004724 0.014878 -0.008131 0.003933 -0.002664 -0.001183
# 3 -0.000965 -0.008131 0.021119 -0.006299 0.002876 0.003045
# 4 -0.004483 0.003933 -0.006299 0.044453 0.005086 -0.002489
# 5 0.001001 -0.002664 0.002876 0.005086 0.030598 -0.000329
# 6 0.007071 -0.001183 0.003045 -0.002489 -0.000329 0.036107
#
#
# Mechanical properties :
#
#
# Convention : Reuss Voigt Hill
#
# Bulk Modulus (GPa) = 39.35360 47.83545 43.59453
# Shear Modulus (GPa) = 24.96077 28.26970 26.61523
#
# Velocity S-wave (km/s) = 3.50244 3.72737 3.61666
# Velocity P-wave (km/s) = 5.97467 6.48332 6.23418
#
# Compressibility (1/GPa) = 0.02541063
#
# Stress axis : x y z
#
# Youngs Moduli (GPa) = 58.64787 67.21116 47.35043
#
# Poissons Ratio (x) = 0.31749 0.04568
# Poissons Ratio (y) = 0.27704 0.38498
# Poissons Ratio (z) = 0.05657 0.54646
#
# Static dielectric constant tensor:
#      x y z
#    x 3.881470 0.040460 -0.165970 
#    y 0.040460 3.642650 0.292620 
#    z -0.165970 0.292620 3.605270 
# 
# 
# High freq. dielectric constant tensor:
#      x y z
#    x 1.804640 0.006500 -0.015480 
#    y 0.006500 1.785020 0.022340 
#    z -0.015480 0.022340 1.779950 
# 
# From -- ./inp_files/177386.got.cif
#   From: 2010.06.25/outbox.cif.g09.slc.cpg/sg2_89_cif.got.tgz:177386.got - 2010.06.27 13:26:56.
