data_PCOD8044609
_publ_section_title
;
Structure prediction by ZEFSAII (Michael W. Deem and Ramdas Pophale) SiO2 
 PCOD8044609
Probable space group: P -1
;
_chemical_formula_sum "Si O2"
_cell_formula_units_Z 16
_cell_length_a 9.377626
_cell_length_b 27.067441
_cell_length_c 8.830899
_cell_angle_alpha 152.099748
_cell_angle_beta 54.673997
_cell_angle_gamma 131.897571
_cell_volume 780.269899
_symmetry_space_group_name_H-M "P -1"
_symmetry_group_IT_number 2
_symmetry_cell_setting 'triclinic'
loop_
_space_group_symop_operation_xyz
x,y,z
-x,-y,-z
loop_
_atom_site_type_symbol
_atom_site_label
_atom_site_fract_x
_atom_site_fract_y
_atom_site_fract_z
Si Si1 0.923463 0.710915 0.230954
Si Si2 0.281424 0.719485 0.865101
Si Si3 0.324185 0.118410 0.813927
Si Si4 0.066228 0.770928 0.876435
Si Si5 0.598554 0.489454 0.758226
Si Si6 0.687715 0.999817 0.812124
Si Si7 0.217308 0.331330 0.459973
Si Si8 0.956619 0.908074 0.555634
O O1 0.878263 0.673109 0.329569
O O2 0.915631 0.835923 0.543522
O O3 0.765646 0.614720 0.957077
O O4 0.131851 0.717028 0.079501
O O5 0.209781 0.731974 0.775490
O O6 0.305598 0.600853 0.531054
O O7 0.479921 0.830508 0.072479
O O8 0.363533 0.079044 0.518883
O O9 0.241033 0.213259 0.098185
O O10 0.169700 0.009992 0.706164
O O11 0.920967 0.661867 0.571162
O O12 0.947128 0.816288 0.184130
O O13 0.178388 0.868738 0.951309
O O14 0.423625 0.441073 0.613471
O O15 0.500000 0.500000 0.000000
O O16 0.795167 0.954631 0.748508
O O17 0.500000 0.000000 0.000000
#
# Coordination Sequence:
#
# PCOD8044609 Si02
#       8
#     2   2   2   2   2   2   2   2
#     4  10  22  36  62  88 115 150 199 246 283 341
#     4  10  22  37  64  87 115 150 201 243 280 346
#     4  10  20  38  60  82 119 162 190 227 299 348
#     4  10  20  39  57  86 118 155 188 239 297 334
#     4   9  20  40  61  82 115 158 195 237 295 344
#     4  11  22  34  58  87 126 148 193 243 280 348
#     4  10  19  38  64  81 115 159 193 235 297 345
#     4  10  20  39  58  82 122 156 189 233 294 350
#
# _framework density 20.505724000000001
#
# number of rings (size 3 to 8) (size 9 to 14) (size 15 to 20)
#    0.000    2.000    2.500    1.125    1.750    8.000 
#    0.000    5.000    2.750    0.000    0.000    0.000 
#    0.000    0.000    0.000    0.000    0.000    0.000 
#
# Total GULP energy -198348.576812 kJ/mol
# GULP energy per Si atom -12396.786051 kJ/mol
# Density = 2.045905 g / cm^3
# Si number density = 20.505724 Si / 1000 Ang^3
#
#
#
# Elastic Constant Matrix: (Units=GPa)
#
#
# Indices 1 2 3 4 5 6 
#
# 1 145.9900 43.1269 40.1849 2.3403 16.1225 21.3307
# 2 43.1269 58.9368 26.8263 8.2309 0.8035 19.1419
# 3 40.1849 26.8263 76.6190 6.6740 10.6318 17.0934
# 4 2.3403 8.2309 6.6740 28.2371 10.7451 2.6537
# 5 16.1225 0.8035 10.6318 10.7451 41.8842 -1.2290
# 6 21.3307 19.1419 17.0934 2.6537 -1.2290 22.7745
#
#
#
# Elastic Compliance Matrix: (Units=1/GPa)
#
#
# Indices 1 2 3 4 5 6 
#
# 1 0.010036 -0.005534 -0.002211 0.003222 -0.004131 -0.003688
# 2 -0.005534 0.028474 -0.003650 -0.007047 0.003879 -0.014980
# 3 -0.002211 -0.003650 0.017952 -0.000803 -0.003677 -0.008441
# 4 0.003222 -0.007047 -0.000803 0.042053 -0.011749 -0.002026
# 5 -0.004131 0.003879 -0.003677 -0.011749 0.029524 0.006331
# 6 -0.003688 -0.014980 -0.008441 -0.002026 0.006331 0.066867
#
#
# Mechanical properties :
#
#
# Convention : Reuss Voigt Hill
#
# Bulk Modulus (GPa) = 29.69611 55.75799 42.72705
# Shear Modulus (GPa) = 21.84160 30.00634 25.92397
#
# Velocity S-wave (km/s) = 3.26720 3.82948 3.55946
# Velocity P-wave (km/s) = 5.36154 6.84132 6.14613
#
# Compressibility (1/GPa) = 0.03367445
#
# Stress axis : x y z
#
# Youngs Moduli (GPa) = 99.63637 35.11919 55.70259
#
# Poissons Ratio (x) = 0.19434 0.12317
# Poissons Ratio (y) = 0.55135 0.20330
# Poissons Ratio (z) = 0.22031 0.12818
#
# Static dielectric constant tensor:
#      x y z
#    x 3.843600 0.089180 0.176060 
#    y 0.089180 2.585900 -0.935060 
#    z 0.176060 -0.935060 3.191730 
# 
# 
# High freq. dielectric constant tensor:
#      x y z
#    x 1.801220 0.019190 0.009410 
#    y 0.019190 1.791580 0.003140 
#    z 0.009410 0.003140 1.804250 
# 
# From -- ./inp_files/208197.got.cif
#   From: 2010.06.25/outbox.cif.g09.slc.cpg/sg2_105_cif.got.tgz:208197.got - 2010.06.27 13:26:56.
