data_PCOD8044777
_publ_section_title
;
Structure prediction by ZEFSAII (Michael W. Deem and Ramdas Pophale) SiO2 
 PCOD8044777
Probable space group: P -1
;
_chemical_formula_sum "Si O2"
_cell_formula_units_Z 16
_cell_length_a 12.332463
_cell_length_b 11.537113
_cell_length_c 11.044277
_cell_angle_alpha 75.920285
_cell_angle_beta 141.441255
_cell_angle_gamma 76.140964
_cell_volume 668.224775
_symmetry_space_group_name_H-M "P -1"
_symmetry_group_IT_number 2
_symmetry_cell_setting 'triclinic'
loop_
_space_group_symop_operation_xyz
x,y,z
-x,-y,-z
loop_
_atom_site_type_symbol
_atom_site_label
_atom_site_fract_x
_atom_site_fract_y
_atom_site_fract_z
Si Si1 0.865459 0.315931 0.795030
Si Si2 0.620963 0.684102 0.906086
Si Si3 0.205907 0.974404 0.623348
Si Si4 0.007253 0.684009 0.611739
Si Si5 0.656275 0.804356 0.666863
Si Si6 0.445489 0.712514 0.336854
Si Si7 0.117143 0.225912 0.789012
Si Si8 0.514671 0.143544 0.864650
O O1 0.629324 0.514211 0.531318
O O2 0.789347 0.223171 0.808652
O O3 0.962112 0.246204 0.760728
O O4 0.060610 0.288625 0.060024
O O5 0.338580 0.835308 0.667817
O O6 0.611488 0.725649 0.748645
O O7 0.815636 0.670516 0.151890
O O8 0.731196 0.496415 0.066658
O O9 0.069918 0.162579 0.414472
O O10 0.417310 0.899384 0.924718
O O11 0.000000 0.000000 0.500000
O O12 0.032496 0.708566 0.485023
O O13 0.783155 0.701168 0.435902
O O14 0.577161 0.770036 0.487585
O O15 0.500000 0.000000 0.500000
O O16 0.368588 0.795586 0.114060
O O17 0.376095 0.027841 0.061367
#
# Coordination Sequence:
#
# PCOD8044777 Si02
#       8
#     2   2   2   2   2   2   2   2
#     4  10  24  42  65 100 130 181 225 280 339 397
#     4  11  22  41  67  97 129 174 223 271 336 394
#     4  11  25  42  61 101 137 170 214 273 339 399
#     4  11  22  40  71  96 128 174 219 279 327 400
#     4  11  25  43  68  95 133 181 228 279 332 404
#     4  11  24  44  65  97 137 173 232 280 331 407
#     4  10  19  38  66  97 128 163 222 273 329 400
#     4  11  21  41  69  96 127 171 220 272 334 394
#
# _framework density 23.944040000000001
#
# number of rings (size 3 to 8) (size 9 to 14) (size 15 to 20)
#    0.000    1.250    2.500    4.500    1.750    5.500 
#    4.500    0.000    0.000    0.000    0.000    0.000 
#    0.000    0.000    0.000    0.000    0.000    0.000 
#
# Total GULP energy -198323.700190 kJ/mol
# GULP energy per Si atom -12395.231262 kJ/mol
# Density = 2.388954 g / cm^3
# Si number density = 23.944040 Si / 1000 Ang^3
#
#
#
# Elastic Constant Matrix: (Units=GPa)
#
#
# Indices 1 2 3 4 5 6 
#
# 1 133.2818 20.5108 24.2506 -11.2280 11.7418 12.7044
# 2 20.5108 63.3641 22.6334 -20.3904 -1.1529 4.5588
# 3 24.2506 22.6334 55.9127 -25.6894 3.8480 5.8086
# 4 -11.2280 -20.3904 -25.6894 39.2798 7.7163 -0.4573
# 5 11.7418 -1.1529 3.8480 7.7163 36.6287 -6.5933
# 6 12.7044 4.5588 5.8086 -0.4573 -6.5933 34.1002
#
#
#
# Elastic Compliance Matrix: (Units=1/GPa)
#
#
# Indices 1 2 3 4 5 6 
#
# 1 0.008850 -0.001615 -0.002182 0.000904 -0.003455 -0.003365
# 2 -0.001615 0.020203 -0.003843 0.007552 -0.000285 -0.001398
# 3 -0.002182 -0.003843 0.029769 0.018222 -0.007271 -0.004906
# 4 0.000904 0.007552 0.018222 0.043906 -0.012340 -0.006247
# 5 -0.003455 -0.000285 -0.007271 -0.012340 0.033356 0.008848
# 6 -0.003365 -0.001398 -0.004906 -0.006247 0.008848 0.033229
#
#
# Mechanical properties :
#
#
# Convention : Reuss Voigt Hill
#
# Bulk Modulus (GPa) = 22.96622 43.03869 33.00246
# Shear Modulus (GPa) = 25.11230 34.34598 29.72914
#
# Velocity S-wave (km/s) = 3.24202 3.79149 3.52747
# Velocity P-wave (km/s) = 4.86073 6.09762 5.51397
#
# Compressibility (1/GPa) = 0.04354221
#
# Stress axis : x y z
#
# Youngs Moduli (GPa) = 112.99799 49.49758 33.59191
#
# Poissons Ratio (x) = 0.07995 0.07330
# Poissons Ratio (y) = 0.18251 0.12908
# Poissons Ratio (z) = 0.24655 0.19020
#
# Static dielectric constant tensor:
#      x y z
#    x 4.664970 -0.103040 -0.077700 
#    y -0.103040 7.929590 2.730380 
#    z -0.077700 2.730380 6.503380 
# 
# 
# High freq. dielectric constant tensor:
#      x y z
#    x 1.966120 0.001870 0.000050 
#    y 0.001870 1.936490 -0.021500 
#    z 0.000050 -0.021500 1.933320 
# 
# From -- ./inp_files/399157.got.cif
#   From: 2010.06.25/outbox.cif.g09.slc.cpg/sg2_200_cif.got.tgz:399157.got - 2010.06.27 13:26:56.
