data_PCOD8044767
_publ_section_title
;
Structure prediction by ZEFSAII (Michael W. Deem and Ramdas Pophale) SiO2 
 PCOD8044767
Probable space group: P -1
;
_chemical_formula_sum "Si O2"
_cell_formula_units_Z 16
_cell_length_a 8.087435
_cell_length_b 17.472115
_cell_length_c 11.672168
_cell_angle_alpha 153.494698
_cell_angle_beta 62.581806
_cell_angle_gamma 115.969844
_cell_volume 651.992873
_symmetry_space_group_name_H-M "P -1"
_symmetry_group_IT_number 2
_symmetry_cell_setting 'triclinic'
loop_
_space_group_symop_operation_xyz
x,y,z
-x,-y,-z
loop_
_atom_site_type_symbol
_atom_site_label
_atom_site_fract_x
_atom_site_fract_y
_atom_site_fract_z
Si Si1 0.693678 0.090851 0.603987
Si Si2 0.887594 0.469966 0.663695
Si Si3 0.589153 0.314705 0.140696
Si Si4 0.021135 0.136882 0.881576
Si Si5 0.445223 0.635600 0.534089
Si Si6 0.079023 0.641667 0.249869
Si Si7 0.828792 0.810587 0.860922
Si Si8 0.768325 0.890863 0.742727
O O1 0.746816 0.246173 0.709047
O O2 0.500000 0.000000 0.500000
O O3 0.857904 0.957136 0.378802
O O4 0.683337 0.169054 0.841067
O O5 0.693988 0.441412 0.620459
O O6 0.843570 0.445767 0.778627
O O7 0.028990 0.338039 0.395693
O O8 0.979753 0.662750 0.875981
O O9 0.609109 0.502597 0.324917
O O10 0.668366 0.327878 0.263018
O O11 0.368810 0.284526 0.180546
O O12 0.118685 0.084236 0.900224
O O13 0.808692 0.053328 0.860844
O O14 0.553039 0.815093 0.697452
O O15 0.904776 0.749293 0.474153
O O16 0.000000 0.500000 0.000000
O O17 0.816254 0.936833 0.923833
#
# Coordination Sequence:
#
# PCOD8044767 Si02
#       8
#     2   2   2   2   2   2   2   2
#     4  11  21  41  68  97 131 172 222 263 327 397
#     4  11  23  42  71  98 127 170 227 275 322 384
#     4  10  20  37  68  97 132 175 218 262 324 396
#     4  11  21  38  65 100 131 168 216 276 331 381
#     4  10  20  39  66  98 129 170 219 274 317 383
#     4  10  23  44  68  92 129 179 220 264 326 404
#     4  10  19  38  66  94 130 172 220 263 319 393
#     4   9  21  38  64  95 131 171 215 267 331 387
#
# _framework density 24.540147999999999
#
# number of rings (size 3 to 8) (size 9 to 14) (size 15 to 20)
#    0.000    1.750    2.500    1.500    0.000    1.000 
#    0.000   10.000    0.000    3.000    0.000    0.000 
#    0.000    0.000    0.000    0.000    0.000    0.000 
#
# Total GULP energy -198327.797983 kJ/mol
# GULP energy per Si atom -12395.487374 kJ/mol
# Density = 2.448429 g / cm^3
# Si number density = 24.540148 Si / 1000 Ang^3
#
#
#
# Elastic Constant Matrix: (Units=GPa)
#
#
# Indices 1 2 3 4 5 6 
#
# 1 61.9416 53.6033 31.2387 2.4911 8.9754 0.1784
# 2 53.6033 144.5775 46.8451 12.0875 15.7675 3.9405
# 3 31.2387 46.8451 126.4759 -8.4878 13.3359 -13.8099
# 4 2.4911 12.0875 -8.4878 44.2802 -3.4292 9.7562
# 5 8.9754 15.7675 13.3359 -3.4292 33.3645 -0.7730
# 6 0.1784 3.9405 -13.8099 9.7562 -0.7730 30.3576
#
#
#
# Elastic Compliance Matrix: (Units=1/GPa)
#
#
# Indices 1 2 3 4 5 6 
#
# 1 0.024888 -0.008065 -0.003035 0.000222 -0.001662 -0.000593
# 2 -0.008065 0.011199 -0.002251 -0.002888 -0.002556 -0.001568
# 3 -0.003035 -0.002251 0.010289 0.001633 -0.001962 0.004416
# 4 0.000222 -0.002888 0.001633 0.025452 0.003106 -0.006984
# 5 -0.001662 -0.002556 -0.001962 0.003106 0.032714 -0.000716
# 6 -0.000593 -0.001568 0.004416 -0.006984 -0.000716 0.037383
#
#
# Mechanical properties :
#
#
# Convention : Reuss Voigt Hill
#
# Bulk Modulus (GPa) = 50.83042 66.26326 58.54684
# Shear Modulus (GPa) = 28.54137 35.02098 31.78117
#
# Velocity S-wave (km/s) = 3.41405 3.78178 3.60261
# Velocity P-wave (km/s) = 6.02487 6.79189 6.41985
#
# Compressibility (1/GPa) = 0.01967326
#
# Stress axis : x y z
#
# Youngs Moduli (GPa) = 40.18043 89.29038 97.19425
#
# Poissons Ratio (x) = 0.72015 0.29494
# Poissons Ratio (y) = 0.32407 0.21883
# Poissons Ratio (z) = 0.12193 0.20104
#
# Static dielectric constant tensor:
#      x y z
#    x 4.216940 0.026760 0.259690 
#    y 0.026760 5.039600 -0.014460 
#    z 0.259690 -0.014460 4.581390 
# 
# 
# High freq. dielectric constant tensor:
#      x y z
#    x 1.967520 0.012940 0.009930 
#    y 0.012940 1.988050 0.004060 
#    z 0.009930 0.004060 1.983890 
# 
# From -- ./inp_files/402448.got.cif
#   From: 2010.06.25/outbox.cif.g09.slc.cpg/sg2_202_cif.got.tgz:402448.got - 2010.06.27 13:26:56.
