data_PCOD8044345
_publ_section_title
;
Structure prediction by ZEFSAII (Michael W. Deem and Ramdas Pophale) SiO2 
 PCOD8044345
Probable space group: P -1
;
_chemical_formula_sum "Si O2"
_cell_formula_units_Z 14
_cell_length_a 27.664629
_cell_length_b 9.614148
_cell_length_c 12.883984
_cell_angle_alpha 144.742737
_cell_angle_beta 155.299153
_cell_angle_gamma 27.779863
_cell_volume 665.975151
_symmetry_space_group_name_H-M "P -1"
_symmetry_group_IT_number 2
_symmetry_cell_setting 'triclinic'
loop_
_space_group_symop_operation_xyz
x,y,z
-x,-y,-z
loop_
_atom_site_type_symbol
_atom_site_label
_atom_site_fract_x
_atom_site_fract_y
_atom_site_fract_z
Si Si1 0.934417 0.352523 0.400898
Si Si2 0.616651 0.678603 0.984829
Si Si3 0.625955 0.731357 0.485776
Si Si4 0.944586 0.278759 0.136980
Si Si5 0.348905 0.169929 0.082268
Si Si6 0.767903 0.175823 0.296218
Si Si7 0.594019 0.262060 0.814908
O O1 0.778404 0.504054 0.240034
O O2 0.939344 0.227194 0.218612
O O3 0.952575 0.617081 0.604322
O O4 0.062214 0.066624 0.540771
O O5 0.618901 0.731177 0.900337
O O6 0.571255 0.460210 0.790941
O O7 0.500000 0.000000 0.000000
O O8 0.745378 0.457072 0.482089
O O9 0.564528 0.620940 0.383880
O O10 0.491069 0.001676 0.323362
O O11 0.689119 0.902005 0.760091
O O12 0.783199 0.533168 0.936940
O O13 0.000000 0.000000 0.000000
O O14 0.295620 0.958154 0.835028
O O15 0.679209 0.302858 0.094315
#
# Coordination Sequence:
#
# PCOD8044345 Si02
#       7
#     2   2   2   2   2   2   2
#     4   9  21  35  54  84 113 145 188 228 275 336
#     4  11  21  37  57  83 117 148 181 233 287 330
#     4  10  20  37  58  80 109 148 187 234 273 318
#     4   9  18  35  58  84 113 147 185 231 277 325
#     4   9  19  35  58  86 111 141 191 231 273 339
#     4  10  19  38  58  78 111 147 186 230 272 326
#     4  10  22  35  56  85 109 146 194 221 271 343
#
# _framework density 21.021806000000002
#
# number of rings (size 3 to 8) (size 9 to 14) (size 15 to 20)
#    0.000    2.286    0.000    4.286    0.000    6.857 
#    0.000    5.000    0.000    0.000    0.000    0.000 
#    0.000    0.000    0.000    0.000    0.000    0.000 
#
# Total GULP energy -173453.298706 kJ/mol
# GULP energy per Si atom -12389.521336 kJ/mol
# Density = 2.097396 g / cm^3
# Si number density = 21.021806 Si / 1000 Ang^3
#
#
#
# Elastic Constant Matrix: (Units=GPa)
#
#
# Indices 1 2 3 4 5 6 
#
# 1 94.8230 37.5273 22.8064 10.7179 16.4773 7.5154
# 2 37.5273 116.9726 26.6170 13.0801 6.0278 -24.4836
# 3 22.8064 26.6170 44.3680 7.4126 6.7362 -12.2702
# 4 10.7179 13.0801 7.4126 39.1213 -9.5884 -8.0499
# 5 16.4773 6.0278 6.7362 -9.5884 22.7154 7.0990
# 6 7.5154 -24.4836 -12.2702 -8.0499 7.0990 39.1252
#
#
#
# Elastic Compliance Matrix: (Units=1/GPa)
#
#
# Indices 1 2 3 4 5 6 
#
# 1 0.016420 -0.004399 -0.005373 -0.005763 -0.009370 -0.007078
# 2 -0.004399 0.012488 -0.002354 -0.001493 -0.002581 0.008083
# 3 -0.005373 -0.002354 0.031788 -0.004028 -0.009884 0.010493
# 4 -0.005763 -0.001493 -0.004028 0.033594 0.019222 0.002333
# 5 -0.009370 -0.002581 -0.009884 0.019222 0.065965 -0.010929
# 6 -0.007078 0.008083 0.010493 0.002333 -0.010929 0.037730
#
#
# Mechanical properties :
#
#
# Convention : Reuss Voigt Hill
#
# Bulk Modulus (GPa) = 27.43942 47.78501 37.61222
# Shear Modulus (GPa) = 21.33240 31.47323 26.40281
#
# Velocity S-wave (km/s) = 3.18901 3.87353 3.54782
# Velocity P-wave (km/s) = 5.16148 6.54111 5.89182
#
# Compressibility (1/GPa) = 0.03644392
#
# Stress axis : x y z
#
# Youngs Moduli (GPa) = 60.90154 80.07854 31.45838
#
# Poissons Ratio (x) = 0.35230 0.16902
# Poissons Ratio (y) = 0.26793 0.07404
# Poissons Ratio (z) = 0.32722 0.18847
#
# Static dielectric constant tensor:
#      x y z
#    x 3.776030 -0.014980 0.005680 
#    y -0.014980 3.961460 -0.094730 
#    z 0.005680 -0.094730 3.833950 
# 
# 
# High freq. dielectric constant tensor:
#      x y z
#    x 1.804670 0.003390 -0.005400 
#    y 0.003390 1.831510 -0.004310 
#    z -0.005400 -0.004310 1.807380 
# 
# From -- ./inp_files/471391.got.cif
#   From: 2010.06.25/outbox.cif.g09.slc.cpg/sg2_236_cif.got.tgz:471391.got - 2010.06.27 13:26:56.
