data_PCOD8044973
_publ_section_title
;
Structure prediction by ZEFSAII (Michael W. Deem and Ramdas Pophale) SiO2 
 PCOD8044973
Probable space group: P 2
;
_chemical_formula_sum "Si O2"
_cell_formula_units_Z 14
_cell_length_a 11.938643
_cell_length_b 8.688803
_cell_length_c 11.364835
_cell_angle_alpha 90.000000
_cell_angle_beta 144.873287
_cell_angle_gamma 90.000000
_cell_volume 678.324997
_symmetry_space_group_name_H-M "P 2"
_symmetry_group_IT_number 3
_symmetry_cell_setting 'monoclinic'
loop_
_space_group_symop_operation_xyz
x,y,z
-x,y,-z
loop_
_atom_site_type_symbol
_atom_site_label
_atom_site_fract_x
_atom_site_fract_y
_atom_site_fract_z
Si Si1 0.413766 0.786230 0.629518
Si Si2 0.265452 0.972719 0.984264
Si Si3 0.438447 0.431951 0.617307
Si Si4 0.790488 0.299961 0.776938
Si Si5 0.456816 0.220108 0.835228
Si Si6 0.772235 0.922479 0.310903
Si Si7 0.118219 0.957372 0.212016
O O1 0.618172 0.877250 0.815813
O O2 0.470953 0.612863 0.649842
O O3 0.302734 0.796042 0.659836
O O4 0.287392 0.850300 0.410870
O O5 0.347341 0.146273 0.052199
O O6 0.308638 0.897612 0.891879
O O7 0.037562 0.983817 0.816986
O O8 0.628179 0.344193 0.732515
O O9 0.251632 0.393946 0.377676
O O10 0.387864 0.365906 0.701718
O O11 0.786330 0.116798 0.749590
O O12 0.000000 0.355279 0.000000
O O13 0.290546 0.089315 0.694076
O O14 0.500000 0.287784 0.000000
O O15 0.000000 0.912621 0.500000
O O16 0.000000 0.881915 0.000000
#
# Coordination Sequence:
#
# PCOD8044973 Si02
#       7
#     2   2   2   2   2   2   2
#     4  11  24  40  63  93 130 166 198 253 323 377
#     4  10  21  39  66  92 120 162 213 263 297 356
#     4  11  24  41  61  93 135 164 195 254 320 379
#     4  10  23  43  65  86 121 165 213 262 299 359
#     4   9  19  36  62  92 121 164 208 255 305 359
#     4  10  19  39  66  91 123 159 217 263 295 358
#     4  11  23  39  67  93 116 162 220 257 299 358
#
# _framework density 20.639074000000001
#
# number of rings (size 3 to 8) (size 9 to 14) (size 15 to 20)
#    0.000    1.714    1.429    4.714    0.000    8.000 
#    0.000    0.714    0.000    0.000    0.000    0.000 
#    0.000    0.000    0.000    0.000    0.000    0.000 
#
# Total GULP energy -173563.407401 kJ/mol
# GULP energy per Si atom -12397.386243 kJ/mol
# Density = 2.059210 g / cm^3
# Si number density = 20.639074 Si / 1000 Ang^3
#
#
#
# Elastic Constant Matrix: (Units=GPa)
#
#
# Indices 1 2 3 4 5 6 
#
# 1 81.2518 49.5242 33.9832 0.0000 -2.8541 0.0000
# 2 49.5242 108.6204 56.0802 0.0000 -10.7767 0.0000
# 3 33.9832 56.0802 126.0849 0.0000 -14.9348 0.0000
# 4 0.0000 0.0000 0.0000 18.6660 0.0000 -1.7618
# 5 -2.8541 -10.7767 -14.9348 0.0000 45.8268 0.0000
# 6 0.0000 0.0000 0.0000 -1.7618 0.0000 17.9167
#
#
#
# Elastic Compliance Matrix: (Units=1/GPa)
#
#
# Indices 1 2 3 4 5 6 
#
# 1 0.017315 -0.007176 -0.001609 0.000000 -0.001134 0.000000
# 2 -0.007176 0.014980 -0.004540 0.000000 0.001596 0.000000
# 3 -0.001609 -0.004540 0.010657 0.000000 0.002305 0.000000
# 4 0.000000 0.000000 0.000000 0.054075 0.000000 0.005317
# 5 -0.001134 0.001596 0.002305 0.000000 0.022877 0.000000
# 6 0.000000 0.000000 0.000000 0.005317 0.000000 0.056337
#
#
# Mechanical properties :
#
#
# Convention : Reuss Voigt Hill
#
# Bulk Modulus (GPa) = 61.34191 66.12582 63.73386
# Shear Modulus (GPa) = 24.00088 28.23986 26.12037
#
# Velocity S-wave (km/s) = 3.41381 3.70303 3.56136
# Velocity P-wave (km/s) = 6.73235 7.09873 6.91797
#
# Compressibility (1/GPa) = 0.01630207
#
# Stress axis : x y z
#
# Youngs Moduli (GPa) = 57.75499 66.75370 93.83336
#
# Poissons Ratio (x) = 0.47902 0.15100
# Poissons Ratio (y) = 0.41445 0.42599
# Poissons Ratio (z) = 0.09294 0.30305
#
# Static dielectric constant tensor:
#      x y z
#    x 3.872600 0.000000 -0.224340 
#    y 0.000000 3.313000 0.000000 
#    z -0.224340 0.000000 4.113340 
# 
# 
# High freq. dielectric constant tensor:
#      x y z
#    x 1.818880 0.000000 -0.010400 
#    y 0.000000 1.768970 0.000000 
#    z -0.010400 0.000000 1.825500 
# 
# From -- ./inp_files/11732.got.cif
#   From: 2010.03.12/outbox.cif.g09.slc.cpg/sg3_6_cif.got.tgz:11732.got - 2010.03.31 09:20:49.
