data_PCOD8044036
_publ_section_title
;
Structure prediction by ZEFSAII (Michael W. Deem and Ramdas Pophale) SiO2 
 PCOD8044036
Probable space group: P -1
;
_chemical_formula_sum "Si O2"
_cell_formula_units_Z 14
_cell_length_a 7.678844
_cell_length_b 8.762103
_cell_length_c 13.939221
_cell_angle_alpha 84.723264
_cell_angle_beta 126.531338
_cell_angle_gamma 114.383699
_cell_volume 671.062508
_symmetry_space_group_name_H-M "P -1"
_symmetry_group_IT_number 2
_symmetry_cell_setting 'triclinic'
loop_
_space_group_symop_operation_xyz
x,y,z
-x,-y,-z
loop_
_atom_site_type_symbol
_atom_site_label
_atom_site_fract_x
_atom_site_fract_y
_atom_site_fract_z
Si Si1 0.350833 0.503884 0.643660
Si Si2 0.784947 0.195399 0.183719
Si Si3 0.207077 0.564987 0.254815
Si Si4 0.742747 0.939051 0.037308
Si Si5 0.414638 0.851693 0.676762
Si Si6 0.861544 0.159980 0.878607
Si Si7 0.141612 0.663241 0.428391
O O1 0.531873 0.424180 0.683690
O O2 0.496486 0.697853 0.722019
O O3 0.198481 0.510292 0.498983
O O4 0.146253 0.388948 0.660660
O O5 0.809804 0.032526 0.157015
O O6 0.770055 0.170902 0.295011
O O7 0.010871 0.371643 0.218704
O O8 0.539797 0.191818 0.059450
O O9 0.131555 0.652794 0.136999
O O10 0.230926 0.686164 0.347100
O O11 0.815645 0.093847 0.975797
O O12 0.884751 0.826486 0.076201
O O13 0.282374 0.833656 0.530979
O O14 0.649234 0.030862 0.747325
#
# Coordination Sequence:
#
# PCOD8044036 Si02
#       7
#     2   2   2   2   2   2   2
#     4   9  18  36  59  81 120 150 185 230 266 347
#     4  10  19  37  63  83 104 157 197 226 288 343
#     4  12  21  34  62  93 112 145 194 236 284 324
#     4   9  21  42  57  76 116 154 192 232 289 345
#     4   9  18  38  59  80 119 154 185 221 286 348
#     4  10  22  38  56  85 116 147 191 243 282 334
#     4   9  19  37  58  87 117 151 188 225 277 352
#
# _framework density 20.862438999999998
#
# number of rings (size 3 to 8) (size 9 to 14) (size 15 to 20)
#    0.857    1.429    1.429    1.286    0.000    1.714 
#    7.714    0.714    0.000    0.000    0.000    0.000 
#    0.000    0.000    0.000    0.000    0.000    0.000 
#
# Total GULP energy -173484.071693 kJ/mol
# GULP energy per Si atom -12391.719407 kJ/mol
# Density = 2.081496 g / cm^3
# Si number density = 20.862439 Si / 1000 Ang^3
#
#
#
# Elastic Constant Matrix: (Units=GPa)
#
#
# Indices 1 2 3 4 5 6 
#
# 1 144.5264 19.4746 34.5151 -8.0491 15.0167 -13.1646
# 2 19.4746 25.1587 16.3246 -2.3712 7.7471 -5.3366
# 3 34.5151 16.3246 50.5910 8.3418 -1.9346 -8.2869
# 4 -8.0491 -2.3712 8.3418 30.3145 -5.0361 1.0937
# 5 15.0167 7.7471 -1.9346 -5.0361 37.4191 5.1372
# 6 -13.1646 -5.3366 -8.2869 1.0937 5.1372 10.6351
#
#
#
# Elastic Compliance Matrix: (Units=1/GPa)
#
#
# Indices 1 2 3 4 5 6 
#
# 1 0.009937 0.000183 -0.005895 0.003032 -0.005302 0.010048
# 2 0.000183 0.061989 -0.017701 0.006147 -0.016405 0.024832
# 3 -0.005895 -0.017701 0.032930 -0.011467 0.005062 0.008213
# 4 0.003032 0.006147 -0.011467 0.038214 0.003094 -0.007522
# 5 -0.005302 -0.016405 0.005062 0.003094 0.036907 -0.028996
# 6 0.010048 0.024832 0.008213 -0.007522 -0.028996 0.140106
#
#
# Mechanical properties :
#
#
# Convention : Reuss Voigt Hill
#
# Bulk Modulus (GPa) = 17.23243 40.10051 28.66647
# Shear Modulus (GPa) = 12.94484 25.67121 19.30802
#
# Velocity S-wave (km/s) = 2.49366 3.51165 3.04549
# Velocity P-wave (km/s) = 4.07051 5.97540 5.11246
#
# Compressibility (1/GPa) = 0.05803012
#
# Stress axis : x y z
#
# Youngs Moduli (GPa) = 100.62917 16.13178 30.36771
#
# Poissons Ratio (x) = -0.00295 0.17903
# Poissons Ratio (y) = -0.01841 0.53753
# Poissons Ratio (z) = 0.59326 0.28554
#
# Static dielectric constant tensor:
#      x y z
#    x 3.816160 0.013160 -0.105050 
#    y 0.013160 3.325560 0.171720 
#    z -0.105050 0.171720 3.619170 
# 
# 
# High freq. dielectric constant tensor:
#      x y z
#    x 1.827250 0.006250 -0.006780 
#    y 0.006250 1.780860 0.021610 
#    z -0.006780 0.021610 1.801830 
# 
# From -- ./inp_files/490951.got.cif
#   From: 2010.06.25/outbox.cif.g09.slc.cpg/sg2_246_cif.got.tgz:490951.got - 2010.06.27 13:26:56.
