data_PCOD8044790
_publ_section_title
;
Structure prediction by ZEFSAII (Michael W. Deem and Ramdas Pophale) SiO2 
 PCOD8044790
Probable space group: P -1
;
_chemical_formula_sum "Si O2"
_cell_formula_units_Z 14
_cell_length_a 13.158117
_cell_length_b 9.127206
_cell_length_c 9.464846
_cell_angle_alpha 60.791718
_cell_angle_beta 42.136024
_cell_angle_gamma 51.530386
_cell_volume 596.301013
_symmetry_space_group_name_H-M "P -1"
_symmetry_group_IT_number 2
_symmetry_cell_setting 'triclinic'
loop_
_space_group_symop_operation_xyz
x,y,z
-x,-y,-z
loop_
_atom_site_type_symbol
_atom_site_label
_atom_site_fract_x
_atom_site_fract_y
_atom_site_fract_z
Si Si1 0.606508 0.646851 0.260641
Si Si2 0.042000 0.479154 0.632867
Si Si3 0.907318 0.264649 0.072309
Si Si4 0.148089 0.178098 0.125728
Si Si5 0.648076 0.129741 0.368400
Si Si6 0.441297 0.850496 0.076897
Si Si7 0.399392 0.210979 0.344546
O O1 0.746138 0.436547 0.222256
O O2 0.483610 0.683442 0.503381
O O3 0.486716 0.691437 0.223866
O O4 0.701972 0.779078 0.109550
O O5 0.244873 0.396714 0.479706
O O6 0.000000 0.500000 0.500000
O O7 0.956152 0.675335 0.712647
O O8 0.984424 0.331182 0.831604
O O9 0.834943 0.119630 0.162844
O O10 0.036976 0.176742 0.108106
O O11 0.239700 0.966156 0.195572
O O12 0.572110 0.133106 0.291399
O O13 0.666056 0.949040 0.523182
O O14 0.554683 0.740309 0.878653
O O15 0.500000 0.000000 0.000000
#
# Coordination Sequence:
#
# PCOD8044790 Si02
#       7
#     2   2   2   2   2   2   2
#     4  10  19  39  66  86 120 164 206 243 302 370
#     4  11  23  39  65  91 126 159 200 252 311 361
#     4  11  23  39  61  93 126 157 207 256 300 356
#     4  10  20  39  65  92 117 161 206 251 297 364
#     4  11  23  37  63  90 121 161 207 253 298 364
#     4  10  19  38  67  87 114 161 213 240 294 376
#     4  11  22  40  63  88 120 163 207 243 311 368
#
# _framework density 23.478076000000001
#
# number of rings (size 3 to 8) (size 9 to 14) (size 15 to 20)
#    0.000    1.429    2.857    6.429    2.000    0.571 
#    0.000    5.000    0.000    0.000    0.000    0.000 
#    0.000    0.000    0.000    0.000    0.000    0.000 
#
# Total GULP energy -173561.862228 kJ/mol
# GULP energy per Si atom -12397.275873 kJ/mol
# Density = 2.342464 g / cm^3
# Si number density = 23.478076 Si / 1000 Ang^3
#
#
#
# Elastic Constant Matrix: (Units=GPa)
#
#
# Indices 1 2 3 4 5 6 
#
# 1 153.8458 31.5019 49.3153 -10.1408 -9.7062 -18.7804
# 2 31.5019 37.0119 22.7051 9.2863 -15.7070 -24.5342
# 3 49.3153 22.7051 94.1573 24.1420 2.3760 6.7948
# 4 -10.1408 9.2863 24.1420 30.6399 -4.8683 -3.7667
# 5 -9.7062 -15.7070 2.3760 -4.8683 31.6833 5.8214
# 6 -18.7804 -24.5342 6.7948 -3.7667 5.8214 36.7090
#
#
#
# Elastic Compliance Matrix: (Units=1/GPa)
#
#
# Indices 1 2 3 4 5 6 
#
# 1 0.012627 0.003838 -0.012525 0.015437 0.006908 0.011832
# 2 0.003838 0.133730 -0.047082 0.018277 0.056736 0.092934
# 3 -0.012525 -0.047082 0.040490 -0.031505 -0.026909 -0.044335
# 4 0.015437 0.018277 -0.031505 0.063897 0.020599 0.029234
# 5 0.006908 0.056736 -0.026909 0.020599 0.059811 0.039063
# 6 0.011832 0.092934 -0.044335 0.029234 0.039063 0.100418
#
#
# Mechanical properties :
#
#
# Convention : Reuss Voigt Hill
#
# Bulk Modulus (GPa) = 13.27869 54.67330 33.97599
# Shear Modulus (GPa) = 9.13053 31.90596 20.51824
#
# Velocity S-wave (km/s) = 1.97418 3.69042 2.95944
# Velocity P-wave (km/s) = 3.29615 6.44177 5.11669
#
# Compressibility (1/GPa) = 0.07530863
#
# Stress axis : x y z
#
# Youngs Moduli (GPa) = 79.19741 7.47778 24.69725
#
# Poissons Ratio (x) = -0.02870 0.30933
# Poissons Ratio (y) = -0.30398 1.16280
# Poissons Ratio (z) = 0.99195 0.35207
#
# Static dielectric constant tensor:
#      x y z
#    x 4.481250 -0.461210 -0.014980 
#    y -0.461210 4.492250 0.018860 
#    z -0.014980 0.018860 4.330870 
# 
# 
# High freq. dielectric constant tensor:
#      x y z
#    x 1.930660 -0.023040 0.007310 
#    y -0.023040 1.919810 0.025630 
#    z 0.007310 0.025630 1.924090 
# 
# From -- ./inp_files/221817.got.cif
#   From: 2010.06.25/outbox.cif.g09.slc.cpg/sg2_111_cif.got.tgz:221817.got - 2010.06.27 13:26:56.
