data_PCOD8044801
_publ_section_title
;
Structure prediction by ZEFSAII (Michael W. Deem and Ramdas Pophale) SiO2 
 PCOD8044801
Probable space group: P -1
;
_chemical_formula_sum "Si O2"
_cell_formula_units_Z 16
_cell_length_a 8.455755
_cell_length_b 17.522883
_cell_length_c 8.783256
_cell_angle_alpha 53.595507
_cell_angle_beta 87.180527
_cell_angle_gamma 121.695064
_cell_volume 757.325881
_symmetry_space_group_name_H-M "P -1"
_symmetry_group_IT_number 2
_symmetry_cell_setting 'triclinic'
loop_
_space_group_symop_operation_xyz
x,y,z
-x,-y,-z
loop_
_atom_site_type_symbol
_atom_site_label
_atom_site_fract_x
_atom_site_fract_y
_atom_site_fract_z
Si Si1 0.061693 0.936050 0.971210
Si Si2 0.520287 0.982649 0.194660
Si Si3 0.821465 0.864389 0.758546
Si Si4 0.389167 0.781101 0.978188
Si Si5 0.834125 0.380448 0.543315
Si Si6 0.035734 0.445809 0.921670
Si Si7 0.951357 0.234723 0.583636
Si Si8 0.739332 0.639733 0.849298
O O1 0.037819 0.833003 0.196590
O O2 0.906135 0.866306 0.916181
O O3 0.000000 0.000000 0.000000
O O4 0.314950 0.039925 0.774208
O O5 0.269693 0.858251 0.401540
O O6 0.618662 0.108071 0.143271
O O7 0.500000 0.000000 0.000000
O O8 0.615193 0.846676 0.812886
O O9 0.739541 0.738550 0.821535
O O10 0.000000 0.000000 0.500000
O O11 0.377176 0.735409 0.207746
O O12 0.193014 0.661388 0.027246
O O13 0.968774 0.345747 0.519869
O O14 0.000000 0.500000 0.500000
O O15 0.783560 0.429321 0.345565
O O16 0.000000 0.500000 0.000000
O O17 0.120022 0.378349 0.044197
O O18 0.156672 0.297273 0.394252
O O19 0.500000 0.500000 0.000000
#
# Coordination Sequence:
#
# PCOD8044801 Si02
#       8
#     2   2   2   2   2   2   2   2
#     4  11  23  41  69 104 138 171 222 284 351 399
#     4  10  19  38  67  98 127 168 225 274 326 395
#     4  12  27  46  67  99 145 180 222 284 350 403
#     4  11  22  43  71  97 131 178 233 274 326 413
#     4  10  22  39  72  96 128 170 241 274 323 392
#     4  11  23  44  69  99 132 181 227 274 337 408
#     4  11  23  45  69  96 136 180 229 278 328 413
#     4  12  27  46  66 101 146 178 223 284 348 403
#
# _framework density 21.12697
#
# number of rings (size 3 to 8) (size 9 to 14) (size 15 to 20)
#    0.000    1.000    3.750    4.500    3.500    2.000 
#    2.250    3.750    0.000    0.000    0.000    0.000 
#    0.000    0.000    0.000    0.000    0.000    0.000 
#
# Total GULP energy -198323.339974 kJ/mol
# GULP energy per Si atom -12395.208748 kJ/mol
# Density = 2.107888 g / cm^3
# Si number density = 21.126970 Si / 1000 Ang^3
#
#
#
# Elastic Constant Matrix: (Units=GPa)
#
#
# Indices 1 2 3 4 5 6 
#
# 1 121.9715 49.0471 40.1850 -2.4206 -13.7834 -6.9347
# 2 49.0471 154.5077 40.0554 -9.4754 -8.4138 -16.8475
# 3 40.1850 40.0554 103.0268 3.4307 -11.4577 2.3675
# 4 -2.4206 -9.4754 3.4307 32.5884 -0.3682 1.6580
# 5 -13.7834 -8.4138 -11.4577 -0.3682 43.6354 -1.8902
# 6 -6.9347 -16.8475 2.3675 1.6580 -1.8902 42.8048
#
#
#
# Elastic Compliance Matrix: (Units=1/GPa)
#
#
# Indices 1 2 3 4 5 6 
#
# 1 0.010399 -0.002279 -0.002972 0.000394 0.002113 0.001030
# 2 -0.002279 0.008320 -0.002449 0.002361 0.000390 0.002967
# 3 -0.002972 -0.002449 0.012118 -0.002090 0.001668 -0.001961
# 4 0.000394 0.002361 -0.002090 0.031630 0.000293 -0.000103
# 5 0.002113 0.000390 0.001668 0.000293 0.024164 0.001459
# 6 0.001030 0.002967 -0.001961 -0.000103 0.001459 0.024873
#
#
# Mechanical properties :
#
#
# Convention : Reuss Voigt Hill
#
# Bulk Modulus (GPa) = 64.78067 70.89787 67.83927
# Shear Modulus (GPa) = 37.86426 40.48696 39.17561
#
# Velocity S-wave (km/s) = 4.23806 4.38238 4.31082
# Velocity P-wave (km/s) = 7.39441 7.69661 7.54702
#
# Compressibility (1/GPa) = 0.01543670
#
# Stress axis : x y z
#
# Youngs Moduli (GPa) = 96.15885 120.19029 82.52315
#
# Poissons Ratio (x) = 0.27394 0.24525
# Poissons Ratio (y) = 0.21916 0.20212
# Poissons Ratio (z) = 0.28578 0.29437
#
# Static dielectric constant tensor:
#      x y z
#    x 3.076210 -0.746710 0.462020 
#    y -0.746710 3.598910 0.393760 
#    z 0.462020 0.393760 4.221490 
# 
# 
# High freq. dielectric constant tensor:
#      x y z
#    x 1.825430 -0.014110 -0.005100 
#    y -0.014110 1.843930 -0.000100 
#    z -0.005100 -0.000100 1.831960 
# 
# From -- ./inp_files/216741.got.cif
#   From: 2010.06.25/outbox.cif.g09.slc.cpg/sg2_109_cif.got.tgz:216741.got - 2010.06.27 13:26:56.
