data_PCOD8044350
_publ_section_title
;
Structure prediction by ZEFSAII (Michael W. Deem and Ramdas Pophale) SiO2 
 PCOD8044350
Probable space group: P -1
;
_chemical_formula_sum "Si O2"
_cell_formula_units_Z 14
_cell_length_a 12.155836
_cell_length_b 8.618746
_cell_length_c 18.418049
_cell_angle_alpha 130.815190
_cell_angle_beta 38.498896
_cell_angle_gamma 102.940668
_cell_volume 720.047396
_symmetry_space_group_name_H-M "P -1"
_symmetry_group_IT_number 2
_symmetry_cell_setting 'triclinic'
loop_
_space_group_symop_operation_xyz
x,y,z
-x,-y,-z
loop_
_atom_site_type_symbol
_atom_site_label
_atom_site_fract_x
_atom_site_fract_y
_atom_site_fract_z
Si Si1 0.251694 0.761377 0.208988
Si Si2 0.808105 0.479580 0.110025
Si Si3 0.848303 0.825451 0.504605
Si Si4 0.224565 0.593572 0.589654
Si Si5 0.632633 0.964211 0.511141
Si Si6 0.687782 0.460880 0.314847
Si Si7 0.029846 0.892889 0.211443
O O1 0.170817 0.854146 0.197080
O O2 0.099867 0.708981 0.316453
O O3 0.238631 0.992141 0.324448
O O4 0.500000 0.500000 0.000000
O O5 0.850308 0.341150 0.124091
O O6 0.574461 0.760062 0.325895
O O7 0.800662 0.318689 0.000473
O O8 0.000000 0.500000 0.000000
O O9 0.841314 0.590272 0.453039
O O10 0.684122 0.000668 0.577164
O O11 0.490665 0.437297 0.396087
O O12 0.167757 0.689218 0.732872
O O13 0.086928 0.825859 0.675582
O O14 0.576305 0.764013 0.477318
O O15 0.843332 0.856315 0.316930
#
# Coordination Sequence:
#
# PCOD8044350 Si02
#       7
#     2   2   2   2   2   2   2
#     4  10  21  42  64  86 107 145 200 249 290 341
#     4  12  21  32  59  91 115 159 199 234 276 331
#     4   9  21  40  64  82 111 154 188 243 297 338
#     4  10  21  39  57  87 121 157 188 229 293 348
#     4  10  19  38  58  84 118 156 202 230 273 345
#     4  10  20  37  59  82 125 160 189 232 278 343
#     4  11  22  36  60  86 119 152 195 241 282 346
#
# _framework density 19.443166000000002
#
# number of rings (size 3 to 8) (size 9 to 14) (size 15 to 20)
#    0.000    1.714    2.857    2.143    0.000    1.143 
#    2.571    0.714    0.000    0.000    0.000    0.000 
#    0.000    0.000    0.000    0.000    0.000    0.000 
#
# Total GULP energy -173596.956819 kJ/mol
# GULP energy per Si atom -12399.782630 kJ/mol
# Density = 1.939891 g / cm^3
# Si number density = 19.443166 Si / 1000 Ang^3
#
#
#
# Elastic Constant Matrix: (Units=GPa)
#
#
# Indices 1 2 3 4 5 6 
#
# 1 126.0833 47.1458 47.1951 -6.5240 12.7956 -9.7023
# 2 47.1458 102.6393 22.4291 -8.5972 2.9282 -3.0154
# 3 47.1951 22.4291 80.6903 -9.8133 8.4633 -7.2736
# 4 -6.5240 -8.5972 -9.8133 27.8529 -8.3971 2.9339
# 5 12.7956 2.9282 8.4633 -8.3971 35.8246 -1.9738
# 6 -9.7023 -3.0154 -7.2736 2.9339 -1.9738 40.6031
#
#
#
# Elastic Compliance Matrix: (Units=1/GPa)
#
#
# Indices 1 2 3 4 5 6 
#
# 1 0.011930 -0.004269 -0.005536 -0.001499 -0.002872 0.001511
# 2 -0.004269 0.012046 -0.000673 0.002934 0.001365 -0.000392
# 3 -0.005536 -0.000673 0.016499 0.003911 -0.000880 0.001257
# 4 -0.001499 0.002934 0.003911 0.040695 0.008803 -0.001952
# 5 -0.002872 0.001365 -0.000880 0.008803 0.031107 0.000134
# 6 0.001511 -0.000392 0.001257 -0.001952 0.000134 0.025333
#
#
# Mechanical properties :
#
#
# Convention : Reuss Voigt Hill
#
# Bulk Modulus (GPa) = 51.23206 60.32811 55.78008
# Shear Modulus (GPa) = 30.28952 33.69899 31.99425
#
# Velocity S-wave (km/s) = 3.95124 4.16769 4.06091
# Velocity P-wave (km/s) = 6.87192 7.36579 7.12314
#
# Compressibility (1/GPa) = 0.01951903
#
# Stress axis : x y z
#
# Youngs Moduli (GPa) = 83.82163 83.01301 60.60854
#
# Poissons Ratio (x) = 0.35442 0.33552
# Poissons Ratio (y) = 0.35787 0.04079
# Poissons Ratio (z) = 0.46403 0.05587
#
# Static dielectric constant tensor:
#      x y z
#    x 3.765160 -0.112360 0.117240 
#    y -0.112360 3.632160 -0.263090 
#    z 0.117240 -0.263090 3.586150 
# 
# 
# High freq. dielectric constant tensor:
#      x y z
#    x 1.768470 -0.008460 0.011610 
#    y -0.008460 1.758080 -0.011660 
#    z 0.011610 -0.011660 1.739780 
# 
# From -- ./inp_files/39241.got.cif
#   From: 2010.06.25/outbox.cif.g09.slc.cpg/sg2_20_cif.got.tgz:39241.got - 2010.06.27 13:26:56.
