data_PCOD8044318
_publ_section_title
;
Structure prediction by ZEFSAII (Michael W. Deem and Ramdas Pophale) SiO2 
 PCOD8044318
Probable space group: P -1
;
_chemical_formula_sum "Si O2"
_cell_formula_units_Z 12
_cell_length_a 9.610170
_cell_length_b 8.562378
_cell_length_c 12.764071
_cell_angle_alpha 55.563546
_cell_angle_beta 135.721908
_cell_angle_gamma 97.849119
_cell_volume 535.090590
_symmetry_space_group_name_H-M "P -1"
_symmetry_group_IT_number 2
_symmetry_cell_setting 'triclinic'
loop_
_space_group_symop_operation_xyz
x,y,z
-x,-y,-z
loop_
_atom_site_type_symbol
_atom_site_label
_atom_site_fract_x
_atom_site_fract_y
_atom_site_fract_z
Si Si1 0.734380 0.549010 0.004544
Si Si2 0.523792 0.696618 0.057100
Si Si3 0.190206 0.174836 0.695606
Si Si4 0.675403 0.991335 0.790718
Si Si5 0.177568 0.365692 0.408317
Si Si6 0.963119 0.173579 0.778666
O O1 0.675189 0.580363 0.083770
O O2 0.005961 0.396173 0.208269
O O3 0.606834 0.433328 0.922429
O O4 0.667612 0.777299 0.827313
O O5 0.671671 0.709307 0.226874
O O6 0.347338 0.933365 0.836110
O O7 0.076994 0.305524 0.480170
O O8 0.003558 0.183061 0.673238
O O9 0.426683 0.185829 0.585630
O O10 0.824919 0.042405 0.769768
O O11 0.792466 0.947220 0.985899
O O12 0.181369 0.590221 0.341580
#
# Coordination Sequence:
#
# PCOD8044318 Si02
#       6
#     2   2   2   2   2   2
#     4  10  21  38  58  86 112 153 188 234 277 339
#     4  10  20  37  59  84 117 148 189 231 288 330
#     4  11  19  37  59  90 112 144 189 242 281 326
#     4  10  19  38  56  82 117 152 189 227 279 344
#     4  11  20  35  61  89 111 146 196 231 281 332
#     4  10  21  34  57  85 118 148 185 235 283 334
#
# _framework density 22.426109
#
# number of rings (size 3 to 8) (size 9 to 14) (size 15 to 20)
#    0.000    1.667    5.000    2.000    0.000    0.667 
#    0.000    0.833    0.000    2.000    0.000    0.000 
#    0.000    0.000    0.000    0.000    0.000    0.000 
#
# Total GULP energy -148796.643374 kJ/mol
# GULP energy per Si atom -12399.720281 kJ/mol
# Density = 2.237507 g / cm^3
# Si number density = 22.426109 Si / 1000 Ang^3
#
#
#
# Elastic Constant Matrix: (Units=GPa)
#
#
# Indices 1 2 3 4 5 6 
#
# 1 85.4342 31.0086 33.8827 -0.4129 9.0655 27.6161
# 2 31.0086 80.8741 27.1770 -5.1262 9.3589 25.7484
# 3 33.8827 27.1770 94.4637 -27.4141 22.3866 1.8466
# 4 -0.4129 -5.1262 -27.4141 15.0674 -4.1638 0.9508
# 5 9.0655 9.3589 22.3866 -4.1638 29.7138 -6.6034
# 6 27.6161 25.7484 1.8466 0.9508 -6.6034 35.2074
#
#
#
# Elastic Compliance Matrix: (Units=1/GPa)
#
#
# Indices 1 2 3 4 5 6 
#
# 1 0.023605 0.000529 -0.015052 -0.026456 -0.003759 -0.018104
# 2 0.000529 0.019197 -0.004697 -0.002821 -0.006475 -0.015346
# 3 -0.015052 -0.004697 0.038750 0.064588 -0.012025 0.009210
# 4 -0.026456 -0.002821 0.064588 0.178102 -0.011995 0.012367
# 5 -0.003759 -0.006475 -0.012025 -0.011995 0.048146 0.017668
# 6 -0.018104 -0.015346 0.009210 0.012367 0.017668 0.056324
#
#
# Mechanical properties :
#
#
# Convention : Reuss Voigt Hill
#
# Bulk Modulus (GPa) = 23.19506 49.43430 36.31468
# Shear Modulus (GPa) = 11.99231 27.24463 19.61847
#
# Velocity S-wave (km/s) = 2.31497 3.48927 2.96092
# Velocity P-wave (km/s) = 4.18459 6.19067 5.28371
#
# Compressibility (1/GPa) = 0.04311263
#
# Stress axis : x y z
#
# Youngs Moduli (GPa) = 42.36333 52.09237 25.80638
#
# Poissons Ratio (x) = -0.02757 0.38844
# Poissons Ratio (y) = -0.02242 0.12121
# Poissons Ratio (z) = 0.63766 0.24468
#
# Static dielectric constant tensor:
#      x y z
#    x 3.952820 0.401620 0.062540 
#    y 0.401620 4.044520 -0.274090 
#    z 0.062540 -0.274090 3.930420 
# 
# 
# High freq. dielectric constant tensor:
#      x y z
#    x 1.872420 0.023740 0.010020 
#    y 0.023740 1.867970 -0.029110 
#    z 0.010020 -0.029110 1.880350 
# 
# From -- ./inp_files/149908.got.cif
#   From: 2010.06.25/outbox.cif.g09.slc.cpg/sg2_75_cif.got.tgz:149908.got - 2010.06.27 13:26:56.
