data_PCOD8044289
_publ_section_title
;
Structure prediction by ZEFSAII (Michael W. Deem and Ramdas Pophale) SiO2 
 PCOD8044289
Probable space group: P -1
;
_chemical_formula_sum "Si O2"
_cell_formula_units_Z 14
_cell_length_a 12.229654
_cell_length_b 15.807076
_cell_length_c 8.988554
_cell_angle_alpha 132.518820
_cell_angle_beta 53.919887
_cell_angle_gamma 150.746000
_cell_volume 625.865874
_symmetry_space_group_name_H-M "P -1"
_symmetry_group_IT_number 2
_symmetry_cell_setting 'triclinic'
loop_
_space_group_symop_operation_xyz
x,y,z
-x,-y,-z
loop_
_atom_site_type_symbol
_atom_site_label
_atom_site_fract_x
_atom_site_fract_y
_atom_site_fract_z
Si Si1 0.526850 0.199408 0.703860
Si Si2 0.716700 0.577104 0.957309
Si Si3 0.390534 0.204357 0.264368
Si Si4 0.254591 0.692895 0.054184
Si Si5 0.090269 0.946342 0.936710
Si Si6 0.684606 0.016325 0.675244
Si Si7 0.876152 0.797199 0.393187
O O1 0.640467 0.395537 0.804902
O O2 0.701136 0.256589 0.744800
O O3 0.287490 0.036710 0.782397
O O4 0.483294 0.102733 0.471856
O O5 0.896083 0.720142 0.850230
O O6 0.500000 0.500000 0.000000
O O7 0.810285 0.677867 0.162110
O O8 0.352956 0.313731 0.471169
O O9 0.411729 0.133520 0.302122
O O10 0.612079 0.330742 0.138085
O O11 0.173194 0.026388 0.131851
O O12 0.324998 0.858365 0.111477
O O13 0.000000 0.500000 0.000000
O O14 0.000000 0.000000 0.000000
O O15 0.945323 0.156637 0.597233
O O16 0.000000 0.000000 0.500000
#
# Coordination Sequence:
#
# PCOD8044289 Si02
#       7
#     2   2   2   2   2   2   2
#     4  11  25  42  67  98 132 178 228 273 332 401
#     4  12  21  38  66  97 142 175 213 275 342 396
#     4  10  22  41  70  94 130 179 219 269 344 393
#     4  11  25  45  66  97 134 176 226 279 330 399
#     4  11  21  39  63  98 138 174 215 272 341 397
#     4  11  21  45  70  92 137 175 221 276 336 397
#     4  10  19  37  68  98 128 170 217 273 331 394
#
# _framework density 22.369011
#
# number of rings (size 3 to 8) (size 9 to 14) (size 15 to 20)
#    0.000    1.143    4.286    4.286    0.000    0.000 
#    5.143    4.286    0.000    0.000    0.000    0.000 
#    0.000    0.000    0.000    0.000    0.000    0.000 
#
# Total GULP energy -173448.173707 kJ/mol
# GULP energy per Si atom -12389.155265 kJ/mol
# Density = 2.231810 g / cm^3
# Si number density = 22.369011 Si / 1000 Ang^3
#
#
#
# Elastic Constant Matrix: (Units=GPa)
#
#
# Indices 1 2 3 4 5 6 
#
# 1 100.5312 24.4094 13.7175 0.9725 18.9988 19.6163
# 2 24.4094 126.9611 28.6539 10.2964 2.2561 2.5426
# 3 13.7175 28.6539 79.2345 4.0964 7.9278 10.4361
# 4 0.9725 10.2964 4.0964 26.3199 -0.3982 0.8846
# 5 18.9988 2.2561 7.9278 -0.3982 46.8610 3.6339
# 6 19.6163 2.5426 10.4361 0.8846 3.6339 37.9107
#
#
#
# Elastic Compliance Matrix: (Units=1/GPa)
#
#
# Indices 1 2 3 4 5 6 
#
# 1 0.012488 -0.002211 -0.000174 0.000559 -0.004469 -0.005850
# 2 -0.002211 0.009196 -0.003047 -0.003075 0.000838 0.001357
# 3 -0.000174 -0.003047 0.014457 -0.000965 -0.001967 -0.003474
# 4 0.000559 -0.003075 -0.000965 0.039360 0.000480 -0.000782
# 5 -0.004469 0.000838 -0.001967 0.000480 0.023406 0.000543
# 6 -0.005850 0.001357 -0.003474 -0.000782 0.000543 0.030237
#
#
# Mechanical properties :
#
#
# Convention : Reuss Voigt Hill
#
# Bulk Modulus (GPa) = 39.55756 48.92094 44.23925
# Shear Modulus (GPa) = 33.68530 38.21471 35.95001
#
# Velocity S-wave (km/s) = 3.88479 4.13774 4.01326
# Velocity P-wave (km/s) = 6.15180 6.68919 6.42611
#
# Compressibility (1/GPa) = 0.02527962
#
# Stress axis : x y z
#
# Youngs Moduli (GPa) = 80.07484 108.73928 69.17081
#
# Poissons Ratio (x) = 0.24037 0.01203
# Poissons Ratio (y) = 0.17701 0.21074
# Poissons Ratio (z) = 0.01392 0.33128
#
# Static dielectric constant tensor:
#      x y z
#    x 4.471270 0.207590 0.079650 
#    y 0.207590 4.046960 -0.156810 
#    z 0.079650 -0.156810 4.230370 
# 
# 
# High freq. dielectric constant tensor:
#      x y z
#    x 1.898150 0.003740 0.008760 
#    y 0.003740 1.871390 0.005510 
#    z 0.008760 0.005510 1.869340 
# 
# From -- ./inp_files/189586.got.cif
#   From: 2010.06.25/outbox.cif.g09.slc.cpg/sg2_95_cif.got.tgz:189586.got - 2010.06.27 13:26:56.
