data_PCOD8044411
_publ_section_title
;
Structure prediction by ZEFSAII (Michael W. Deem and Ramdas Pophale) SiO2 
 PCOD8044411
Probable space group: P -1
;
_chemical_formula_sum "Si O2"
_cell_formula_units_Z 14
_cell_length_a 8.446856
_cell_length_b 15.723026
_cell_length_c 15.707202
_cell_angle_alpha 19.092542
_cell_angle_beta 105.595608
_cell_angle_gamma 105.745337
_cell_volume 656.230761
_symmetry_space_group_name_H-M "P -1"
_symmetry_group_IT_number 2
_symmetry_cell_setting 'triclinic'
loop_
_space_group_symop_operation_xyz
x,y,z
-x,-y,-z
loop_
_atom_site_type_symbol
_atom_site_label
_atom_site_fract_x
_atom_site_fract_y
_atom_site_fract_z
Si Si1 0.297345 0.330854 0.331112
Si Si2 0.311972 0.975059 0.966079
Si Si3 0.334797 0.608231 0.614926
Si Si4 0.191675 0.131926 0.151008
Si Si5 0.387689 0.241216 0.245229
Si Si6 0.677989 0.487126 0.495091
Si Si7 0.817353 0.126314 0.136628
O O1 0.485592 0.304099 0.408926
O O2 0.277418 0.273279 0.282747
O O3 0.187140 0.115793 0.570262
O O4 0.238875 0.617860 0.066960
O O5 0.305612 0.935614 0.901234
O O6 0.223830 0.235761 0.735569
O O7 0.223181 0.731404 0.234054
O O8 0.500000 0.000000 0.000000
O O9 0.339134 0.579837 0.541920
O O10 0.216710 0.835009 0.409069
O O11 0.277919 0.331292 0.908274
O O12 0.260568 0.190821 0.198662
O O13 0.999215 0.175232 0.080344
O O14 0.500000 0.000000 0.500000
O O15 0.500000 0.500000 0.000000
O O16 0.500000 0.500000 0.500000
#
# Coordination Sequence:
#
# PCOD8044411 Si02
#       7
#     2   2   2   2   2   2   2
#     4  12  23  41  72  97 127 180 234 264 320 408
#     4  10  19  38  60  88 130 166 210 273 313 378
#     4  12  23  43  71  98 129 185 225 263 339 400
#     4  12  26  45  65  99 144 170 213 288 337 396
#     4  12  23  45  68 100 132 172 226 271 329 394
#     4  10  20  36  62  94 122 161 222 279 303 373
#     4  12  26  42  66 104 136 173 222 280 339 376
#
# _framework density 21.333957999999999
#
# number of rings (size 3 to 8) (size 9 to 14) (size 15 to 20)
#    0.000    0.571    2.857    7.714    0.000    1.143 
#    0.000    4.286    0.000    0.000    0.000    0.000 
#    0.000    0.000    0.000    0.000    0.000    0.000 
#
# Total GULP energy -173639.822486 kJ/mol
# GULP energy per Si atom -12402.844463 kJ/mol
# Density = 2.128540 g / cm^3
# Si number density = 21.333958 Si / 1000 Ang^3
#
#
#
# Elastic Constant Matrix: (Units=GPa)
#
#
# Indices 1 2 3 4 5 6 
#
# 1 61.6465 27.1050 7.7964 -2.9016 6.5649 -5.3088
# 2 27.1050 164.5723 52.8946 3.3121 2.3104 -19.9200
# 3 7.7964 52.8946 162.6518 -8.1657 -3.5497 -0.3496
# 4 -2.9016 3.3121 -8.1657 43.6194 -11.1990 -0.9897
# 5 6.5649 2.3104 -3.5497 -11.1990 28.8993 -0.2699
# 6 -5.3088 -19.9200 -0.3496 -0.9897 -0.2699 18.8145
#
#
#
# Elastic Compliance Matrix: (Units=1/GPa)
#
#
# Indices 1 2 3 4 5 6 
#
# 1 0.017994 -0.002629 -0.000058 0.000494 -0.003672 0.002266
# 2 -0.002629 0.008372 -0.002665 -0.001346 -0.000846 0.007990
# 3 -0.000058 -0.002665 0.007150 0.001950 0.001836 -0.002577
# 4 0.000494 -0.001346 0.001950 0.026088 0.010347 0.000272
# 5 -0.003672 -0.000846 0.001836 0.010347 0.039733 -0.000784
# 6 0.002266 0.007990 -0.002577 0.000272 -0.000784 0.062204
#
#
# Mechanical properties :
#
#
# Convention : Reuss Voigt Hill
#
# Bulk Modulus (GPa) = 43.83769 62.71807 53.27788
# Shear Modulus (GPa) = 27.80088 38.33829 33.06959
#
# Velocity S-wave (km/s) = 3.61380 4.24377 3.94139
# Velocity P-wave (km/s) = 6.16488 7.31265 6.76315
#
# Compressibility (1/GPa) = 0.02281142
#
# Stress axis : x y z
#
# Youngs Moduli (GPa) = 55.57313 119.44414 139.85777
#
# Poissons Ratio (x) = 0.31404 0.00811
# Poissons Ratio (y) = 0.14611 0.37278
# Poissons Ratio (z) = 0.00322 0.31837
#
# Static dielectric constant tensor:
#      x y z
#    x 3.507820 -0.038860 0.026470 
#    y -0.038860 4.014460 0.453780 
#    z 0.026470 0.453780 2.400330 
# 
# 
# High freq. dielectric constant tensor:
#      x y z
#    x 1.803610 -0.006790 -0.000070 
#    y -0.006790 1.856110 -0.003140 
#    z -0.000070 -0.003140 1.871750 
# 
# From -- ./inp_files/98029.got.cif
#   From: 2010.06.25/outbox.cif.g09.slc.cpg/sg2_50_cif.got.tgz:98029.got - 2010.06.27 13:26:56.
