data_PCOD8044933
_publ_section_title
;
Structure prediction by ZEFSAII (Michael W. Deem and Ramdas Pophale) SiO2 
 PCOD8044933
Probable space group: P 2
;
_chemical_formula_sum "Si O2"
_cell_formula_units_Z 16
_cell_length_a 8.766926
_cell_length_b 11.949244
_cell_length_c 8.939368
_cell_angle_alpha 90.000000
_cell_angle_beta 57.368567
_cell_angle_gamma 90.000000
_cell_volume 788.655782
_symmetry_space_group_name_H-M "P 2"
_symmetry_group_IT_number 3
_symmetry_cell_setting 'monoclinic'
loop_
_space_group_symop_operation_xyz
x,y,z
-x,y,-z
loop_
_atom_site_type_symbol
_atom_site_label
_atom_site_fract_x
_atom_site_fract_y
_atom_site_fract_z
Si Si1 0.531589 0.379390 0.651102
Si Si2 0.971093 0.599875 0.840375
Si Si3 0.831805 0.376763 0.978921
Si Si4 0.836927 0.127725 0.968823
Si Si5 0.198702 0.568065 0.461620
Si Si6 0.817700 0.984049 0.684784
Si Si7 0.472262 0.121075 0.343502
Si Si8 0.690377 0.741656 0.823479
O O1 0.500000 0.419393 0.500000
O O2 0.694623 0.453787 0.628169
O O3 0.587412 0.250190 0.628128
O O4 0.352350 0.403105 0.838590
O O5 0.866865 0.482629 0.851805
O O6 0.851597 0.703502 0.848031
O O7 0.167106 0.596161 0.654557
O O8 0.000000 0.613959 0.000000
O O9 0.823633 0.254148 0.907080
O O10 0.000000 0.372911 0.000000
O O11 0.864408 0.046756 0.814499
O O12 0.653637 0.098536 0.153720
O O13 0.000000 0.114136 0.000000
O O14 0.304511 0.672140 0.333304
O O15 0.000000 0.555353 0.500000
O O16 0.711855 0.871609 0.778402
O O17 0.000000 0.955548 0.500000
O O18 0.691837 0.055984 0.643654
O O19 0.500000 0.081263 0.500000
O O20 0.500000 0.718468 0.000000
#
# Coordination Sequence:
#
# PCOD8044933 Si02
#       8
#     2   2   2   2   2   2   2   2
#     4  10  19  34  59  89 121 155 195 241 290 347
#     4  10  20  37  61  87 119 155 193 236 288 351
#     4   9  18  33  56  88 123 156 192 237 291 350
#     4  10  21  39  63  91 123 158 197 244 297 352
#     4  10  22  38  58  87 123 155 192 239 293 350
#     4  12  25  42  63  86 117 158 202 248 299 351
#     4  10  22  40  61  90 123 157 200 245 293 353
#     4  11  24  43  61  82 115 152 197 248 295 346
#
# _framework density 20.287685
#
# number of rings (size 3 to 8) (size 9 to 14) (size 15 to 20)
#    0.000    1.750    0.000    5.250    0.000    6.000 
#    0.000    6.875    0.000    0.000    0.000    0.000 
#    0.000    0.000    0.000    0.000    0.000    0.000 
#
# Total GULP energy -198369.648925 kJ/mol
# GULP energy per Si atom -12398.103058 kJ/mol
# Density = 2.024151 g / cm^3
# Si number density = 20.287685 Si / 1000 Ang^3
#
#
#
# Elastic Constant Matrix: (Units=GPa)
#
#
# Indices 1 2 3 4 5 6 
#
# 1 74.9817 33.2605 37.0344 0.0000 -4.1826 0.0000
# 2 33.2605 101.5033 46.1503 0.0000 2.8672 0.0000
# 3 37.0344 46.1503 139.6860 0.0000 -3.3628 0.0000
# 4 0.0000 0.0000 0.0000 35.8386 0.0000 -4.3618
# 5 -4.1826 2.8672 -3.3628 0.0000 40.8662 0.0000
# 6 0.0000 0.0000 0.0000 -4.3618 0.0000 16.5887
#
#
#
# Elastic Compliance Matrix: (Units=1/GPa)
#
#
# Indices 1 2 3 4 5 6 
#
# 1 0.016781 -0.004172 -0.003028 0.000000 0.001761 0.000000
# 2 -0.004172 0.012683 -0.003122 0.000000 -0.001574 0.000000
# 3 -0.003028 -0.003122 0.009009 0.000000 0.000650 0.000000
# 4 0.000000 0.000000 0.000000 0.028825 0.000000 0.007579
# 5 0.001761 -0.001574 0.000650 0.000000 0.024814 0.000000
# 6 0.000000 0.000000 0.000000 0.007579 0.000000 0.062275
#
#
# Mechanical properties :
#
#
# Convention : Reuss Voigt Hill
#
# Bulk Modulus (GPa) = 56.08988 61.00683 58.54835
# Shear Modulus (GPa) = 27.62821 31.97375 29.80098
#
# Velocity S-wave (km/s) = 3.69429 3.97422 3.83681
# Velocity P-wave (km/s) = 6.77527 7.15509 6.96777
#
# Compressibility (1/GPa) = 0.01782853
#
# Stress axis : x y z
#
# Youngs Moduli (GPa) = 59.59092 78.84679 111.00009
#
# Poissons Ratio (x) = 0.32892 0.33616
# Poissons Ratio (y) = 0.24859 0.34655
# Poissons Ratio (z) = 0.18047 0.24617
#
# Static dielectric constant tensor:
#      x y z
#    x 3.547560 0.000000 -0.010470 
#    y 0.000000 3.915570 0.000000 
#    z -0.010470 0.000000 4.162740 
# 
# 
# High freq. dielectric constant tensor:
#      x y z
#    x 1.783710 0.000000 -0.007940 
#    y 0.000000 1.793370 0.000000 
#    z -0.007940 0.000000 1.812540 
# 
# From -- ./inp_files/5942.got.cif
#   From: 2010.03.12/outbox.cif.g09.slc.cpg/sg3_3_cif.got.tgz:5942.got - 2010.03.31 09:20:49.
