data_PCOD8044885
_publ_section_title
;
Structure prediction by ZEFSAII (Michael W. Deem and Ramdas Pophale) SiO2 
 PCOD8044885
Probable space group: P 2
;
_chemical_formula_sum "Si O2"
_cell_formula_units_Z 14
_cell_length_a 9.956715
_cell_length_b 5.065882
_cell_length_c 13.048466
_cell_angle_alpha 90.000000
_cell_angle_beta 85.505667
_cell_angle_gamma 90.000000
_cell_volume 656.134887
_symmetry_space_group_name_H-M "P 2"
_symmetry_group_IT_number 3
_symmetry_cell_setting 'monoclinic'
loop_
_space_group_symop_operation_xyz
x,y,z
-x,y,-z
loop_
_atom_site_type_symbol
_atom_site_label
_atom_site_fract_x
_atom_site_fract_y
_atom_site_fract_z
Si Si1 0.522101 0.017440 0.295318
Si Si2 0.645541 0.512631 0.356192
Si Si3 0.074467 0.556321 0.601190
Si Si4 0.985249 0.062055 0.264698
Si Si5 0.255738 0.258926 0.839181
Si Si6 0.654630 0.491124 0.960231
Si Si7 0.718767 0.996337 0.830021
O O1 0.534476 0.277163 0.367217
O O2 0.620577 0.052295 0.189441
O O3 0.567390 0.785597 0.368677
O O4 0.374079 0.943162 0.263865
O O5 0.767028 0.487633 0.431545
O O6 0.725448 0.498342 0.242432
O O7 0.000000 0.603679 0.500000
O O8 0.999991 0.322775 0.666710
O O9 0.073997 0.828418 0.663606
O O10 0.303653 0.783899 0.077961
O O11 0.886444 0.115530 0.174097
O O12 0.127850 0.976942 0.211779
O O13 0.254591 0.385457 0.951712
O O14 0.678513 0.290228 0.866254
O O15 0.500000 0.495481 0.000000
#
# Coordination Sequence:
#
# PCOD8044885 Si02
#       7
#     2   2   2   2   2   2   2
#     4  10  18  36  59  83 114 165 202 237 297 357
#     4   9  18  34  59  88 110 154 202 246 292 360
#     4  11  21  40  70  95 117 157 209 256 303 394
#     4  11  24  42  61  92 131 157 198 257 334 367
#     4   9  21  36  60  81 117 163 206 243 286 357
#     4  12  23  37  62  87 118 164 228 249 279 354
#     4  12  25  38  59  91 125 163 199 265 309 343
#
# _framework density 21.337074999999999
#
# number of rings (size 3 to 8) (size 9 to 14) (size 15 to 20)
#    0.857    0.571    2.857    3.429    2.000    0.571 
#    0.000    1.429    0.000    5.143    0.000    0.000 
#    0.000    0.000    0.000    0.000    0.000    0.000 
#
# Total GULP energy -173526.296654 kJ/mol
# GULP energy per Si atom -12394.735475 kJ/mol
# Density = 2.128851 g / cm^3
# Si number density = 21.337075 Si / 1000 Ang^3
#
#
#
# Elastic Constant Matrix: (Units=GPa)
#
#
# Indices 1 2 3 4 5 6 
#
# 1 135.3146 21.9026 36.7844 0.0000 27.2344 0.0000
# 2 21.9026 117.0663 21.4799 0.0000 15.0117 0.0000
# 3 36.7844 21.4799 51.2729 0.0000 27.5153 0.0000
# 4 0.0000 0.0000 0.0000 15.9226 0.0000 7.2114
# 5 27.2344 15.0117 27.5153 0.0000 34.6083 0.0000
# 6 0.0000 0.0000 0.0000 7.2114 0.0000 25.9153
#
#
#
# Elastic Compliance Matrix: (Units=1/GPa)
#
#
# Indices 1 2 3 4 5 6 
#
# 1 0.009448 -0.000455 -0.004715 0.000000 -0.003488 0.000000
# 2 -0.000455 0.009328 -0.002794 0.000000 -0.001466 0.000000
# 3 -0.004715 -0.002794 0.037352 0.000000 -0.024774 0.000000
# 4 0.000000 0.000000 0.000000 0.071860 0.000000 -0.019996
# 5 -0.003488 -0.001466 -0.024774 0.000000 0.051972 0.000000
# 6 0.000000 0.000000 0.000000 -0.019996 0.000000 0.044151
#
#
# Mechanical properties :
#
#
# Convention : Reuss Voigt Hill
#
# Bulk Modulus (GPa) = 24.87707 51.55420 38.21564
# Shear Modulus (GPa) = 19.72849 30.18837 24.95843
#
# Velocity S-wave (km/s) = 3.04404 3.76551 3.42383
# Velocity P-wave (km/s) = 4.90299 6.56655 5.79478
#
# Compressibility (1/GPa) = 0.04019767
#
# Stress axis : x y z
#
# Youngs Moduli (GPa) = 105.84466 107.20313 26.77251
#
# Poissons Ratio (x) = 0.04879 0.12624
# Poissons Ratio (y) = 0.04817 0.07481
# Poissons Ratio (z) = 0.49910 0.29958
#
# Static dielectric constant tensor:
#      x y z
#    x 3.855120 0.000000 0.233150 
#    y 0.000000 3.930480 0.000000 
#    z 0.233150 0.000000 3.500600 
# 
# 
# High freq. dielectric constant tensor:
#      x y z
#    x 1.837390 0.000000 0.027890 
#    y 0.000000 1.851450 0.000000 
#    z 0.027890 0.000000 1.798430 
# 
# From -- ./inp_files/13203.got.cif
#   From: 2010.03.12/outbox.cif.g09.slc.cpg/sg3_7_cif.got.tgz:13203.got - 2010.03.31 09:20:49.
