data_PCOD8044852
_publ_section_title
;
Structure prediction by ZEFSAII (Michael W. Deem and Ramdas Pophale) SiO2 
 PCOD8044852
Probable space group: P 2
;
_chemical_formula_sum "Si O2"
_cell_formula_units_Z 15
_cell_length_a 10.833729
_cell_length_b 14.353308
_cell_length_c 10.970840
_cell_angle_alpha 90.000000
_cell_angle_beta 26.142562
_cell_angle_gamma 90.000000
_cell_volume 751.658207
_symmetry_space_group_name_H-M "P 2"
_symmetry_group_IT_number 3
_symmetry_cell_setting 'monoclinic'
loop_
_space_group_symop_operation_xyz
x,y,z
-x,y,-z
loop_
_atom_site_type_symbol
_atom_site_label
_atom_site_fract_x
_atom_site_fract_y
_atom_site_fract_z
Si Si1 0.812541 0.984570 0.045700
Si Si2 0.524458 0.594075 0.278839
Si Si3 0.371626 0.299947 0.479964
Si Si4 0.119859 0.192730 0.029348
Si Si5 0.701728 0.732069 0.712187
Si Si6 0.949949 0.479790 0.186343
Si Si7 0.500000 0.727459 0.500000
Si Si8 0.737991 0.868903 0.462539
O O1 0.969557 0.924193 0.803566
O O2 0.511514 0.941646 0.338514
O O3 0.000000 0.983803 0.000000
O O4 0.766008 0.090322 0.040876
O O5 0.417715 0.641579 0.250603
O O6 0.663950 0.668991 0.248236
O O7 0.265800 0.562046 0.594064
O O8 0.740234 0.512852 0.045307
O O9 0.500000 0.307466 0.500000
O O10 0.639357 0.272267 0.159280
O O11 0.190729 0.393653 0.615111
O O12 0.151554 0.216605 0.649557
O O13 0.000000 0.199118 0.000000
O O14 0.724366 0.821961 0.606373
O O15 0.000000 0.702358 0.500000
O O16 0.500000 0.761058 0.000000
O O17 0.000000 0.455281 0.000000
O O18 0.732422 0.790874 0.361524
#
# Coordination Sequence:
#
# PCOD8044852 Si02
#       8
#     2   2   2   2   2   2   1   2
#     4  11  19  33  51  84 116 146 185 230 272 332
#     4  11  23  35  56  80 111 147 191 235 279 339
#     4  10  18  30  46  70 109 161 185 208 258 332
#     4   9  18  29  46  69 110 156 187 207 259 331
#     4  11  24  44  58  76 108 151 197 242 284 330
#     4  12  20  33  51  82 116 146 186 232 274 333
#     4  10  20  36  48  82 108 142 180 224 294 320
#     4  11  22  34  58  80 111 147 191 234 277 340
#
# _framework density 19.955877999999998
#
# number of rings (size 3 to 8) (size 9 to 14) (size 15 to 20)
#    0.000    1.333    2.667    5.200    0.000    6.400 
#    0.000    0.000    0.000    0.000    0.000    0.000 
#    0.000   59.733    0.000    0.267    0.000    0.000 
#
# Total GULP energy -185847.052333 kJ/mol
# GULP energy per Si atom -12389.803489 kJ/mol
# Density = 1.991046 g / cm^3
# Si number density = 19.955878 Si / 1000 Ang^3
#
#
#
# Elastic Constant Matrix: (Units=GPa)
#
#
# Indices 1 2 3 4 5 6 
#
# 1 66.6014 29.7111 18.8989 0.0000 -0.6645 0.0000
# 2 29.7111 95.6582 28.5372 0.0000 0.8608 0.0000
# 3 18.8989 28.5372 105.6250 0.0000 -3.8683 0.0000
# 4 0.0000 0.0000 0.0000 36.6079 0.0000 -5.7565
# 5 -0.6645 0.8608 -3.8683 0.0000 23.7272 0.0000
# 6 0.0000 0.0000 0.0000 -5.7565 0.0000 18.6872
#
#
#
# Elastic Compliance Matrix: (Units=1/GPa)
#
#
# Indices 1 2 3 4 5 6 
#
# 1 0.017754 -0.004975 -0.001818 0.000000 0.000381 0.000000
# 2 -0.004975 0.012785 -0.002601 0.000000 -0.001027 0.000000
# 3 -0.001818 -0.002601 0.010560 0.000000 0.001765 0.000000
# 4 0.000000 0.000000 0.000000 0.028707 0.000000 0.008843
# 5 0.000381 -0.001027 0.001765 0.000000 0.042481 0.000000
# 6 0.000000 0.000000 0.000000 0.008843 0.000000 0.056237
#
#
# Mechanical properties :
#
#
# Convention : Reuss Voigt Hill
#
# Bulk Modulus (GPa) = 44.82617 46.90880 45.86749
# Shear Modulus (GPa) = 25.67389 28.52029 27.09709
#
# Velocity S-wave (km/s) = 3.59072 3.78453 3.68890
# Velocity P-wave (km/s) = 6.30098 6.53102 6.41703
#
# Compressibility (1/GPa) = 0.02230840
#
# Stress axis : x y z
#
# Youngs Moduli (GPa) = 56.32535 78.21963 94.69409
#
# Poissons Ratio (x) = 0.38916 0.17220
# Poissons Ratio (y) = 0.28023 0.24634
# Poissons Ratio (z) = 0.10243 0.20349
#
# Static dielectric constant tensor:
#      x y z
#    x 3.136880 0.000000 -0.179090 
#    y 0.000000 3.893910 0.000000 
#    z -0.179090 0.000000 3.937670 
# 
# 
# High freq. dielectric constant tensor:
#      x y z
#    x 1.703170 0.000000 -0.017440 
#    y 0.000000 1.790920 0.000000 
#    z -0.017440 0.000000 1.795590 
# 
# From -- ./inp_files/11937.got.cif
#   From: 2010.03.12/outbox.cif.g09.slc.cpg/sg3_6_cif.got.tgz:11937.got - 2010.03.31 09:20:49.
