data_PCOD8044726
_publ_section_title
;
Structure prediction by ZEFSAII (Michael W. Deem and Ramdas Pophale) SiO2 
 PCOD8044726
Probable space group: P -1
;
_chemical_formula_sum "Si O2"
_cell_formula_units_Z 16
_cell_length_a 12.402442
_cell_length_b 12.930066
_cell_length_c 8.368279
_cell_angle_alpha 131.551492
_cell_angle_beta 114.214060
_cell_angle_gamma 45.360687
_cell_volume 710.639288
_symmetry_space_group_name_H-M "P -1"
_symmetry_group_IT_number 2
_symmetry_cell_setting 'triclinic'
loop_
_space_group_symop_operation_xyz
x,y,z
-x,-y,-z
loop_
_atom_site_type_symbol
_atom_site_label
_atom_site_fract_x
_atom_site_fract_y
_atom_site_fract_z
Si Si1 0.454232 0.685635 0.096640
Si Si2 0.901681 0.323926 0.417226
Si Si3 0.205765 0.047400 0.460688
Si Si4 0.291058 0.290880 0.766084
Si Si5 0.851775 0.597739 0.899524
Si Si6 0.361867 0.670307 0.687781
Si Si7 0.990567 0.330981 0.138133
Si Si8 0.110990 0.013383 0.684949
O O1 0.571590 0.724565 0.243995
O O2 0.306524 0.841707 0.263463
O O3 0.500000 0.500000 0.000000
O O4 0.431677 0.706489 0.912907
O O5 0.850287 0.450914 0.666430
O O6 0.750119 0.352072 0.308685
O O7 0.044277 0.128069 0.362760
O O8 0.964871 0.360909 0.341753
O O9 0.273992 0.145325 0.541233
O O10 0.183318 0.071235 0.663567
O O11 0.144869 0.488863 0.841751
O O12 0.297908 0.277758 0.951569
O O13 0.854629 0.706673 0.866553
O O14 0.000000 0.500000 0.000000
O O15 0.500000 0.500000 0.500000
O O16 0.255463 0.831252 0.665079
O O17 0.007419 0.161709 0.910866
O O18 0.000000 0.000000 0.500000
#
# Coordination Sequence:
#
# PCOD8044726 Si02
#       8
#     2   2   2   2   2   2   2   2
#     4  12  28  47  71 103 147 194 238 296 368 434
#     4  12  23  41  71 106 139 179 242 304 350 429
#     4  12  24  45  72 105 138 189 246 296 359 425
#     4  11  23  45  72 101 144 191 237 293 364 433
#     4  10  19  38  65  98 133 177 230 284 356 418
#     4  12  28  47  69 103 146 192 238 294 366 433
#     4  11  23  39  70 106 137 179 242 297 360 418
#     4  12  26  43  73 106 142 191 241 300 355 432
#
# _framework density 22.514937
#
# number of rings (size 3 to 8) (size 9 to 14) (size 15 to 20)
#    0.000    0.500    5.000    4.500    5.250    1.000 
#    0.000    0.625    0.000    0.000    0.000    0.000 
#    0.000    0.000    0.000    0.000    0.000    0.000 
#
# Total GULP energy -198248.893349 kJ/mol
# GULP energy per Si atom -12390.555834 kJ/mol
# Density = 2.246369 g / cm^3
# Si number density = 22.514937 Si / 1000 Ang^3
#
#
#
# Elastic Constant Matrix: (Units=GPa)
#
#
# Indices 1 2 3 4 5 6 
#
# 1 94.1296 32.9122 12.9602 3.8586 -4.6827 5.4793
# 2 32.9122 111.4115 28.6520 9.7527 -1.6044 -0.0993
# 3 12.9602 28.6520 92.8426 17.4241 -8.7901 -11.8008
# 4 3.8586 9.7527 17.4241 38.1796 4.2927 -6.0513
# 5 -4.6827 -1.6044 -8.7901 4.2927 40.3007 -3.8198
# 6 5.4793 -0.0993 -11.8008 -6.0513 -3.8198 26.4048
#
#
#
# Elastic Compliance Matrix: (Units=1/GPa)
#
#
# Indices 1 2 3 4 5 6 
#
# 1 0.012133 -0.003305 -0.000858 -0.000550 0.000874 -0.002913
# 2 -0.003305 0.010769 -0.002793 -0.001223 -0.000517 -0.000877
# 3 -0.000858 -0.002793 0.013791 -0.005020 0.003876 0.005742
# 4 -0.000550 -0.001223 -0.005020 0.029959 -0.004005 0.004153
# 5 0.000874 -0.000517 0.003876 -0.004005 0.026591 0.004478
# 6 -0.002913 -0.000877 0.005742 0.004153 0.004478 0.042639
#
#
# Mechanical properties :
#
#
# Convention : Reuss Voigt Hill
#
# Bulk Modulus (GPa) = 43.89601 49.71470 46.80535
# Shear Modulus (GPa) = 31.76838 35.90098 33.83468
#
# Velocity S-wave (km/s) = 3.76039 3.99750 3.88076
# Velocity P-wave (km/s) = 6.19619 6.59055 6.39641
#
# Compressibility (1/GPa) = 0.02278111
#
# Stress axis : x y z
#
# Youngs Moduli (GPa) = 82.41897 92.85632 72.50868
#
# Poissons Ratio (x) = 0.30693 0.06221
# Poissons Ratio (y) = 0.27243 0.20252
# Poissons Ratio (z) = 0.07071 0.25935
#
# Static dielectric constant tensor:
#      x y z
#    x 5.460780 0.329430 -0.258300 
#    y 0.329430 4.037460 -0.070110 
#    z -0.258300 -0.070110 4.038200 
# 
# 
# High freq. dielectric constant tensor:
#      x y z
#    x 1.895290 0.017070 -0.007600 
#    y 0.017070 1.871980 0.002760 
#    z -0.007600 0.002760 1.895300 
# 
# From -- ./inp_files/263518.got.cif
#   From: 2010.06.25/outbox.cif.g09.slc.cpg/sg2_132_cif.got.tgz:263518.got - 2010.06.27 13:26:56.
