data_PCOD8044280
_publ_section_title
;
Structure prediction by ZEFSAII (Michael W. Deem and Ramdas Pophale) SiO2 
 PCOD8044280
Probable space group: P -1
;
_chemical_formula_sum "Si O2"
_cell_formula_units_Z 16
_cell_length_a 11.577331
_cell_length_b 8.794185
_cell_length_c 18.053190
_cell_angle_alpha 112.377776
_cell_angle_beta 140.165029
_cell_angle_gamma 97.435183
_cell_volume 764.488929
_symmetry_space_group_name_H-M "P -1"
_symmetry_group_IT_number 2
_symmetry_cell_setting 'triclinic'
loop_
_space_group_symop_operation_xyz
x,y,z
-x,-y,-z
loop_
_atom_site_type_symbol
_atom_site_label
_atom_site_fract_x
_atom_site_fract_y
_atom_site_fract_z
Si Si1 0.002476 0.002482 0.414660
Si Si2 0.402796 0.051735 0.875940
Si Si3 0.879996 0.722310 0.055344
Si Si4 0.752381 0.560513 0.126434
Si Si5 0.304034 0.499359 0.367361
Si Si6 0.236591 0.981845 0.942058
Si Si7 0.543336 0.973948 0.599545
Si Si8 0.550324 0.339389 0.700479
O O1 0.275827 0.245870 0.564807
O O2 0.000000 0.000000 0.500000
O O3 0.775984 0.982807 0.280057
O O4 0.965405 0.794110 0.323609
O O5 0.232384 0.934743 0.844347
O O6 0.672964 0.327846 0.072435
O O7 0.506462 0.937810 0.882159
O O8 0.834090 0.603588 0.089038
O O9 0.742852 0.809808 0.000003
O O10 0.768357 0.542086 0.900888
O O11 0.184232 0.937676 0.235671
O O12 0.500000 0.500000 0.000000
O O13 0.500000 0.500000 0.500000
O O14 0.331234 0.694014 0.459202
O O15 0.369059 0.565148 0.325197
O O16 0.016462 0.248921 0.185543
O O17 0.500000 0.000000 0.500000
O O18 0.521867 0.125730 0.665075
#
# Coordination Sequence:
#
# PCOD8044280 Si02
#       8
#     2   2   2   2   2   2   2   2
#     4  11  22  41  66  98 127 163 220 274 325 375
#     4  10  23  41  66  97 123 174 222 266 323 390
#     4  12  22  43  65  95 133 167 217 270 330 387
#     4  10  19  37  68  89 119 170 217 268 314 372
#     4  11  22  43  66  92 130 177 210 264 328 391
#     4  11  23  40  69  92 134 170 218 258 331 392
#     4  10  23  41  65  94 123 167 217 266 322 381
#     4  11  25  40  65  99 128 167 219 273 321 383
#
# _framework density 20.929016000000001
#
# number of rings (size 3 to 8) (size 9 to 14) (size 15 to 20)
#    0.000    1.250    3.750    4.125    5.250    0.500 
#    2.250    0.625    0.000    0.000    0.000    0.000 
#    0.000    0.000    0.000    0.000    0.000    0.000 
#
# Total GULP energy -198308.632459 kJ/mol
# GULP energy per Si atom -12394.289529 kJ/mol
# Density = 2.088138 g / cm^3
# Si number density = 20.929016 Si / 1000 Ang^3
#
#
#
# Elastic Constant Matrix: (Units=GPa)
#
#
# Indices 1 2 3 4 5 6 
#
# 1 94.2579 44.2396 39.2306 -4.3208 -5.5094 7.5561
# 2 44.2396 102.1494 29.5076 -3.5223 -5.9739 -2.5358
# 3 39.2306 29.5076 94.7156 -7.1089 -8.2608 6.1429
# 4 -4.3208 -3.5223 -7.1089 35.1578 1.0486 8.9439
# 5 -5.5094 -5.9739 -8.2608 1.0486 35.7181 1.5315
# 6 7.5561 -2.5358 6.1429 8.9439 1.5315 46.1493
#
#
#
# Elastic Compliance Matrix: (Units=1/GPa)
#
#
# Indices 1 2 3 4 5 6 
#
# 1 0.015188 -0.005313 -0.004354 0.001054 0.000520 -0.002421
# 2 -0.005313 0.012702 -0.001822 -0.000239 0.000812 0.001830
# 3 -0.004354 -0.001822 0.013402 0.002361 0.002127 -0.001699
# 4 0.001054 -0.000239 0.002361 0.030664 0.000045 -0.006444
# 5 0.000520 0.000812 0.002127 0.000045 0.028759 -0.001287
# 6 -0.002421 0.001830 -0.001699 -0.006444 -0.001287 0.023684
#
#
# Mechanical properties :
#
#
# Convention : Reuss Voigt Hill
#
# Bulk Modulus (GPa) = 54.60679 57.45318 56.02999
# Shear Modulus (GPa) = 32.57731 35.28138 33.92935
#
# Velocity S-wave (km/s) = 3.94961 4.11026 4.03073
# Velocity P-wave (km/s) = 6.85181 7.07366 6.96362
#
# Compressibility (1/GPa) = 0.01831274
#
# Stress axis : x y z
#
# Youngs Moduli (GPa) = 65.84198 78.72940 74.61643
#
# Poissons Ratio (x) = 0.41831 0.32488
# Poissons Ratio (y) = 0.34984 0.13596
# Poissons Ratio (z) = 0.28667 0.14345
#
# Static dielectric constant tensor:
#      x y z
#    x 3.876240 -0.441520 0.031230 
#    y -0.441520 5.520710 1.027060 
#    z 0.031230 1.027060 4.455490 
# 
# 
# High freq. dielectric constant tensor:
#      x y z
#    x 1.815430 -0.008130 0.018980 
#    y -0.008130 1.824130 0.003420 
#    z 0.018980 0.003420 1.817430 
# 
# From -- ./inp_files/182579.got.cif
#   From: 2010.06.25/outbox.cif.g09.slc.cpg/sg2_92_cif.got.tgz:182579.got - 2010.06.27 13:26:56.
