data_PCOD8044708
_publ_section_title
;
Structure prediction by ZEFSAII (Michael W. Deem and Ramdas Pophale) SiO2 
 PCOD8044708
Probable space group: P -1
;
_chemical_formula_sum "Si O2"
_cell_formula_units_Z 16
_cell_length_a 28.566638
_cell_length_b 23.063102
_cell_length_c 11.667135
_cell_angle_alpha 31.306457
_cell_angle_beta 30.191418
_cell_angle_gamma 11.808950
_cell_volume 788.482453
_symmetry_space_group_name_H-M "P -1"
_symmetry_group_IT_number 2
_symmetry_cell_setting 'triclinic'
loop_
_space_group_symop_operation_xyz
x,y,z
-x,-y,-z
loop_
_atom_site_type_symbol
_atom_site_label
_atom_site_fract_x
_atom_site_fract_y
_atom_site_fract_z
Si Si1 0.480918 0.140498 0.746597
Si Si2 0.899456 0.331934 0.827065
Si Si3 0.752221 0.016386 0.521252
Si Si4 0.484231 0.496391 0.854791
Si Si5 0.135671 0.844945 0.203349
Si Si6 0.838373 0.783045 0.389151
Si Si7 0.611430 0.143131 0.045328
Si Si8 0.965753 0.788802 0.691001
O O1 0.217177 0.451565 0.735423
O O2 0.546584 0.161870 0.665152
O O3 0.653662 0.955689 0.585974
O O4 0.500000 0.000000 0.000000
O O5 0.618701 0.659572 0.858355
O O6 0.020401 0.240646 0.608424
O O7 0.997735 0.293812 0.790510
O O8 0.953492 0.142252 0.052476
O O9 0.829734 0.891988 0.693200
O O10 0.654324 0.249931 0.339710
O O11 0.726765 0.273240 0.773230
O O12 0.324289 0.614193 0.092276
O O13 0.544758 0.340388 0.893848
O O14 0.987880 0.897259 0.450715
O O15 0.000000 0.500000 0.500000
O O16 0.694274 0.974474 0.258333
O O17 0.820111 0.917602 0.893432
#
# Coordination Sequence:
#
# PCOD8044708 Si02
#       8
#     2   2   2   2   2   2   2   2
#     4  11  24  45  68  91 120 161 211 260 309 362
#     4  10  22  41  66  91 122 165 209 251 304 370
#     4  10  22  41  66  91 122 165 209 251 304 370
#     4  10  19  38  65  92 123 165 208 249 305 369
#     4  10  19  38  65  92 123 165 208 249 305 369
#     4  11  24  45  68  91 120 161 211 260 309 362
#     4  12  25  39  61  95 131 164 201 252 311 368
#     4  12  25  39  61  95 131 164 201 252 311 368
#
# _framework density 20.292145000000001
#
# number of rings (size 3 to 8) (size 9 to 14) (size 15 to 20)
#    0.000    1.250    2.500    3.750    0.000    7.500 
#    0.000    0.000    0.000    0.000    0.000    0.000 
#    0.000    0.000    0.000    0.000    0.000    0.000 
#
# Total GULP energy -198505.809955 kJ/mol
# GULP energy per Si atom -12406.613122 kJ/mol
# Density = 2.024596 g / cm^3
# Si number density = 20.292145 Si / 1000 Ang^3
#
#
#
# Elastic Constant Matrix: (Units=GPa)
#
#
# Indices 1 2 3 4 5 6 
#
# 1 67.9841 48.7882 28.4122 1.3317 23.7268 -8.2929
# 2 48.7882 121.5200 37.0110 -3.5152 7.9321 -7.1639
# 3 28.4122 37.0110 98.5689 -5.7760 13.2693 -0.3460
# 4 1.3317 -3.5152 -5.7760 29.9005 1.1021 -0.0087
# 5 23.7268 7.9321 13.2693 1.1021 21.0228 -8.9987
# 6 -8.2929 -7.1639 -0.3460 -0.0087 -8.9987 35.5257
#
#
#
# Elastic Compliance Matrix: (Units=1/GPa)
#
#
# Indices 1 2 3 4 5 6 
#
# 1 0.036528 -0.012160 -0.001062 -0.001887 -0.037320 -0.003389
# 2 -0.012160 0.013476 -0.003058 0.001104 0.011718 0.002817
# 3 -0.001062 -0.003058 0.012647 0.002381 -0.006811 -0.002466
# 4 -0.001887 0.001104 0.002381 0.034187 -0.001864 -0.000658
# 5 -0.037320 0.011718 -0.006811 -0.001864 0.097487 0.018278
# 6 -0.003389 0.002817 -0.002466 -0.000658 0.018278 0.032531
#
#
# Mechanical properties :
#
#
# Convention : Reuss Voigt Hill
#
# Bulk Modulus (GPa) = 33.23176 57.38843 45.31009
# Shear Modulus (GPa) = 18.55663 28.88058 23.71861
#
# Velocity S-wave (km/s) = 3.02731 3.77668 3.42256
# Velocity P-wave (km/s) = 5.35086 6.88188 6.16408
#
# Compressibility (1/GPa) = 0.03009170
#
# Stress axis : x y z
#
# Youngs Moduli (GPa) = 27.37612 74.20758 79.06975
#
# Poissons Ratio (x) = 0.90240 0.08394
# Poissons Ratio (y) = 0.33291 0.24176
# Poissons Ratio (z) = 0.02906 0.22690
#
# Static dielectric constant tensor:
#      x y z
#    x 3.774710 -0.139690 0.005010 
#    y -0.139690 3.587400 0.098540 
#    z 0.005010 0.098540 3.489910 
# 
# 
# High freq. dielectric constant tensor:
#      x y z
#    x 1.798630 -0.012560 0.001710 
#    y -0.012560 1.798540 -0.005570 
#    z 0.001710 -0.005570 1.787880 
# 
# From -- ./inp_files/270568.got.cif
#   From: 2010.06.25/outbox.cif.g09.slc.cpg/sg2_136_cif.got.tgz:270568.got - 2010.06.27 13:26:56.
