data_PCOD8044674
_publ_section_title
;
Structure prediction by ZEFSAII (Michael W. Deem and Ramdas Pophale) SiO2 
 PCOD8044674
Probable space group: P -1
;
_chemical_formula_sum "Si O2"
_cell_formula_units_Z 16
_cell_length_a 9.884022
_cell_length_b 11.975847
_cell_length_c 12.061967
_cell_angle_alpha 47.239972
_cell_angle_beta 42.770940
_cell_angle_gamma 63.423941
_cell_volume 708.116264
_symmetry_space_group_name_H-M "P -1"
_symmetry_group_IT_number 2
_symmetry_cell_setting 'triclinic'
loop_
_space_group_symop_operation_xyz
x,y,z
-x,-y,-z
loop_
_atom_site_type_symbol
_atom_site_label
_atom_site_fract_x
_atom_site_fract_y
_atom_site_fract_z
Si Si1 0.955457 0.174861 0.611489
Si Si2 0.855553 0.837549 0.859260
Si Si3 0.481471 0.516808 0.870042
Si Si4 0.799001 0.081119 0.092920
Si Si5 0.954942 0.610809 0.786652
Si Si6 0.108572 0.312600 0.837549
Si Si7 0.417335 0.787692 0.068191
Si Si8 0.269416 0.222809 0.572938
O O1 0.718495 0.190146 0.756973
O O2 0.061098 0.289575 0.381019
O O3 0.057609 0.217245 0.639720
O O4 0.982169 0.002623 0.674114
O O5 0.000196 0.725280 0.786599
O O6 0.800744 0.780689 0.054785
O O7 0.648541 0.846082 0.911756
O O8 0.610535 0.391948 0.821705
O O9 0.559978 0.684515 0.665414
O O10 0.500000 0.500000 0.000000
O O11 0.252610 0.485806 0.993440
O O12 0.670746 0.951296 0.331803
O O13 0.660050 0.112466 0.052335
O O14 0.877964 0.239031 0.001815
O O15 0.000000 0.000000 0.000000
O O16 0.115690 0.489479 0.752650
O O17 0.245368 0.303808 0.652033
#
# Coordination Sequence:
#
# PCOD8044674 Si02
#       8
#     2   2   2   2   2   2   2   2
#     4  12  21  41  67  96 127 171 221 264 313 396
#     4  11  25  44  64  96 137 171 211 265 326 386
#     4  11  23  40  61  97 137 165 210 273 321 381
#     4  10  19  38  64  98 126 157 214 270 315 370
#     4  11  25  41  64  93 132 177 214 259 328 385
#     4  11  21  43  69  95 129 168 219 269 316 386
#     4  11  23  41  67  98 128 171 217 263 323 379
#     4  11  22  39  68 102 125 165 221 269 325 367
#
# _framework density 22.595161000000001
#
# number of rings (size 3 to 8) (size 9 to 14) (size 15 to 20)
#    0.000    1.000    5.000    3.375    0.000    1.000 
#    0.000   15.625    0.000    0.000    0.000    0.000 
#    0.000    0.000    0.000    0.000    0.000    0.000 
#
# Total GULP energy -198375.404358 kJ/mol
# GULP energy per Si atom -12398.462772 kJ/mol
# Density = 2.254373 g / cm^3
# Si number density = 22.595161 Si / 1000 Ang^3
#
#
#
# Elastic Constant Matrix: (Units=GPa)
#
#
# Indices 1 2 3 4 5 6 
#
# 1 100.5072 10.8079 27.8401 -5.0141 19.1617 1.3092
# 2 10.8079 94.4917 25.9687 -11.9068 -0.8511 19.7533
# 3 27.8401 25.9687 134.6510 -21.1198 20.9272 -0.8059
# 4 -5.0141 -11.9068 -21.1198 32.5906 0.5783 5.5185
# 5 19.1617 -0.8511 20.9272 0.5783 28.0135 1.6967
# 6 1.3092 19.7533 -0.8059 5.5185 1.6967 23.2494
#
#
#
# Elastic Compliance Matrix: (Units=1/GPa)
#
#
# Indices 1 2 3 4 5 6 
#
# 1 0.011789 -0.001208 -0.000913 0.000797 -0.007476 0.000687
# 2 -0.001208 0.015298 -0.002403 0.006282 0.003852 -0.014785
# 3 -0.000913 -0.002403 0.010037 0.005325 -0.007159 0.001699
# 4 0.000797 0.006282 0.005325 0.039024 -0.004281 -0.014148
# 5 -0.007476 0.003852 -0.007159 -0.004281 0.046697 -0.005491
# 6 0.000687 -0.014785 0.001699 -0.014148 -0.005491 0.059353
#
#
# Mechanical properties :
#
#
# Convention : Reuss Voigt Hill
#
# Bulk Modulus (GPa) = 35.61755 50.98704 43.30229
# Shear Modulus (GPa) = 24.92474 34.43958 29.68216
#
# Velocity S-wave (km/s) = 3.32490 3.90834 3.62836
# Velocity P-wave (km/s) = 5.52608 6.55601 6.06295
#
# Compressibility (1/GPa) = 0.02807605
#
# Stress axis : x y z
#
# Youngs Moduli (GPa) = 84.82817 65.36605 99.63254
#
# Poissons Ratio (x) = 0.07896 0.09101
# Poissons Ratio (y) = 0.10247 0.23937
# Poissons Ratio (z) = 0.07748 0.15704
#
# Static dielectric constant tensor:
#      x y z
#    x 3.858220 0.181920 0.134890 
#    y 0.181920 4.455660 -0.389990 
#    z 0.134890 -0.389990 4.200880 
# 
# 
# High freq. dielectric constant tensor:
#      x y z
#    x 1.875080 0.011090 0.018370 
#    y 0.011090 1.898250 -0.016360 
#    z 0.018370 -0.016360 1.886420 
# 
# From -- ./inp_files/391966.got.cif
#   From: 2010.06.25/outbox.cif.g09.slc.cpg/sg2_196_cif.got.tgz:391966.got - 2010.06.27 13:26:56.
