data_PCOD8044793
_publ_section_title
;
Structure prediction by ZEFSAII (Michael W. Deem and Ramdas Pophale) SiO2 
 PCOD8044793
Probable space group: P -1
;
_chemical_formula_sum "Si O2"
_cell_formula_units_Z 16
_cell_length_a 9.117691
_cell_length_b 15.857198
_cell_length_c 9.210907
_cell_angle_alpha 31.450916
_cell_angle_beta 104.427286
_cell_angle_gamma 96.704092
_cell_volume 660.731941
_symmetry_space_group_name_H-M "P -1"
_symmetry_group_IT_number 2
_symmetry_cell_setting 'triclinic'
loop_
_space_group_symop_operation_xyz
x,y,z
-x,-y,-z
loop_
_atom_site_type_symbol
_atom_site_label
_atom_site_fract_x
_atom_site_fract_y
_atom_site_fract_z
Si Si1 0.697146 0.624545 0.616094
Si Si2 0.423025 0.115970 0.437357
Si Si3 0.577232 0.132915 0.746071
Si Si4 0.911613 0.882833 0.565454
Si Si5 0.340064 0.466890 0.950181
Si Si6 0.877865 0.912424 0.191676
Si Si7 0.096632 0.689522 0.378235
Si Si8 0.091528 0.594001 0.204121
O O1 0.509834 0.686827 0.481524
O O2 0.754372 0.575686 0.867267
O O3 0.770934 0.776438 0.356959
O O4 0.747495 0.469004 0.750387
O O5 0.550781 0.115646 0.593305
O O6 0.272463 0.055454 0.552267
O O7 0.370624 0.305206 0.090838
O O8 0.500000 0.000000 0.500000
O O9 0.500000 0.000000 0.000000
O O10 0.762582 0.094694 0.880374
O O11 0.961886 0.893119 0.395492
O O12 0.000000 0.000000 0.500000
O O13 0.967220 0.701178 0.910431
O O14 0.500000 0.500000 0.000000
O O15 0.248969 0.624682 0.608783
O O16 0.003039 0.869076 0.152488
O O17 0.131888 0.696456 0.204413
O O18 0.980229 0.563751 0.544623
#
# Coordination Sequence:
#
# PCOD8044793 Si02
#       8
#     2   2   2   2   2   2   2   2
#     4   9  18  37  66  88 121 160 204 259 313 384
#     4  11  24  40  63  90 133 171 208 276 330 386
#     4   9  17  36  61  95 115 165 211 244 321 383
#     4  12  24  42  62  92 128 174 221 261 326 394
#     4  11  22  41  63  92 125 168 221 260 324 393
#     4  10  19  38  67  91 121 167 209 263 312 394
#     4  10  21  38  68  94 124 159 209 270 323 371
#     4  10  21  39  64  95 123 158 212 264 323 381
#
# _framework density 24.215568999999999
#
# number of rings (size 3 to 8) (size 9 to 14) (size 15 to 20)
#    0.000    1.750    5.000    0.750    1.750    6.000 
#    4.500    1.250    0.000    0.000    0.000    0.000 
#    0.000    0.000    0.000    0.000    0.000    0.000 
#
# Total GULP energy -198372.063244 kJ/mol
# GULP energy per Si atom -12398.253953 kJ/mol
# Density = 2.416045 g / cm^3
# Si number density = 24.215569 Si / 1000 Ang^3
#
#
#
# Elastic Constant Matrix: (Units=GPa)
#
#
# Indices 1 2 3 4 5 6 
#
# 1 121.9955 68.2349 31.9577 7.9172 30.8250 -21.1233
# 2 68.2349 186.5024 64.4103 -1.8451 35.1933 -47.1877
# 3 31.9577 64.4103 134.7027 3.9182 34.2110 -28.0091
# 4 7.9172 -1.8451 3.9182 43.6538 4.2131 3.6610
# 5 30.8250 35.1933 34.2110 4.2131 35.9800 -2.2515
# 6 -21.1233 -47.1877 -28.0091 3.6610 -2.2515 48.2513
#
#
#
# Elastic Compliance Matrix: (Units=1/GPa)
#
#
# Indices 1 2 3 4 5 6 
#
# 1 0.012144 -0.002340 0.001277 -0.001851 -0.008894 0.003495
# 2 -0.002340 0.009595 -0.000958 0.000880 -0.006106 0.007451
# 3 0.001277 -0.000958 0.011532 -0.000771 -0.010663 0.005877
# 4 -0.001851 0.000880 -0.000771 0.023680 -0.001457 -0.002261
# 5 -0.008894 -0.006106 -0.010663 -0.001457 0.050846 -0.013572
# 6 0.003495 0.007451 0.005877 -0.002261 -0.013572 0.032491
#
#
# Mechanical properties :
#
#
# Convention : Reuss Voigt Hill
#
# Bulk Modulus (GPa) = 34.21324 85.82294 60.01809
# Shear Modulus (GPa) = 32.45218 44.15019 38.30119
#
# Velocity S-wave (km/s) = 3.66476 4.27454 3.98134
# Velocity P-wave (km/s) = 5.66274 7.73825 6.78038
#
# Compressibility (1/GPa) = 0.02922845
#
# Stress axis : x y z
#
# Youngs Moduli (GPa) = 82.34735 104.21928 86.71813
#
# Poissons Ratio (x) = 0.24385 -0.11075
# Poissons Ratio (y) = 0.19268 0.08311
# Poissons Ratio (z) = -0.10517 0.09988
#
# Static dielectric constant tensor:
#      x y z
#    x 4.623950 -0.214220 0.130980 
#    y -0.214220 4.592350 -0.046020 
#    z 0.130980 -0.046020 5.190690 
# 
# 
# High freq. dielectric constant tensor:
#      x y z
#    x 1.975180 -0.001500 -0.009560 
#    y -0.001500 1.951420 -0.015330 
#    z -0.009560 -0.015330 1.981850 
# 
# From -- ./inp_files/205178.got.cif
#   From: 2010.06.25/outbox.cif.g09.slc.cpg/sg2_103_cif.got.tgz:205178.got - 2010.06.27 13:26:56.
