data_PCOD8044939
_publ_section_title
;
Structure prediction by ZEFSAII (Michael W. Deem and Ramdas Pophale) SiO2 
 PCOD8044939
Probable space group: P 2
;
_chemical_formula_sum "Si O2"
_cell_formula_units_Z 16
_cell_length_a 9.567269
_cell_length_b 17.633678
_cell_length_c 8.579964
_cell_angle_alpha 90.000000
_cell_angle_beta 31.201769
_cell_angle_gamma 90.000000
_cell_volume 749.878497
_symmetry_space_group_name_H-M "P 2"
_symmetry_group_IT_number 3
_symmetry_cell_setting 'monoclinic'
loop_
_space_group_symop_operation_xyz
x,y,z
-x,y,-z
loop_
_atom_site_type_symbol
_atom_site_label
_atom_site_fract_x
_atom_site_fract_y
_atom_site_fract_z
Si Si1 0.537374 0.899470 0.647207
Si Si2 0.539107 0.727185 0.281323
Si Si3 0.006830 0.141159 0.180196
Si Si4 0.044329 0.977023 0.274791
Si Si5 0.499284 0.227322 0.321125
Si Si6 0.216946 0.495980 0.179308
Si Si7 0.019031 0.660860 0.652409
Si Si8 0.277761 0.388243 0.829920
O O1 0.500000 0.912064 0.500000
O O2 0.500511 0.813106 0.736363
O O3 0.847483 0.917365 0.382303
O O4 0.345319 0.954766 0.932142
O O5 0.500000 0.719348 0.500000
O O6 0.332407 0.667830 0.399924
O O7 0.842619 0.705963 0.945872
O O8 0.798979 0.203913 0.450157
O O9 0.957332 0.060041 0.302067
O O10 0.293651 0.172456 0.965265
O O11 0.000000 0.134966 0.000000
O O12 0.000000 0.971758 0.500000
O O13 0.500000 0.205726 0.500000
O O14 0.590471 0.314361 0.213942
O O15 0.000000 0.454933 0.500000
O O16 0.083310 0.574973 0.256423
O O17 0.500000 0.506437 0.000000
O O18 0.237049 0.448696 0.003025
O O19 0.000000 0.698625 0.500000
O O20 0.500000 0.422267 0.500000
O O21 0.000000 0.369423 0.000000
#
# Coordination Sequence:
#
# PCOD8044939 Si02
#       8
#     2   2   2   2   2   2   2   2
#     4  11  24  43  64  88 122 164 204 246 307 378
#     4  11  24  41  64  93 122 154 204 262 307 359
#     4  10  19  35  59  83 114 161 202 240 298 369
#     4  12  25  40  61  93 127 157 202 260 306 356
#     4   9  18  34  58  86 116 152 201 250 298 358
#     4  11  24  43  62  89 129 170 207 250 310 381
#     4  11  23  41  63  88 123 166 205 246 305 376
#     4  11  22  39  65  96 124 158 210 268 310 359
#
# _framework density 21.336790000000001
#
# number of rings (size 3 to 8) (size 9 to 14) (size 15 to 20)
#    0.000    1.250    0.000    7.875    0.000    7.500 
#    0.000    1.875    0.000    0.000    0.000    0.000 
#    0.000    0.000    0.000    0.000    0.000    0.000 
#
# Total GULP energy -198348.429656 kJ/mol
# GULP energy per Si atom -12396.776854 kJ/mol
# Density = 2.128823 g / cm^3
# Si number density = 21.336790 Si / 1000 Ang^3
#
#
#
# Elastic Constant Matrix: (Units=GPa)
#
#
# Indices 1 2 3 4 5 6 
#
# 1 68.0036 37.3847 22.3881 0.0000 3.4207 0.0000
# 2 37.3847 99.7937 30.1867 0.0000 10.1951 0.0000
# 3 22.3881 30.1867 111.1952 0.0000 9.4644 0.0000
# 4 0.0000 0.0000 0.0000 68.7543 0.0000 105.2117
# 5 3.4207 10.1951 9.4644 0.0000 39.0366 0.0000
# 6 0.0000 0.0000 0.0000 105.2117 0.0000 209.9146
#
#
#
# Elastic Compliance Matrix: (Units=1/GPa)
#
#
# Indices 1 2 3 4 5 6 
#
# 1 0.018952 -0.006523 -0.002092 0.000000 0.000550 0.000000
# 2 -0.006523 0.013347 -0.002105 0.000000 -0.002404 0.000000
# 3 -0.002092 -0.002105 0.010133 0.000000 -0.001724 0.000000
# 4 0.000000 0.000000 0.000000 0.062419 0.000000 -0.031285
# 5 0.000550 -0.002404 -0.001724 0.000000 0.026614 0.000000
# 6 0.000000 0.000000 0.000000 -0.031285 0.000000 0.020444
#
#
# Mechanical properties :
#
#
# Convention : Reuss Voigt Hill
#
# Bulk Modulus (GPa) = 47.63981 50.99017 49.31499
# Shear Modulus (GPa) = 27.72438 76.14329 51.93383
#
# Velocity S-wave (km/s) = 3.60859 5.98029 4.93891
# Velocity P-wave (km/s) = 6.30385 8.46373 7.46235
#
# Compressibility (1/GPa) = 0.02099085
#
# Stress axis : x y z
#
# Youngs Moduli (GPa) = 52.76414 74.92403 98.69144
#
# Poissons Ratio (x) = 0.48876 0.20644
# Poissons Ratio (y) = 0.34420 0.20778
# Poissons Ratio (z) = 0.11037 0.15774
#
# Static dielectric constant tensor:
#      x y z
#    x 3.667190 0.000000 0.020840 
#    y 0.000000 3.773630 0.000000 
#    z 0.020840 0.000000 4.348970 
# 
# 
# High freq. dielectric constant tensor:
#      x y z
#    x 1.818400 0.000000 -0.004240 
#    y 0.000000 1.836680 0.000000 
#    z -0.004240 0.000000 1.865440 
# 
# From -- ./inp_files/6207.got.cif
#   From: 2010.03.12/outbox.cif.g09.slc.cpg/sg3_4_cif.got.tgz:6207.got - 2010.03.31 09:20:49.
