data_PCOD8044673
_publ_section_title
;
Structure prediction by ZEFSAII (Michael W. Deem and Ramdas Pophale) SiO2 
 PCOD8044673
Probable space group: P -1
;
_chemical_formula_sum "Si O2"
_cell_formula_units_Z 12
_cell_length_a 28.548599
_cell_length_b 16.041523
_cell_length_c 9.498710
_cell_angle_alpha 144.099177
_cell_angle_beta 153.758536
_cell_angle_gamma 18.326903
_cell_volume 577.339858
_symmetry_space_group_name_H-M "P -1"
_symmetry_group_IT_number 2
_symmetry_cell_setting 'triclinic'
loop_
_space_group_symop_operation_xyz
x,y,z
-x,-y,-z
loop_
_atom_site_type_symbol
_atom_site_label
_atom_site_fract_x
_atom_site_fract_y
_atom_site_fract_z
Si Si1 0.371981 0.498207 0.304659
Si Si2 0.846093 0.517689 0.243761
Si Si3 0.734301 0.932769 0.383208
Si Si4 0.360882 0.738044 0.836741
Si Si5 0.101845 0.681064 0.609197
Si Si6 0.474303 0.180523 0.747637
O O1 0.355647 0.662663 0.570091
O O2 0.608453 0.206002 0.490540
O O3 0.311736 0.429996 0.144730
O O4 0.215976 0.681490 0.999440
O O5 0.740083 0.791930 0.311378
O O6 0.915556 0.428085 0.472932
O O7 0.038123 0.274929 0.323802
O O8 0.618853 0.013567 0.044149
O O9 0.500000 0.500000 0.000000
O O10 0.456537 0.781891 0.127741
O O11 0.127056 0.014551 0.644051
O O12 0.235517 0.480946 0.560415
O O13 0.500000 0.000000 0.500000
#
# Coordination Sequence:
#
# PCOD8044673 Si02
#       6
#     2   2   2   2   2   2
#     4   9  21  38  66  86 124 155 205 253 302 357
#     4   9  19  36  65  94 119 152 209 253 303 356
#     4  10  19  38  64  96 120 154 208 252 304 363
#     4  12  26  43  59  93 127 165 206 251 310 360
#     4   9  22  42  64  90 120 162 209 250 304 361
#     4  11  25  41  63  90 128 161 203 251 310 369
#
# _framework density 20.784984999999999
#
# number of rings (size 3 to 8) (size 9 to 14) (size 15 to 20)
#    1.000    1.000    1.667    1.000    2.333    5.333 
#    6.000    0.000    0.000    0.000    0.000    0.000 
#    0.000    0.000    0.000    0.000    0.000    0.000 
#
# Total GULP energy -148756.581734 kJ/mol
# GULP energy per Si atom -12396.381811 kJ/mol
# Density = 2.073768 g / cm^3
# Si number density = 20.784985 Si / 1000 Ang^3
#
#
#
# Elastic Constant Matrix: (Units=GPa)
#
#
# Indices 1 2 3 4 5 6 
#
# 1 62.6639 48.9027 41.9279 -8.1423 11.0832 -10.5455
# 2 48.9027 124.4736 61.4183 -7.5179 0.2875 -14.0088
# 3 41.9279 61.4183 65.4175 6.1007 4.1447 -4.9910
# 4 -8.1423 -7.5179 6.1007 40.1628 2.4938 -8.9944
# 5 11.0832 0.2875 4.1447 2.4938 28.6510 -5.7098
# 6 -10.5455 -14.0088 -4.9910 -8.9944 -5.7098 35.9675
#
#
#
# Elastic Compliance Matrix: (Units=1/GPa)
#
#
# Indices 1 2 3 4 5 6 
#
# 1 0.037162 -0.002087 -0.021742 0.013040 -0.010622 0.008640
# 2 -0.002087 0.017603 -0.015535 0.006412 0.003567 0.006258
# 3 -0.021742 -0.015535 0.044470 -0.016433 0.001547 -0.010118
# 4 0.013040 0.006412 -0.016433 0.034143 -0.003301 0.012054
# 5 -0.010622 0.003567 0.001547 -0.003301 0.039834 0.003988
# 6 0.008640 0.006258 -0.010118 0.012054 0.003988 0.035017
#
#
# Mechanical properties :
#
#
# Convention : Reuss Voigt Hill
#
# Bulk Modulus (GPa) = 48.76964 61.89476 55.33220
# Shear Modulus (GPa) = 17.01877 27.64333 22.33105
#
# Velocity S-wave (km/s) = 2.86457 3.65083 3.28134
# Velocity P-wave (km/s) = 5.86991 6.90033 6.40588
#
# Compressibility (1/GPa) = 0.02050456
#
# Stress axis : x y z
#
# Youngs Moduli (GPa) = 26.90929 56.80971 22.48720
#
# Poissons Ratio (x) = 0.11858 0.48892
# Poissons Ratio (y) = 0.05617 0.34934
# Poissons Ratio (z) = 0.58507 0.88255
#
# Static dielectric constant tensor:
#      x y z
#    x 3.825680 -0.145010 0.231750 
#    y -0.145010 3.770100 -0.193610 
#    z 0.231750 -0.193610 3.497880 
# 
# 
# High freq. dielectric constant tensor:
#      x y z
#    x 1.812010 -0.006560 0.021760 
#    y -0.006560 1.819030 -0.013620 
#    z 0.021760 -0.013620 1.787310 
# 
# From -- ./inp_files/240199.got.cif
#   From: 2010.06.25/outbox.cif.g09.slc.cpg/sg2_121_cif.got.tgz:240199.got - 2010.06.27 13:26:56.
