data_PCOD8044472
_publ_section_title
;
Structure prediction by ZEFSAII (Michael W. Deem and Ramdas Pophale) SiO2 
 PCOD8044472
Probable space group: P -1
;
_chemical_formula_sum "Si O2"
_cell_formula_units_Z 16
_cell_length_a 9.340666
_cell_length_b 14.118848
_cell_length_c 11.106933
_cell_angle_alpha 43.223125
_cell_angle_beta 60.224545
_cell_angle_gamma 59.195752
_cell_volume 842.434636
_symmetry_space_group_name_H-M "P -1"
_symmetry_group_IT_number 2
_symmetry_cell_setting 'triclinic'
loop_
_space_group_symop_operation_xyz
x,y,z
-x,-y,-z
loop_
_atom_site_type_symbol
_atom_site_label
_atom_site_fract_x
_atom_site_fract_y
_atom_site_fract_z
Si Si1 0.635479 0.215180 0.507244
Si Si2 0.937502 0.505615 0.385394
Si Si3 0.896461 0.058972 0.371193
Si Si4 0.610287 0.949632 0.118053
Si Si5 0.060696 0.797688 0.419275
Si Si6 0.014775 0.213198 0.971814
Si Si7 0.579940 0.504770 0.591100
Si Si8 0.750691 0.195558 0.900671
O O1 0.710530 0.150448 0.406651
O O2 0.493102 0.135829 0.678868
O O3 0.782572 0.206557 0.552528
O O4 0.543943 0.382930 0.372951
O O5 0.986984 0.353114 0.436837
O O6 0.737552 0.565349 0.430237
O O7 0.000000 0.500000 0.500000
O O8 0.010255 0.615547 0.173465
O O9 0.995545 0.158885 0.165013
O O10 0.000000 0.000000 0.500000
O O11 0.894217 0.918759 0.421254
O O12 0.799666 0.857038 0.094334
O O13 0.500000 0.000000 0.000000
O O14 0.627790 0.088708 0.056947
O O15 0.113460 0.851446 0.220021
O O16 0.858898 0.183124 0.988370
O O17 0.500000 0.500000 0.500000
O O18 0.633775 0.354449 0.776931
#
# Coordination Sequence:
#
# PCOD8044472 Si02
#       8
#     2   2   2   2   2   2   2   2
#     4  11  21  38  61  89 122 162 199 254 305 357
#     4  11  21  35  64  97 119 152 205 258 307 356
#     4  10  23  43  59  84 128 172 199 243 313 378
#     4  12  21  35  62  95 115 152 213 261 294 354
#     4  10  19  38  61  90 129 155 200 254 308 359
#     4  12  23  39  64  92 123 163 207 253 305 369
#     4  11  19  37  61  91 126 151 196 261 307 342
#     4  11  22  36  61  96 123 154 205 260 309 354
#
# _framework density 18.992571000000002
#
# number of rings (size 3 to 8) (size 9 to 14) (size 15 to 20)
#    0.000    1.000    8.750    1.125    0.000    0.000 
#    0.000    5.000    0.000    0.000    0.000    0.000 
#    0.000    0.000    0.000    0.000    0.000    0.000 
#
# Total GULP energy -198277.118387 kJ/mol
# GULP energy per Si atom -12392.319899 kJ/mol
# Density = 1.894934 g / cm^3
# Si number density = 18.992571 Si / 1000 Ang^3
#
#
#
# Elastic Constant Matrix: (Units=GPa)
#
#
# Indices 1 2 3 4 5 6 
#
# 1 106.5988 33.2162 42.1232 -9.9707 -8.6776 5.1687
# 2 33.2162 173.0355 62.1050 -9.4086 -11.6124 -6.4695
# 3 42.1232 62.1050 127.9411 -9.6983 -9.5625 7.9313
# 4 -9.9707 -9.4086 -9.6983 29.5963 3.4343 -6.2403
# 5 -8.6776 -11.6124 -9.5625 3.4343 30.4105 -6.2711
# 6 5.1687 -6.4695 7.9313 -6.2403 -6.2711 25.6445
#
#
#
# Elastic Compliance Matrix: (Units=1/GPa)
#
#
# Indices 1 2 3 4 5 6 
#
# 1 0.011179 -0.000899 -0.002921 0.002204 0.001543 -0.000663
# 2 -0.000899 0.007532 -0.003323 0.001596 0.002228 0.004042
# 3 -0.002921 -0.003323 0.010685 0.000716 0.000505 -0.003257
# 4 0.002204 0.001596 0.000716 0.037188 -0.000973 0.008548
# 5 0.001543 0.002228 0.000505 -0.000973 0.036241 0.008721
# 6 -0.000663 0.004042 -0.003257 0.008548 0.008721 0.045368
#
#
# Mechanical properties :
#
#
# Convention : Reuss Voigt Hill
#
# Bulk Modulus (GPa) = 66.18190 75.82935 71.00563
# Shear Modulus (GPa) = 29.84795 35.13900 32.49348
#
# Velocity S-wave (km/s) = 3.96859 4.30600 4.14073
# Velocity P-wave (km/s) = 7.47807 8.04578 7.76711
#
# Compressibility (1/GPa) = 0.01510987
#
# Stress axis : x y z
#
# Youngs Moduli (GPa) = 89.45214 132.76761 93.59163
#
# Poissons Ratio (x) = 0.11937 0.27335
# Poissons Ratio (y) = 0.08043 0.31102
# Poissons Ratio (z) = 0.26126 0.44121
#
# Static dielectric constant tensor:
#      x y z
#    x 3.696000 -0.161960 -0.005850 
#    y -0.161960 4.674080 -0.560260 
#    z -0.005850 -0.560260 3.712310 
# 
# 
# High freq. dielectric constant tensor:
#      x y z
#    x 1.736700 0.000380 0.001160 
#    y 0.000380 1.736410 -0.028440 
#    z 0.001160 -0.028440 1.729540 
# 
# From -- ./inp_files/398364.got.cif
#   From: 2010.06.25/outbox.cif.g09.slc.cpg/sg2_200_cif.got.tgz:398364.got - 2010.06.27 13:26:56.
