data_PCOD8044746
_publ_section_title
;
Structure prediction by ZEFSAII (Michael W. Deem and Ramdas Pophale) SiO2 
 PCOD8044746
Probable space group: P -1
;
_chemical_formula_sum "Si O2"
_cell_formula_units_Z 16
_cell_length_a 9.587469
_cell_length_b 14.864627
_cell_length_c 9.217374
_cell_angle_alpha 86.673271
_cell_angle_beta 60.910941
_cell_angle_gamma 46.137207
_cell_volume 742.174662
_symmetry_space_group_name_H-M "P -1"
_symmetry_group_IT_number 2
_symmetry_cell_setting 'triclinic'
loop_
_space_group_symop_operation_xyz
x,y,z
-x,-y,-z
loop_
_atom_site_type_symbol
_atom_site_label
_atom_site_fract_x
_atom_site_fract_y
_atom_site_fract_z
Si Si1 0.794124 0.378688 0.354787
Si Si2 0.110462 0.821646 0.872561
Si Si3 0.888507 0.347732 0.632976
Si Si4 0.776031 0.574024 0.209744
Si Si5 0.636304 0.284149 0.823263
Si Si6 0.099210 0.022776 0.745604
Si Si7 0.392479 0.355384 0.236220
Si Si8 0.656730 0.767824 0.494679
O O1 0.500000 0.500000 0.500000
O O2 0.939846 0.245375 0.190506
O O3 0.909756 0.309930 0.459252
O O4 0.863647 0.447659 0.260252
O O5 0.046592 0.940497 0.809373
O O6 0.401960 0.688678 0.761913
O O7 0.967896 0.884668 0.091599
O O8 0.680090 0.373699 0.810674
O O9 0.830427 0.478791 0.668933
O O10 0.158075 0.225774 0.585698
O O11 0.515424 0.671722 0.249482
O O12 0.746016 0.665424 0.331113
O O13 0.000000 0.500000 0.000000
O O14 0.492280 0.299900 0.027741
O O15 0.918282 0.124518 0.692476
O O16 0.384295 0.919233 0.576993
O O17 0.329675 0.286794 0.348281
#
# Coordination Sequence:
#
# PCOD8044746 Si02
#       8
#     2   2   2   2   2   2   2   2
#     4  12  21  41  66  98 130 162 216 266 326 379
#     4   9  18  38  66  92 122 169 215 266 304 379
#     4  12  23  37  65  99 128 169 213 264 327 372
#     4  12  26  43  65 102 133 161 205 277 333 368
#     4  11  24  39  66  98 127 167 217 266 312 374
#     4   9  21  41  65  89 128 175 221 245 315 386
#     4  10  19  38  66  90 125 164 214 259 317 381
#     4  11  24  43  66  90 133 177 209 256 320 390
#
# _framework density 21.558268000000002
#
# number of rings (size 3 to 8) (size 9 to 14) (size 15 to 20)
#    0.000    1.250    3.750    3.000    1.750    4.000 
#    0.000    0.625    0.000    0.000    0.000    0.000 
#    0.000    0.000    0.000    0.000    0.000    0.000 
#
# Total GULP energy -198315.583924 kJ/mol
# GULP energy per Si atom -12394.723995 kJ/mol
# Density = 2.150920 g / cm^3
# Si number density = 21.558268 Si / 1000 Ang^3
#
#
#
# Elastic Constant Matrix: (Units=GPa)
#
#
# Indices 1 2 3 4 5 6 
#
# 1 119.9384 24.2847 44.2751 7.7464 3.2463 -15.1032
# 2 24.2847 73.2047 23.3315 9.2771 6.0305 -19.0929
# 3 44.2751 23.3315 100.4758 7.7672 1.4599 4.1470
# 4 7.7464 9.2771 7.7672 34.1140 3.7243 2.0923
# 5 3.2463 6.0305 1.4599 3.7243 33.6476 1.7548
# 6 -15.1032 -19.0929 4.1470 2.0923 1.7548 25.1927
#
#
#
# Elastic Compliance Matrix: (Units=1/GPa)
#
#
# Indices 1 2 3 4 5 6 
#
# 1 0.011402 0.000384 -0.005292 -0.001867 -0.001162 0.008234
# 2 0.000384 0.020754 -0.005255 -0.005187 -0.003869 0.017525
# 3 -0.005292 -0.005255 0.013886 -0.000095 0.001357 -0.009528
# 4 -0.001867 -0.005187 -0.000095 0.031852 -0.002018 -0.007540
# 5 -0.001162 -0.003869 0.001357 -0.002018 0.030995 -0.005843
# 6 0.008234 0.017525 -0.009528 -0.007540 -0.005843 0.060513
#
#
# Mechanical properties :
#
#
# Convention : Reuss Voigt Hill
#
# Bulk Modulus (GPa) = 38.88544 53.04461 45.96502
# Shear Modulus (GPa) = 25.21416 32.03938 28.62677
#
# Velocity S-wave (km/s) = 3.42363 3.85928 3.64796
# Velocity P-wave (km/s) = 5.80558 6.67213 6.25388
#
# Compressibility (1/GPa) = 0.02571657
#
# Stress axis : x y z
#
# Youngs Moduli (GPa) = 87.70080 48.18235 72.01618
#
# Poissons Ratio (x) = -0.01850 0.38113
# Poissons Ratio (y) = -0.03368 0.37842
# Poissons Ratio (z) = 0.46414 0.25318
#
# Static dielectric constant tensor:
#      x y z
#    x 6.701240 3.093910 -3.135900 
#    y 3.093910 7.699790 -3.515210 
#    z -3.135900 -3.515210 7.062490 
# 
# 
# High freq. dielectric constant tensor:
#      x y z
#    x 1.839110 -0.008440 -0.004440 
#    y -0.008440 1.845740 -0.005180 
#    z -0.004440 -0.005180 1.838630 
# 
# From -- ./inp_files/207651.got.cif
#   From: 2010.06.25/outbox.cif.g09.slc.cpg/sg2_104_cif.got.tgz:207651.got - 2010.06.27 13:26:56.
