data_PCOD8044727
_publ_section_title
;
Structure prediction by ZEFSAII (Michael W. Deem and Ramdas Pophale) SiO2 
 PCOD8044727
Probable space group: P -1
;
_chemical_formula_sum "Si O2"
_cell_formula_units_Z 14
_cell_length_a 9.341580
_cell_length_b 25.389700
_cell_length_c 18.814988
_cell_angle_alpha 17.515484
_cell_angle_beta 149.448306
_cell_angle_gamma 150.428334
_cell_volume 647.489300
_symmetry_space_group_name_H-M "P -1"
_symmetry_group_IT_number 2
_symmetry_cell_setting 'triclinic'
loop_
_space_group_symop_operation_xyz
x,y,z
-x,-y,-z
loop_
_atom_site_type_symbol
_atom_site_label
_atom_site_fract_x
_atom_site_fract_y
_atom_site_fract_z
Si Si1 0.214447 0.075478 0.204951
Si Si2 0.179547 0.730432 0.715430
Si Si3 0.524615 0.133867 0.117335
Si Si4 0.344822 0.775700 0.417482
Si Si5 0.792219 0.306888 0.688927
Si Si6 0.888476 0.666619 0.824388
Si Si7 0.669418 0.546771 0.438214
O O1 0.471725 0.197822 0.208885
O O2 0.343973 0.044803 0.224294
O O3 0.076315 0.872332 0.440307
O O4 0.964638 0.173957 0.964415
O O5 0.980150 0.698077 0.741372
O O6 0.126928 0.540613 0.893811
O O7 0.877969 0.186787 0.213798
O O8 0.413715 0.989435 0.192443
O O9 0.460631 0.322047 0.831925
O O10 0.400320 0.785186 0.343719
O O11 0.569883 0.694600 0.660465
O O12 0.020340 0.649905 0.465818
O O13 0.608390 0.356049 0.612438
O O14 0.000000 0.500000 0.500000
O O15 0.500000 0.500000 0.500000
#
# Coordination Sequence:
#
# PCOD8044727 Si02
#       7
#     2   2   2   2   2   2   2
#     4  10  19  38  65  99 131 174 223 269 331 393
#     4   9  20  36  65  98 130 171 223 275 323 396
#     4  11  23  42  64  95 136 176 219 274 327 391
#     4  11  23  43  68  95 132 177 218 273 334 387
#     4  10  20  39  69  94 129 169 220 267 331 392
#     4  10  22  40  65  94 135 174 224 267 334 384
#     4  11  25  43  67  99 133 169 218 274 338 395
#
# _framework density 21.621977999999999
#
# number of rings (size 3 to 8) (size 9 to 14) (size 15 to 20)
#    0.000    1.714    2.857    2.571    4.000    2.286 
#    0.000    7.143    0.000    0.000    0.000    0.000 
#    0.000    0.000    0.000    0.000    0.000    0.000 
#
# Total GULP energy -173593.664071 kJ/mol
# GULP energy per Si atom -12399.547434 kJ/mol
# Density = 2.157277 g / cm^3
# Si number density = 21.621978 Si / 1000 Ang^3
#
#
#
# Elastic Constant Matrix: (Units=GPa)
#
#
# Indices 1 2 3 4 5 6 
#
# 1 106.3338 60.6498 43.5711 -6.9293 6.8802 -9.7717
# 2 60.6498 107.5521 50.4699 3.0825 16.8057 -18.6898
# 3 43.5711 50.4699 161.0506 -1.4082 3.0501 0.4082
# 4 -6.9293 3.0825 -1.4082 31.9065 4.0420 12.8291
# 5 6.8802 16.8057 3.0501 4.0420 35.4381 -5.1948
# 6 -9.7717 -18.6898 0.4082 12.8291 -5.1948 35.1056
#
#
#
# Elastic Compliance Matrix: (Units=1/GPa)
#
#
# Indices 1 2 3 4 5 6 
#
# 1 0.014744 -0.008174 -0.001388 0.004645 0.000328 -0.001881
# 2 -0.008174 0.018012 -0.003430 -0.006773 -0.004545 0.009156
# 3 -0.001388 -0.003430 0.007665 0.001367 0.000684 -0.002700
# 4 0.004645 -0.006773 0.001367 0.040977 -0.005129 -0.018062
# 5 0.000328 -0.004545 0.000684 -0.005129 0.031451 0.004192
# 6 -0.001881 0.009156 -0.002700 -0.018062 0.004192 0.040089
#
#
# Mechanical properties :
#
#
# Convention : Reuss Voigt Hill
#
# Bulk Modulus (GPa) = 69.26180 76.03534 72.64857
# Shear Modulus (GPa) = 27.21314 35.17311 31.19313
#
# Velocity S-wave (km/s) = 3.55151 4.03765 3.80235
# Velocity P-wave (km/s) = 6.99430 7.54844 7.27664
#
# Compressibility (1/GPa) = 0.01443797
#
# Stress axis : x y z
#
# Youngs Moduli (GPa) = 67.82378 55.51839 130.45731
#
# Poissons Ratio (x) = 0.45381 0.18109
# Poissons Ratio (y) = 0.55440 0.44740
# Poissons Ratio (z) = 0.09415 0.19040
#
# Static dielectric constant tensor:
#      x y z
#    x 4.334760 0.002600 -0.051680 
#    y 0.002600 4.115020 -0.120820 
#    z -0.051680 -0.120820 4.033770 
# 
# 
# High freq. dielectric constant tensor:
#      x y z
#    x 1.829040 -0.005470 0.008480 
#    y -0.005470 1.853700 0.002090 
#    z 0.008480 0.002090 1.859670 
# 
# From -- ./inp_files/189432.got.cif
#   From: 2010.06.25/outbox.cif.g09.slc.cpg/sg2_95_cif.got.tgz:189432.got - 2010.06.27 13:26:56.
