data_PCOD8044588
_publ_section_title
;
Structure prediction by ZEFSAII (Michael W. Deem and Ramdas Pophale) SiO2 
 PCOD8044588
Probable space group: P -1
;
_chemical_formula_sum "Si O2"
_cell_formula_units_Z 16
_cell_length_a 12.262606
_cell_length_b 8.313986
_cell_length_c 9.793760
_cell_angle_alpha 82.876121
_cell_angle_beta 116.259705
_cell_angle_gamma 66.738288
_cell_volume 766.662418
_symmetry_space_group_name_H-M "P -1"
_symmetry_group_IT_number 2
_symmetry_cell_setting 'triclinic'
loop_
_space_group_symop_operation_xyz
x,y,z
-x,-y,-z
loop_
_atom_site_type_symbol
_atom_site_label
_atom_site_fract_x
_atom_site_fract_y
_atom_site_fract_z
Si Si1 0.595198 0.527369 0.439223
Si Si2 0.847391 0.560361 0.586001
Si Si3 0.344714 0.768400 0.723957
Si Si4 0.072256 0.837005 0.665451
Si Si5 0.567305 0.047575 0.661741
Si Si6 0.196015 0.067393 0.376616
Si Si7 0.574527 0.834623 0.950671
Si Si8 0.145488 0.425369 0.714107
O O1 0.500000 0.500000 0.500000
O O2 0.755598 0.461396 0.585259
O O3 0.605397 0.420537 0.316254
O O4 0.531272 0.747380 0.351365
O O5 0.810599 0.732566 0.648300
O O6 0.806626 0.656581 0.402152
O O7 0.014776 0.403587 0.699804
O O8 0.231424 0.795509 0.777408
O O9 0.477809 0.743299 0.883021
O O10 0.277919 0.948154 0.568842
O O11 0.082750 0.647607 0.636871
O O12 0.962177 0.904275 0.725551
O O13 0.000000 0.000000 0.500000
O O14 0.500000 0.000000 0.500000
O O15 0.711846 0.039186 0.693792
O O16 0.601901 0.899738 0.814865
O O17 0.725614 0.671833 0.101267
O O18 0.500000 0.000000 0.000000
#
# Coordination Sequence:
#
# PCOD8044588 Si02
#       8
#     2   2   2   2   2   2   2   2
#     4  12  21  35  64 100 125 165 215 272 320 378
#     4  10  20  38  66  89 123 167 221 259 317 387
#     4  11  21  38  64  96 132 162 212 274 324 378
#     4   9  20  36  62  94 124 165 212 267 320 376
#     4  12  22  41  66  91 130 176 217 260 320 392
#     4  10  19  38  63  93 119 171 217 257 308 390
#     4  12  26  43  64  96 134 174 219 263 327 387
#     4  10  21  40  63  92 125 170 220 268 311 386
#
# _framework density 20.869681
#
# number of rings (size 3 to 8) (size 9 to 14) (size 15 to 20)
#    0.000    1.250    5.000    1.500    0.000    1.500 
#    0.000    2.500    0.000    1.500    0.000    0.000 
#    0.000    0.000    0.000    0.000    0.000    0.000 
#
# Total GULP energy -198242.710336 kJ/mol
# GULP energy per Si atom -12390.169396 kJ/mol
# Density = 2.082218 g / cm^3
# Si number density = 20.869681 Si / 1000 Ang^3
#
#
#
# Elastic Constant Matrix: (Units=GPa)
#
#
# Indices 1 2 3 4 5 6 
#
# 1 218.5268 38.9957 54.3731 6.1634 25.7509 -4.9617
# 2 38.9957 98.3029 27.6142 -1.0705 13.4316 -2.2592
# 3 54.3731 27.6142 87.8677 -1.2770 18.9085 -1.5979
# 4 6.1634 -1.0705 -1.2770 19.7392 0.5941 0.4432
# 5 25.7509 13.4316 18.9085 0.5941 31.3616 2.4743
# 6 -4.9617 -2.2592 -1.5979 0.4432 2.4743 31.9894
#
#
#
# Elastic Compliance Matrix: (Units=1/GPa)
#
#
# Indices 1 2 3 4 5 6 
#
# 1 0.005853 -0.001201 -0.002672 -0.002005 -0.002716 0.000927
# 2 -0.001201 0.011697 -0.002327 0.000924 -0.002695 0.000719
# 3 -0.002672 -0.002327 0.015093 0.001851 -0.005993 0.000613
# 4 -0.002005 0.000924 0.001851 0.051498 -0.000778 -0.000806
# 5 -0.002716 -0.002695 -0.005993 -0.000778 0.039208 -0.003933
# 6 0.000927 0.000719 0.000613 -0.000806 -0.003933 0.031801
#
#
# Mechanical properties :
#
#
# Convention : Reuss Voigt Hill
#
# Bulk Modulus (GPa) = 49.39670 71.85148 60.62409
# Shear Modulus (GPa) = 28.68646 35.53231 32.10938
#
# Velocity S-wave (km/s) = 3.71152 4.13071 3.92671
# Velocity P-wave (km/s) = 6.48750 7.56662 7.04774
#
# Compressibility (1/GPa) = 0.02024427
#
# Stress axis : x y z
#
# Youngs Moduli (GPa) = 170.85671 85.48947 66.25460
#
# Poissons Ratio (x) = 0.10263 0.17706
# Poissons Ratio (y) = 0.20512 0.15415
# Poissons Ratio (z) = 0.45660 0.19891
#
# Static dielectric constant tensor:
#      x y z
#    x 4.656320 -0.158480 0.152100 
#    y -0.158480 3.852900 -0.086350 
#    z 0.152100 -0.086350 3.244900 
# 
# 
# High freq. dielectric constant tensor:
#      x y z
#    x 1.856490 -0.008520 0.008370 
#    y -0.008520 1.821080 -0.012370 
#    z 0.008370 -0.012370 1.750670 
# 
# From -- ./inp_files/243112.got.cif
#   From: 2010.06.25/outbox.cif.g09.slc.cpg/sg2_122_cif.got.tgz:243112.got - 2010.06.27 13:26:56.
