data_PCOD8044495
_publ_section_title
;
Structure prediction by ZEFSAII (Michael W. Deem and Ramdas Pophale) SiO2 
 PCOD8044495
Probable space group: P -1
;
_chemical_formula_sum "Si O2"
_cell_formula_units_Z 16
_cell_length_a 20.459788
_cell_length_b 8.819122
_cell_length_c 8.266089
_cell_angle_alpha 88.979736
_cell_angle_beta 147.206783
_cell_angle_gamma 92.270650
_cell_volume 806.850104
_symmetry_space_group_name_H-M "P -1"
_symmetry_group_IT_number 2
_symmetry_cell_setting 'triclinic'
loop_
_space_group_symop_operation_xyz
x,y,z
-x,-y,-z
loop_
_atom_site_type_symbol
_atom_site_label
_atom_site_fract_x
_atom_site_fract_y
_atom_site_fract_z
Si Si1 0.325459 0.163420 0.358706
Si Si2 0.976528 0.418580 0.286512
Si Si3 0.514276 0.069188 0.202068
Si Si4 0.915346 0.137101 0.360506
Si Si5 0.918746 0.719646 0.039409
Si Si6 0.703633 0.935107 0.034497
Si Si7 0.828735 0.707655 0.517256
Si Si8 0.423462 0.346616 0.853705
O O1 0.342235 0.185214 0.199190
O O2 0.410334 0.273737 0.646943
O O3 0.358307 0.986912 0.464702
O O4 0.186593 0.185938 0.104017
O O5 0.914775 0.252750 0.202578
O O6 0.896190 0.535069 0.015259
O O7 0.000000 0.500000 0.500000
O O8 0.104537 0.403141 0.462321
O O9 0.410731 0.003251 0.110535
O O10 0.498896 0.248277 0.141009
O O11 0.500000 0.000000 0.000000
O O12 0.959904 0.223408 0.616316
O O13 0.000000 0.000000 0.500000
O O14 0.778205 0.076211 0.104996
O O15 0.923186 0.755445 0.856535
O O16 0.792795 0.857824 0.346704
O O17 0.709197 0.626356 0.350135
O O18 0.500000 0.500000 0.000000
#
# Coordination Sequence:
#
# PCOD8044495 Si02
#       8
#     2   2   2   2   2   2   2   2
#     4  10  19  38  62  83 118 155 189 240 296 338
#     4  10  20  38  57  83 122 154 190 237 295 342
#     4   9  20  39  61  83 118 155 190 243 294 340
#     4  11  20  38  60  90 118 150 199 241 279 358
#     4  10  21  37  60  85 122 160 189 236 297 339
#     4  11  20  37  63  88 117 154 194 240 293 341
#     4  10  20  37  61  82 121 160 186 241 298 343
#     4   9  20  40  61  87 114 150 201 242 289 350
#
# _framework density 19.830202
#
# number of rings (size 3 to 8) (size 9 to 14) (size 15 to 20)
#    0.000    2.000    2.500    2.250    0.000    0.500 
#   13.500    2.500    0.000    0.000    0.000    0.000 
#    0.000    0.000    0.000    0.000    0.000    0.000 
#
# Total GULP energy -198218.906550 kJ/mol
# GULP energy per Si atom -12388.681659 kJ/mol
# Density = 1.978507 g / cm^3
# Si number density = 19.830202 Si / 1000 Ang^3
#
#
#
# Elastic Constant Matrix: (Units=GPa)
#
#
# Indices 1 2 3 4 5 6 
#
# 1 142.2750 49.5602 35.9127 -0.6590 3.0370 -8.1170
# 2 49.5602 106.0198 47.5335 -7.9012 8.8913 11.4859
# 3 35.9127 47.5335 76.6569 -12.4892 -6.1795 2.5802
# 4 -0.6590 -7.9012 -12.4892 38.7825 -3.1143 2.7160
# 5 3.0370 8.8913 -6.1795 -3.1143 41.1626 -3.7832
# 6 -8.1170 11.4859 2.5802 2.7160 -3.7832 28.9406
#
#
#
# Elastic Compliance Matrix: (Units=1/GPa)
#
#
# Indices 1 2 3 4 5 6 
#
# 1 0.009218 -0.003888 -0.002327 -0.001693 0.000097 0.004507
# 2 -0.003888 0.016277 -0.008318 0.000689 -0.005119 -0.007543
# 3 -0.002327 -0.008318 0.020562 0.005260 0.005549 0.001047
# 4 -0.001693 0.000689 0.005260 0.028042 0.002564 -0.003513
# 5 0.000097 -0.005119 0.005549 0.002564 0.026864 0.004835
# 6 0.004507 -0.007543 0.001047 -0.003513 0.004835 0.039680
#
#
# Mechanical properties :
#
#
# Convention : Reuss Voigt Hill
#
# Bulk Modulus (GPa) = 58.85728 65.66273 62.26000
# Shear Modulus (GPa) = 28.51075 34.57351 31.54213
#
# Velocity S-wave (km/s) = 3.79587 4.18003 3.99257
# Velocity P-wave (km/s) = 6.99690 7.51540 7.26078
#
# Compressibility (1/GPa) = 0.01699025
#
# Stress axis : x y z
#
# Youngs Moduli (GPa) = 108.48703 61.43699 48.63276
#
# Poissons Ratio (x) = 0.23887 0.11317
# Poissons Ratio (y) = 0.42181 0.40453
# Poissons Ratio (z) = 0.25246 0.51103
#
# Static dielectric constant tensor:
#      x y z
#    x 3.907770 -0.040610 -0.181540 
#    y -0.040610 3.658530 -0.330550 
#    z -0.181540 -0.330550 3.746280 
# 
# 
# High freq. dielectric constant tensor:
#      x y z
#    x 1.785900 -0.011160 -0.014520 
#    y -0.011160 1.751900 -0.031880 
#    z -0.014520 -0.031880 1.765610 
# 
# From -- ./inp_files/213298.got.cif
#   From: 2010.06.25/outbox.cif.g09.slc.cpg/sg2_107_cif.got.tgz:213298.got - 2010.06.27 13:26:56.
