data_PCOD8044566
_publ_section_title
;
Structure prediction by ZEFSAII (Michael W. Deem and Ramdas Pophale) SiO2 
 PCOD8044566
Probable space group: P -1
;
_chemical_formula_sum "Si O2"
_cell_formula_units_Z 16
_cell_length_a 20.251403
_cell_length_b 11.300536
_cell_length_c 8.968853
_cell_angle_alpha 36.477752
_cell_angle_beta 141.783799
_cell_angle_gamma 137.839202
_cell_volume 720.648749
_symmetry_space_group_name_H-M "P -1"
_symmetry_group_IT_number 2
_symmetry_cell_setting 'triclinic'
loop_
_space_group_symop_operation_xyz
x,y,z
-x,-y,-z
loop_
_atom_site_type_symbol
_atom_site_label
_atom_site_fract_x
_atom_site_fract_y
_atom_site_fract_z
Si Si1 0.993469 0.793778 0.607617
Si Si2 0.715274 0.606456 0.790686
Si Si3 0.097046 0.971497 0.302468
Si Si4 0.760451 0.247072 0.418197
Si Si5 0.810536 0.236187 0.855256
Si Si6 0.361467 0.590336 0.457965
Si Si7 0.751627 0.760267 0.188589
Si Si8 0.610260 0.812613 0.616368
O O1 0.860077 0.668351 0.479456
O O2 0.047029 0.846700 0.487105
O O3 0.064278 0.664140 0.955050
O O4 0.000000 0.000000 0.500000
O O5 0.746018 0.458960 0.116587
O O6 0.821741 0.800770 0.740903
O O7 0.669627 0.465355 0.710733
O O8 0.617984 0.697000 0.591416
O O9 0.156943 0.831455 0.459251
O O10 0.000000 0.000000 0.000000
O O11 0.810076 0.301156 0.616909
O O12 0.641700 0.063160 0.399850
O O13 0.715861 0.283628 0.738575
O O14 0.785896 0.989665 0.082510
O O15 0.346486 0.381723 0.738459
O O16 0.488567 0.733643 0.551883
O O17 0.705300 0.760611 0.939582
#
# Coordination Sequence:
#
# PCOD8044566 Si02
#       8
#     2   2   2   2   2   2   2   2
#     4  10  19  38  63  87 121 158 197 253 306 356
#     4  11  23  40  61  91 124 160 206 251 308 373
#     4  11  22  40  64  90 124 163 205 253 308 367
#     4  10  23  41  62  90 126 166 207 251 304 367
#     4  10  22  39  61  91 123 159 207 256 305 362
#     4  12  24  38  64  94 122 162 208 256 308 363
#     4  10  22  41  63  87 121 163 207 254 305 361
#     4  10  23  42  62  89 125 164 207 256 305 358
#
# _framework density 22.202217999999998
#
# number of rings (size 3 to 8) (size 9 to 14) (size 15 to 20)
#    0.000    1.500    0.000    6.750    0.000    5.500 
#    0.000    3.750    0.000    0.000    0.000    0.000 
#    0.000    0.000    0.000    0.000    0.000    0.000 
#
# Total GULP energy -198406.701355 kJ/mol
# GULP energy per Si atom -12400.418835 kJ/mol
# Density = 2.215168 g / cm^3
# Si number density = 22.202218 Si / 1000 Ang^3
#
#
#
# Elastic Constant Matrix: (Units=GPa)
#
#
# Indices 1 2 3 4 5 6 
#
# 1 131.5994 50.8643 28.2654 16.1411 -4.1303 2.9912
# 2 50.8643 86.3526 21.2006 12.8431 3.4827 10.4642
# 3 28.2654 21.2006 63.4413 6.1118 -1.1132 -7.1193
# 4 16.1411 12.8431 6.1118 28.9867 6.0365 -4.1600
# 5 -4.1303 3.4827 -1.1132 6.0365 37.1981 3.5008
# 6 2.9912 10.4642 -7.1193 -4.1600 3.5008 42.1443
#
#
#
# Elastic Compliance Matrix: (Units=1/GPa)
#
#
# Indices 1 2 3 4 5 6 
#
# 1 0.010688 -0.005116 -0.002717 -0.003645 0.002222 -0.000492
# 2 -0.005116 0.016683 -0.003430 -0.004263 -0.001100 -0.004688
# 3 -0.002717 -0.003430 0.018622 -0.000351 0.000245 0.004135
# 4 -0.003645 -0.004263 -0.000351 0.040835 -0.007197 0.005887
# 5 0.002222 -0.001100 0.000245 -0.007197 0.028684 -0.002937
# 6 -0.000492 -0.004688 0.004135 0.005887 -0.002937 0.026450
#
#
# Mechanical properties :
#
#
# Convention : Reuss Voigt Hill
#
# Bulk Modulus (GPa) = 42.61651 53.56154 48.08902
# Shear Modulus (GPa) = 29.01737 33.73671 31.37704
#
# Velocity S-wave (km/s) = 3.61911 3.90233 3.76339
# Velocity P-wave (km/s) = 6.05808 6.66941 6.37108
#
# Compressibility (1/GPa) = 0.02346509
#
# Stress axis : x y z
#
# Youngs Moduli (GPa) = 93.56355 59.94218 53.70110
#
# Poissons Ratio (x) = 0.30669 0.14591
# Poissons Ratio (y) = 0.47870 0.18420
# Poissons Ratio (z) = 0.25422 0.20561
#
# Static dielectric constant tensor:
#      x y z
#    x 4.315850 0.002480 -0.165830 
#    y 0.002480 4.233540 0.101630 
#    z -0.165830 0.101630 4.116770 
# 
# 
# High freq. dielectric constant tensor:
#      x y z
#    x 1.881960 -0.004820 -0.005110 
#    y -0.004820 1.888050 -0.003010 
#    z -0.005110 -0.003010 1.875200 
# 
# From -- ./inp_files/344996.got.cif
#   From: 2010.06.25/outbox.cif.g09.slc.cpg/sg2_173_cif.got.tgz:344996.got - 2010.06.27 13:26:56.
