data_PCOD8044035
_publ_section_title
;
Structure prediction by ZEFSAII (Michael W. Deem and Ramdas Pophale) SiO2 
 PCOD8044035
Probable space group: P -1
;
_chemical_formula_sum "Si O2"
_cell_formula_units_Z 14
_cell_length_a 13.912111
_cell_length_b 9.066141
_cell_length_c 12.210758
_cell_angle_alpha 98.415833
_cell_angle_beta 151.127038
_cell_angle_gamma 99.412604
_cell_volume 582.560693
_symmetry_space_group_name_H-M "P -1"
_symmetry_group_IT_number 2
_symmetry_cell_setting 'triclinic'
loop_
_space_group_symop_operation_xyz
x,y,z
-x,-y,-z
loop_
_atom_site_type_symbol
_atom_site_label
_atom_site_fract_x
_atom_site_fract_y
_atom_site_fract_z
Si Si1 0.008904 0.174855 0.491286
Si Si2 0.678561 0.730167 0.835946
Si Si3 0.193089 0.672397 0.537269
Si Si4 0.327315 0.976000 0.064606
Si Si5 0.765381 0.494007 0.785092
Si Si6 0.647896 0.342710 0.876542
Si Si7 0.483945 0.447379 0.113916
O O1 0.839561 0.209678 0.396295
O O2 0.902795 0.146607 0.261631
O O3 0.000000 0.000000 0.500000
O O4 0.304768 0.360112 0.814976
O O5 0.854621 0.700843 0.936097
O O6 0.392773 0.571755 0.491273
O O7 0.688937 0.693598 0.972172
O O8 0.765113 0.942432 0.929630
O O9 0.277228 0.552775 0.664703
O O10 0.939095 0.521558 0.203529
O O11 0.417799 0.831683 0.703255
O O12 0.400864 0.852941 0.175293
O O13 0.589268 0.348628 0.691691
O O14 0.000000 0.500000 0.000000
O O15 0.466129 0.357016 0.778111
#
# Coordination Sequence:
#
# PCOD8044035 Si02
#       7
#     2   2   2   2   2   2   2
#     4  11  20  36  63  88 117 160 199 236 285 347
#     4   9  19  35  58  83 112 151 190 240 286 346
#     4  10  21  39  62  83 119 163 195 231 293 348
#     4  11  22  40  60  89 121 152 199 243 286 347
#     4  10  19  37  63  82 112 155 192 235 302 347
#     4  10  23  40  58  90 122 148 196 251 285 345
#     4   9  19  38  58  85 121 153 194 239 287 339
#
# _framework density 24.031832999999999
#
# number of rings (size 3 to 8) (size 9 to 14) (size 15 to 20)
#    0.000    2.000    2.857    2.143    0.000    2.857 
#    2.571    2.143    0.000    0.000    0.000    0.000 
#    0.000    0.000    0.000    0.000    0.000    0.000 
#
# Total GULP energy -173476.901684 kJ/mol
# GULP energy per Si atom -12391.207263 kJ/mol
# Density = 2.397714 g / cm^3
# Si number density = 24.031833 Si / 1000 Ang^3
#
#
#
# Elastic Constant Matrix: (Units=GPa)
#
#
# Indices 1 2 3 4 5 6 
#
# 1 65.3944 41.4439 18.7607 -6.3144 -0.5598 -40.1516
# 2 41.4439 195.4638 22.6455 -19.2417 3.4698 -51.8820
# 3 18.7607 22.6455 69.8780 -10.0999 3.4491 -7.9495
# 4 -6.3144 -19.2417 -10.0999 42.0435 -7.3343 8.2315
# 5 -0.5598 3.4698 3.4491 -7.3343 34.7478 -7.5173
# 6 -40.1516 -51.8820 -7.9495 8.2315 -7.5173 55.6812
#
#
#
# Elastic Compliance Matrix: (Units=1/GPa)
#
#
# Indices 1 2 3 4 5 6 
#
# 1 0.030543 -0.000091 -0.005991 -0.000168 0.005796 0.021892
# 2 -0.000091 0.007118 -0.001355 0.001900 0.001176 0.006251
# 3 -0.005991 -0.001355 0.016419 0.002870 -0.001831 -0.003909
# 4 -0.000168 0.001900 0.002870 0.026395 0.004836 -0.001191
# 5 0.005796 0.001176 -0.001831 0.004836 0.031817 0.008594
# 6 0.021892 0.006251 -0.003909 -0.001191 0.008594 0.040348
#
#
# Mechanical properties :
#
#
# Convention : Reuss Voigt Hill
#
# Bulk Modulus (GPa) = 25.50555 55.15961 40.33258
# Shear Modulus (GPa) = 27.68861 43.02023 35.35442
#
# Velocity S-wave (km/s) = 3.39804 4.23559 3.83972
# Velocity P-wave (km/s) = 5.10214 6.85002 6.03965
#
# Compressibility (1/GPa) = 0.03920716
#
# Stress axis : x y z
#
# Youngs Moduli (GPa) = 32.74108 140.49807 60.90685
#
# Poissons Ratio (x) = 0.01272 0.36487
# Poissons Ratio (y) = 0.00296 0.08250
# Poissons Ratio (z) = 0.19614 0.19032
#
# Static dielectric constant tensor:
#      x y z
#    x 4.530750 -0.643560 -0.204360 
#    y -0.643560 5.009230 -0.393070 
#    z -0.204360 -0.393070 4.304200 
# 
# 
# High freq. dielectric constant tensor:
#      x y z
#    x 1.943740 -0.036360 -0.013600 
#    y -0.036360 1.974520 -0.027270 
#    z -0.013600 -0.027270 1.946620 
# 
# From -- ./inp_files/291497.got.cif
#   From: 2010.06.25/outbox.cif.g09.slc.cpg/sg2_146_cif.got.tgz:291497.got - 2010.06.27 13:26:56.
