data_PCOD8044894
_publ_section_title
;
Structure prediction by ZEFSAII (Michael W. Deem and Ramdas Pophale) SiO2 
 PCOD8044894
Probable space group: P 2
;
_chemical_formula_sum "Si O2"
_cell_formula_units_Z 12
_cell_length_a 9.137729
_cell_length_b 13.730911
_cell_length_c 5.061350
_cell_angle_alpha 90.000000
_cell_angle_beta 80.782207
_cell_angle_gamma 90.000000
_cell_volume 626.843661
_symmetry_space_group_name_H-M "P 2"
_symmetry_group_IT_number 3
_symmetry_cell_setting 'monoclinic'
loop_
_space_group_symop_operation_xyz
x,y,z
-x,y,-z
loop_
_atom_site_type_symbol
_atom_site_label
_atom_site_fract_x
_atom_site_fract_y
_atom_site_fract_z
Si Si1 0.675961 0.403650 0.490471
Si Si2 0.675543 0.296738 0.989390
Si Si3 0.828540 0.098619 0.031508
Si Si4 0.597516 0.594998 0.723798
Si Si5 0.170857 0.973221 0.464210
Si Si6 0.600102 0.809042 0.726774
O O1 0.500000 0.397990 0.500000
O O2 0.737758 0.376976 0.183150
O O3 0.714996 0.511497 0.597357
O O4 0.740526 0.325653 0.683711
O O5 0.727615 0.193511 0.086448
O O6 0.500000 0.295927 0.000000
O O7 0.786712 0.018325 0.264021
O O8 0.791780 0.055761 0.757432
O O9 0.000000 0.129411 0.000000
O O10 0.500000 0.618470 0.500000
O O11 0.666589 0.700709 0.776909
O O12 0.500000 0.554943 0.000000
O O13 0.000000 0.941977 0.500000
O O14 0.261077 0.877296 0.368087
O O15 0.500000 0.810018 0.500000
O O16 0.500000 0.846357 0.000000
#
# Coordination Sequence:
#
# PCOD8044894 Si02
#       6
#     2   2   2   2   2   2
#     4   9  16  28  46  71 100 127 156 194 243 296
#     4  10  19  30  48  73  97 124 162 205 244 281
#     4  10  21  36  52  70  97 136 173 203 247 305
#     4   9  16  28  47  72 101 129 158 196 246 300
#     4  10  21  37  54  72 100 138 171 203 253 310
#     4  10  20  33  53  80 103 128 167 213 253 290
#
# _framework density 19.143526999999999
#
# number of rings (size 3 to 8) (size 9 to 14) (size 15 to 20)
#    0.000    2.333    0.000    4.500    0.000    2.000 
#    0.000    0.000    0.000    2.000    0.000    0.000 
#    0.000    0.000    0.000    0.000    0.000    0.000 
#
# Total GULP energy -148664.823148 kJ/mol
# GULP energy per Si atom -12388.735262 kJ/mol
# Density = 1.909996 g / cm^3
# Si number density = 19.143527 Si / 1000 Ang^3
#
#
#
# Elastic Constant Matrix: (Units=GPa)
#
#
# Indices 1 2 3 4 5 6 
#
# 1 34.8861 44.5850 30.4882 0.0000 0.9775 0.0000
# 2 44.5850 126.1556 37.1407 0.0000 -9.7518 0.0000
# 3 30.4882 37.1407 123.5226 0.0000 1.0935 0.0000
# 4 0.0000 0.0000 0.0000 20.4225 0.0000 3.4172
# 5 0.9775 -9.7518 1.0935 0.0000 15.5281 0.0000
# 6 0.0000 0.0000 0.0000 3.4172 0.0000 2.7949
#
#
#
# Elastic Compliance Matrix: (Units=1/GPa)
#
#
# Indices 1 2 3 4 5 6 
#
# 1 0.064689 -0.021403 -0.009382 0.000000 -0.016853 0.000000
# 2 -0.021403 0.016303 0.000278 0.000000 0.011566 0.000000
# 3 -0.009382 0.000278 0.010327 0.000000 0.000038 0.000000
# 4 0.000000 0.000000 0.000000 0.061559 0.000000 -0.075265
# 5 -0.016853 0.011566 0.000038 0.000000 0.072721 0.000000
# 6 0.000000 0.000000 0.000000 -0.075265 0.000000 0.449817
#
#
# Mechanical properties :
#
#
# Convention : Reuss Voigt Hill
#
# Bulk Modulus (GPa) = 32.99622 56.55469 44.77546
# Shear Modulus (GPa) = 6.69764 19.23912 12.96838
#
# Velocity S-wave (km/s) = 1.87250 3.17360 2.60557
# Velocity P-wave (km/s) = 4.68494 6.56015 5.70019
#
# Compressibility (1/GPa) = 0.03030650
#
# Stress axis : x y z
#
# Youngs Moduli (GPa) = 15.45848 61.33919 96.82964
#
# Poissons Ratio (x) = 1.31282 0.90848
# Poissons Ratio (y) = 0.33085 -0.02695
# Poissons Ratio (z) = 0.14504 -0.01707
#
# Static dielectric constant tensor:
#      x y z
#    x 2.998870 0.000000 0.193210 
#    y 0.000000 3.768400 0.000000 
#    z 0.193210 0.000000 3.875490 
# 
# 
# High freq. dielectric constant tensor:
#      x y z
#    x 1.679330 0.000000 0.020750 
#    y 0.000000 1.755380 0.000000 
#    z 0.020750 0.000000 1.771710 
# 
# From -- ./inp_files/1199.got.cif
#   From: 2010.03.12/outbox.cif.g09.slc.cpg/sg3_1_cif.got.tgz:1199.got - 2010.03.31 09:20:49.
