data_PCOD8044007
_publ_section_title
;
Structure prediction by ZEFSAII (Michael W. Deem and Ramdas Pophale) SiO2 
 PCOD8044007
Probable space group: P -1
;
_chemical_formula_sum "Si O2"
_cell_formula_units_Z 16
_cell_length_a 8.415202
_cell_length_b 9.953922
_cell_length_c 13.748109
_cell_angle_alpha 70.489328
_cell_angle_beta 135.349562
_cell_angle_gamma 101.415479
_cell_volume 761.479825
_symmetry_space_group_name_H-M "P -1"
_symmetry_group_IT_number 2
_symmetry_cell_setting 'triclinic'
loop_
_space_group_symop_operation_xyz
x,y,z
-x,-y,-z
loop_
_atom_site_type_symbol
_atom_site_label
_atom_site_fract_x
_atom_site_fract_y
_atom_site_fract_z
Si Si1 0.561919 0.210184 0.553668
Si Si2 0.216900 0.180308 0.683141
Si Si3 0.841498 0.808858 0.990019
Si Si4 0.923064 0.112485 0.227568
Si Si5 0.613198 0.895070 0.683935
Si Si6 0.029909 0.350828 0.739303
Si Si7 0.899391 0.678816 0.599200
Si Si8 0.728159 0.117348 0.944369
O O1 0.557512 0.186483 0.439702
O O2 0.795987 0.273484 0.668315
O O3 0.355071 0.318419 0.469653
O O4 0.524052 0.058577 0.628012
O O5 0.090618 0.245429 0.518518
O O6 0.485227 0.165147 0.783901
O O7 0.173015 0.287234 0.727426
O O8 0.122710 0.026836 0.697248
O O9 0.828420 0.678259 0.091596
O O10 0.089031 0.792080 0.052740
O O11 0.651619 0.807226 0.822363
O O12 0.801355 0.951556 0.000930
O O13 0.155883 0.085722 0.277930
O O14 0.932886 0.244696 0.273213
O O15 0.727061 0.145120 0.053889
O O16 0.990344 0.517322 0.665239
#
# Coordination Sequence:
#
# PCOD8044007 Si02
#       8
#     2   2   2   2   2   2   2   2
#     4  10  19  38  61  86 118 149 196 243 284 335
#     4  12  22  39  61  85 114 157 197 237 288 339
#     4  10  19  37  62  90 115 146 192 240 291 338
#     4  10  20  39  60  88 115 147 197 244 283 337
#     4   9  18  35  63  93 113 142 197 252 280 326
#     4  12  23  39  57  87 123 154 190 236 293 350
#     4  11  25  39  57  84 121 159 192 235 290 346
#     4  10  20  37  64  90 110 146 196 247 283 337
#
# _framework density 21.011717000000001
#
# number of rings (size 3 to 8) (size 9 to 14) (size 15 to 20)
#    0.000    1.500    2.500    4.500    0.000    0.000 
#    2.250    7.500    0.000    0.000    0.000    0.000 
#    0.000    0.000    0.000    0.000    0.000    0.000 
#
# Total GULP energy -198420.944861 kJ/mol
# GULP energy per Si atom -12401.309054 kJ/mol
# Density = 2.096389 g / cm^3
# Si number density = 21.011717 Si / 1000 Ang^3
#
#
#
# Elastic Constant Matrix: (Units=GPa)
#
#
# Indices 1 2 3 4 5 6 
#
# 1 60.7847 24.2518 28.4331 -1.2774 -17.9278 -13.1106
# 2 24.2518 81.8331 29.6832 -2.9539 -8.5348 -9.8978
# 3 28.4331 29.6832 108.7456 11.5235 -29.9403 -2.9687
# 4 -1.2774 -2.9539 11.5235 20.6503 -9.2561 -2.0723
# 5 -17.9278 -8.5348 -29.9403 -9.2561 36.6658 -3.2474
# 6 -13.1106 -9.8978 -2.9687 -2.0723 -3.2474 13.0201
#
#
#
# Elastic Compliance Matrix: (Units=1/GPa)
#
#
# Indices 1 2 3 4 5 6 
#
# 1 0.034089 -0.000990 -0.003409 0.017747 0.021769 0.041050
# 2 -0.000990 0.015848 -0.003624 0.006797 0.003030 0.012062
# 3 -0.003409 -0.003624 0.013501 -0.005366 0.006962 -0.002227
# 4 0.017747 0.006797 -0.005366 0.069539 0.026940 0.039601
# 5 0.021769 0.003030 0.006962 0.026940 0.054989 0.043815
# 6 0.041050 0.012062 -0.002227 0.039601 0.043815 0.144033
#
#
# Mechanical properties :
#
#
# Convention : Reuss Voigt Hill
#
# Bulk Modulus (GPa) = 21.10039 46.23327 33.66683
# Shear Modulus (GPa) = 13.74223 25.33362 19.53793
#
# Velocity S-wave (km/s) = 2.56017 3.47607 3.05267
# Velocity P-wave (km/s) = 4.33628 6.17755 5.33692
#
# Compressibility (1/GPa) = 0.04739248
#
# Stress axis : x y z
#
# Youngs Moduli (GPa) = 29.33518 63.09929 74.06861
#
# Poissons Ratio (x) = 0.06245 0.25251
# Poissons Ratio (y) = 0.02903 0.26841
# Poissons Ratio (z) = 0.10001 0.22866
#
# Static dielectric constant tensor:
#      x y z
#    x 3.728640 -0.223320 -0.168910 
#    y -0.223320 3.512300 0.194510 
#    z -0.168910 0.194510 4.133100 
# 
# 
# High freq. dielectric constant tensor:
#      x y z
#    x 1.819570 -0.019210 -0.012300 
#    y -0.019210 1.787420 0.006740 
#    z -0.012300 0.006740 1.839260 
# 
# From -- ./inp_files/226479.got.cif
#   From: 2010.06.25/outbox.cif.g09.slc.cpg/sg2_114_cif.got.tgz:226479.got - 2010.06.27 13:26:56.
