data_PCOD8044381
_publ_section_title
;
Structure prediction by ZEFSAII (Michael W. Deem and Ramdas Pophale) SiO2 
 PCOD8044381
Probable space group: P -1
;
_chemical_formula_sum "Si O2"
_cell_formula_units_Z 16
_cell_length_a 10.648977
_cell_length_b 14.947937
_cell_length_c 8.504688
_cell_angle_alpha 51.377735
_cell_angle_beta 107.038485
_cell_angle_gamma 132.854598
_cell_volume 754.644989
_symmetry_space_group_name_H-M "P -1"
_symmetry_group_IT_number 2
_symmetry_cell_setting 'triclinic'
loop_
_space_group_symop_operation_xyz
x,y,z
-x,-y,-z
loop_
_atom_site_type_symbol
_atom_site_label
_atom_site_fract_x
_atom_site_fract_y
_atom_site_fract_z
Si Si1 0.118212 0.322747 0.311472
Si Si2 0.973143 0.118354 0.182006
Si Si3 0.368748 0.525865 0.664217
Si Si4 0.625385 0.366478 0.124553
Si Si5 0.288965 0.211669 0.647671
Si Si6 0.028009 0.655914 0.246900
Si Si7 0.299494 0.230020 0.979948
Si Si8 0.109112 0.637648 0.624407
O O1 0.031874 0.188899 0.298735
O O2 0.222225 0.302373 0.493498
O O3 0.968138 0.302404 0.372572
O O4 0.242638 0.488978 0.098058
O O5 0.911005 0.194291 0.980778
O O6 0.129659 0.143559 0.121893
O O7 0.809905 0.937194 0.336435
O O8 0.420061 0.579312 0.804676
O O9 0.502366 0.671031 0.439906
O O10 0.170132 0.449145 0.639283
O O11 0.393026 0.404854 0.785287
O O12 0.713529 0.299728 0.290751
O O13 0.443535 0.232392 0.115004
O O14 0.248834 0.148868 0.880685
O O15 0.024994 0.549294 0.236854
O O16 0.154142 0.705043 0.388404
#
# Coordination Sequence:
#
# PCOD8044381 Si02
#       8
#     2   2   2   2   2   2   2   2
#     4  12  21  37  61  93 120 154 199 246 289 359
#     4  11  23  41  60  90 123 158 188 247 309 354
#     4  10  19  38  59  90 117 153 198 252 296 338
#     4  11  21  36  62  89 120 150 196 257 289 337
#     4  12  25  36  62  91 123 157 193 243 305 362
#     4   9  20  40  66  88 120 151 198 254 289 344
#     4  11  21  38  60  87 122 155 200 247 294 345
#     4  10  21  37  63  94 112 157 205 248 284 340
#
# _framework density 21.202021999999999
#
# number of rings (size 3 to 8) (size 9 to 14) (size 15 to 20)
#    0.000    1.250    5.000    4.125    1.750    0.000 
#    0.000    0.000    0.000   21.000    0.000    0.000 
#    0.000    0.000    0.000    0.000    0.000    0.000 
#
# Total GULP energy -198403.661570 kJ/mol
# GULP energy per Si atom -12400.228848 kJ/mol
# Density = 2.115377 g / cm^3
# Si number density = 21.202022 Si / 1000 Ang^3
#
#
#
# Elastic Constant Matrix: (Units=GPa)
#
#
# Indices 1 2 3 4 5 6 
#
# 1 55.5570 23.3244 19.2098 5.4997 7.3315 -4.5102
# 2 23.3244 56.2485 18.5156 15.3937 0.4913 10.3377
# 3 19.2098 18.5156 60.6521 11.0972 11.7005 9.6141
# 4 5.4997 15.3937 11.0972 41.9337 9.1274 0.5576
# 5 7.3315 0.4913 11.7005 9.1274 32.0388 12.0551
# 6 -4.5102 10.3377 9.6141 0.5576 12.0551 22.4881
#
#
#
# Elastic Compliance Matrix: (Units=1/GPa)
#
#
# Indices 1 2 3 4 5 6 
#
# 1 0.030977 -0.017054 -0.006860 0.007133 -0.015882 0.025322
# 2 -0.017054 0.034017 -0.001643 -0.013423 0.018272 -0.027818
# 3 -0.006860 -0.001643 0.021592 -0.003667 -0.001971 -0.008705
# 4 0.007133 -0.013423 -0.003667 0.031953 -0.015461 0.016665
# 5 -0.015882 0.018272 -0.001971 -0.015461 0.054601 -0.039629
# 6 0.025322 -0.027818 -0.008705 0.016665 -0.039629 0.086886
#
#
# Mechanical properties :
#
#
# Convention : Reuss Voigt Hill
#
# Bulk Modulus (GPa) = 28.19052 32.72857 30.45955
# Shear Modulus (GPa) = 15.48158 26.71931 21.10044
#
# Velocity S-wave (km/s) = 2.70514 3.55382 3.15812
# Velocity P-wave (km/s) = 4.80438 5.68415 5.26268
#
# Compressibility (1/GPa) = 0.03547291
#
# Stress axis : x y z
#
# Youngs Moduli (GPa) = 32.28237 29.39687 46.31247
#
# Poissons Ratio (x) = 0.50134 0.31770
# Poissons Ratio (y) = 0.55055 0.07607
# Poissons Ratio (z) = 0.22146 0.04829
#
# Static dielectric constant tensor:
#      x y z
#    x 3.796500 0.004090 0.152090 
#    y 0.004090 3.790630 0.283330 
#    z 0.152090 0.283330 3.734060 
# 
# 
# High freq. dielectric constant tensor:
#      x y z
#    x 1.820470 -0.004790 0.008780 
#    y -0.004790 1.822780 0.028260 
#    z 0.008780 0.028260 1.820040 
# 
# From -- ./inp_files/271865.got.cif
#   From: 2010.06.25/outbox.cif.g09.slc.cpg/sg2_136_cif.got.tgz:271865.got - 2010.06.27 13:26:56.
