data_PCOD8044974
_publ_section_title
;
Structure prediction by ZEFSAII (Michael W. Deem and Ramdas Pophale) SiO2 
 PCOD8044974
Probable space group: P 2
;
_chemical_formula_sum "Si O2"
_cell_formula_units_Z 9
_cell_length_a 8.839520
_cell_length_b 6.875568
_cell_length_c 10.922503
_cell_angle_alpha 90.000000
_cell_angle_beta 140.724174
_cell_angle_gamma 90.000000
_cell_volume 420.242929
_symmetry_space_group_name_H-M "P 2"
_symmetry_group_IT_number 3
_symmetry_cell_setting 'monoclinic'
loop_
_space_group_symop_operation_xyz
x,y,z
-x,y,-z
loop_
_atom_site_type_symbol
_atom_site_label
_atom_site_fract_x
_atom_site_fract_y
_atom_site_fract_z
Si Si1 0.713299 0.692500 0.546009
Si Si2 0.500000 0.207732 0.000000
Si Si3 0.170268 0.343689 0.213210
Si Si4 0.976513 0.081957 0.675813
Si Si5 0.607596 0.356321 0.325760
O O1 0.500000 0.772169 0.500000
O O2 0.844238 0.522437 0.702259
O O3 0.639846 0.587614 0.371661
O O4 0.886604 0.862157 0.610431
O O5 0.737319 0.077487 0.162414
O O6 0.493672 0.339414 0.119069
O O7 0.429661 0.287310 0.322853
O O8 0.072351 0.151962 0.217105
O O9 0.000000 0.412864 0.000000
O O10 0.844355 0.221624 0.492918
#
# Coordination Sequence:
#
# PCOD8044974 Si02
#       5
#     2   1   2   2   2
#     4   9  20  40  68  95 126 161 214 273 321 365
#     4  12  24  42  66  92 134 180 210 250 324 388
#     4  10  19  39  69  98 121 163 218 267 319 373
#     4  11  22  42  66  95 129 169 210 268 318 378
#     4  10  22  43  66  92 129 168 213 265 322 376
#
# _framework density 21.416183
#
# number of rings (size 3 to 8) (size 9 to 14) (size 15 to 20)
#    0.000    1.778    2.222    4.000    0.000    0.889 
#    8.000   14.444    0.000    0.000    0.000    0.000 
#    0.000    0.000    0.000    0.000    0.000    0.000 
#
# Total GULP energy -111531.386735 kJ/mol
# GULP energy per Si atom -12392.376304 kJ/mol
# Density = 2.136744 g / cm^3
# Si number density = 21.416183 Si / 1000 Ang^3
#
#
#
# Elastic Constant Matrix: (Units=GPa)
#
#
# Indices 1 2 3 4 5 6 
#
# 1 98.6289 57.3345 41.0232 0.0000 6.5740 0.0000
# 2 57.3345 102.3370 39.3994 0.0000 6.9033 0.0000
# 3 41.0232 39.3994 108.8870 0.0000 -2.0670 0.0000
# 4 0.0000 0.0000 0.0000 18.0278 0.0000 4.0742
# 5 6.5740 6.9033 -2.0670 0.0000 52.8938 0.0000
# 6 0.0000 0.0000 0.0000 4.0742 0.0000 15.1225
#
#
#
# Elastic Compliance Matrix: (Units=1/GPa)
#
#
# Indices 1 2 3 4 5 6 
#
# 1 0.016021 -0.007631 -0.003296 0.000000 -0.001124 0.000000
# 2 -0.007631 0.015132 -0.002622 0.000000 -0.001129 0.000000
# 3 -0.003296 -0.002622 0.011397 0.000000 0.001197 0.000000
# 4 0.000000 0.000000 0.000000 0.059066 0.000000 -0.015913
# 5 -0.001124 -0.001129 0.001197 0.000000 0.019240 0.000000
# 6 0.000000 0.000000 0.000000 -0.015913 0.000000 0.070414
#
#
# Mechanical properties :
#
#
# Convention : Reuss Voigt Hill
#
# Bulk Modulus (GPa) = 64.71437 65.04079 64.87758
# Shear Modulus (GPa) = 22.36947 28.68188 25.52567
#
# Velocity S-wave (km/s) = 3.23540 3.66356 3.45612
# Velocity P-wave (km/s) = 6.65133 6.95208 6.80337
#
# Compressibility (1/GPa) = 0.01545252
#
# Stress axis : x y z
#
# Youngs Moduli (GPa) = 62.41869 66.08301 87.74179
#
# Poissons Ratio (x) = 0.50427 0.28920
# Poissons Ratio (y) = 0.47631 0.23006
# Poissons Ratio (z) = 0.20574 0.17327
#
# Static dielectric constant tensor:
#      x y z
#    x 4.025920 0.000000 -0.020260 
#    y 0.000000 3.518920 0.000000 
#    z -0.020260 0.000000 4.139330 
# 
# 
# High freq. dielectric constant tensor:
#      x y z
#    x 1.850480 0.000000 -0.003100 
#    y 0.000000 1.809930 0.000000 
#    z -0.003100 0.000000 1.848560 
# 
# From -- ./inp_files/4777.got.cif
#   From: 2010.03.12/outbox.cif.g09.slc.cpg/sg3_3_cif.got.tgz:4777.got - 2010.03.31 09:20:49.
