data_PCOD8044864
_publ_section_title
;
Structure prediction by ZEFSAII (Michael W. Deem and Ramdas Pophale) SiO2 
 PCOD8044864
Probable space group: P 2
;
_chemical_formula_sum "Si O2"
_cell_formula_units_Z 13
_cell_length_a 10.609471
_cell_length_b 8.767655
_cell_length_c 10.202116
_cell_angle_alpha 90.000000
_cell_angle_beta 139.044210
_cell_angle_gamma 90.000000
_cell_volume 622.048949
_symmetry_space_group_name_H-M "P 2"
_symmetry_group_IT_number 3
_symmetry_cell_setting 'monoclinic'
loop_
_space_group_symop_operation_xyz
x,y,z
-x,y,-z
loop_
_atom_site_type_symbol
_atom_site_label
_atom_site_fract_x
_atom_site_fract_y
_atom_site_fract_z
Si Si1 0.797061 0.973230 0.567336
Si Si2 0.463569 0.554806 0.247092
Si Si3 0.151689 0.667373 0.511281
Si Si4 0.497626 0.214549 0.650695
Si Si5 0.500000 0.791786 0.500000
Si Si6 0.039886 0.508428 0.878977
Si Si7 0.914206 0.164213 0.069191
O O1 0.835304 0.850728 0.482933
O O2 0.679681 0.895125 0.595067
O O3 0.674711 0.118304 0.418171
O O4 0.008531 0.035947 0.770976
O O5 0.637228 0.602611 0.285949
O O6 0.528367 0.395426 0.362158
O O7 0.429649 0.685247 0.327342
O O8 0.261574 0.540453 0.013089
O O9 0.000000 0.611672 0.500000
O O10 0.096671 0.606515 0.322580
O O11 0.500000 0.169534 0.500000
O O12 0.685060 0.163545 0.879134
O O13 0.998570 0.329592 0.823623
O O14 0.000000 0.550136 0.000000
O O15 0.000000 0.113522 0.000000
#
# Coordination Sequence:
#
# PCOD8044864 Si02
#       7
#     2   2   2   2   1   2   2
#     4  11  21  34  54  86 123 160 199 241 305 369
#     4  10  21  37  62  87 121 157 207 256 301 358
#     4  11  26  43  60  85 126 173 211 249 302 364
#     4  11  19  34  58  88 124 156 192 252 317 363
#     4  10  18  32  56  88 122 158 188 246 314 354
#     4  10  21  38  65  98 120 153 205 259 317 361
#     4  10  19  32  57  89 123 152 187 247 308 364
#
# _framework density 20.898678
#
# number of rings (size 3 to 8) (size 9 to 14) (size 15 to 20)
#    0.000    1.538    3.077    2.769    2.154    4.923 
#    0.000    3.077    0.000    1.846    0.000    0.000 
#    0.000    0.000    0.000    0.000    0.000    0.000 
#
# Total GULP energy -161140.371239 kJ/mol
# GULP energy per Si atom -12395.413172 kJ/mol
# Density = 2.085111 g / cm^3
# Si number density = 20.898678 Si / 1000 Ang^3
#
#
#
# Elastic Constant Matrix: (Units=GPa)
#
#
# Indices 1 2 3 4 5 6 
#
# 1 81.5717 11.1694 17.4913 0.0000 17.4130 0.0000
# 2 11.1694 98.4512 37.9802 0.0000 9.9783 0.0000
# 3 17.4913 37.9802 72.8535 0.0000 22.3452 0.0000
# 4 0.0000 0.0000 0.0000 31.8833 0.0000 10.8277
# 5 17.4130 9.9783 22.3452 0.0000 24.2687 0.0000
# 6 0.0000 0.0000 0.0000 10.8277 0.0000 15.0778
#
#
#
# Elastic Compliance Matrix: (Units=1/GPa)
#
#
# Indices 1 2 3 4 5 6 
#
# 1 0.014513 -0.000593 -0.000078 0.000000 -0.010097 0.000000
# 2 -0.000593 0.012765 -0.007014 0.000000 0.001635 0.000000
# 3 -0.000078 -0.007014 0.022993 0.000000 -0.018231 0.000000
# 4 0.000000 0.000000 0.000000 0.041481 0.000000 -0.029788
# 5 -0.010097 0.001635 -0.018231 0.000000 0.064564 0.000000
# 6 0.000000 0.000000 0.000000 -0.029788 0.000000 0.087714
#
#
# Mechanical properties :
#
#
# Convention : Reuss Voigt Hill
#
# Bulk Modulus (GPa) = 28.65285 42.90645 35.77965
# Shear Modulus (GPa) = 18.44806 26.66167 22.55486
#
# Velocity S-wave (km/s) = 2.97431 3.57565 3.28876
# Velocity P-wave (km/s) = 5.05327 6.13370 5.61951
#
# Compressibility (1/GPa) = 0.03490055
#
# Stress axis : x y z
#
# Youngs Moduli (GPa) = 68.90600 78.34202 43.49169
#
# Poissons Ratio (x) = 0.04645 0.00341
# Poissons Ratio (y) = 0.04085 0.30503
# Poissons Ratio (z) = 0.00540 0.54945
#
# Static dielectric constant tensor:
#      x y z
#    x 3.438260 0.000000 0.606390 
#    y 0.000000 4.029710 0.000000 
#    z 0.606390 0.000000 4.480920 
# 
# 
# High freq. dielectric constant tensor:
#      x y z
#    x 1.773520 0.000000 0.042170 
#    y 0.000000 1.838880 0.000000 
#    z 0.042170 0.000000 1.806450 
# 
# From -- ./inp_files/11458.got.cif
#   From: 2010.03.12/outbox.cif.g09.slc.cpg/sg3_6_cif.got.tgz:11458.got - 2010.03.31 09:20:49.
