data_PCOD8044468
_publ_section_title
;
Structure prediction by ZEFSAII (Michael W. Deem and Ramdas Pophale) SiO2 
 PCOD8044468
Probable space group: P -1
;
_chemical_formula_sum "Si O2"
_cell_formula_units_Z 14
_cell_length_a 9.436939
_cell_length_b 19.594080
_cell_length_c 6.226865
_cell_angle_alpha 50.036739
_cell_angle_beta 75.203709
_cell_angle_gamma 39.432375
_cell_volume 487.219538
_symmetry_space_group_name_H-M "P -1"
_symmetry_group_IT_number 2
_symmetry_cell_setting 'triclinic'
loop_
_space_group_symop_operation_xyz
x,y,z
-x,-y,-z
loop_
_atom_site_type_symbol
_atom_site_label
_atom_site_fract_x
_atom_site_fract_y
_atom_site_fract_z
Si Si1 0.498332 0.103077 0.063060
Si Si2 0.459011 0.575835 0.576224
Si Si3 0.226165 0.520872 0.911777
Si Si4 0.208399 0.879693 0.956816
Si Si5 0.364358 0.823643 0.519542
Si Si6 0.651150 0.840275 0.524470
Si Si7 0.939883 0.430407 0.590233
O O1 0.630926 0.134696 0.911550
O O2 0.519312 0.081898 0.355197
O O3 0.655728 0.939905 0.235669
O O4 0.198749 0.246020 0.822603
O O5 0.500000 0.500000 0.500000
O O6 0.335594 0.566519 0.808464
O O7 0.743049 0.475600 0.740048
O O8 0.252390 0.756274 0.256813
O O9 0.217638 0.490415 0.730010
O O10 0.933809 0.659505 0.834864
O O11 0.435909 0.351050 0.285345
O O12 0.308710 0.842774 0.753505
O O13 0.907511 0.053751 0.745376
O O14 0.504954 0.851979 0.374913
O O15 0.000000 0.500000 0.500000
#
# Coordination Sequence:
#
# PCOD8044468 Si02
#       7
#     2   2   2   2   2   2   2
#     4  10  22  41  63  89 121 164 206 257 309 366
#     4  10  20  36  61  93 124 160 201 248 309 371
#     4  11  23  40  63  94 124 160 209 256 302 364
#     4  10  19  38  61  90 120 162 207 247 304 367
#     4  10  20  36  64  87 121 160 210 250 296 366
#     4  10  23  41  61  90 123 164 211 251 306 363
#     4  11  20  38  65  91 124 158 204 249 309 364
#
# _framework density 28.734480000000001
#
# number of rings (size 3 to 8) (size 9 to 14) (size 15 to 20)
#    0.000    1.714    4.286    1.286    4.000    2.857 
#    0.000    5.000    0.000    0.000    0.000    0.000 
#    0.000    0.000    0.000    0.000    0.000    0.000 
#
# Total GULP energy -173694.248667 kJ/mol
# GULP energy per Si atom -12406.732048 kJ/mol
# Density = 2.866908 g / cm^3
# Si number density = 28.734480 Si / 1000 Ang^3
#
#
#
# Elastic Constant Matrix: (Units=GPa)
#
#
# Indices 1 2 3 4 5 6 
#
# 1 228.5553 62.7160 110.8792 -18.8337 -8.2138 -11.7215
# 2 62.7160 143.6473 44.7555 -24.7421 -12.9976 -15.9100
# 3 110.8792 44.7555 186.1239 -54.6543 -15.1558 3.5432
# 4 -18.8337 -24.7421 -54.6543 61.0333 1.0402 0.4450
# 5 -8.2138 -12.9976 -15.1558 1.0402 77.7676 10.5317
# 6 -11.7215 -15.9100 3.5432 0.4450 10.5317 44.9612
#
#
#
# Elastic Compliance Matrix: (Units=1/GPa)
#
#
# Indices 1 2 3 4 5 6 
#
# 1 0.006966 -0.001966 -0.004568 -0.002739 -0.000672 0.001665
# 2 -0.001966 0.008660 -0.000055 0.002823 0.000877 0.002323
# 3 -0.004568 -0.000055 0.010692 0.008131 0.001830 -0.002562
# 4 -0.002739 0.002823 0.008131 0.023945 0.001577 -0.000962
# 5 -0.000672 0.000877 0.001830 0.001577 0.013708 -0.003236
# 6 0.001665 0.002323 -0.002562 -0.000962 -0.003236 0.024467
#
#
# Mechanical properties :
#
#
# Convention : Reuss Voigt Hill
#
# Bulk Modulus (GPa) = 76.09970 110.55865 93.32918
# Shear Modulus (GPa) = 47.17108 59.41745 53.29427
#
# Velocity S-wave (km/s) = 4.05609 4.55225 4.31131
# Velocity P-wave (km/s) = 6.96254 8.13573 7.57189
#
# Compressibility (1/GPa) = 0.01314066
#
# Stress axis : x y z
#
# Youngs Moduli (GPa) = 143.54472 115.47440 93.52364
#
# Poissons Ratio (x) = 0.22708 0.42720
# Poissons Ratio (y) = 0.28228 0.00513
# Poissons Ratio (z) = 0.65569 0.00633
#
# Static dielectric constant tensor:
#      x y z
#    x 6.040550 -0.068730 0.071570 
#    y -0.068730 5.876860 0.418410 
#    z 0.071570 0.418410 5.296710 
# 
# 
# High freq. dielectric constant tensor:
#      x y z
#    x 2.193160 0.019260 0.019970 
#    y 0.019260 2.219930 0.033470 
#    z 0.019970 0.033470 2.180940 
# 
# From -- ./inp_files/182763.got.cif
#   From: 2010.06.25/outbox.cif.g09.slc.cpg/sg2_92_cif.got.tgz:182763.got - 2010.06.27 13:26:56.
