data_PCOD8044519
_publ_section_title
;
Structure prediction by ZEFSAII (Michael W. Deem and Ramdas Pophale) SiO2 
 PCOD8044519
Probable space group: P -1
;
_chemical_formula_sum "Si O2"
_cell_formula_units_Z 10
_cell_length_a 5.694143
_cell_length_b 16.060011
_cell_length_c 9.170208
_cell_angle_alpha 35.379083
_cell_angle_beta 100.192950
_cell_angle_gamma 107.244882
_cell_volume 460.517475
_symmetry_space_group_name_H-M "P -1"
_symmetry_group_IT_number 2
_symmetry_cell_setting 'triclinic'
loop_
_space_group_symop_operation_xyz
x,y,z
-x,-y,-z
loop_
_atom_site_type_symbol
_atom_site_label
_atom_site_fract_x
_atom_site_fract_y
_atom_site_fract_z
Si Si1 0.725439 0.880163 0.997787
Si Si2 0.822259 0.648453 0.141265
Si Si3 0.269961 0.670547 0.370643
Si Si4 0.793347 0.585195 0.903283
Si Si5 0.960431 0.200345 0.606366
O O1 0.700813 0.778829 0.993842
O O2 0.480214 0.821470 0.149210
O O3 0.949260 0.857443 0.151703
O O4 0.776016 0.055610 0.713942
O O5 0.641935 0.482828 0.396034
O O6 0.077339 0.658980 0.235646
O O7 0.874058 0.666155 0.950070
O O8 0.179834 0.682214 0.511888
O O9 0.823843 0.717399 0.597964
O O10 0.500000 0.500000 0.000000
O O11 0.000000 0.500000 0.000000
#
# Coordination Sequence:
#
# PCOD8044519 Si02
#       5
#     2   2   2   2   2
#     4  10  21  38  63  91 125 163 210 263 314 374
#     4  10  22  36  61  91 123 163 213 256 314 370
#     4  10  19  38  62  89 124 160 213 257 310 376
#     4  12  26  44  66  94 129 169 214 263 319 379
#     4  10  22  39  61  93 123 166 210 258 320 375
#
# _framework density 21.714706
#
# number of rings (size 3 to 8) (size 9 to 14) (size 15 to 20)
#    0.000    1.600    2.000    2.400    2.800    0.800 
#    0.000    1.000    0.000    0.000    0.000    0.000 
#    0.000    0.000    0.000    0.000    0.000    0.000 
#
# Total GULP energy -123886.823174 kJ/mol
# GULP energy per Si atom -12388.682317 kJ/mol
# Density = 2.166528 g / cm^3
# Si number density = 21.714706 Si / 1000 Ang^3
#
#
#
# Elastic Constant Matrix: (Units=GPa)
#
#
# Indices 1 2 3 4 5 6 
#
# 1 91.4356 45.9243 29.8145 -7.6165 -26.8873 -7.7359
# 2 45.9243 153.1248 68.0076 -7.9916 -17.3466 -29.5994
# 3 29.8145 68.0076 81.1294 -13.4525 -31.5098 -9.1174
# 4 -7.6165 -7.9916 -13.4525 38.2008 2.7514 -14.0144
# 5 -26.8873 -17.3466 -31.5098 2.7514 38.6211 -1.0274
# 6 -7.7359 -29.5994 -9.1174 -14.0144 -1.0274 26.0131
#
#
#
# Elastic Compliance Matrix: (Units=1/GPa)
#
#
# Indices 1 2 3 4 5 6 
#
# 1 0.015998 -0.003765 0.002984 0.004159 0.011697 0.004222
# 2 -0.003765 0.014700 -0.010400 0.004119 -0.004425 0.014006
# 3 0.002984 -0.010400 0.030820 0.009912 0.022006 0.006065
# 4 0.004159 0.004119 0.009912 0.042616 0.010669 0.032779
# 5 0.011697 -0.004425 0.022006 0.010669 0.049612 0.013864
# 6 0.004222 0.014006 0.006065 0.032779 0.013864 0.075968
#
#
# Mechanical properties :
#
#
# Convention : Reuss Voigt Hill
#
# Bulk Modulus (GPa) = 25.53925 68.13139 46.83532
# Shear Modulus (GPa) = 18.85885 32.69655 25.77770
#
# Velocity S-wave (km/s) = 2.95020 3.88459 3.44918
# Velocity P-wave (km/s) = 4.83650 7.18080 6.12191
#
# Compressibility (1/GPa) = 0.03915542
#
# Stress axis : x y z
#
# Youngs Moduli (GPa) = 62.50792 68.02665 32.44659
#
# Poissons Ratio (x) = 0.25612 -0.09683
# Poissons Ratio (y) = 0.23534 0.33746
# Poissons Ratio (z) = -0.18654 0.70751
#
# Static dielectric constant tensor:
#      x y z
#    x 3.690890 -0.159300 -0.035610 
#    y -0.159300 4.340560 -0.259540 
#    z -0.035610 -0.259540 3.942680 
# 
# 
# High freq. dielectric constant tensor:
#      x y z
#    x 1.834780 -0.011500 -0.014100 
#    y -0.011500 1.865600 -0.010830 
#    z -0.014100 -0.010830 1.841520 
# 
# From -- ./inp_files/15262.got.cif
#   From: 2010.06.25/outbox.cif.g09.slc.cpg/sg2_8_cif.got.tgz:15262.got - 2010.06.27 13:26:56.
