data_PCOD8044011
_publ_section_title
;
Structure prediction by ZEFSAII (Michael W. Deem and Ramdas Pophale) SiO2 
 PCOD8044011
Probable space group: P -1
;
_chemical_formula_sum "Si O2"
_cell_formula_units_Z 16
_cell_length_a 15.564301
_cell_length_b 12.311007
_cell_length_c 9.685569
_cell_angle_alpha 96.984550
_cell_angle_beta 93.636651
_cell_angle_gamma 153.576396
_cell_volume 754.781552
_symmetry_space_group_name_H-M "P -1"
_symmetry_group_IT_number 2
_symmetry_cell_setting 'triclinic'
loop_
_space_group_symop_operation_xyz
x,y,z
-x,-y,-z
loop_
_atom_site_type_symbol
_atom_site_label
_atom_site_fract_x
_atom_site_fract_y
_atom_site_fract_z
Si Si1 0.868452 0.103830 0.792509
Si Si2 0.298834 0.257688 0.850538
Si Si3 0.239574 0.969303 0.938068
Si Si4 0.226448 0.869492 0.477881
Si Si5 0.926963 0.539070 0.636428
Si Si6 0.328855 0.561347 0.284967
Si Si7 0.270145 0.461772 0.947119
Si Si8 0.422115 0.434227 0.331414
O O1 0.767667 0.047808 0.643971
O O2 0.114600 0.362082 0.832012
O O3 0.736973 0.843038 0.777212
O O4 0.853022 0.156152 0.938647
O O5 0.173808 0.008675 0.860952
O O6 0.185230 0.242496 0.859498
O O7 0.373697 0.322914 0.710772
O O8 0.500000 0.500000 0.000000
O O9 0.488042 0.238124 0.019621
O O10 0.119613 0.742254 0.795034
O O11 0.226292 0.742849 0.411329
O O12 0.016400 0.652862 0.508364
O O13 0.425147 0.123783 0.634446
O O14 0.796674 0.497065 0.646914
O O15 0.297018 0.403563 0.319365
O O16 0.244047 0.458291 0.104958
O O17 0.500000 0.500000 0.500000
#
# Coordination Sequence:
#
# PCOD8044011 Si02
#       8
#     2   2   2   2   2   2   2   2
#     4  12  25  40  67 101 133 165 214 268 330 373
#     4  10  19  37  62  90 132 170 204 255 314 385
#     4  11  21  42  64  94 131 171 214 268 310 383
#     4  11  26  47  64  96 134 163 222 281 311 381
#     4  11  25  44  73  90 123 183 221 259 329 377
#     4  12  22  43  71  96 127 172 223 255 325 396
#     4  11  22  39  66  98 131 170 218 256 315 399
#     4  12  23  39  64 101 136 168 200 271 330 379
#
# _framework density 21.198187000000001
#
# number of rings (size 3 to 8) (size 9 to 14) (size 15 to 20)
#    0.000    0.750    8.750    0.375    1.750    3.500 
#    0.000    1.875    0.000    0.000    0.000    0.000 
#    0.000    0.000    0.000    0.000    0.000    0.000 
#
# Total GULP energy -198345.148856 kJ/mol
# GULP energy per Si atom -12396.571803 kJ/mol
# Density = 2.114994 g / cm^3
# Si number density = 21.198187 Si / 1000 Ang^3
#
#
#
# Elastic Constant Matrix: (Units=GPa)
#
#
# Indices 1 2 3 4 5 6 
#
# 1 94.2543 21.3284 26.6643 -15.3306 -14.2975 3.8830
# 2 21.3284 62.9838 12.3892 -1.8149 -0.4853 -6.1701
# 3 26.6643 12.3892 90.7698 -9.1475 -6.4755 2.5329
# 4 -15.3306 -1.8149 -9.1475 31.2045 3.9533 -8.4606
# 5 -14.2975 -0.4853 -6.4755 3.9533 31.0727 4.2830
# 6 3.8830 -6.1701 2.5329 -8.4606 4.2830 28.4094
#
#
#
# Elastic Compliance Matrix: (Units=1/GPa)
#
#
# Indices 1 2 3 4 5 6 
#
# 1 0.013980 -0.004247 -0.002612 0.004596 0.005522 -0.002064
# 2 -0.004247 0.018107 -0.001536 0.000255 -0.002732 0.005138
# 3 -0.002612 -0.001536 0.012289 0.001892 0.001189 -0.000688
# 4 0.004596 0.000255 0.001892 0.038436 -0.003934 0.011298
# 5 0.005522 -0.002732 0.001189 -0.003934 0.036550 -0.008136
# 6 -0.002064 0.005138 -0.000688 0.011298 -0.008136 0.041250
#
#
# Mechanical properties :
#
#
# Convention : Reuss Voigt Hill
#
# Bulk Modulus (GPa) = 36.25311 40.97462 38.61386
# Shear Modulus (GPa) = 26.79536 30.64572 28.72054
#
# Velocity S-wave (km/s) = 3.55919 3.80633 3.68483
# Velocity P-wave (km/s) = 5.83349 6.22003 6.02986
#
# Compressibility (1/GPa) = 0.02758384
#
# Stress axis : x y z
#
# Youngs Moduli (GPa) = 71.53111 55.22644 81.37569
#
# Poissons Ratio (x) = 0.23457 0.21258
# Poissons Ratio (y) = 0.30382 0.12502
# Poissons Ratio (z) = 0.18686 0.08485
#
# Static dielectric constant tensor:
#      x y z
#    x 4.225250 -0.797390 -0.302680 
#    y -0.797390 4.570210 0.391420 
#    z -0.302680 0.391420 3.797110 
# 
# 
# High freq. dielectric constant tensor:
#      x y z
#    x 1.821420 0.005540 -0.018940 
#    y 0.005540 1.823970 0.011790 
#    z -0.018940 0.011790 1.836200 
# 
# From -- ./inp_files/307518.got.cif
#   From: 2010.06.25/outbox.cif.g09.slc.cpg/sg2_154_cif.got.tgz:307518.got - 2010.06.27 13:26:56.
