data_PCOD8044728
_publ_section_title
;
Structure prediction by ZEFSAII (Michael W. Deem and Ramdas Pophale) SiO2 
 PCOD8044728
Probable space group: P -1
;
_chemical_formula_sum "Si O2"
_cell_formula_units_Z 14
_cell_length_a 6.815611
_cell_length_b 10.363621
_cell_length_c 11.333203
_cell_angle_alpha 49.488957
_cell_angle_beta 87.539606
_cell_angle_gamma 76.635957
_cell_volume 585.881515
_symmetry_space_group_name_H-M "P -1"
_symmetry_group_IT_number 2
_symmetry_cell_setting 'triclinic'
loop_
_space_group_symop_operation_xyz
x,y,z
-x,-y,-z
loop_
_atom_site_type_symbol
_atom_site_label
_atom_site_fract_x
_atom_site_fract_y
_atom_site_fract_z
Si Si1 0.211089 0.643231 0.352273
Si Si2 0.969884 0.903843 0.384721
Si Si3 0.126938 0.223555 0.167417
Si Si4 0.821339 0.354156 0.275799
Si Si5 0.066531 0.175971 0.922463
Si Si6 0.658782 0.643321 0.294106
Si Si7 0.446503 0.878870 0.672828
O O1 0.423941 0.690807 0.304893
O O2 0.224297 0.464348 0.530749
O O3 0.062573 0.813359 0.315674
O O4 0.106967 0.647894 0.223612
O O5 0.011060 0.763268 0.571495
O O6 0.728781 0.993277 0.318134
O O7 0.082387 0.051569 0.331035
O O8 0.359845 0.219077 0.193408
O O9 0.953755 0.385420 0.138732
O O10 0.091248 0.211858 0.036887
O O11 0.707704 0.533653 0.236752
O O12 0.638342 0.271021 0.296051
O O13 0.270709 0.179996 0.839642
O O14 0.000000 0.000000 0.000000
O O15 0.500000 0.000000 0.500000
#
# Coordination Sequence:
#
# PCOD8044728 Si02
#       7
#     2   2   2   2   2   2   2
#     4  10  23  48  67  99 136 182 232 276 333 412
#     4  10  19  38  65  99 135 168 231 276 329 401
#     4  11  22  39  63 102 135 175 220 281 348 396
#     4  10  21  40  65  99 136 170 229 280 330 412
#     4  12  26  46  68 100 140 182 228 288 343 406
#     4  10  25  46  73  98 134 185 231 278 343 409
#     4  11  19  35  65 101 134 176 218 281 340 393
#
# _framework density 23.895617000000001
#
# number of rings (size 3 to 8) (size 9 to 14) (size 15 to 20)
#    0.000    1.429    4.286    1.286    0.000    5.714 
#    2.571    1.429    0.000    0.000    0.000    0.000 
#    0.000    0.000    0.000    0.000    0.000    0.000 
#
# Total GULP energy -173503.422982 kJ/mol
# GULP energy per Si atom -12393.101642 kJ/mol
# Density = 2.384123 g / cm^3
# Si number density = 23.895617 Si / 1000 Ang^3
#
#
#
# Elastic Constant Matrix: (Units=GPa)
#
#
# Indices 1 2 3 4 5 6 
#
# 1 154.6823 56.5519 54.9127 13.9572 -2.6173 -4.5179
# 2 56.5519 80.4700 43.3764 16.9184 0.0464 -8.1626
# 3 54.9127 43.3764 107.4930 29.7330 -9.2242 9.3401
# 4 13.9572 16.9184 29.7330 22.8513 14.4264 0.1480
# 5 -2.6173 0.0464 -9.2242 14.4264 48.6426 1.0717
# 6 -4.5179 -8.1626 9.3401 0.1480 1.0717 35.8657
#
#
#
# Elastic Compliance Matrix: (Units=1/GPa)
#
#
# Indices 1 2 3 4 5 6 
#
# 1 0.009476 -0.005225 -0.004301 0.004769 -0.001741 0.001157
# 2 -0.005225 0.020200 -0.003627 -0.007855 0.001234 0.004879
# 3 -0.004301 -0.003627 0.025638 -0.038183 0.016142 -0.008369
# 4 0.004769 -0.007855 -0.038183 0.124047 -0.043977 0.009559
# 5 -0.001741 0.001234 0.016142 -0.043977 0.036679 -0.005057
# 6 0.001157 0.004879 -0.008369 0.009559 -0.005057 0.031429
#
#
# Mechanical properties :
#
#
# Convention : Reuss Voigt Hill
#
# Bulk Modulus (GPa) = 34.47535 72.48081 53.47808
# Shear Modulus (GPa) = 17.64004 33.99220 25.81612
#
# Velocity S-wave (km/s) = 2.71995 3.77573 3.29046
# Velocity P-wave (km/s) = 4.93183 7.02896 6.07163
#
# Compressibility (1/GPa) = 0.02900623
#
# Stress axis : x y z
#
# Youngs Moduli (GPa) = 105.52668 49.50456 39.00463
#
# Poissons Ratio (x) = 0.25868 0.16777
# Poissons Ratio (y) = 0.55141 0.14149
# Poissons Ratio (z) = 0.45391 0.17957
#
# Static dielectric constant tensor:
#      x y z
#    x 4.605910 -0.025550 -0.150000 
#    y -0.025550 4.352670 0.159020 
#    z -0.150000 0.159020 4.483230 
# 
# 
# High freq. dielectric constant tensor:
#      x y z
#    x 1.958840 0.003480 -0.010700 
#    y 0.003480 1.936710 0.014170 
#    z -0.010700 0.014170 1.950490 
# 
# From -- ./inp_files/80472.got.cif
#   From: 2010.06.25/outbox.cif.g09.slc.cpg/sg2_41_cif.got.tgz:80472.got - 2010.06.27 13:26:56.
