data_PCOD8044996
_publ_section_title
;
Structure prediction by ZEFSAII (Michael W. Deem and Ramdas Pophale) SiO2 
 PCOD8044996
Probable space group: P 2
;
_chemical_formula_sum "Si O2"
_cell_formula_units_Z 16
_cell_length_a 13.452232
_cell_length_b 10.322507
_cell_length_c 8.265561
_cell_angle_alpha 90.000000
_cell_angle_beta 138.661038
_cell_angle_gamma 90.000000
_cell_volume 758.111066
_symmetry_space_group_name_H-M "P 2"
_symmetry_group_IT_number 3
_symmetry_cell_setting 'monoclinic'
loop_
_space_group_symop_operation_xyz
x,y,z
-x,y,-z
loop_
_atom_site_type_symbol
_atom_site_label
_atom_site_fract_x
_atom_site_fract_y
_atom_site_fract_z
Si Si1 0.318909 0.040430 0.283955
Si Si2 0.665139 0.576081 0.637881
Si Si3 0.663020 0.236297 0.135899
Si Si4 0.335278 0.494513 0.731637
Si Si5 0.841522 0.729885 0.389797
Si Si6 0.163581 0.816345 0.251444
Si Si7 0.176173 0.990231 0.762693
Si Si8 0.662530 0.318228 0.764409
O O1 0.500000 0.027325 0.500000
O O2 0.278939 0.192789 0.265675
O O3 0.264665 0.946978 0.362234
O O4 0.225243 0.003157 0.008649
O O5 0.500000 0.614824 0.500000
O O6 0.657279 0.536540 0.442158
O O7 0.768779 0.703745 0.782053
O O8 0.747700 0.455360 0.834009
O O9 0.739723 0.351420 0.336402
O O10 0.762706 0.107664 0.271066
O O11 0.500000 0.195082 0.000000
O O12 0.655488 0.284158 0.942539
O O13 0.255448 0.599909 0.748167
O O14 0.500000 0.471154 0.000000
O O15 0.854915 0.763563 0.592959
O O16 0.000000 0.701283 0.500000
O O17 0.754745 0.850868 0.201993
O O18 0.000000 0.859752 0.000000
O O19 0.000000 0.982257 0.500000
O O20 0.500000 0.358181 0.500000
#
# Coordination Sequence:
#
# PCOD8044996 Si02
#       8
#     2   2   2   2   2   2   2   2
#     4  10  22  40  62  89 117 154 198 239 288 348
#     4  10  20  36  57  82 112 149 191 238 288 343
#     4  10  20  34  56  86 114 148 192 238 285 343
#     4  10  21  35  56  86 113 146 193 239 286 341
#     4  10  23  39  56  80 114 153 192 237 292 347
#     4  11  23  38  58  85 116 152 195 242 293 348
#     4  10  22  40  59  84 119 156 192 237 294 347
#     4   9  18  34  57  82 112 146 187 240 290 335
#
# _framework density 21.105087999999999
#
# number of rings (size 3 to 8) (size 9 to 14) (size 15 to 20)
#    0.000    2.000    0.000    4.875    0.000   11.000 
#    0.000    4.375    0.000    0.000    0.000    0.000 
#    0.000    0.000    0.000    0.000    0.000    0.000 
#
# Total GULP energy -198234.283697 kJ/mol
# GULP energy per Si atom -12389.642731 kJ/mol
# Density = 2.105705 g / cm^3
# Si number density = 21.105088 Si / 1000 Ang^3
#
#
#
# Elastic Constant Matrix: (Units=GPa)
#
#
# Indices 1 2 3 4 5 6 
#
# 1 95.4973 56.6803 8.7942 0.0000 10.7276 0.0000
# 2 56.6803 133.6034 2.6099 0.0000 20.3196 0.0000
# 3 8.7942 2.6099 57.8261 0.0000 3.0570 0.0000
# 4 0.0000 0.0000 0.0000 -3.0099 0.0000 15.5862
# 5 10.7276 20.3196 3.0570 0.0000 19.5589 0.0000
# 6 0.0000 0.0000 0.0000 15.5862 0.0000 15.3553
#
#
#
# Elastic Compliance Matrix: (Units=1/GPa)
#
#
# Indices 1 2 3 4 5 6 
#
# 1 0.014237 -0.005772 -0.001824 0.000000 -0.001527 0.000000
# 2 -0.005772 0.011230 0.000827 0.000000 -0.008630 0.000000
# 3 -0.001824 0.000827 0.017672 0.000000 -0.002621 0.000000
# 4 0.000000 0.000000 0.000000 -0.053105 0.000000 0.053904
# 5 -0.001527 -0.008630 -0.002621 0.000000 0.061341 0.000000
# 6 0.000000 0.000000 0.000000 0.053904 0.000000 0.010410
#
#
# Mechanical properties :
#
#
# Convention : Reuss Voigt Hill
#
# Bulk Modulus (GPa) = 33.78239 47.01061 40.39650
# Shear Modulus (GPa) = 58.69379 20.97036 39.83207
#
# Velocity S-wave (km/s) = 5.27926 3.15559 4.34904
# Velocity P-wave (km/s) = 7.29399 5.96656 6.66342
#
# Compressibility (1/GPa) = 0.02960122
#
# Stress axis : x y z
#
# Youngs Moduli (GPa) = 70.24027 89.04741 56.58718
#
# Poissons Ratio (x) = 0.51398 0.10321
# Poissons Ratio (y) = 0.40543 -0.04681
# Poissons Ratio (z) = 0.12811 -0.07366
#
# Static dielectric constant tensor:
#      x y z
#    x 3.930510 0.000000 -0.003040 
#    y 0.000000 4.653020 0.000000 
#    z -0.003040 0.000000 3.573960 
# 
# 
# High freq. dielectric constant tensor:
#      x y z
#    x 1.822370 0.000000 -0.012690 
#    y 0.000000 1.861910 0.000000 
#    z -0.012690 0.000000 1.797160 
# 
# From -- ./inp_files/7763.got.cif
#   From: 2010.03.12/outbox.cif.g09.slc.cpg/sg3_4_cif.got.tgz:7763.got - 2010.03.31 09:20:49.
