data_PCOD8044434
_publ_section_title
;
Structure prediction by ZEFSAII (Michael W. Deem and Ramdas Pophale) SiO2 
 PCOD8044434
Probable space group: P -1
;
_chemical_formula_sum "Si O2"
_cell_formula_units_Z 14
_cell_length_a 8.634870
_cell_length_b 7.662141
_cell_length_c 11.485391
_cell_angle_alpha 81.751346
_cell_angle_beta 74.340332
_cell_angle_gamma 124.061302
_cell_volume 563.289581
_symmetry_space_group_name_H-M "P -1"
_symmetry_group_IT_number 2
_symmetry_cell_setting 'triclinic'
loop_
_space_group_symop_operation_xyz
x,y,z
-x,-y,-z
loop_
_atom_site_type_symbol
_atom_site_label
_atom_site_fract_x
_atom_site_fract_y
_atom_site_fract_z
Si Si1 0.126185 0.258540 0.697918
Si Si2 0.299364 0.059764 0.554348
Si Si3 0.403661 0.799023 0.132347
Si Si4 0.322639 0.161105 0.114873
Si Si5 0.475779 0.921631 0.697802
Si Si6 0.938337 0.414951 0.274554
Si Si7 0.387708 0.404441 0.858681
O O1 0.251960 0.228684 0.582986
O O2 0.122228 0.460720 0.640836
O O3 0.214650 0.307374 0.806363
O O4 0.894496 0.031391 0.768883
O O5 0.389969 0.128442 0.398658
O O6 0.472994 0.099269 0.602741
O O7 0.092525 0.790895 0.629284
O O8 0.469705 0.664922 0.198054
O O9 0.167158 0.603359 0.158090
O O10 0.415843 0.966342 0.210447
O O11 0.572000 0.928984 0.975530
O O12 0.475445 0.322775 0.175993
O O13 0.289888 0.300796 0.017544
O O14 0.233431 0.698027 0.784603
#
# Coordination Sequence:
#
# PCOD8044434 Si02
#       7
#     2   2   2   2   2   2   2
#     4  12  21  38  64  88 119 158 190 244 296 341
#     4   9  20  42  59  86 120 152 196 247 284 357
#     4  10  19  38  61  82 122 158 188 245 291 344
#     4   9  21  35  59  90 118 154 202 234 285 360
#     4   9  20  41  60  83 118 158 194 240 298 343
#     4  10  23  36  60  92 117 151 201 238 293 352
#     4   9  19  35  60  84 118 160 192 233 293 345
#
# _framework density 24.853999999999999
#
# number of rings (size 3 to 8) (size 9 to 14) (size 15 to 20)
#    1.714    0.571    1.429    1.286    0.000    4.000 
#    0.000    2.143    0.000    0.000    0.000    1.000 
#    0.000    0.000    0.000    0.000    0.000    0.000 
#
# Total GULP energy -173475.348740 kJ/mol
# GULP energy per Si atom -12391.096339 kJ/mol
# Density = 2.479743 g / cm^3
# Si number density = 24.854000 Si / 1000 Ang^3
#
#
#
# Elastic Constant Matrix: (Units=GPa)
#
#
# Indices 1 2 3 4 5 6 
#
# 1 72.0629 24.1096 21.8300 11.5670 -14.3577 4.8514
# 2 24.1096 116.8160 35.0536 14.1705 -1.4286 21.5647
# 3 21.8300 35.0536 98.3115 16.6442 -5.4430 18.9790
# 4 11.5670 14.1705 16.6442 33.0396 -3.7077 -11.8301
# 5 -14.3577 -1.4286 -5.4430 -3.7077 28.6510 3.4406
# 6 4.8514 21.5647 18.9790 -11.8301 3.4406 58.7342
#
#
#
# Elastic Compliance Matrix: (Units=1/GPa)
#
#
# Indices 1 2 3 4 5 6 
#
# 1 0.017451 -0.002286 -0.001724 -0.003826 0.007962 -0.001282
# 2 -0.002286 0.010874 -0.001893 -0.004472 -0.001058 -0.004031
# 3 -0.001724 -0.001893 0.013451 -0.007005 0.001291 -0.004996
# 4 -0.003826 -0.004472 -0.007005 0.041601 0.000402 0.012577
# 5 0.007962 -0.001058 0.001291 0.000402 0.039488 -0.002919
# 6 -0.001282 -0.004031 -0.004996 0.012577 -0.002919 0.022930
#
#
# Mechanical properties :
#
#
# Convention : Reuss Voigt Hill
#
# Bulk Modulus (GPa) = 33.36641 49.90850 41.63746
# Shear Modulus (GPa) = 29.83462 37.83147 33.83305
#
# Velocity S-wave (km/s) = 3.46843 3.90570 3.69354
# Velocity P-wave (km/s) = 5.43085 6.36110 5.91429
#
# Compressibility (1/GPa) = 0.02997026
#
# Stress axis : x y z
#
# Youngs Moduli (GPa) = 57.30452 91.96322 74.34273
#
# Poissons Ratio (x) = 0.21025 0.12814
# Poissons Ratio (y) = 0.13101 0.14072
# Poissons Ratio (z) = 0.09877 0.17408
#
# Static dielectric constant tensor:
#      x y z
#    x 4.575700 -0.387180 0.030690 
#    y -0.387180 4.655210 -0.036740 
#    z 0.030690 -0.036740 3.955260 
# 
# 
# High freq. dielectric constant tensor:
#      x y z
#    x 2.007530 -0.026660 0.005680 
#    y -0.026660 2.003580 -0.002290 
#    z 0.005680 -0.002290 1.965330 
# 
# From -- ./inp_files/382278.got.cif
#   From: 2010.06.25/outbox.cif.g09.slc.cpg/sg2_192_cif.got.tgz:382278.got - 2010.06.27 13:26:56.
