data_PCOD8044791
_publ_section_title
;
Structure prediction by ZEFSAII (Michael W. Deem and Ramdas Pophale) SiO2 
 PCOD8044791
Probable space group: P -1
;
_chemical_formula_sum "Si O2"
_cell_formula_units_Z 16
_cell_length_a 22.998157
_cell_length_b 14.603386
_cell_length_c 9.212777
_cell_angle_alpha 127.365730
_cell_angle_beta 48.496079
_cell_angle_gamma 159.888406
_cell_volume 795.355531
_symmetry_space_group_name_H-M "P -1"
_symmetry_group_IT_number 2
_symmetry_cell_setting 'triclinic'
loop_
_space_group_symop_operation_xyz
x,y,z
-x,-y,-z
loop_
_atom_site_type_symbol
_atom_site_label
_atom_site_fract_x
_atom_site_fract_y
_atom_site_fract_z
Si Si1 0.786884 0.987061 0.107160
Si Si2 0.052311 0.563617 0.641696
Si Si3 0.486490 0.687280 0.505329
Si Si4 0.724786 0.978171 0.653912
Si Si5 0.577448 0.987913 0.424809
Si Si6 0.819281 0.840776 0.319893
Si Si7 0.570786 0.777780 0.022740
Si Si8 0.180415 0.212050 0.058107
O O1 0.605204 0.756697 0.282291
O O2 0.709508 0.874515 0.962667
O O3 0.926256 0.278479 0.179811
O O4 0.892946 0.014033 0.000327
O O5 0.236201 0.739483 0.535684
O O6 0.000000 0.500000 0.500000
O O7 0.895141 0.283101 0.711545
O O8 0.612019 0.889663 0.628677
O O9 0.302402 0.382123 0.569439
O O10 0.448340 0.748896 0.525922
O O11 0.780913 0.925347 0.458980
O O12 0.596041 0.802362 0.834388
O O13 0.500000 0.000000 0.500000
O O14 0.616153 0.962046 0.194843
O O15 0.779795 0.727225 0.121436
O O16 0.030651 0.102781 0.254474
O O17 0.359964 0.472032 0.104924
#
# Coordination Sequence:
#
# PCOD8044791 Si02
#       8
#     2   2   2   2   2   2   2   2
#     4  10  21  40  61  87 126 164 207 256 307 377
#     4  10  19  38  67  91 114 170 218 246 303 375
#     4  10  19  41  64  88 119 168 210 249 305 374
#     4  12  20  39  67  94 120 165 219 251 299 382
#     4  10  24  44  64  89 135 164 198 266 324 366
#     4  11  23  35  63  96 126 158 207 274 296 363
#     4  10  23  39  63  90 121 167 207 253 318 371
#     4  11  21  39  59  93 129 159 207 257 325 352
#
# _framework density 20.116789000000001
#
# number of rings (size 3 to 8) (size 9 to 14) (size 15 to 20)
#    0.000    1.750    5.000    1.500    1.750    3.000 
#    4.500    3.750    0.000    0.000    0.000    0.000 
#    0.000    0.000    0.000    0.000    0.000    0.000 
#
# Total GULP energy -198288.298913 kJ/mol
# GULP energy per Si atom -12393.018682 kJ/mol
# Density = 2.007100 g / cm^3
# Si number density = 20.116789 Si / 1000 Ang^3
#
#
#
# Elastic Constant Matrix: (Units=GPa)
#
#
# Indices 1 2 3 4 5 6 
#
# 1 135.1390 25.3796 35.2746 0.9875 -3.5185 -1.4290
# 2 25.3796 109.0997 21.1009 3.3279 -4.7742 -0.5020
# 3 35.2746 21.1009 70.3267 -4.1048 2.3820 0.8457
# 4 0.9875 3.3279 -4.1048 20.8822 2.1378 10.7307
# 5 -3.5185 -4.7742 2.3820 2.1378 25.0255 4.0516
# 6 -1.4290 -0.5020 0.8457 10.7307 4.0516 30.3853
#
#
#
# Elastic Compliance Matrix: (Units=1/GPa)
#
#
# Indices 1 2 3 4 5 6 
#
# 1 0.008769 -0.001105 -0.004224 -0.001686 0.001420 0.000918
# 2 -0.001105 0.010133 -0.002731 -0.002773 0.002131 0.000887
# 3 -0.004224 -0.002731 0.017609 0.005585 -0.002892 -0.002321
# 4 -0.001686 -0.002773 0.005585 0.060785 -0.003035 -0.021342
# 5 0.001420 0.002131 -0.002892 -0.003035 0.041799 -0.004319
# 6 0.000918 0.000887 -0.002321 -0.021342 -0.004319 0.041146
#
#
# Mechanical properties :
#
#
# Convention : Reuss Voigt Hill
#
# Bulk Modulus (GPa) = 49.04097 53.11953 51.08025
# Shear Modulus (GPa) = 24.61125 30.77928 27.69526
#
# Velocity S-wave (km/s) = 3.50153 3.91580 3.71445
# Velocity P-wave (km/s) = 6.38582 6.84891 6.62142
#
# Compressibility (1/GPa) = 0.02039111
#
# Stress axis : x y z
#
# Youngs Moduli (GPa) = 114.03861 98.68664 56.78797
#
# Poissons Ratio (x) = 0.10906 0.23989
# Poissons Ratio (y) = 0.12603 0.15507
# Poissons Ratio (z) = 0.48173 0.26949
#
# Static dielectric constant tensor:
#      x y z
#    x 3.850060 -0.028100 0.168410 
#    y -0.028100 3.816610 0.063520 
#    z 0.168410 0.063520 3.428190 
# 
# 
# High freq. dielectric constant tensor:
#      x y z
#    x 1.791590 0.001600 0.018440 
#    y 0.001600 1.783960 0.009530 
#    z 0.018440 0.009530 1.763340 
# 
# From -- ./inp_files/354585.got.cif
#   From: 2010.06.25/outbox.cif.g09.slc.cpg/sg2_178_cif.got.tgz:354585.got - 2010.06.27 13:26:56.
