data_PCOD8044192
_publ_section_title
;
Structure prediction by ZEFSAII (Michael W. Deem and Ramdas Pophale) SiO2 
 PCOD8044192
Probable space group: P -1
;
_chemical_formula_sum "Si O2"
_cell_formula_units_Z 16
_cell_length_a 8.389131
_cell_length_b 23.068534
_cell_length_c 6.345824
_cell_angle_alpha 129.970815
_cell_angle_beta 109.125244
_cell_angle_gamma 47.296881
_cell_volume 678.793434
_symmetry_space_group_name_H-M "P -1"
_symmetry_group_IT_number 2
_symmetry_cell_setting 'triclinic'
loop_
_space_group_symop_operation_xyz
x,y,z
-x,-y,-z
loop_
_atom_site_type_symbol
_atom_site_label
_atom_site_fract_x
_atom_site_fract_y
_atom_site_fract_z
Si Si1 0.033375 0.091082 0.422360
Si Si2 0.834503 0.641360 0.765115
Si Si3 0.906359 0.762172 0.317505
Si Si4 0.372876 0.756704 0.118488
Si Si5 0.704584 0.125199 0.032292
Si Si6 0.679012 0.537782 0.349408
Si Si7 0.389028 0.605502 0.991979
Si Si8 0.688234 0.745427 0.537076
O O1 0.157412 0.135154 0.545059
O O2 0.856937 0.144644 0.659051
O O3 0.217433 0.974352 0.282086
O O4 0.912878 0.105006 0.184787
O O5 0.655057 0.623018 0.676003
O O6 0.850122 0.650670 0.540863
O O7 0.058197 0.550074 0.759601
O O8 0.766595 0.742102 0.070520
O O9 0.833042 0.769712 0.546399
O O10 0.168246 0.674110 0.199483
O O11 0.394529 0.783822 0.957036
O O12 0.366915 0.666418 0.921731
O O13 0.588190 0.719193 0.255387
O O14 0.514029 0.159771 0.197880
O O15 0.584209 0.576441 0.163467
O O16 0.573657 0.492048 0.299001
#
# Coordination Sequence:
#
# PCOD8044192 Si02
#       8
#     2   2   2   2   2   2   2   2
#     4   9  21  39  61  95 123 155 209 259 297 364
#     4  10  20  38  62  88 126 166 197 249 318 363
#     4  10  22  38  61  90 127 162 200 253 306 363
#     4  10  19  37  65  91 122 162 202 253 309 362
#     4  10  21  39  65  89 122 165 204 250 311 363
#     4   9  18  36  65  90 124 155 208 259 302 365
#     4   9  18  37  64  95 124 155 207 262 298 356
#     4  11  22  38  58  87 124 168 204 244 305 372
#
# _framework density 23.571235999999999
#
# number of rings (size 3 to 8) (size 9 to 14) (size 15 to 20)
#    0.000    2.250    1.250    1.125    0.000    3.500 
#    0.000    8.750    5.500    0.000    0.000    0.000 
#    0.000    0.000    0.000    0.000    0.000    0.000 
#
# Total GULP energy -198261.041503 kJ/mol
# GULP energy per Si atom -12391.315094 kJ/mol
# Density = 2.351759 g / cm^3
# Si number density = 23.571236 Si / 1000 Ang^3
#
#
#
# Elastic Constant Matrix: (Units=GPa)
#
#
# Indices 1 2 3 4 5 6 
#
# 1 143.3834 50.4194 49.2873 2.4455 1.3215 24.8392
# 2 50.4194 121.9350 37.3503 6.7959 13.1178 19.5547
# 3 49.2873 37.3503 77.3952 8.8274 32.7324 16.6614
# 4 2.4455 6.7959 8.8274 35.8912 11.5979 6.1307
# 5 1.3215 13.1178 32.7324 11.5979 40.0953 -4.7569
# 6 24.8392 19.5547 16.6614 6.1307 -4.7569 35.6813
#
#
#
# Elastic Compliance Matrix: (Units=1/GPa)
#
#
# Indices 1 2 3 4 5 6 
#
# 1 0.010961 -0.002478 -0.008655 -0.000367 0.007482 -0.001170
# 2 -0.002478 0.010594 -0.001768 -0.000033 -0.002354 -0.003564
# 3 -0.008655 -0.001768 0.034647 0.004633 -0.030427 -0.014037
# 4 -0.000367 -0.000033 0.004633 0.033042 -0.014443 -0.009493
# 5 0.007482 -0.002354 -0.030427 -0.014443 0.056896 0.020356
# 6 -0.001170 -0.003564 -0.014037 -0.009493 0.020356 0.041693
#
#
# Mechanical properties :
#
#
# Convention : Reuss Voigt Hill
#
# Bulk Modulus (GPa) = 32.89457 68.53638 50.71548
# Shear Modulus (GPa) = 22.34454 36.04401 29.19427
#
# Velocity S-wave (km/s) = 3.08223 3.91468 3.52313
# Velocity P-wave (km/s) = 5.16261 7.04076 6.17353
#
# Compressibility (1/GPa) = 0.03040015
#
# Stress axis : x y z
#
# Youngs Moduli (GPa) = 91.23446 94.39474 28.86236
#
# Poissons Ratio (x) = 0.23390 0.24980
# Poissons Ratio (y) = 0.22607 0.05103
# Poissons Ratio (z) = 0.78963 0.16688
#
# Static dielectric constant tensor:
#      x y z
#    x 4.428320 0.187540 0.358640 
#    y 0.187540 4.337730 0.223470 
#    z 0.358640 0.223470 4.397030 
# 
# 
# High freq. dielectric constant tensor:
#      x y z
#    x 1.938930 0.003060 0.011860 
#    y 0.003060 1.935100 0.010090 
#    z 0.011860 0.010090 1.919650 
# 
# From -- ./inp_files/55750.got.cif
#   From: 2010.06.25/outbox.cif.g09.slc.cpg/sg2_28_cif.got.tgz:55750.got - 2010.06.27 13:26:56.
