data_PCOD8044298
_publ_section_title
;
Structure prediction by ZEFSAII (Michael W. Deem and Ramdas Pophale) SiO2 
 PCOD8044298
Probable space group: P -1
;
_chemical_formula_sum "Si O2"
_cell_formula_units_Z 14
_cell_length_a 19.914712
_cell_length_b 13.177125
_cell_length_c 8.717418
_cell_angle_alpha 39.824852
_cell_angle_beta 132.448400
_cell_angle_gamma 154.534774
_cell_volume 628.514983
_symmetry_space_group_name_H-M "P -1"
_symmetry_group_IT_number 2
_symmetry_cell_setting 'triclinic'
loop_
_space_group_symop_operation_xyz
x,y,z
-x,-y,-z
loop_
_atom_site_type_symbol
_atom_site_label
_atom_site_fract_x
_atom_site_fract_y
_atom_site_fract_z
Si Si1 0.646374 0.092652 0.972331
Si Si2 0.129621 0.810029 0.171964
Si Si3 0.124069 0.039475 0.610767
Si Si4 0.681264 0.442550 0.827495
Si Si5 0.677629 0.192081 0.563160
Si Si6 0.922594 0.732561 0.125674
Si Si7 0.924129 0.309586 0.246653
O O1 0.650219 0.264752 0.861843
O O2 0.724252 0.233271 0.764236
O O3 0.742095 0.102790 0.209829
O O4 0.472710 0.772911 0.053228
O O5 0.290157 0.938671 0.310720
O O6 0.065538 0.812710 0.218509
O O7 0.009191 0.493071 0.317593
O O8 0.151505 0.960415 0.887646
O O9 0.290724 0.356127 0.458337
O O10 0.066356 0.865290 0.569188
O O11 0.000000 0.000000 0.500000
O O12 0.836748 0.634323 0.944575
O O13 0.794376 0.488179 0.331230
O O14 0.500000 0.000000 0.500000
O O15 0.000000 0.000000 0.000000
O O16 0.000000 0.500000 0.000000
#
# Coordination Sequence:
#
# PCOD8044298 Si02
#       7
#     2   2   2   2   2   2   2
#     4  11  22  44  71  98 136 185 234 285 348 426
#     4  11  24  44  70 103 135 190 237 283 353 432
#     4  11  21  36  69 101 134 166 231 296 341 398
#     4  11  24  41  69 106 136 178 236 288 356 415
#     4  12  26  47  72  99 144 195 231 285 356 430
#     4  12  27  44  70 107 146 183 238 295 354 421
#     4  10  19  37  69  98 126 171 233 284 338 411
#
# _framework density 22.274728
#
# number of rings (size 3 to 8) (size 9 to 14) (size 15 to 20)
#    0.000    0.857    7.143    1.286    4.000    0.571 
#    0.000    0.714    3.143    0.000    0.000    0.000 
#    0.000    0.000    0.000    0.000    0.000    0.000 
#
# Total GULP energy -173476.803935 kJ/mol
# GULP energy per Si atom -12391.200281 kJ/mol
# Density = 2.222403 g / cm^3
# Si number density = 22.274728 Si / 1000 Ang^3
#
#
#
# Elastic Constant Matrix: (Units=GPa)
#
#
# Indices 1 2 3 4 5 6 
#
# 1 137.5809 48.7040 49.2755 -23.0777 23.0222 8.0122
# 2 48.7040 92.2596 48.5979 -16.8892 16.1533 10.2674
# 3 49.2755 48.5979 122.9579 -26.4041 6.7438 13.4326
# 4 -23.0777 -16.8892 -26.4041 43.2829 5.3244 9.0394
# 5 23.0222 16.1533 6.7438 5.3244 45.9134 -0.7830
# 6 8.0122 10.2674 13.4326 9.0394 -0.7830 35.0793
#
#
#
# Elastic Compliance Matrix: (Units=1/GPa)
#
#
# Indices 1 2 3 4 5 6 
#
# 1 0.010508 -0.002800 -0.001631 0.004548 -0.004610 -0.002231
# 2 -0.002800 0.016174 -0.003823 0.003778 -0.004226 -0.003698
# 3 -0.001631 -0.003823 0.012144 0.006086 -0.000407 -0.004736
# 4 0.004548 0.003778 0.006086 0.034631 -0.008751 -0.013594
# 5 -0.004610 -0.004226 -0.000407 -0.008751 0.026743 0.005298
# 6 -0.002231 -0.003698 -0.004736 -0.013594 0.005298 0.035534
#
#
# Mechanical properties :
#
#
# Convention : Reuss Voigt Hill
#
# Bulk Modulus (GPa) = 44.80857 71.77258 58.29058
# Shear Modulus (GPa) = 31.31193 38.60321 34.95757
#
# Velocity S-wave (km/s) = 3.75335 4.16751 3.96584
# Velocity P-wave (km/s) = 6.24048 7.44641 6.86995
#
# Compressibility (1/GPa) = 0.02231716
#
# Stress axis : x y z
#
# Youngs Moduli (GPa) = 95.16491 61.82660 82.34238
#
# Poissons Ratio (x) = 0.17312 0.13432
# Poissons Ratio (y) = 0.26647 0.31483
# Poissons Ratio (z) = 0.15524 0.23639
#
# Static dielectric constant tensor:
#      x y z
#    x 4.634550 0.122050 0.450550 
#    y 0.122050 4.289540 -0.202610 
#    z 0.450550 -0.202610 4.850550 
# 
# 
# High freq. dielectric constant tensor:
#      x y z
#    x 1.890340 0.011390 0.000910 
#    y 0.011390 1.854870 -0.004950 
#    z 0.000910 -0.004950 1.884160 
# 
# From -- ./inp_files/332763.got.cif
#   From: 2010.06.25/outbox.cif.g09.slc.cpg/sg2_167_cif.got.tgz:332763.got - 2010.06.27 13:26:56.
