data_PCOD8044512
_publ_section_title
;
Structure prediction by ZEFSAII (Michael W. Deem and Ramdas Pophale) SiO2 
 PCOD8044512
Probable space group: P -1
;
_chemical_formula_sum "Si O2"
_cell_formula_units_Z 14
_cell_length_a 10.300916
_cell_length_b 7.397814
_cell_length_c 17.082035
_cell_angle_alpha 107.964665
_cell_angle_beta 142.461570
_cell_angle_gamma 87.550627
_cell_volume 707.240801
_symmetry_space_group_name_H-M "P -1"
_symmetry_group_IT_number 2
_symmetry_cell_setting 'triclinic'
loop_
_space_group_symop_operation_xyz
x,y,z
-x,-y,-z
loop_
_atom_site_type_symbol
_atom_site_label
_atom_site_fract_x
_atom_site_fract_y
_atom_site_fract_z
Si Si1 0.615292 0.392913 0.712547
Si Si2 0.406652 0.502350 0.112469
Si Si3 0.369592 0.812468 0.020584
Si Si4 0.857640 0.791382 0.614100
Si Si5 0.318672 0.759269 0.805465
Si Si6 0.941825 0.158580 0.804478
Si Si7 0.866161 0.761092 0.785300
O O1 0.656134 0.404081 0.826192
O O2 0.353597 0.270390 0.553254
O O3 0.767756 0.277979 0.730137
O O4 0.688019 0.620288 0.742826
O O5 0.476175 0.670741 0.100477
O O6 0.622831 0.433208 0.223820
O O7 0.196175 0.308928 0.958156
O O8 0.520738 0.045225 0.138393
O O9 0.369327 0.769765 0.923158
O O10 0.117117 0.765259 0.926892
O O11 0.796790 0.671192 0.651974
O O12 0.058903 0.736663 0.660959
O O13 0.938687 0.033449 0.705551
O O14 0.867783 0.993536 0.818453
#
# Coordination Sequence:
#
# PCOD8044512 Si02
#       7
#     2   2   2   2   2   2   2
#     4  12  23  38  58  91 127 146 190 241 300 350
#     4  12  23  35  62  94 117 150 188 253 295 333
#     4  10  19  38  62  89 112 150 203 244 281 338
#     4   9  22  42  60  83 116 164 195 232 281 354
#     4  10  20  41  60  83 118 153 202 235 283 349
#     4  10  21  38  59  87 115 154 196 235 285 343
#     4   9  20  37  64  83 115 154 198 237 283 341
#
# _framework density 19.795238999999999
#
# number of rings (size 3 to 8) (size 9 to 14) (size 15 to 20)
#    0.857    0.857    2.857    2.571    0.000    2.286 
#    0.000    0.714    0.000    0.000    0.000    0.000 
#    0.000    0.000    0.000    0.000    0.000    0.000 
#
# Total GULP energy -173553.869712 kJ/mol
# GULP energy per Si atom -12396.704979 kJ/mol
# Density = 1.975018 g / cm^3
# Si number density = 19.795239 Si / 1000 Ang^3
#
#
#
# Elastic Constant Matrix: (Units=GPa)
#
#
# Indices 1 2 3 4 5 6 
#
# 1 44.1931 23.8342 31.4234 3.2024 7.1851 -0.0550
# 2 23.8342 122.5954 32.0837 -0.2054 4.3942 3.3735
# 3 31.4234 32.0837 93.9519 -1.8039 12.0519 0.2905
# 4 3.2024 -0.2054 -1.8039 18.9566 -8.8856 9.6762
# 5 7.1851 4.3942 12.0519 -8.8856 15.9941 -9.3432
# 6 -0.0550 3.3735 0.2905 9.6762 -9.3432 27.7291
#
#
#
# Elastic Compliance Matrix: (Units=1/GPa)
#
#
# Indices 1 2 3 4 5 6 
#
# 1 0.034289 -0.003942 -0.008382 -0.014131 -0.015693 0.000279
# 2 -0.003942 0.009456 -0.001966 0.001674 0.000721 -0.001479
# 3 -0.008382 -0.001966 0.015262 0.000246 -0.008804 -0.002990
# 4 -0.014131 0.001674 0.000246 0.082893 0.043229 -0.014594
# 5 -0.015693 0.000721 -0.008804 0.043229 0.113547 0.023148
# 6 0.000279 -0.001479 -0.002990 -0.014594 0.023148 0.049167
#
#
# Mechanical properties :
#
#
# Convention : Reuss Voigt Hill
#
# Bulk Modulus (GPa) = 32.86503 48.38033 40.62268
# Shear Modulus (GPa) = 14.56300 24.09590 19.32945
#
# Velocity S-wave (km/s) = 2.71529 3.49271 3.12824
# Velocity P-wave (km/s) = 5.14480 6.38426 5.79775
#
# Compressibility (1/GPa) = 0.03042748
#
# Stress axis : x y z
#
# Youngs Moduli (GPa) = 29.16367 105.75849 65.52246
#
# Poissons Ratio (x) = 0.41687 0.54918
# Poissons Ratio (y) = 0.11495 0.12884
# Poissons Ratio (z) = 0.24444 0.20796
#
# Static dielectric constant tensor:
#      x y z
#    x 3.329790 -0.086250 0.160210 
#    y -0.086250 3.652100 -0.034910 
#    z 0.160210 -0.034910 3.333860 
# 
# 
# High freq. dielectric constant tensor:
#      x y z
#    x 1.749370 -0.004010 0.016050 
#    y -0.004010 1.778220 -0.005010 
#    z 0.016050 -0.005010 1.752670 
# 
# From -- ./inp_files/388357.got.cif
#   From: 2010.06.25/outbox.cif.g09.slc.cpg/sg2_195_cif.got.tgz:388357.got - 2010.06.27 13:26:56.
