data_PCOD8044268
_publ_section_title
;
Structure prediction by ZEFSAII (Michael W. Deem and Ramdas Pophale) SiO2 
 PCOD8044268
Probable space group: P -1
;
_chemical_formula_sum "Si O2"
_cell_formula_units_Z 14
_cell_length_a 9.205132
_cell_length_b 19.730496
_cell_length_c 13.076477
_cell_angle_alpha 31.737187
_cell_angle_beta 147.750055
_cell_angle_gamma 148.678591
_cell_volume 584.476711
_symmetry_space_group_name_H-M "P -1"
_symmetry_group_IT_number 2
_symmetry_cell_setting 'triclinic'
loop_
_space_group_symop_operation_xyz
x,y,z
-x,-y,-z
loop_
_atom_site_type_symbol
_atom_site_label
_atom_site_fract_x
_atom_site_fract_y
_atom_site_fract_z
Si Si1 0.499786 0.692353 0.312062
Si Si2 0.688962 0.603886 0.329827
Si Si3 0.517115 0.221541 0.151801
Si Si4 0.645507 0.051202 0.283550
Si Si5 0.626116 0.260837 0.388315
Si Si6 0.866705 0.015236 0.103694
Si Si7 0.984915 0.773308 0.895643
O O1 0.626872 0.672871 0.304646
O O2 0.480670 0.572837 0.536346
O O3 0.743109 0.854867 0.288504
O O4 0.152757 0.672645 0.114374
O O5 0.560985 0.651201 0.095491
O O6 0.059240 0.665437 0.454185
O O7 0.694492 0.181484 0.223191
O O8 0.724502 0.282623 0.299249
O O9 0.208012 0.071946 0.188728
O O10 0.944951 0.122439 0.296381
O O11 0.603856 0.911623 0.502290
O O12 0.344523 0.001347 0.097953
O O13 0.390227 0.326560 0.187509
O O14 0.860859 0.126802 0.040321
#
# Coordination Sequence:
#
# PCOD8044268 Si02
#       7
#     2   2   2   2   2   2   2
#     4  10  21  39  67  90 126 171 206 255 314 372
#     4  11  22  42  67  89 127 173 206 252 314 375
#     4  11  21  39  67  96 126 160 214 264 303 369
#     4  11  18  36  63  93 128 161 206 264 309 362
#     4  11  24  37  63  97 127 163 211 256 315 373
#     4  10  19  37  67  94 122 161 209 260 312 363
#     4  10  22  39  65  96 129 158 212 264 313 368
#
# _framework density 23.953050000000001
#
# number of rings (size 3 to 8) (size 9 to 14) (size 15 to 20)
#    0.000    1.429    4.286    3.857    0.000    1.714 
#    0.000    7.143   18.857    0.000    0.000    0.000 
#    0.000    0.000    0.000    0.000    0.000    0.000 
#
# Total GULP energy -173579.802866 kJ/mol
# GULP energy per Si atom -12398.557348 kJ/mol
# Density = 2.389853 g / cm^3
# Si number density = 23.953050 Si / 1000 Ang^3
#
#
#
# Elastic Constant Matrix: (Units=GPa)
#
#
# Indices 1 2 3 4 5 6 
#
# 1 94.6887 4.5251 6.9375 1.4105 -0.6909 -3.7783
# 2 4.5251 30.8742 13.6903 -15.9933 0.0238 8.5581
# 3 6.9375 13.6903 85.9888 -16.8780 -14.4678 1.6681
# 4 1.4105 -15.9933 -16.8780 29.7213 2.1721 -6.9546
# 5 -0.6909 0.0238 -14.4678 2.1721 44.2585 2.3704
# 6 -3.7783 8.5581 1.6681 -6.9546 2.3704 16.3310
#
#
#
# Elastic Compliance Matrix: (Units=1/GPa)
#
#
# Indices 1 2 3 4 5 6 
#
# 1 0.010941 -0.003170 -0.000847 -0.001869 -0.000201 0.003512
# 2 -0.003170 0.050224 -0.003457 0.021221 -0.001312 -0.017472
# 3 -0.000847 -0.003457 0.014176 0.006466 0.004181 0.002314
# 4 -0.001869 0.021221 0.006466 0.051169 -0.000959 0.009716
# 5 -0.000201 -0.001312 0.004181 -0.000959 0.024205 -0.003707
# 6 0.003512 -0.017472 0.002314 0.009716 -0.003707 0.075641
#
#
# Mechanical properties :
#
#
# Convention : Reuss Voigt Hill
#
# Bulk Modulus (GPa) = 16.55811 29.09528 22.82670
# Shear Modulus (GPa) = 19.12528 30.48876 24.80702
#
# Velocity S-wave (km/s) = 2.82875 3.57158 3.22165
# Velocity P-wave (km/s) = 4.19486 5.40198 4.83623
#
# Compressibility (1/GPa) = 0.06039335
#
# Stress axis : x y z
#
# Youngs Moduli (GPa) = 91.39967 19.91092 70.54213
#
# Poissons Ratio (x) = 0.06311 0.05974
# Poissons Ratio (y) = 0.28971 0.24386
# Poissons Ratio (z) = 0.07740 0.06883
#
# Static dielectric constant tensor:
#      x y z
#    x 4.489800 0.151800 -0.042570 
#    y 0.151800 3.868690 -0.172030 
#    z -0.042570 -0.172030 4.454250 
# 
# 
# High freq. dielectric constant tensor:
#      x y z
#    x 1.960610 0.011180 0.002580 
#    y 0.011180 1.910010 -0.002260 
#    z 0.002580 -0.002260 1.957440 
# 
# From -- ./inp_files/402901.got.cif
#   From: 2010.06.25/outbox.cif.g09.slc.cpg/sg2_202_cif.got.tgz:402901.got - 2010.06.27 13:26:56.
