data_PCOD8044236
_publ_section_title
;
Structure prediction by ZEFSAII (Michael W. Deem and Ramdas Pophale) SiO2 
 PCOD8044236
Probable space group: P -1
;
_chemical_formula_sum "Si O2"
_cell_formula_units_Z 12
_cell_length_a 9.112918
_cell_length_b 11.210948
_cell_length_c 13.605452
_cell_angle_alpha 147.021338
_cell_angle_beta 99.175101
_cell_angle_gamma 102.953365
_cell_volume 557.130720
_symmetry_space_group_name_H-M "P -1"
_symmetry_group_IT_number 2
_symmetry_cell_setting 'triclinic'
loop_
_space_group_symop_operation_xyz
x,y,z
-x,-y,-z
loop_
_atom_site_type_symbol
_atom_site_label
_atom_site_fract_x
_atom_site_fract_y
_atom_site_fract_z
Si Si1 0.985438 0.139760 0.300144
Si Si2 0.685253 0.230521 0.958383
Si Si3 0.265332 0.685468 0.583209
Si Si4 0.848728 0.827275 0.453343
Si Si5 0.774519 0.237022 0.763441
Si Si6 0.107450 0.415641 0.166790
O O1 0.191321 0.432309 0.478098
O O2 0.021410 0.104767 0.391108
O O3 0.816081 0.156624 0.286640
O O4 0.907723 0.859015 0.035257
O O5 0.641803 0.191860 0.809218
O O6 0.504556 0.925810 0.780657
O O7 0.689787 0.482859 0.173443
O O8 0.889645 0.308800 0.059373
O O9 0.191577 0.550756 0.374769
O O10 0.730952 0.937321 0.534283
O O11 0.000000 0.000000 0.500000
O O12 0.738272 0.335174 0.726405
O O13 0.000000 0.500000 0.000000
#
# Coordination Sequence:
#
# PCOD8044236 Si02
#       6
#     2   2   2   2   2   2
#     4  11  23  43  63  89 130 165 201 261 308 359
#     4  11  23  39  66  94 122 165 209 250 307 371
#     4  11  26  42  59  96 127 162 212 248 307 374
#     4  12  19  39  69  90 121 165 202 252 314 362
#     4  10  19  37  66  93 118 160 210 250 310 362
#     4  11  21  44  66  87 127 165 200 263 307 358
#
# _framework density 21.538930000000001
#
# number of rings (size 3 to 8) (size 9 to 14) (size 15 to 20)
#    0.000    1.000    8.333    0.500    0.000    3.333 
#    0.000    5.833    0.000    0.000    0.000    0.000 
#    0.000    0.000    0.000    0.000    0.000    0.000 
#
# Total GULP energy -148823.557958 kJ/mol
# GULP energy per Si atom -12401.963163 kJ/mol
# Density = 2.148991 g / cm^3
# Si number density = 21.538930 Si / 1000 Ang^3
#
#
#
# Elastic Constant Matrix: (Units=GPa)
#
#
# Indices 1 2 3 4 5 6 
#
# 1 37.8753 -1.6686 38.4708 -2.3562 -25.9174 0.3277
# 2 -1.6686 66.4145 12.6106 0.6478 1.3859 -2.1774
# 3 38.4708 12.6106 98.7792 -6.5682 -35.4760 4.6620
# 4 -2.3562 0.6478 -6.5682 30.7454 1.0672 -4.8757
# 5 -25.9174 1.3859 -35.4760 1.0672 46.6239 3.5426
# 6 0.3277 -2.1774 4.6620 -4.8757 3.5426 28.0585
#
#
#
# Elastic Compliance Matrix: (Units=1/GPa)
#
#
# Indices 1 2 3 4 5 6 
#
# 1 0.054774 0.003819 -0.014995 0.000224 0.018935 -0.000204
# 2 0.003819 0.016082 -0.004315 -0.000582 -0.001780 0.002044
# 3 -0.014995 -0.004315 0.019237 0.002215 0.006669 -0.003813
# 4 0.000224 -0.000582 0.002215 0.033860 0.000643 0.005387
# 5 0.018935 -0.001780 0.006669 0.000643 0.037550 -0.006097
# 6 -0.000204 0.002044 -0.003813 0.005387 -0.006097 0.038140
#
#
# Mechanical properties :
#
#
# Convention : Reuss Voigt Hill
#
# Bulk Modulus (GPa) = 16.91723 33.54385 25.23054
# Shear Modulus (GPa) = 19.97375 31.32931 25.65153
#
# Velocity S-wave (km/s) = 3.04852 3.81799 3.45474
# Velocity P-wave (km/s) = 4.50140 5.91975 5.25861
#
# Compressibility (1/GPa) = 0.05911133
#
# Stress axis : x y z
#
# Youngs Moduli (GPa) = 18.25680 62.18092 51.98319
#
# Poissons Ratio (x) = -0.23749 0.77950
# Poissons Ratio (y) = -0.06973 0.22432
# Poissons Ratio (z) = 0.27376 0.26832
#
# Static dielectric constant tensor:
#      x y z
#    x 3.716080 0.240110 -0.446550 
#    y 0.240110 4.522370 0.058340 
#    z -0.446550 0.058340 4.150230 
# 
# 
# High freq. dielectric constant tensor:
#      x y z
#    x 1.820380 0.012950 -0.024710 
#    y 0.012950 1.860260 0.000480 
#    z -0.024710 0.000480 1.855650 
# 
# From -- ./inp_files/163017.got.cif
#   From: 2010.06.25/outbox.cif.g09.slc.cpg/sg2_82_cif.got.tgz:163017.got - 2010.06.27 13:26:56.
