data_PCOD8044131
_publ_section_title
;
Structure prediction by ZEFSAII (Michael W. Deem and Ramdas Pophale) SiO2 
 PCOD8044131
Probable space group: P -1
;
_chemical_formula_sum "Si O2"
_cell_formula_units_Z 16
_cell_length_a 9.928081
_cell_length_b 15.065871
_cell_length_c 17.584586
_cell_angle_alpha 148.902397
_cell_angle_beta 40.310340
_cell_angle_gamma 140.932995
_cell_volume 816.674864
_symmetry_space_group_name_H-M "P -1"
_symmetry_group_IT_number 2
_symmetry_cell_setting 'triclinic'
loop_
_space_group_symop_operation_xyz
x,y,z
-x,-y,-z
loop_
_atom_site_type_symbol
_atom_site_label
_atom_site_fract_x
_atom_site_fract_y
_atom_site_fract_z
Si Si1 0.434581 0.391482 0.261626
Si Si2 0.486565 0.624715 0.028812
Si Si3 0.953317 0.011145 0.646872
Si Si4 0.320020 0.952880 0.351385
Si Si5 0.875812 0.792288 0.872856
Si Si6 0.468011 0.297223 0.338278
Si Si7 0.181822 0.414771 0.875427
Si Si8 0.701618 0.299276 0.385813
O O1 0.280190 0.232508 0.153681
O O2 0.523246 0.296925 0.223896
O O3 0.646002 0.537591 0.234554
O O4 0.294730 0.501449 0.443085
O O5 0.422214 0.796999 0.207948
O O6 0.500000 0.500000 0.000000
O O7 0.724161 0.688470 0.931798
O O8 0.293669 0.496185 0.964970
O O9 0.786529 0.846240 0.647914
O O10 0.146976 0.941930 0.484774
O O11 0.819836 0.073464 0.685087
O O12 0.072468 0.196694 0.779304
O O13 0.527749 0.147467 0.403795
O O14 0.050134 0.696429 0.707337
O O15 0.000000 0.000000 0.000000
O O16 0.500000 0.500000 0.500000
O O17 0.631961 0.244330 0.286527
O O18 0.000000 0.500000 0.000000
#
# Coordination Sequence:
#
# PCOD8044131 Si02
#       8
#     2   2   2   2   2   2   2   2
#     4  10  22  39  59  91 119 153 202 252 296 354
#     4  11  25  40  57  89 126 157 200 251 301 353
#     4  10  20  37  66  91 115 160 200 248 302 352
#     4  10  19  37  64  89 117 156 203 242 297 365
#     4  11  23  39  61  81 119 166 196 238 304 361
#     4   9  21  36  61  96 119 142 201 257 294 346
#     4  11  22  39  63  87 122 160 202 246 305 362
#     4  10  19  39  63  84 117 160 202 240 295 360
#
# _framework density 19.591640000000002
#
# number of rings (size 3 to 8) (size 9 to 14) (size 15 to 20)
#    0.000    1.750    3.750    0.375    1.750    4.000 
#    0.000    1.875    0.000    0.000    0.000    0.000 
#    0.000    0.000    0.000    0.000    0.000    0.000 
#
# Total GULP energy -198331.862870 kJ/mol
# GULP energy per Si atom -12395.741429 kJ/mol
# Density = 1.954705 g / cm^3
# Si number density = 19.591640 Si / 1000 Ang^3
#
#
#
# Elastic Constant Matrix: (Units=GPa)
#
#
# Indices 1 2 3 4 5 6 
#
# 1 95.1309 51.0282 27.3619 -3.0157 10.1973 -8.1433
# 2 51.0282 102.7471 21.2107 15.4041 10.7924 6.5698
# 3 27.3619 21.2107 70.3903 4.4551 1.2269 3.1693
# 4 -3.0157 15.4041 4.4551 33.2126 9.5404 0.5035
# 5 10.1973 10.7924 1.2269 9.5404 30.6412 -0.1386
# 6 -8.1433 6.5698 3.1693 0.5035 -0.1386 34.1666
#
#
#
# Elastic Compliance Matrix: (Units=1/GPa)
#
#
# Indices 1 2 3 4 5 6 
#
# 1 0.018141 -0.009026 -0.005029 0.007870 -0.005078 0.006389
# 2 -0.009026 0.015857 -0.000535 -0.008000 -0.000092 -0.005033
# 3 -0.005029 -0.000535 0.016592 -0.003004 0.002121 -0.002582
# 4 0.007870 -0.008000 -0.003004 0.038212 -0.011565 0.003083
# 5 -0.005078 -0.000092 0.002121 -0.011565 0.037869 -0.001065
# 6 0.006389 -0.005033 -0.002582 0.003083 -0.001065 0.031949
#
#
# Mechanical properties :
#
#
# Convention : Reuss Voigt Hill
#
# Bulk Modulus (GPa) = 46.70927 51.94111 49.32519
# Shear Modulus (GPa) = 25.64947 30.84858 28.24903
#
# Velocity S-wave (km/s) = 3.62222 3.97240 3.80134
# Velocity P-wave (km/s) = 6.43328 6.89996 6.67070
#
# Compressibility (1/GPa) = 0.02140903
#
# Stress axis : x y z
#
# Youngs Moduli (GPa) = 55.12472 63.06518 60.27014
#
# Poissons Ratio (x) = 0.56924 0.30310
# Poissons Ratio (y) = 0.49757 0.03224
# Poissons Ratio (z) = 0.27722 0.03373
#
# Static dielectric constant tensor:
#      x y z
#    x 3.611840 0.017780 0.055740 
#    y 0.017780 3.636250 -0.012980 
#    z 0.055740 -0.012980 3.515870 
# 
# 
# High freq. dielectric constant tensor:
#      x y z
#    x 1.752610 0.011620 0.003290 
#    y 0.011620 1.772550 0.002600 
#    z 0.003290 0.002600 1.759300 
# 
# From -- ./inp_files/186838.got.cif
#   From: 2010.06.25/outbox.cif.g09.slc.cpg/sg2_94_cif.got.tgz:186838.got - 2010.06.27 13:26:56.
