data_PCOD8044031
_publ_section_title
;
Structure prediction by ZEFSAII (Michael W. Deem and Ramdas Pophale) SiO2 
 PCOD8044031
Probable space group: P -1
;
_chemical_formula_sum "Si O2"
_cell_formula_units_Z 16
_cell_length_a 9.432792
_cell_length_b 10.998875
_cell_length_c 8.735876
_cell_angle_alpha 91.267657
_cell_angle_beta 80.801656
_cell_angle_gamma 62.647186
_cell_volume 789.926194
_symmetry_space_group_name_H-M "P -1"
_symmetry_group_IT_number 2
_symmetry_cell_setting 'triclinic'
loop_
_space_group_symop_operation_xyz
x,y,z
-x,-y,-z
loop_
_atom_site_type_symbol
_atom_site_label
_atom_site_fract_x
_atom_site_fract_y
_atom_site_fract_z
Si Si1 0.650042 0.024257 0.450457
Si Si2 0.752003 0.559395 0.297963
Si Si3 0.083887 0.249770 0.729847
Si Si4 0.104183 0.854070 0.060696
Si Si5 0.615567 0.416654 0.117603
Si Si6 0.886954 0.989057 0.649038
Si Si7 0.561580 0.317277 0.428950
Si Si8 0.104611 0.694301 0.548905
O O1 0.606208 0.162892 0.368799
O O2 0.500000 0.000000 0.500000
O O3 0.784571 0.905549 0.325016
O O4 0.711532 0.028977 0.611021
O O5 0.825765 0.660531 0.244509
O O6 0.714849 0.499207 0.147376
O O7 0.589578 0.631387 0.429560
O O8 0.890313 0.435306 0.367358
O O9 0.990624 0.235356 0.894257
O O10 0.962166 0.306701 0.608615
O O11 0.151231 0.897639 0.213171
O O12 0.266634 0.745114 0.943622
O O13 0.000000 0.000000 0.000000
O O14 0.515970 0.411140 0.285625
O O15 0.500000 0.500000 0.000000
O O16 0.983169 0.827797 0.675744
O O17 0.000000 0.000000 0.500000
O O18 0.714629 0.319296 0.488274
#
# Coordination Sequence:
#
# PCOD8044031 Si02
#       8
#     2   2   2   2   2   2   2   2
#     4  11  20  36  62 100 119 147 209 272 309 349
#     4  11  24  40  65  91 126 164 209 263 310 371
#     4  11  22  38  66  97 122 161 206 267 318 358
#     4  12  24  42  67  90 131 169 208 260 311 385
#     4  11  27  41  61  94 130 172 211 248 319 383
#     4  11  20  37  68  89 115 160 217 257 296 364
#     4  11  21  40  68  87 124 164 215 258 303 371
#     4  10  19  37  62  98 117 150 218 259 300 368
#
# _framework density 20.255056
#
# number of rings (size 3 to 8) (size 9 to 14) (size 15 to 20)
#    0.000    1.000    5.000    4.125    5.250    0.500 
#    0.000    1.250    0.000    3.000    0.000    0.000 
#    0.000    0.000    0.000    0.000    0.000    0.000 
#
# Total GULP energy -198296.686270 kJ/mol
# GULP energy per Si atom -12393.542892 kJ/mol
# Density = 2.020895 g / cm^3
# Si number density = 20.255056 Si / 1000 Ang^3
#
#
#
# Elastic Constant Matrix: (Units=GPa)
#
#
# Indices 1 2 3 4 5 6 
#
# 1 117.3117 42.8645 45.2807 -12.2452 7.4187 13.5067
# 2 42.8645 139.5192 35.3521 -9.5046 11.9054 11.8337
# 3 45.2807 35.3521 65.0042 -2.2079 6.4541 1.9084
# 4 -12.2452 -9.5046 -2.2079 32.3971 -0.7541 1.9672
# 5 7.4187 11.9054 6.4541 -0.7541 25.0591 -1.4902
# 6 13.5067 11.8337 1.9084 1.9672 -1.4902 39.7026
#
#
#
# Elastic Compliance Matrix: (Units=1/GPa)
#
#
# Indices 1 2 3 4 5 6 
#
# 1 0.013056 -0.001242 -0.008029 0.004232 -0.001315 -0.003945
# 2 -0.001242 0.009064 -0.003622 0.002012 -0.003083 -0.002320
# 3 -0.008029 -0.003622 0.022943 -0.002743 -0.001729 0.002779
# 4 0.004232 0.002012 -0.002743 0.033070 -0.000720 -0.003573
# 5 -0.001315 -0.003083 -0.001729 -0.000720 0.042366 0.003075
# 6 -0.003945 -0.002320 0.002779 -0.003573 0.003075 0.027380
#
#
# Mechanical properties :
#
#
# Convention : Reuss Voigt Hill
#
# Bulk Modulus (GPa) = 51.87355 63.20331 57.53843
# Shear Modulus (GPa) = 27.76376 32.65427 30.20902
#
# Velocity S-wave (km/s) = 3.70632 4.01952 3.86609
# Velocity P-wave (km/s) = 6.63186 7.26729 6.95683
#
# Compressibility (1/GPa) = 0.01927765
#
# Stress axis : x y z
#
# Youngs Moduli (GPa) = 76.59105 110.33143 43.58568
#
# Poissons Ratio (x) = 0.13700 0.34997
# Poissons Ratio (y) = 0.09510 0.15785
# Poissons Ratio (z) = 0.61499 0.39958
#
# Static dielectric constant tensor:
#      x y z
#    x 3.686450 0.251500 0.214500 
#    y 0.251500 4.665110 0.488310 
#    z 0.214500 0.488310 3.741880 
# 
# 
# High freq. dielectric constant tensor:
#      x y z
#    x 1.783600 0.003410 0.006170 
#    y 0.003410 1.820160 0.004250 
#    z 0.006170 0.004250 1.768350 
# 
# From -- ./inp_files/178933.got.cif
#   From: 2010.06.25/outbox.cif.g09.slc.cpg/sg2_90_cif.got.tgz:178933.got - 2010.06.27 13:26:56.
