data_PCOD8044616
_publ_section_title
;
Structure prediction by ZEFSAII (Michael W. Deem and Ramdas Pophale) SiO2 
 PCOD8044616
Probable space group: P -1
;
_chemical_formula_sum "Si O2"
_cell_formula_units_Z 16
_cell_length_a 8.935706
_cell_length_b 19.670631
_cell_length_c 11.359367
_cell_angle_alpha 123.909632
_cell_angle_beta 41.560579
_cell_angle_gamma 91.656222
_cell_volume 778.882699
_symmetry_space_group_name_H-M "P -1"
_symmetry_group_IT_number 2
_symmetry_cell_setting 'triclinic'
loop_
_space_group_symop_operation_xyz
x,y,z
-x,-y,-z
loop_
_atom_site_type_symbol
_atom_site_label
_atom_site_fract_x
_atom_site_fract_y
_atom_site_fract_z
Si Si1 0.405674 0.752376 0.691519
Si Si2 0.395344 0.262384 0.693937
Si Si3 0.794195 0.976370 0.637062
Si Si4 0.246107 0.753847 0.319669
Si Si5 0.431794 0.344671 0.191641
Si Si6 0.913119 0.830757 0.229224
Si Si7 0.256105 0.488284 0.634130
Si Si8 0.287226 0.218005 0.271862
O O1 0.397620 0.773459 0.578831
O O2 0.609739 0.618118 0.465205
O O3 0.571030 0.786836 0.692632
O O4 0.042204 0.835502 0.033929
O O5 0.613876 0.227061 0.641428
O O6 0.306675 0.190227 0.687688
O O7 0.080797 0.398434 0.006546
O O8 0.712271 0.946655 0.537547
O O9 0.988745 0.872156 0.513983
O O10 0.000000 0.000000 0.500000
O O11 0.471499 0.089705 0.996433
O O12 0.078938 0.714967 0.431072
O O13 0.532166 0.650822 0.964762
O O14 0.201794 0.468746 0.512422
O O15 0.309151 0.283505 0.224754
O O16 0.772605 0.273376 0.983217
O O17 0.500000 0.500000 0.500000
#
# Coordination Sequence:
#
# PCOD8044616 Si02
#       8
#     2   2   2   2   2   2   2   2
#     4  10  20  37  63  85 111 154 201 227 277 347
#     4  12  23  38  55  89 128 143 184 246 293 335
#     4  11  18  41  66  83 106 156 204 232 275 347
#     4  11  24  36  58  89 120 151 182 243 300 324
#     4   9  19  39  62  85 109 154 204 229 272 344
#     4   9  19  37  61  85 111 153 194 233 280 335
#     4  10  19  38  64  86 108 158 198 228 280 342
#     4  10  20  39  64  82 112 149 206 234 270 348
#
# _framework density 20.542247
#
# number of rings (size 3 to 8) (size 9 to 14) (size 15 to 20)
#    0.000    2.000    6.250    2.250    0.000    1.500 
#    0.000    5.625    0.000    0.000    0.000    0.000 
#    0.000    0.000    0.000    0.000    0.000    0.000 
#
# Total GULP energy -198348.149066 kJ/mol
# GULP energy per Si atom -12396.759317 kJ/mol
# Density = 2.049549 g / cm^3
# Si number density = 20.542247 Si / 1000 Ang^3
#
#
#
# Elastic Constant Matrix: (Units=GPa)
#
#
# Indices 1 2 3 4 5 6 
#
# 1 112.8768 61.4401 50.2716 -30.2768 27.0731 19.9906
# 2 61.4401 77.9341 44.5228 -25.3963 6.2740 24.1203
# 3 50.2716 44.5228 73.9506 -17.4391 31.3266 -1.7730
# 4 -30.2768 -25.3963 -17.4391 38.6526 0.9066 6.6123
# 5 27.0731 6.2740 31.3266 0.9066 33.2209 -1.3892
# 6 19.9906 24.1203 -1.7730 6.6123 -1.3892 29.2999
#
#
#
# Elastic Compliance Matrix: (Units=1/GPa)
#
#
# Indices 1 2 3 4 5 6 
#
# 1 0.025995 -0.006575 -0.001112 0.019032 -0.020152 -0.017641
# 2 -0.006575 0.070869 -0.046024 0.030508 0.031948 -0.062010
# 3 -0.001112 -0.046024 0.059207 -0.010638 -0.044164 0.042536
# 4 0.019032 0.030508 -0.010638 0.065670 -0.015302 -0.054289
# 5 -0.020152 0.031948 -0.044164 -0.015302 0.082225 -0.007871
# 6 -0.017641 -0.062010 0.042536 -0.054289 -0.007871 0.111667
#
#
# Mechanical properties :
#
#
# Convention : Reuss Voigt Hill
#
# Bulk Modulus (GPa) = 20.55444 64.13672 42.34558
# Shear Modulus (GPa) = 9.27179 27.46983 18.37081
#
# Velocity S-wave (km/s) = 2.12681 3.66079 2.99372
# Velocity P-wave (km/s) = 4.00734 7.01129 5.71038
#
# Compressibility (1/GPa) = 0.04865128
#
# Stress axis : x y z
#
# Youngs Moduli (GPa) = 38.46829 14.11059 16.88991
#
# Poissons Ratio (x) = 0.09277 0.01877
# Poissons Ratio (y) = 0.25291 0.77734
# Poissons Ratio (z) = 0.04276 0.64942
#
# Static dielectric constant tensor:
#      x y z
#    x 3.612080 0.229420 0.528350 
#    y 0.229420 3.765750 -0.154160 
#    z 0.528350 -0.154160 4.178210 
# 
# 
# High freq. dielectric constant tensor:
#      x y z
#    x 1.785870 0.024050 0.031500 
#    y 0.024050 1.795420 -0.018690 
#    z 0.031500 -0.018690 1.807380 
# 
# From -- ./inp_files/405500.got.cif
#   From: 2010.06.25/outbox.cif.g09.slc.cpg/sg2_203_cif.got.tgz:405500.got - 2010.06.27 13:26:56.
