data_PCOD8044321
_publ_section_title
;
Structure prediction by ZEFSAII (Michael W. Deem and Ramdas Pophale) SiO2 
 PCOD8044321
Probable space group: P -1
;
_chemical_formula_sum "Si O2"
_cell_formula_units_Z 16
_cell_length_a 14.857217
_cell_length_b 18.019572
_cell_length_c 14.841594
_cell_angle_alpha 21.409440
_cell_angle_beta 131.937792
_cell_angle_gamma 143.326859
_cell_volume 808.326767
_symmetry_space_group_name_H-M "P -1"
_symmetry_group_IT_number 2
_symmetry_cell_setting 'triclinic'
loop_
_space_group_symop_operation_xyz
x,y,z
-x,-y,-z
loop_
_atom_site_type_symbol
_atom_site_label
_atom_site_fract_x
_atom_site_fract_y
_atom_site_fract_z
Si Si1 0.672679 0.080928 0.693123
Si Si2 0.900944 0.766368 0.464784
Si Si3 0.679573 0.210668 0.232306
Si Si4 0.164416 0.680047 0.962872
Si Si5 0.194653 0.346597 0.819551
Si Si6 0.212695 0.968127 0.352164
Si Si7 0.823005 0.898603 0.097204
Si Si8 0.004529 0.168222 0.234282
O O1 0.699647 0.337413 0.454871
O O2 0.788533 0.164019 0.591585
O O3 0.711276 0.970876 0.925515
O O4 0.486015 0.848491 0.802202
O O5 0.804024 0.499585 0.763368
O O6 0.031959 0.778024 0.485057
O O7 0.985439 0.035304 0.276711
O O8 0.780701 0.741731 0.341085
O O9 0.673422 0.011221 0.521144
O O10 0.693758 0.138486 0.221141
O O11 0.825785 0.523655 0.002287
O O12 0.000000 0.500000 0.000000
O O13 0.147746 0.847393 0.833374
O O14 0.008602 0.177965 0.910592
O O15 0.271129 0.259821 0.034846
O O16 0.207435 0.296913 0.780663
O O17 0.000000 0.000000 0.500000
#
# Coordination Sequence:
#
# PCOD8044321 Si02
#       8
#     2   2   2   2   2   2   2   2
#     4  11  23  40  56  87 124 162 184 235 299 343
#     4  11  20  37  65  89 112 148 202 247 282 336
#     4  11  22  39  58  88 129 146 191 242 290 362
#     4  10  19  38  56  86 116 144 197 244 279 344
#     4   9  20  39  60  79 116 160 202 237 279 330
#     4  10  21  37  55  91 120 149 193 238 282 356
#     4   9  21  38  58  86 112 152 207 241 266 350
#     4  11  20  37  63  90 110 154 193 238 301 334
#
# _framework density 19.793975
#
# number of rings (size 3 to 8) (size 9 to 14) (size 15 to 20)
#    0.000    1.750    5.000    1.500    3.500    1.500 
#    9.000    0.625    0.000    1.500    0.000    0.000 
#    0.000    0.000    0.000    0.000    0.000    0.000 
#
# Total GULP energy -198356.910393 kJ/mol
# GULP energy per Si atom -12397.306900 kJ/mol
# Density = 1.974892 g / cm^3
# Si number density = 19.793975 Si / 1000 Ang^3
#
#
#
# Elastic Constant Matrix: (Units=GPa)
#
#
# Indices 1 2 3 4 5 6 
#
# 1 82.7706 41.9117 38.0825 5.1537 8.3238 -9.4016
# 2 41.9117 94.1752 69.2153 37.2219 3.8193 -1.8491
# 3 38.0825 69.2153 117.3543 35.9001 16.4764 -8.5690
# 4 5.1537 37.2219 35.9001 44.4946 -5.1933 2.3126
# 5 8.3238 3.8193 16.4764 -5.1933 24.2207 8.0162
# 6 -9.4016 -1.8491 -8.5690 2.3126 8.0162 24.7596
#
#
#
# Elastic Compliance Matrix: (Units=1/GPa)
#
#
# Indices 1 2 3 4 5 6 
#
# 1 0.018148 -0.009223 -0.000702 0.005145 -0.005617 0.007297
# 2 -0.009223 0.026666 -0.010111 -0.012206 0.005048 -0.005504
# 3 -0.000702 -0.010111 0.022900 -0.013243 -0.021589 0.015130
# 4 0.005145 -0.012206 -0.013243 0.046434 0.024336 -0.015757
# 5 -0.005617 0.005048 -0.021589 0.024336 0.074068 -0.035481
# 6 0.007297 -0.005504 0.015130 -0.015757 -0.035481 0.060944
#
#
# Mechanical properties :
#
#
# Convention : Reuss Voigt Hill
#
# Bulk Modulus (GPa) = 36.17825 65.85768 51.01796
# Shear Modulus (GPa) = 16.75346 28.36770 22.56058
#
# Velocity S-wave (km/s) = 2.91244 3.78980 3.37971
# Velocity P-wave (km/s) = 5.44305 7.24527 6.40784
#
# Compressibility (1/GPa) = 0.02764092
#
# Stress axis : x y z
#
# Youngs Moduli (GPa) = 55.10184 37.50085 43.66904
#
# Poissons Ratio (x) = 0.34588 0.03065
# Poissons Ratio (y) = 0.50822 0.44155
# Poissons Ratio (z) = 0.03867 0.37918
#
# Static dielectric constant tensor:
#      x y z
#    x 3.906810 -0.188290 0.117450 
#    y -0.188290 3.440240 0.406570 
#    z 0.117450 0.406570 3.730750 
# 
# 
# High freq. dielectric constant tensor:
#      x y z
#    x 1.770660 -0.017230 0.011930 
#    y -0.017230 1.742800 0.033740 
#    z 0.011930 0.033740 1.770990 
# 
# From -- ./inp_files/534986.got.cif
#   From: 2010.06.25/outbox.cif.g09.slc.cpg/sg2_268_cif.got.tgz:534986.got - 2010.06.27 13:26:56.
