data_PCOD8044453
_publ_section_title
;
Structure prediction by ZEFSAII (Michael W. Deem and Ramdas Pophale) SiO2 
 PCOD8044453
Probable space group: P -1
;
_chemical_formula_sum "Si O2"
_cell_formula_units_Z 14
_cell_length_a 11.647746
_cell_length_b 12.167196
_cell_length_c 8.931937
_cell_angle_alpha 142.915647
_cell_angle_beta 73.248041
_cell_angle_gamma 104.742071
_cell_volume 730.234841
_symmetry_space_group_name_H-M "P -1"
_symmetry_group_IT_number 2
_symmetry_cell_setting 'triclinic'
loop_
_space_group_symop_operation_xyz
x,y,z
-x,-y,-z
loop_
_atom_site_type_symbol
_atom_site_label
_atom_site_fract_x
_atom_site_fract_y
_atom_site_fract_z
Si Si1 0.477082 0.479304 0.160872
Si Si2 0.259160 0.544223 0.933488
Si Si3 0.689666 0.856174 0.126893
Si Si4 0.292320 0.743568 0.450617
Si Si5 0.126181 0.846102 0.154117
Si Si6 0.135477 0.957131 0.935938
Si Si7 0.143980 0.200650 0.725381
O O1 0.383632 0.634715 0.404266
O O2 0.500000 0.500000 0.000000
O O3 0.605854 0.503488 0.219782
O O4 0.423209 0.279900 0.010830
O O5 0.254942 0.635092 0.197894
O O6 0.208357 0.677384 0.973322
O O7 0.176156 0.358851 0.764912
O O8 0.761772 0.775082 0.149812
O O9 0.644356 0.059096 0.402440
O O10 0.777908 0.871590 0.965288
O O11 0.172044 0.779344 0.631737
O O12 0.988471 0.774992 0.134733
O O13 0.153911 0.002296 0.434829
O O14 0.158509 0.924899 0.065646
O O15 0.000000 0.000000 0.000000
#
# Coordination Sequence:
#
# PCOD8044453 Si02
#       7
#     2   2   2   2   2   2   2
#     4  10  20  36  62  88 117 150 201 244 278 338
#     4  11  22  38  60  93 113 152 199 242 293 333
#     4  10  19  38  61  88 116 149 198 241 280 350
#     4   9  20  36  60  86 117 146 198 239 282 340
#     4  11  22  40  57  86 124 154 188 242 298 346
#     4  10  21  40  61  83 119 160 190 234 298 352
#     4  11  21  37  63  87 120 147 196 250 285 346
#
# _framework density 19.171914999999998
#
# number of rings (size 3 to 8) (size 9 to 14) (size 15 to 20)
#    0.857    0.857    5.714    0.429    2.000    3.429 
#    2.571    2.857    0.000    0.000    0.000    0.000 
#    0.000    0.000    0.000    0.000    0.000    0.000 
#
# Total GULP energy -173526.526979 kJ/mol
# GULP energy per Si atom -12394.751927 kJ/mol
# Density = 1.912828 g / cm^3
# Si number density = 19.171915 Si / 1000 Ang^3
#
#
#
# Elastic Constant Matrix: (Units=GPa)
#
#
# Indices 1 2 3 4 5 6 
#
# 1 72.1262 33.0488 32.9512 4.9377 -14.6628 2.9841
# 2 33.0488 105.8344 15.1708 13.8716 5.3250 4.7798
# 3 32.9512 15.1708 37.7237 13.5601 -17.3266 2.5324
# 4 4.9377 13.8716 13.5601 37.3453 -0.4289 1.9069
# 5 -14.6628 5.3250 -17.3266 -0.4289 26.0539 8.3221
# 6 2.9841 4.7798 2.5324 1.9069 8.3221 41.5392
#
#
#
# Elastic Compliance Matrix: (Units=1/GPa)
#
#
# Indices 1 2 3 4 5 6 
#
# 1 0.026985 -0.006112 -0.022983 0.007086 0.001409 -0.000442
# 2 -0.006112 0.012425 -0.002109 -0.003172 -0.007698 0.000826
# 3 -0.022983 -0.002109 0.074193 -0.022177 0.039515 -0.009528
# 4 0.007086 -0.003172 -0.022177 0.034873 -0.010056 0.001622
# 5 0.001409 -0.007698 0.039515 -0.010056 0.071829 -0.015553
# 6 -0.000442 0.000826 -0.009528 0.001622 -0.015553 0.027633
#
#
# Mechanical properties :
#
#
# Convention : Reuss Voigt Hill
#
# Bulk Modulus (GPa) = 19.53344 42.00289 30.76817
# Shear Modulus (GPa) = 15.27130 29.95523 22.61327
#
# Velocity S-wave (km/s) = 2.82538 3.95708 3.43811
# Velocity P-wave (km/s) = 4.56666 6.54477 5.64307
#
# Compressibility (1/GPa) = 0.05119425
#
# Stress axis : x y z
#
# Youngs Moduli (GPa) = 37.05810 80.48076 13.47832
#
# Poissons Ratio (x) = 0.49187 0.30978
# Poissons Ratio (y) = 0.22649 0.02843
# Poissons Ratio (z) = 0.85172 0.16977
#
# Static dielectric constant tensor:
#      x y z
#    x 3.811340 -0.106970 -0.319910 
#    y -0.106970 3.545210 0.218200 
#    z -0.319910 0.218200 3.290190 
# 
# 
# High freq. dielectric constant tensor:
#      x y z
#    x 1.747240 0.000740 -0.016970 
#    y 0.000740 1.748230 0.020250 
#    z -0.016970 0.020250 1.717630 
# 
# From -- ./inp_files/255439.got.cif
#   From: 2010.06.25/outbox.cif.g09.slc.cpg/sg2_128_cif.got.tgz:255439.got - 2010.06.27 13:26:56.
