data_PCOD8044584
_publ_section_title
;
Structure prediction by ZEFSAII (Michael W. Deem and Ramdas Pophale) SiO2 
 PCOD8044584
Probable space group: P -1
;
_chemical_formula_sum "Si O2"
_cell_formula_units_Z 16
_cell_length_a 8.828092
_cell_length_b 8.121418
_cell_length_c 23.292805
_cell_angle_alpha 113.773785
_cell_angle_beta 30.592050
_cell_angle_gamma 111.822530
_cell_volume 776.691978
_symmetry_space_group_name_H-M "P -1"
_symmetry_group_IT_number 2
_symmetry_cell_setting 'triclinic'
loop_
_space_group_symop_operation_xyz
x,y,z
-x,-y,-z
loop_
_atom_site_type_symbol
_atom_site_label
_atom_site_fract_x
_atom_site_fract_y
_atom_site_fract_z
Si Si1 0.697419 0.519248 0.069643
Si Si2 0.043613 0.913413 0.241872
Si Si3 0.667462 0.371789 0.469282
Si Si4 0.674728 0.833522 0.897998
Si Si5 0.379029 0.309416 0.992420
Si Si6 0.802954 0.911787 0.446021
Si Si7 0.200964 0.617816 0.328364
Si Si8 0.561777 0.269854 0.612503
O O1 0.556974 0.323736 0.070600
O O2 0.792782 0.654941 0.005361
O O3 0.468545 0.625129 0.197518
O O4 0.000000 0.500000 0.000000
O O5 0.971458 0.949760 0.336610
O O6 0.785478 0.792743 0.277266
O O7 0.349565 0.815701 0.125951
O O8 0.086906 0.104468 0.219996
O O9 0.500000 0.500000 0.500000
O O10 0.538167 0.169337 0.467175
O O11 0.596194 0.401973 0.564489
O O12 0.017990 0.423678 0.353602
O O13 0.831276 0.767669 0.897164
O O14 0.500000 0.000000 0.000000
O O15 0.500000 0.500000 0.000000
O O16 0.987112 0.781121 0.407867
O O17 0.770457 0.100371 0.514394
O O18 0.331703 0.625503 0.350816
#
# Coordination Sequence:
#
# PCOD8044584 Si02
#       8
#     2   2   2   2   2   2   2   2
#     4  11  24  40  63  90 121 157 198 250 307 354
#     4  10  19  38  63  92 113 160 201 242 300 353
#     4   9  20  39  61  87 116 157 206 244 288 355
#     4   9  21  39  66  85 118 152 203 247 289 364
#     4   9  19  39  61  85 118 152 201 249 291 355
#     4  10  21  40  62  89 121 161 204 243 293 362
#     4  11  23  39  60  88 127 160 192 252 307 348
#     4  11  23  36  64  88 127 155 201 247 299 360
#
# _framework density 20.600187999999999
#
# number of rings (size 3 to 8) (size 9 to 14) (size 15 to 20)
#    0.000    2.000    1.250    2.250    8.750    0.000 
#    0.000    3.750    2.750    0.000    0.000    0.000 
#    0.000    0.000    0.000    0.000    0.000    0.000 
#
# Total GULP energy -198225.029078 kJ/mol
# GULP energy per Si atom -12389.064317 kJ/mol
# Density = 2.055330 g / cm^3
# Si number density = 20.600188 Si / 1000 Ang^3
#
#
#
# Elastic Constant Matrix: (Units=GPa)
#
#
# Indices 1 2 3 4 5 6 
#
# 1 158.8910 41.9507 37.1489 -20.7741 11.6803 -15.3321
# 2 41.9507 72.3695 24.6069 -12.7756 11.1840 -12.6593
# 3 37.1489 24.6069 48.5019 -15.9331 1.8971 -6.1036
# 4 -20.7741 -12.7756 -15.9331 39.9777 -3.2996 10.8905
# 5 11.6803 11.1840 1.8971 -3.2996 32.1803 -7.4171
# 6 -15.3321 -12.6593 -6.1036 10.8905 -7.4171 36.4110
#
#
#
# Elastic Compliance Matrix: (Units=1/GPa)
#
#
# Indices 1 2 3 4 5 6 
#
# 1 0.008444 -0.002720 -0.004455 0.001303 -0.001452 0.001178
# 2 -0.002720 0.019076 -0.006773 0.000739 -0.004423 0.003230
# 3 -0.004455 -0.006773 0.029829 0.007920 0.002787 -0.001032
# 4 0.001303 0.000739 0.007920 0.031041 0.000355 -0.007079
# 5 -0.001452 -0.004423 0.002787 0.000355 0.034205 0.005179
# 6 0.001178 0.003230 -0.001032 -0.007079 0.005179 0.032083
#
#
# Mechanical properties :
#
#
# Convention : Reuss Voigt Hill
#
# Bulk Modulus (GPa) = 33.95078 54.13060 44.04069
# Shear Modulus (GPa) = 25.98874 33.45087 29.71980
#
# Velocity S-wave (km/s) = 3.55572 4.03403 3.80240
# Velocity P-wave (km/s) = 5.77704 6.93049 6.37988
#
# Compressibility (1/GPa) = 0.02945440
#
# Stress axis : x y z
#
# Youngs Moduli (GPa) = 118.42901 52.42076 33.52452
#
# Poissons Ratio (x) = 0.14257 0.14934
# Poissons Ratio (y) = 0.32209 0.22706
# Poissons Ratio (z) = 0.52756 0.35505
#
# Static dielectric constant tensor:
#      x y z
#    x 10.030340 -3.524650 -0.145240 
#    y -3.524650 5.675410 -0.124730 
#    z -0.145240 -0.124730 4.016590 
# 
# 
# High freq. dielectric constant tensor:
#      x y z
#    x 1.813010 -0.021520 0.019460 
#    y -0.021520 1.803870 -0.003250 
#    z 0.019460 -0.003250 1.798400 
# 
# From -- ./inp_files/218947.got.cif
#   From: 2010.06.25/outbox.cif.g09.slc.cpg/sg2_110_cif.got.tgz:218947.got - 2010.06.27 13:26:56.
