data_PCOD8044691
_publ_section_title
;
Structure prediction by ZEFSAII (Michael W. Deem and Ramdas Pophale) SiO2 
 PCOD8044691
Probable space group: P -1
;
_chemical_formula_sum "Si O2"
_cell_formula_units_Z 16
_cell_length_a 19.938543
_cell_length_b 9.447232
_cell_length_c 14.189614
_cell_angle_alpha 70.039090
_cell_angle_beta 22.169420
_cell_angle_gamma 58.354103
_cell_volume 766.836632
_symmetry_space_group_name_H-M "P -1"
_symmetry_group_IT_number 2
_symmetry_cell_setting 'triclinic'
loop_
_space_group_symop_operation_xyz
x,y,z
-x,-y,-z
loop_
_atom_site_type_symbol
_atom_site_label
_atom_site_fract_x
_atom_site_fract_y
_atom_site_fract_z
Si Si1 0.024603 0.074621 0.630810
Si Si2 0.918966 0.672708 0.632394
Si Si3 0.546243 0.037133 0.828163
Si Si4 0.490069 0.051430 0.298743
Si Si5 0.840888 0.975881 0.154091
Si Si6 0.880164 0.413261 0.217812
Si Si7 0.020329 0.253340 0.267038
Si Si8 0.412905 0.734077 0.742660
O O1 0.064080 0.172478 0.473673
O O2 0.022953 0.905175 0.632812
O O3 0.799037 0.237289 0.939707
O O4 0.225078 0.985476 0.465363
O O5 0.048482 0.627954 0.572885
O O6 0.000000 0.500000 0.500000
O O7 0.665814 0.754056 0.966606
O O8 0.547386 0.906851 0.774952
O O9 0.500000 0.000000 0.000000
O O10 0.292902 0.046349 0.589418
O O11 0.475681 0.212221 0.337810
O O12 0.721164 0.855392 0.064530
O O13 0.665993 0.148897 0.276924
O O14 0.988610 0.798816 0.935951
O O15 0.000000 0.000000 0.000000
O O16 0.624187 0.523659 0.492225
O O17 0.887061 0.405601 0.324520
O O18 0.000000 0.500000 0.000000
#
# Coordination Sequence:
#
# PCOD8044691 Si02
#       8
#     2   2   2   2   2   2   2   2
#     4  10  20  41  65  90 130 171 221 264 323 394
#     4  10  22  41  63  99 132 165 217 275 326 389
#     4   9  20  37  63  92 125 170 208 259 334 386
#     4  10  19  38  65  88 125 174 213 264 320 389
#     4  12  24  43  66  95 134 170 220 272 334 383
#     4  12  24  42  67  97 132 174 223 268 323 397
#     4  10  22  41  66  91 127 179 219 260 332 390
#     4  11  23  41  67  97 130 171 224 265 326 393
#
# _framework density 20.864939
#
# number of rings (size 3 to 8) (size 9 to 14) (size 15 to 20)
#    0.000    1.500    3.750    2.250    0.000    4.500 
#    4.500    1.250    0.000    0.000    0.000    0.000 
#    0.000    0.000    0.000    0.000    0.000    0.000 
#
# Total GULP energy -198250.083658 kJ/mol
# GULP energy per Si atom -12390.630229 kJ/mol
# Density = 2.081745 g / cm^3
# Si number density = 20.864939 Si / 1000 Ang^3
#
#
#
# Elastic Constant Matrix: (Units=GPa)
#
#
# Indices 1 2 3 4 5 6 
#
# 1 157.3769 51.0762 43.2125 0.6565 -2.6810 -3.2429
# 2 51.0762 71.2151 29.9395 3.3289 -4.6243 -6.5111
# 3 43.2125 29.9395 123.4752 -5.9759 -26.4046 -5.9701
# 4 0.6565 3.3289 -5.9759 28.6906 -3.8120 -5.7610
# 5 -2.6810 -4.6243 -26.4046 -3.8120 31.3807 -2.9311
# 6 -3.2429 -6.5111 -5.9701 -5.7610 -2.9311 31.2605
#
#
#
# Elastic Compliance Matrix: (Units=1/GPa)
#
#
# Indices 1 2 3 4 5 6 
#
# 1 0.008698 -0.005502 -0.002227 -0.000494 -0.002091 -0.000956
# 2 -0.005502 0.019494 -0.002775 -0.002195 0.000040 0.002559
# 3 -0.002227 -0.002775 0.012234 0.005026 0.010627 0.003450
# 4 -0.000494 -0.002195 0.005026 0.039134 0.009415 0.008546
# 5 -0.002091 0.000040 0.010627 0.009415 0.042484 0.007540
# 6 -0.000956 0.002559 0.003450 0.008546 0.007540 0.035364
#
#
# Mechanical properties :
#
#
# Convention : Reuss Voigt Hill
#
# Bulk Modulus (GPa) = 51.50194 66.72483 59.11338
# Shear Modulus (GPa) = 27.04308 33.45563 30.24935
#
# Velocity S-wave (km/s) = 3.60405 4.00864 3.81171
# Velocity P-wave (km/s) = 6.48506 7.31262 6.91124
#
# Compressibility (1/GPa) = 0.01941675
#
# Stress axis : x y z
#
# Youngs Moduli (GPa) = 114.96641 51.29783 81.74020
#
# Poissons Ratio (x) = 0.28225 0.18206
# Poissons Ratio (y) = 0.63256 0.22684
# Poissons Ratio (z) = 0.25607 0.14236
#
# Static dielectric constant tensor:
#      x y z
#    x 3.875330 -0.028850 -0.291400 
#    y -0.028850 3.384850 0.040180 
#    z -0.291400 0.040180 4.154650 
# 
# 
# High freq. dielectric constant tensor:
#      x y z
#    x 1.835030 -0.001690 -0.002790 
#    y -0.001690 1.779810 0.001990 
#    z -0.002790 0.001990 1.834940 
# 
# From -- ./inp_files/540459.got.cif
#   From: 2010.06.25/outbox.cif.g09.slc.cpg/sg2_271_cif.got.tgz:540459.got - 2010.06.27 13:26:56.
