data_PCOD8044451
_publ_section_title
;
Structure prediction by ZEFSAII (Michael W. Deem and Ramdas Pophale) SiO2 
 PCOD8044451
Probable space group: P -1
;
_chemical_formula_sum "Si O2"
_cell_formula_units_Z 14
_cell_length_a 15.364363
_cell_length_b 8.876113
_cell_length_c 14.509505
_cell_angle_alpha 123.788130
_cell_angle_beta 29.769244
_cell_angle_gamma 103.145506
_cell_volume 641.479486
_symmetry_space_group_name_H-M "P -1"
_symmetry_group_IT_number 2
_symmetry_cell_setting 'triclinic'
loop_
_space_group_symop_operation_xyz
x,y,z
-x,-y,-z
loop_
_atom_site_type_symbol
_atom_site_label
_atom_site_fract_x
_atom_site_fract_y
_atom_site_fract_z
Si Si1 0.843057 0.099624 0.265048
Si Si2 0.626522 0.888246 0.440827
Si Si3 0.088900 0.009078 0.182757
Si Si4 0.350533 0.490409 0.790401
Si Si5 0.246087 0.901723 0.320657
Si Si6 0.354420 0.175790 0.967250
Si Si7 0.857477 0.369733 0.778493
O O1 0.610183 0.335170 0.527159
O O2 0.958262 0.143015 0.254287
O O3 0.823640 0.910709 0.264984
O O4 0.000000 0.000000 0.000000
O O5 0.703348 0.628855 0.278350
O O6 0.500000 0.000000 0.500000
O O7 0.475829 0.014620 0.711760
O O8 0.914529 0.071602 0.442965
O O9 0.228730 0.098189 0.112024
O O10 0.267285 0.733675 0.908758
O O11 0.216495 0.521350 0.015417
O O12 0.472214 0.838941 0.129431
O O13 0.297618 0.700222 0.136756
O O14 0.115666 0.141669 0.465525
O O15 0.170945 0.442073 0.198446
#
# Coordination Sequence:
#
# PCOD8044451 Si02
#       7
#     2   2   2   2   2   2   2
#     4  11  22  37  60  92 128 162 205 254 305 369
#     4  10  19  38  61  87 123 164 202 242 312 370
#     4  11  24  40  62  96 125 159 213 254 304 372
#     4  10  22  42  61  89 127 167 203 254 311 364
#     4  10  23  44  63  95 122 162 215 254 309 368
#     4  12  22  40  66  91 124 166 204 258 313 364
#     4  10  21  42  69  85 126 168 204 258 312 367
#
# _framework density 21.824546000000002
#
# number of rings (size 3 to 8) (size 9 to 14) (size 15 to 20)
#    0.000    1.429    4.286    2.143    0.000    4.571 
#    2.571    6.429    0.000    0.000    0.000    0.000 
#    0.000    0.000    0.000    0.000    0.000    0.000 
#
# Total GULP energy -173573.951390 kJ/mol
# GULP energy per Si atom -12398.139385 kJ/mol
# Density = 2.177487 g / cm^3
# Si number density = 21.824546 Si / 1000 Ang^3
#
#
#
# Elastic Constant Matrix: (Units=GPa)
#
#
# Indices 1 2 3 4 5 6 
#
# 1 75.0822 13.7002 1.6973 3.0262 -6.1581 4.6099
# 2 13.7002 117.7378 36.2719 6.6158 -20.0473 9.8207
# 3 1.6973 36.2719 53.2036 7.5392 -6.4593 0.5894
# 4 3.0262 6.6158 7.5392 36.6017 6.7698 -0.3913
# 5 -6.1581 -20.0473 -6.4593 6.7698 26.4951 6.2542
# 6 4.6099 9.8207 0.5894 -0.3913 6.2542 21.2839
#
#
#
# Elastic Compliance Matrix: (Units=1/GPa)
#
#
# Indices 1 2 3 4 5 6 
#
# 1 0.014132 -0.000700 0.000915 -0.002105 0.004488 -0.004121
# 2 -0.000700 0.013781 -0.007432 -0.003126 0.011478 -0.009432
# 3 0.000915 -0.007432 0.024498 -0.003951 0.001059 0.002169
# 4 -0.002105 -0.003126 -0.003951 0.031419 -0.013384 0.006518
# 5 0.004488 0.011478 0.001059 -0.013384 0.056621 -0.023182
# 6 -0.004121 -0.009432 0.002169 0.006518 -0.023182 0.059100
#
#
# Mechanical properties :
#
#
# Convention : Reuss Voigt Hill
#
# Bulk Modulus (GPa) = 26.33178 38.81807 32.57492
# Shear Modulus (GPa) = 22.06100 29.83307 25.94704
#
# Velocity S-wave (km/s) = 3.18281 3.70124 3.45177
# Velocity P-wave (km/s) = 5.05949 6.00755 5.55379
#
# Compressibility (1/GPa) = 0.03797693
#
# Stress axis : x y z
#
# Youngs Moduli (GPa) = 70.76258 72.56196 40.81979
#
# Poissons Ratio (x) = 0.05081 -0.03736
# Poissons Ratio (y) = 0.04955 0.30338
# Poissons Ratio (z) = -0.06477 0.53929
#
# Static dielectric constant tensor:
#      x y z
#    x 4.280420 0.212200 -0.072630 
#    y 0.212200 4.666080 0.596540 
#    z -0.072630 0.596540 4.159710 
# 
# 
# High freq. dielectric constant tensor:
#      x y z
#    x 1.868310 0.006170 0.003470 
#    y 0.006170 1.852340 0.013220 
#    z 0.003470 0.013220 1.846590 
# 
# From -- ./inp_files/177198.got.cif
#   From: 2010.06.25/outbox.cif.g09.slc.cpg/sg2_89_cif.got.tgz:177198.got - 2010.06.27 13:26:56.
