data_PCOD8044910
_publ_section_title
;
Structure prediction by ZEFSAII (Michael W. Deem and Ramdas Pophale) SiO2 
 PCOD8044910
Probable space group: P 2
;
_chemical_formula_sum "Si O2"
_cell_formula_units_Z 16
_cell_length_a 8.539755
_cell_length_b 12.003211
_cell_length_c 9.045124
_cell_angle_alpha 90.000000
_cell_angle_beta 121.588179
_cell_angle_gamma 90.000000
_cell_volume 789.792251
_symmetry_space_group_name_H-M "P 2"
_symmetry_group_IT_number 3
_symmetry_cell_setting 'monoclinic'
loop_
_space_group_symop_operation_xyz
x,y,z
-x,y,-z
loop_
_atom_site_type_symbol
_atom_site_label
_atom_site_fract_x
_atom_site_fract_y
_atom_site_fract_z
Si Si1 0.827322 0.512800 0.307502
Si Si2 0.304529 0.923928 0.981066
Si Si3 0.700032 0.279404 0.176442
Si Si4 0.199400 0.092297 0.163907
Si Si5 0.467204 0.535551 0.318370
Si Si6 0.537075 0.282553 0.679980
Si Si7 0.964129 0.077225 0.309416
Si Si8 0.308275 0.668434 0.989264
O O1 0.800107 0.397740 0.202621
O O2 0.658764 0.539063 0.329797
O O3 0.844910 0.608146 0.189754
O O4 0.000000 0.508058 0.500000
O O5 0.303015 0.987808 0.138562
O O6 0.500000 0.940130 0.000000
O O7 0.255693 0.796132 0.988511
O O8 0.148418 0.967578 0.792283
O O9 0.655312 0.269122 0.328756
O O10 0.837449 0.181870 0.195794
O O11 0.500000 0.276754 0.000000
O O12 0.307063 0.204255 0.173238
O O13 0.162063 0.077727 0.322117
O O14 0.000000 0.104775 0.000000
O O15 0.500000 0.582239 0.500000
O O16 0.389785 0.409294 0.285774
O O17 0.320569 0.611005 0.157157
O O18 0.500000 0.235948 0.500000
O O19 0.000000 0.077039 0.500000
O O20 0.500000 0.655312 0.000000
#
# Coordination Sequence:
#
# PCOD8044910 Si02
#       8
#     2   2   2   2   2   2   2   2
#     4  10  20  35  57  86 115 144 182 229 281 334
#     4  10  21  39  59  77 106 149 194 230 274 338
#     4  11  20  34  57  82 113 151 186 219 272 344
#     4  10  21  36  54  79 112 142 179 228 275 325
#     4   9  19  37  57  82 113 146 184 228 274 333
#     4  10  19  33  54  80 111 142 175 219 271 332
#     4  11  22  36  56  83 115 145 183 236 286 329
#     4   9  19  38  60  79 106 149 192 229 276 335
#
# _framework density 20.258493000000001
#
# number of rings (size 3 to 8) (size 9 to 14) (size 15 to 20)
#    0.000    2.000    0.000    5.625    0.000    2.500 
#    0.000    8.750    0.000    0.000    0.000    0.000 
#    0.000    0.000    0.000    0.000    0.000    0.000 
#
# Total GULP energy -198339.158119 kJ/mol
# GULP energy per Si atom -12396.197382 kJ/mol
# Density = 2.021238 g / cm^3
# Si number density = 20.258493 Si / 1000 Ang^3
#
#
#
# Elastic Constant Matrix: (Units=GPa)
#
#
# Indices 1 2 3 4 5 6 
#
# 1 67.5460 48.7959 25.7404 0.0000 -8.2111 0.0000
# 2 48.7959 153.6737 65.1226 0.0000 -0.7438 0.0000
# 3 25.7404 65.1226 120.0444 0.0000 -10.0321 0.0000
# 4 0.0000 0.0000 0.0000 22.1171 0.0000 -0.5242
# 5 -8.2111 -0.7438 -10.0321 0.0000 31.0584 0.0000
# 6 0.0000 0.0000 0.0000 -0.5242 0.0000 18.5059
#
#
#
# Elastic Compliance Matrix: (Units=1/GPa)
#
#
# Indices 1 2 3 4 5 6 
#
# 1 0.020028 -0.006092 -0.000575 0.000000 0.004963 0.000000
# 2 -0.006092 0.010355 -0.004548 0.000000 -0.002832 0.000000
# 3 -0.000575 -0.004548 0.011201 0.000000 0.003357 0.000000
# 4 0.000000 0.000000 0.000000 0.045244 0.000000 0.001282
# 5 0.004963 -0.002832 0.003357 0.000000 0.034526 0.000000
# 6 0.000000 0.000000 0.000000 0.001282 0.000000 0.054073
#
#
# Mechanical properties :
#
#
# Convention : Reuss Voigt Hill
#
# Bulk Modulus (GPa) = 52.20564 68.95352 60.57958
# Shear Modulus (GPa) = 24.48069 27.77663 26.12866
#
# Velocity S-wave (km/s) = 3.48000 3.70687 3.59522
# Velocity P-wave (km/s) = 6.47865 7.24099 6.87040
#
# Compressibility (1/GPa) = 0.01915502
#
# Stress axis : x y z
#
# Youngs Moduli (GPa) = 49.93020 96.56977 89.27520
#
# Poissons Ratio (x) = 0.58828 0.05133
# Poissons Ratio (y) = 0.30416 0.40602
# Poissons Ratio (z) = 0.02871 0.43920
#
# Static dielectric constant tensor:
#      x y z
#    x 4.106700 0.000000 -0.460940 
#    y 0.000000 3.710520 0.000000 
#    z -0.460940 0.000000 3.878300 
# 
# 
# High freq. dielectric constant tensor:
#      x y z
#    x 1.781040 0.000000 -0.017160 
#    y 0.000000 1.785380 0.000000 
#    z -0.017160 0.000000 1.795150 
# 
# From -- ./inp_files/5996.got.cif
#   From: 2010.03.12/outbox.cif.g09.slc.cpg/sg3_3_cif.got.tgz:5996.got - 2010.03.31 09:20:49.
