data_PCOD8044795
_publ_section_title
;
Structure prediction by ZEFSAII (Michael W. Deem and Ramdas Pophale) SiO2 
 PCOD8044795
Probable space group: P -1
;
_chemical_formula_sum "Si O2"
_cell_formula_units_Z 16
_cell_length_a 10.953000
_cell_length_b 14.927458
_cell_length_c 10.279269
_cell_angle_alpha 41.524571
_cell_angle_beta 60.430672
_cell_angle_gamma 43.658182
_cell_volume 764.909072
_symmetry_space_group_name_H-M "P -1"
_symmetry_group_IT_number 2
_symmetry_cell_setting 'triclinic'
loop_
_space_group_symop_operation_xyz
x,y,z
-x,-y,-z
loop_
_atom_site_type_symbol
_atom_site_label
_atom_site_fract_x
_atom_site_fract_y
_atom_site_fract_z
Si Si1 0.279930 0.073392 0.261242
Si Si2 0.542326 0.761987 0.103418
Si Si3 0.208819 0.906381 0.964808
Si Si4 0.741276 0.378719 0.359466
Si Si5 0.932643 0.195747 0.190865
Si Si6 0.488315 0.298340 0.535287
Si Si7 0.907858 0.902661 0.426558
Si Si8 0.340419 0.575374 0.106766
O O1 0.195146 0.137808 0.378952
O O2 0.130918 0.135910 0.161781
O O3 0.398376 0.870101 0.426960
O O4 0.392579 0.137507 0.100729
O O5 0.328331 0.880803 0.054003
O O6 0.658131 0.575880 0.178926
O O7 0.587861 0.737169 0.260943
O O8 0.322404 0.717275 0.051524
O O9 0.198180 0.030680 0.725971
O O10 0.000000 0.000000 0.000000
O O11 0.824865 0.286088 0.279885
O O12 0.588825 0.360669 0.488834
O O13 0.892965 0.276691 0.502437
O O14 0.928125 0.039185 0.332320
O O15 0.842637 0.335433 0.971697
O O16 0.355788 0.439424 0.344299
O O17 0.500000 0.500000 0.000000
#
# Coordination Sequence:
#
# PCOD8044795 Si02
#       8
#     2   2   2   2   2   2   2   2
#     4  11  23  42  62  90 125 168 207 252 309 373
#     4  12  27  38  58  95 133 161 199 259 323 361
#     4  11  24  40  63  98 129 157 205 268 313 363
#     4  11  19  38  65  91 120 155 215 255 299 366
#     4  10  19  38  67  93 116 158 214 262 295 365
#     4  12  21  40  63  86 123 168 209 246 304 380
#     4  10  20  38  68  90 120 165 212 250 303 371
#     4  11  21  39  67  96 116 158 221 261 294 364
#
# _framework density 20.917518000000001
#
# number of rings (size 3 to 8) (size 9 to 14) (size 15 to 20)
#    0.000    1.000    5.000    3.000    3.500    2.500 
#    0.000    1.875    0.000    0.000    0.000    0.000 
#    0.000    0.000    0.000    0.000    0.000    0.000 
#
# Total GULP energy -198270.629086 kJ/mol
# GULP energy per Si atom -12391.914318 kJ/mol
# Density = 2.086991 g / cm^3
# Si number density = 20.917518 Si / 1000 Ang^3
#
#
#
# Elastic Constant Matrix: (Units=GPa)
#
#
# Indices 1 2 3 4 5 6 
#
# 1 51.3623 20.4880 55.3862 -7.8413 9.5872 -14.9974
# 2 20.4880 64.9140 24.9889 -7.4960 3.0813 -11.7870
# 3 55.3862 24.9889 132.5102 -6.2331 29.9769 -22.4415
# 4 -7.8413 -7.4960 -6.2331 34.5117 -5.0826 4.7588
# 5 9.5872 3.0813 29.9769 -5.0826 39.6862 -0.8782
# 6 -14.9974 -11.7870 -22.4415 4.7588 -0.8782 23.4493
#
#
#
# Elastic Compliance Matrix: (Units=1/GPa)
#
#
# Indices 1 2 3 4 5 6 
#
# 1 0.039982 -0.005064 -0.014781 0.004598 0.002666 0.008047
# 2 -0.005064 0.018341 -0.000510 0.002124 0.000569 0.005083
# 3 -0.014781 -0.000510 0.016956 -0.002717 -0.009397 0.006717
# 4 0.004598 0.002124 -0.002717 0.031340 0.004684 -0.004776
# 5 0.002666 0.000569 -0.009397 0.004684 0.032058 -0.006752
# 6 0.008047 0.005083 0.006717 -0.004776 -0.006752 0.057492
#
#
# Mechanical properties :
#
#
# Convention : Reuss Voigt Hill
#
# Bulk Modulus (GPa) = 28.92672 50.05696 39.49184
# Shear Modulus (GPa) = 20.12874 29.39099 24.75987
#
# Velocity S-wave (km/s) = 3.10545 3.75252 3.44421
# Velocity P-wave (km/s) = 5.16888 6.53894 5.89386
#
# Compressibility (1/GPa) = 0.03457012
#
# Stress axis : x y z
#
# Youngs Moduli (GPa) = 25.01126 54.52337 58.97460
#
# Poissons Ratio (x) = 0.27608 0.87168
# Poissons Ratio (y) = 0.12665 0.03010
# Poissons Ratio (z) = 0.36968 0.02783
#
# Static dielectric constant tensor:
#      x y z
#    x 3.768690 -0.166000 0.462820 
#    y -0.166000 3.905050 -0.197220 
#    z 0.462820 -0.197220 3.985260 
# 
# 
# High freq. dielectric constant tensor:
#      x y z
#    x 1.789190 -0.004010 0.032730 
#    y -0.004010 1.826360 -0.008840 
#    z 0.032730 -0.008840 1.825490 
# 
# From -- ./inp_files/436329.got.cif
#   From: 2010.06.25/outbox.cif.g09.slc.cpg/sg2_219_cif.got.tgz:436329.got - 2010.06.27 13:26:56.
