data_PCOD8044383
_publ_section_title
;
Structure prediction by ZEFSAII (Michael W. Deem and Ramdas Pophale) SiO2 
 PCOD8044383
Probable space group: P -1
;
_chemical_formula_sum "Si O2"
_cell_formula_units_Z 16
_cell_length_a 17.278205
_cell_length_b 8.993799
_cell_length_c 10.793219
_cell_angle_alpha 53.479226
_cell_angle_beta 56.256252
_cell_angle_gamma 40.807598
_cell_volume 863.080410
_symmetry_space_group_name_H-M "P -1"
_symmetry_group_IT_number 2
_symmetry_cell_setting 'triclinic'
loop_
_space_group_symop_operation_xyz
x,y,z
-x,-y,-z
loop_
_atom_site_type_symbol
_atom_site_label
_atom_site_fract_x
_atom_site_fract_y
_atom_site_fract_z
Si Si1 0.896480 0.578165 0.647144
Si Si2 0.786390 0.075432 0.436581
Si Si3 0.432937 0.980071 0.722346
Si Si4 0.425809 0.720141 0.650541
Si Si5 0.937595 0.890840 0.145782
Si Si6 0.292987 0.815979 0.948231
Si Si7 0.323375 0.496997 0.514090
Si Si8 0.296520 0.449839 0.285617
O O1 0.803552 0.553283 0.681684
O O2 0.000000 0.500000 0.500000
O O3 0.960099 0.400794 0.797039
O O4 0.827944 0.857117 0.600412
O O5 0.655467 0.183850 0.446395
O O6 0.777200 0.274819 0.425844
O O7 0.879763 0.988444 0.285054
O O8 0.426643 0.929795 0.605361
O O9 0.354998 0.923577 0.895517
O O10 0.571059 0.800959 0.734855
O O11 0.373315 0.254312 0.663257
O O12 0.373811 0.648422 0.839315
O O13 0.565166 0.499136 0.604785
O O14 0.839786 0.960954 0.094689
O O15 0.000000 0.000000 0.000000
O O16 0.287682 0.665066 0.129041
O O17 0.266174 0.510296 0.427806
#
# Coordination Sequence:
#
# PCOD8044383 Si02
#       8
#     2   2   2   2   2   2   2   2
#     4  10  21  35  59  80  99 140 194 227 253 319
#     4  10  20  35  54  84 106 139 181 227 271 311
#     4   9  19  32  55  86 107 145 177 214 267 325
#     4   8  17  32  56  77 111 145 183 205 264 322
#     4  10  19  38  60  74  99 142 194 224 259 312
#     4   9  19  33  58  81 102 142 192 217 251 324
#     4  11  20  31  54  83 119 137 167 228 278 317
#     4  11  19  34  58  82 111 141 184 215 271 319
#
# _framework density 18.538250000000001
#
# number of rings (size 3 to 8) (size 9 to 14) (size 15 to 20)
#    0.750    1.500    1.250    3.750    1.750    0.000 
#    0.000    3.750    0.000    3.750    0.000    0.000 
#    0.000    0.000    0.000    0.000    0.000    0.000 
#
# Total GULP energy -198248.052204 kJ/mol
# GULP energy per Si atom -12390.503263 kJ/mol
# Density = 1.849606 g / cm^3
# Si number density = 18.538250 Si / 1000 Ang^3
#
#
#
# Elastic Constant Matrix: (Units=GPa)
#
#
# Indices 1 2 3 4 5 6 
#
# 1 73.1740 26.9640 24.8621 -6.8650 -11.6671 -18.9971
# 2 26.9640 75.1241 30.2453 -19.7601 3.9924 5.0466
# 3 24.8621 30.2453 82.3078 -24.8551 -4.2441 -6.0699
# 4 -6.8650 -19.7601 -24.8551 25.5427 -6.7213 -1.2205
# 5 -11.6671 3.9924 -4.2441 -6.7213 25.1698 0.5737
# 6 -18.9971 5.0466 -6.0699 -1.2205 0.5737 25.1997
#
#
#
# Elastic Compliance Matrix: (Units=1/GPa)
#
#
# Indices 1 2 3 4 5 6 
#
# 1 0.025610 -0.010258 -0.000935 0.002607 0.013559 0.020953
# 2 -0.010258 0.021822 -0.003655 0.008308 -0.006331 -0.012438
# 3 -0.000935 -0.003655 0.020511 0.019433 0.008664 0.005712
# 4 0.002607 0.008308 0.019433 0.071368 0.022045 0.007937
# 5 0.013559 -0.006331 0.008664 0.022045 0.054062 0.013414
# 6 0.020953 -0.012438 0.005712 0.007937 0.013414 0.059425
#
#
# Mechanical properties :
#
#
# Convention : Reuss Voigt Hill
#
# Bulk Modulus (GPa) = 26.14562 43.86099 35.00330
# Shear Modulus (GPa) = 16.93522 25.08472 21.00997
#
# Velocity S-wave (km/s) = 3.02574 3.68249 3.37015
# Velocity P-wave (km/s) = 5.13235 6.46468 5.83665
#
# Compressibility (1/GPa) = 0.03824732
#
# Stress axis : x y z
#
# Youngs Moduli (GPa) = 39.04728 45.82520 48.75343
#
# Poissons Ratio (x) = 0.47009 0.04556
# Poissons Ratio (y) = 0.40056 0.17820
# Poissons Ratio (z) = 0.03649 0.16750
#
# Static dielectric constant tensor:
#      x y z
#    x 3.312980 -0.246730 -0.053700 
#    y -0.246730 3.180870 -0.266720 
#    z -0.053700 -0.266720 3.468770 
# 
# 
# High freq. dielectric constant tensor:
#      x y z
#    x 1.715210 -0.030600 -0.014510 
#    y -0.030600 1.688370 -0.018580 
#    z -0.014510 -0.018580 1.715110 
# 
# From -- ./inp_files/461006.got.cif
#   From: 2010.06.25/outbox.cif.g09.slc.cpg/sg2_231_cif.got.tgz:461006.got - 2010.06.27 13:26:56.
