data_PCOD8044798
_publ_section_title
;
Structure prediction by ZEFSAII (Michael W. Deem and Ramdas Pophale) SiO2 
 PCOD8044798
Probable space group: P -1
;
_chemical_formula_sum "Si O2"
_cell_formula_units_Z 16
_cell_length_a 8.843977
_cell_length_b 9.476375
_cell_length_c 12.149394
_cell_angle_alpha 68.744742
_cell_angle_beta 109.644343
_cell_angle_gamma 69.027088
_cell_volume 748.382360
_symmetry_space_group_name_H-M "P -1"
_symmetry_group_IT_number 2
_symmetry_cell_setting 'triclinic'
loop_
_space_group_symop_operation_xyz
x,y,z
-x,-y,-z
loop_
_atom_site_type_symbol
_atom_site_label
_atom_site_fract_x
_atom_site_fract_y
_atom_site_fract_z
Si Si1 0.502483 0.175289 0.969912
Si Si2 0.208434 0.238595 0.555652
Si Si3 0.428752 0.897684 0.437827
Si Si4 0.821017 0.535121 0.319818
Si Si5 0.736826 0.114789 0.249878
Si Si6 0.935989 0.970455 0.813034
Si Si7 0.586584 0.376880 0.333268
Si Si8 0.228136 0.752059 0.119495
O O1 0.292127 0.357367 0.848321
O O2 0.651793 0.168434 0.921502
O O3 0.558657 0.180691 0.106650
O O4 0.500000 0.000000 0.000000
O O5 0.399416 0.226122 0.568293
O O6 0.158951 0.325674 0.639688
O O7 0.034600 0.365443 0.392600
O O8 0.235095 0.044598 0.619878
O O9 0.238746 0.035358 0.281452
O O10 0.383923 0.771432 0.531451
O O11 0.500000 0.000000 0.500000
O O12 0.705206 0.462882 0.377115
O O13 0.676356 0.286202 0.262714
O O14 0.930768 0.044894 0.250438
O O15 0.854643 0.159077 0.806143
O O16 0.054512 0.806438 0.975844
O O17 0.361049 0.534788 0.223101
#
# Coordination Sequence:
#
# PCOD8044798 Si02
#       8
#     2   2   2   2   2   2   2   2
#     4  10  19  38  67  96 125 165 207 264 316 376
#     4  11  23  42  61  96 126 165 217 258 318 382
#     4  12  25  41  62  90 132 171 209 265 321 375
#     4  10  23  39  66  94 126 161 217 262 310 389
#     4  11  23  40  69  94 127 171 212 261 324 380
#     4  10  23  42  68  93 130 169 217 259 323 384
#     4  11  24  43  64  95 130 168 211 266 324 376
#     4   9  22  43  66  97 124 167 216 264 318 386
#
# _framework density 21.379445
#
# number of rings (size 3 to 8) (size 9 to 14) (size 15 to 20)
#    0.000    1.500    2.500    2.250    1.750    9.500 
#    2.250    0.625    0.000    0.000    0.000    0.000 
#    0.000    0.000    0.000    0.000    0.000    0.000 
#
# Total GULP energy -198395.789002 kJ/mol
# GULP energy per Si atom -12399.736813 kJ/mol
# Density = 2.133078 g / cm^3
# Si number density = 21.379445 Si / 1000 Ang^3
#
#
#
# Elastic Constant Matrix: (Units=GPa)
#
#
# Indices 1 2 3 4 5 6 
#
# 1 77.6276 20.4218 46.8941 -3.1120 22.5861 -11.5527
# 2 20.4218 87.7498 32.5029 -4.3065 9.4832 -12.2668
# 3 46.8941 32.5029 120.5737 -10.0964 41.5904 -6.4904
# 4 -3.1120 -4.3065 -10.0964 30.2318 -1.3768 -0.7421
# 5 22.5861 9.4832 41.5904 -1.3768 44.6727 0.1975
# 6 -11.5527 -12.2668 -6.4904 -0.7421 0.1975 41.1216
#
#
#
# Elastic Compliance Matrix: (Units=1/GPa)
#
#
# Indices 1 2 3 4 5 6 
#
# 1 0.018063 -0.001354 -0.005010 -0.000102 -0.004201 0.003898
# 2 -0.001354 0.013239 -0.003059 0.000834 0.000734 0.003098
# 3 -0.005010 -0.003059 0.015087 0.003602 -0.010754 0.000178
# 4 -0.000102 0.000834 0.003602 0.034313 -0.002428 0.001420
# 5 -0.004201 0.000734 -0.010754 -0.002428 0.034303 -0.002867
# 6 0.003898 0.003098 0.000178 0.001420 -0.002867 0.026405
#
#
# Mechanical properties :
#
#
# Convention : Reuss Voigt Hill
#
# Bulk Modulus (GPa) = 36.30537 53.95431 45.12984
# Shear Modulus (GPa) = 29.50960 35.61405 32.56183
#
# Velocity S-wave (km/s) = 3.71924 4.08586 3.90685
# Velocity P-wave (km/s) = 5.95500 6.89567 6.44253
#
# Compressibility (1/GPa) = 0.02754413
#
# Stress axis : x y z
#
# Youngs Moduli (GPa) = 55.36180 75.53573 66.28158
#
# Poissons Ratio (x) = 0.10229 0.33204
# Poissons Ratio (y) = 0.07497 0.20273
# Poissons Ratio (z) = 0.27734 0.23104
#
# Static dielectric constant tensor:
#      x y z
#    x 3.916180 -0.192690 0.285630 
#    y -0.192690 4.069580 0.042000 
#    z 0.285630 0.042000 4.143370 
# 
# 
# High freq. dielectric constant tensor:
#      x y z
#    x 1.831170 -0.006950 0.019630 
#    y -0.006950 1.830440 -0.003960 
#    z 0.019630 -0.003960 1.847460 
# 
# From -- ./inp_files/186053.got.cif
#   From: 2010.06.25/outbox.cif.g09.slc.cpg/sg2_94_cif.got.tgz:186053.got - 2010.06.27 13:26:56.
