data_PCOD8044745
_publ_section_title
;
Structure prediction by ZEFSAII (Michael W. Deem and Ramdas Pophale) SiO2 
 PCOD8044745
Probable space group: P -1
;
_chemical_formula_sum "Si O2"
_cell_formula_units_Z 14
_cell_length_a 15.269191
_cell_length_b 8.667760
_cell_length_c 9.880905
_cell_angle_alpha 106.811777
_cell_angle_beta 43.460459
_cell_angle_gamma 81.644190
_cell_volume 725.004019
_symmetry_space_group_name_H-M "P -1"
_symmetry_group_IT_number 2
_symmetry_cell_setting 'triclinic'
loop_
_space_group_symop_operation_xyz
x,y,z
-x,-y,-z
loop_
_atom_site_type_symbol
_atom_site_label
_atom_site_fract_x
_atom_site_fract_y
_atom_site_fract_z
Si Si1 0.026745 0.875130 0.136932
Si Si2 0.164809 0.900712 0.354706
Si Si3 0.644312 0.930790 0.913160
Si Si4 0.932307 0.548973 0.440869
Si Si5 0.200330 0.581042 0.079123
Si Si6 0.936093 0.812145 0.952229
Si Si7 0.633508 0.853882 0.216622
O O1 0.176958 0.712188 0.007789
O O2 0.979544 0.776632 0.052421
O O3 0.871468 0.022361 0.431465
O O4 0.084170 0.994993 0.029047
O O5 0.232078 0.673693 0.199001
O O6 0.278156 0.948411 0.166806
O O7 0.000000 0.000000 0.500000
O O8 0.758620 0.714883 0.682696
O O9 0.603567 0.935573 0.118224
O O10 0.500000 0.000000 0.000000
O O11 0.000000 0.500000 0.500000
O O12 0.034557 0.610858 0.266362
O O13 0.936695 0.371138 0.321239
O O14 0.338716 0.359503 0.863427
O O15 0.780307 0.829146 0.110181
O O16 0.500000 0.000000 0.500000
#
# Coordination Sequence:
#
# PCOD8044745 Si02
#       7
#     2   2   2   2   2   2   2
#     4  10  20  35  61  99 117 154 208 278 298 358
#     4  10  19  38  66  90 121 160 216 251 305 377
#     4  12  25  40  62  98 131 163 209 267 318 368
#     4  11  19  38  64  90 117 166 214 256 306 376
#     4  10  20  36  68  88 113 164 223 252 303 373
#     4  10  22  37  62  90 128 157 218 255 313 371
#     4  11  25  41  60  86 132 172 201 257 323 380
#
# _framework density 19.310238999999999
#
# number of rings (size 3 to 8) (size 9 to 14) (size 15 to 20)
#    0.000    1.429    5.714    2.571    2.000    3.429 
#    0.000    6.429    0.000    0.000    0.000    0.000 
#    0.000    0.000    0.000    0.000    0.000    0.000 
#
# Total GULP energy -173482.992337 kJ/mol
# GULP energy per Si atom -12391.642310 kJ/mol
# Density = 1.926629 g / cm^3
# Si number density = 19.310239 Si / 1000 Ang^3
#
#
#
# Elastic Constant Matrix: (Units=GPa)
#
#
# Indices 1 2 3 4 5 6 
#
# 1 104.2357 33.8763 50.4134 16.0557 16.0024 3.6473
# 2 33.8763 82.0681 46.2544 16.2284 7.0435 4.9872
# 3 50.4134 46.2544 139.9761 23.0246 15.6079 -3.1050
# 4 16.0557 16.2284 23.0246 31.9067 2.1251 2.5113
# 5 16.0024 7.0435 15.6079 2.1251 41.9050 2.0495
# 6 3.6473 4.9872 -3.1050 2.5113 2.0495 24.6734
#
#
#
# Elastic Compliance Matrix: (Units=1/GPa)
#
#
# Indices 1 2 3 4 5 6 
#
# 1 0.012855 -0.002781 -0.002955 -0.002619 -0.003150 -0.001182
# 2 -0.002781 0.016470 -0.003866 -0.003957 0.000081 -0.003009
# 3 -0.002955 -0.003866 0.010480 -0.004218 -0.002064 0.003138
# 4 -0.002619 -0.003957 -0.004218 0.037879 0.001478 -0.003322
# 5 -0.003150 0.000081 -0.002064 0.001478 0.025850 -0.002108
# 6 -0.001182 -0.003009 0.003138 -0.003322 -0.002108 0.042220
#
#
# Mechanical properties :
#
#
# Convention : Reuss Voigt Hill
#
# Bulk Modulus (GPa) = 48.54106 65.26310 56.90208
# Shear Modulus (GPa) = 29.09952 32.74607 30.92279
#
# Velocity S-wave (km/s) = 3.88615 4.12246 4.00605
# Velocity P-wave (km/s) = 6.73263 7.51865 7.13647
#
# Compressibility (1/GPa) = 0.02060112
#
# Stress axis : x y z
#
# Youngs Moduli (GPa) = 77.79067 60.71675 95.42415
#
# Poissons Ratio (x) = 0.16884 0.28199
# Poissons Ratio (y) = 0.21631 0.36890
# Poissons Ratio (z) = 0.22988 0.23472
#
# Static dielectric constant tensor:
#      x y z
#    x 3.549610 0.293030 0.354870 
#    y 0.293030 4.150320 0.512560 
#    z 0.354870 0.512560 2.843960 
# 
# 
# High freq. dielectric constant tensor:
#      x y z
#    x 1.736590 0.008570 0.026290 
#    y 0.008570 1.764270 0.004770 
#    z 0.026290 0.004770 1.742730 
# 
# From -- ./inp_files/203224.got.cif
#   From: 2010.06.25/outbox.cif.g09.slc.cpg/sg2_102_cif.got.tgz:203224.got - 2010.06.27 13:26:56.
