data_PCOD8044837
_publ_section_title
;
Structure prediction by ZEFSAII (Michael W. Deem and Ramdas Pophale) SiO2 
 PCOD8044837
Probable space group: P 2
;
_chemical_formula_sum "Si O2"
_cell_formula_units_Z 13
_cell_length_a 16.116537
_cell_length_b 8.095871
_cell_length_c 15.362907
_cell_angle_alpha 90.000000
_cell_angle_beta 161.298823
_cell_angle_gamma 90.000000
_cell_volume 642.711665
_symmetry_space_group_name_H-M "P 2"
_symmetry_group_IT_number 3
_symmetry_cell_setting 'monoclinic'
loop_
_space_group_symop_operation_xyz
x,y,z
-x,y,-z
loop_
_atom_site_type_symbol
_atom_site_label
_atom_site_fract_x
_atom_site_fract_y
_atom_site_fract_z
Si Si1 0.628526 0.497240 0.861898
Si Si2 0.486947 0.871731 0.291985
Si Si3 0.612630 0.362766 0.025599
Si Si4 0.000000 0.122688 0.500000
Si Si5 0.974266 0.990796 0.874830
Si Si6 0.268443 0.084702 0.605808
Si Si7 0.883478 0.298635 0.692495
O O1 0.586438 0.682784 0.792077
O O2 0.394088 0.384569 0.594421
O O3 0.679457 0.495030 0.017123
O O4 0.891629 0.433403 0.079328
O O5 0.747368 0.879108 0.607897
O O6 0.541609 0.952945 0.251122
O O7 0.249884 0.964895 0.101621
O O8 0.842130 0.243444 0.280554
O O9 0.500000 0.454269 0.000000
O O10 0.399592 0.248165 0.771485
O O11 0.856138 0.006073 0.428962
O O12 0.893037 0.185217 0.788733
O O13 0.000000 0.937345 0.000000
O O14 0.068038 0.158860 0.335032
#
# Coordination Sequence:
#
# PCOD8044837 Si02
#       7
#     2   2   2   1   2   2   2
#     4  11  21  39  59  91 124 163 195 247 310 364
#     4  11  24  39  65  92 130 162 193 245 323 367
#     4   9  18  32  55  83 116 162 213 255 287 340
#     4  10  16  32  58  90 114 162 220 258 278 336
#     4  11  23  44  67  92 118 157 206 253 299 371
#     4   9  19  33  58  86 117 163 211 247 290 354
#     4  10  20  38  65  86 115 159 210 244 293 362
#
# _framework density 20.226800999999998
#
# number of rings (size 3 to 8) (size 9 to 14) (size 15 to 20)
#    0.000    1.846    1.538    4.154    2.154    0.000 
#    0.000    6.923    0.000    0.923    0.000    0.000 
#    0.000    0.000    0.000    0.000    0.000    0.000 
#
# Total GULP energy -161048.085915 kJ/mol
# GULP energy per Si atom -12388.314301 kJ/mol
# Density = 2.018076 g / cm^3
# Si number density = 20.226801 Si / 1000 Ang^3
#
#
#
# Elastic Constant Matrix: (Units=GPa)
#
#
# Indices 1 2 3 4 5 6 
#
# 1 93.7233 27.7873 34.7713 0.0000 1.4510 0.0000
# 2 27.7873 81.0147 13.4909 0.0000 -0.7545 0.0000
# 3 34.7713 13.4909 96.6438 0.0000 6.8730 0.0000
# 4 0.0000 0.0000 0.0000 34.2692 0.0000 1.5518
# 5 1.4510 -0.7545 6.8730 0.0000 28.7100 0.0000
# 6 0.0000 0.0000 0.0000 1.5518 0.0000 18.4417
#
#
#
# Elastic Compliance Matrix: (Units=1/GPa)
#
#
# Indices 1 2 3 4 5 6 
#
# 1 0.013413 -0.003882 -0.004302 0.000000 0.000250 0.000000
# 2 -0.003882 0.013777 -0.000576 0.000000 0.000696 0.000000
# 3 -0.004302 -0.000576 0.012168 0.000000 -0.002711 0.000000
# 4 0.000000 0.000000 0.000000 0.029292 0.000000 -0.002465
# 5 0.000250 0.000696 -0.002711 0.000000 0.035486 0.000000
# 6 0.000000 0.000000 0.000000 -0.002465 0.000000 0.054432
#
#
# Mechanical properties :
#
#
# Convention : Reuss Voigt Hill
#
# Bulk Modulus (GPa) = 45.78952 47.05342 46.42147
# Shear Modulus (GPa) = 27.26775 29.30635 28.28705
#
# Velocity S-wave (km/s) = 3.67563 3.81055 3.74370
# Velocity P-wave (km/s) = 6.37972 6.53252 6.45658
#
# Compressibility (1/GPa) = 0.02183906
#
# Stress axis : x y z
#
# Youngs Moduli (GPa) = 74.55684 72.58338 82.18187
#
# Poissons Ratio (x) = 0.28175 0.35351
# Poissons Ratio (y) = 0.28941 0.04735
# Poissons Ratio (z) = 0.32071 0.04182
#
# Static dielectric constant tensor:
#      x y z
#    x 4.102120 0.000000 0.078480 
#    y 0.000000 3.314960 0.000000 
#    z 0.078480 0.000000 3.698440 
# 
# 
# High freq. dielectric constant tensor:
#      x y z
#    x 1.792980 0.000000 -0.002010 
#    y 0.000000 1.751270 0.000000 
#    z -0.002010 0.000000 1.805650 
# 
# From -- ./inp_files/3012.got.cif
#   From: 2010.03.12/outbox.cif.g09.slc.cpg/sg3_2_cif.got.tgz:3012.got - 2010.03.31 09:20:49.
