data_PCOD8044338
_publ_section_title
;
Structure prediction by ZEFSAII (Michael W. Deem and Ramdas Pophale) SiO2 
 PCOD8044338
Probable space group: P -1
;
_chemical_formula_sum "Si O2"
_cell_formula_units_Z 16
_cell_length_a 22.370067
_cell_length_b 15.915715
_cell_length_c 7.582361
_cell_angle_alpha 58.385986
_cell_angle_beta 57.456482
_cell_angle_gamma 20.511307
_cell_volume 795.494630
_symmetry_space_group_name_H-M "P -1"
_symmetry_group_IT_number 2
_symmetry_cell_setting 'triclinic'
loop_
_space_group_symop_operation_xyz
x,y,z
-x,-y,-z
loop_
_atom_site_type_symbol
_atom_site_label
_atom_site_fract_x
_atom_site_fract_y
_atom_site_fract_z
Si Si1 0.167565 0.195855 0.752707
Si Si2 0.184654 0.298260 0.279940
Si Si3 0.520505 0.782646 0.242892
Si Si4 0.546766 0.737559 0.670137
Si Si5 0.355979 0.601156 0.154963
Si Si6 0.142073 0.020098 0.858987
Si Si7 0.531511 0.367776 0.474530
Si Si8 0.232466 0.449978 0.183003
O O1 0.161046 0.233068 0.514372
O O2 0.163292 0.082753 0.895264
O O3 0.990102 0.465873 0.822243
O O4 0.347916 0.004837 0.757802
O O5 0.208388 0.364125 0.293356
O O6 0.354616 0.062692 0.151833
O O7 0.563300 0.736590 0.435244
O O8 0.472707 0.732380 0.310613
O O9 0.680065 0.618025 0.057241
O O10 0.606687 0.550719 0.831209
O O11 0.659109 0.671417 0.676923
O O12 0.367143 0.570429 0.380252
O O13 0.500000 0.500000 0.000000
O O14 0.174337 0.876349 0.072256
O O15 0.950077 0.262692 0.817295
O O16 0.282524 0.854348 0.665103
O O17 0.500000 0.500000 0.500000
#
# Coordination Sequence:
#
# PCOD8044338 Si02
#       8
#     2   2   2   2   2   2   2   2
#     4   9  16  33  63  81 109 155 193 233 284 337
#     4   9  18  36  59  83 114 153 192 236 285 336
#     4  10  21  40  58  85 117 152 191 236 287 343
#     4  10  20  38  57  85 119 150 188 236 291 341
#     4   9  17  34  59  78 111 152 187 232 279 337
#     4  10  19  38  57  87 111 151 195 230 284 346
#     4  10  20  36  60  85 113 150 194 238 280 337
#     4  11  24  35  61  87 118 152 188 238 293 338
#
# _framework density 20.113274000000001
#
# number of rings (size 3 to 8) (size 9 to 14) (size 15 to 20)
#    0.000    2.250    5.000    0.375    3.500    2.500 
#    2.250    1.875    0.000    0.000    0.000    0.000 
#    0.000    0.000    0.000    0.000    0.000    0.000 
#
# Total GULP energy -198238.494082 kJ/mol
# GULP energy per Si atom -12389.905880 kJ/mol
# Density = 2.006750 g / cm^3
# Si number density = 20.113274 Si / 1000 Ang^3
#
#
#
# Elastic Constant Matrix: (Units=GPa)
#
#
# Indices 1 2 3 4 5 6 
#
# 1 83.5571 39.8952 14.1665 -6.1065 0.7219 -4.9807
# 2 39.8952 143.4502 32.7010 -15.8510 -2.8091 -8.9430
# 3 14.1665 32.7010 53.6123 1.8909 -6.6647 2.8889
# 4 -6.1065 -15.8510 1.8909 27.6371 2.0467 -6.2997
# 5 0.7219 -2.8091 -6.6647 2.0467 19.7227 -5.2759
# 6 -4.9807 -8.9430 2.8889 -6.2997 -5.2759 31.4930
#
#
#
# Elastic Compliance Matrix: (Units=1/GPa)
#
#
# Indices 1 2 3 4 5 6 
#
# 1 0.014084 -0.003135 -0.002148 0.001951 -0.001440 0.001683
# 2 -0.003135 0.010149 -0.005812 0.006485 0.000054 0.004225
# 3 -0.002148 -0.005812 0.024113 -0.006983 0.006937 -0.004437
# 4 0.001951 0.006485 -0.006983 0.043544 -0.003088 0.010984
# 5 -0.001440 0.000054 0.006937 -0.003088 0.055524 0.007835
# 6 0.001683 0.004225 -0.004437 0.010984 0.007835 0.037136
#
#
# Mechanical properties :
#
#
# Convention : Reuss Voigt Hill
#
# Bulk Modulus (GPa) = 38.23160 50.46057 44.34608
# Shear Modulus (GPa) = 23.20648 28.69435 25.95041
#
# Velocity S-wave (km/s) = 3.40043 3.78118 3.59585
# Velocity P-wave (km/s) = 5.87083 6.64874 6.27186
#
# Compressibility (1/GPa) = 0.02615637
#
# Stress axis : x y z
#
# Youngs Moduli (GPa) = 71.00129 98.53370 41.47217
#
# Poissons Ratio (x) = 0.30890 0.08908
# Poissons Ratio (y) = 0.22259 0.24102
# Poissons Ratio (z) = 0.15251 0.57264
#
# Static dielectric constant tensor:
#      x y z
#    x 3.421900 0.094740 -0.246950 
#    y 0.094740 4.476550 -0.352290 
#    z -0.246950 -0.352290 3.587030 
# 
# 
# High freq. dielectric constant tensor:
#      x y z
#    x 1.762700 0.004660 -0.026530 
#    y 0.004660 1.800860 -0.019190 
#    z -0.026530 -0.019190 1.759230 
# 
# From -- ./inp_files/203387.got.cif
#   From: 2010.06.25/outbox.cif.g09.slc.cpg/sg2_102_cif.got.tgz:203387.got - 2010.06.27 13:26:56.
