data_PCOD8044181
_publ_section_title
;
Structure prediction by ZEFSAII (Michael W. Deem and Ramdas Pophale) SiO2 
 PCOD8044181
Probable space group: P -1
;
_chemical_formula_sum "Si O2"
_cell_formula_units_Z 12
_cell_length_a 17.492614
_cell_length_b 19.824317
_cell_length_c 12.634810
_cell_angle_alpha 148.033842
_cell_angle_beta 21.006244
_cell_angle_gamma 158.962609
_cell_volume 554.776094
_symmetry_space_group_name_H-M "P -1"
_symmetry_group_IT_number 2
_symmetry_cell_setting 'triclinic'
loop_
_space_group_symop_operation_xyz
x,y,z
-x,-y,-z
loop_
_atom_site_type_symbol
_atom_site_label
_atom_site_fract_x
_atom_site_fract_y
_atom_site_fract_z
Si Si1 0.211513 0.400631 0.592577
Si Si2 0.430868 0.318924 0.669392
Si Si3 0.045470 0.524140 0.641700
Si Si4 0.160728 0.780447 0.658787
Si Si5 0.466396 0.304555 0.253644
Si Si6 0.514008 0.153932 0.167327
O O1 0.370539 0.477946 0.373646
O O2 0.182514 0.239495 0.459083
O O3 0.474632 0.580454 0.567876
O O4 0.895893 0.345379 0.925882
O O5 0.619706 0.362630 0.587771
O O6 0.372128 0.172255 0.471877
O O7 0.091240 0.217080 0.012010
O O8 0.125826 0.684980 0.684271
O O9 0.903490 0.342973 0.519197
O O10 0.787602 0.442253 0.954521
O O11 0.500000 0.000000 0.500000
O O12 0.371800 0.128755 0.200181
O O13 0.500000 0.000000 0.000000
#
# Coordination Sequence:
#
# PCOD8044181 Si02
#       6
#     2   2   2   2   2   2
#     4  10  19  37  65  92 122 164 205 245 323 390
#     4  11  21  43  68  90 129 171 211 263 325 386
#     4  11  22  44  69  91 128 175 215 266 328 380
#     4  11  27  44  64  96 126 169 228 272 316 376
#     4  10  19  37  65  88 121 166 204 251 316 388
#     4  11  23  36  60 103 131 159 208 260 320 390
#
# _framework density 21.630345999999999
#
# number of rings (size 3 to 8) (size 9 to 14) (size 15 to 20)
#    0.000    1.333    5.000    1.500    0.000    4.000 
#    0.000    0.000    0.000    0.000    0.000    0.000 
#    0.000    0.000    0.000    0.000    0.000    0.000 
#
# Total GULP energy -148696.123225 kJ/mol
# GULP energy per Si atom -12391.343602 kJ/mol
# Density = 2.158111 g / cm^3
# Si number density = 21.630346 Si / 1000 Ang^3
#
#
#
# Elastic Constant Matrix: (Units=GPa)
#
#
# Indices 1 2 3 4 5 6 
#
# 1 114.2916 18.7038 24.6066 23.5637 0.6931 -11.1669
# 2 18.7038 71.7308 18.3800 25.4654 16.1137 -17.8723
# 3 24.6066 18.3800 90.9039 -2.3609 -16.2791 -0.1699
# 4 23.5637 25.4654 -2.3609 12.9425 -15.4416 -9.8943
# 5 0.6931 16.1137 -16.2791 -15.4416 23.1597 -2.1230
# 6 -11.1669 -17.8723 -0.1699 -9.8943 -2.1230 32.4531
#
#
#
# Elastic Compliance Matrix: (Units=1/GPa)
#
#
# Indices 1 2 3 4 5 6 
#
# 1 0.008628 -0.005365 0.000227 0.005415 0.007442 0.002153
# 2 -0.005365 0.005966 0.003266 0.021730 0.013616 0.008972
# 3 0.000227 0.003266 0.008888 -0.014110 -0.005691 -0.002751
# 4 0.005415 0.021730 -0.014110 -0.026095 -0.042319 0.003032
# 5 0.007442 0.013616 -0.005691 -0.042319 0.001009 -0.002807
# 6 0.002153 0.008972 -0.002751 0.003032 -0.002807 0.037222
#
#
# Mechanical properties :
#
#
# Convention : Reuss Voigt Hill
#
# Bulk Modulus (GPa) = 50.67008 44.47857 47.57432
# Shear Modulus (GPa) = 108.83236 28.06010 68.44623
#
# Velocity S-wave (km/s) = 7.10098 3.60565 5.63137
# Velocity P-wave (km/s) = 9.52408 6.15971 8.02029
#
# Compressibility (1/GPa) = 0.01973551
#
# Stress axis : x y z
#
# Youngs Moduli (GPa) = 115.90655 167.62237 112.50830
#
# Poissons Ratio (x) = 0.89935 -0.02551
# Poissons Ratio (y) = 0.62188 -0.36740
# Poissons Ratio (z) = -0.02628 -0.54738
#
# Static dielectric constant tensor:
#      x y z
#    x 11.335910 1.776840 -8.113700 
#    y 1.776840 4.458830 -2.400100 
#    z -8.113700 -2.400100 12.910880 
# 
# 
# High freq. dielectric constant tensor:
#      x y z
#    x 1.872030 -0.018540 -0.016520 
#    y -0.018540 1.826500 0.000120 
#    z -0.016520 0.000120 1.855030 
# 
# From -- ./inp_files/261381.got.cif
#   From: 2010.06.25/outbox.cif.g09.slc.cpg/sg2_131_cif.got.tgz:261381.got - 2010.06.27 13:26:56.
