data_PCOD8044399
_publ_section_title
;
Structure prediction by ZEFSAII (Michael W. Deem and Ramdas Pophale) SiO2 
 PCOD8044399
Probable space group: P -1
;
_chemical_formula_sum "Si O2"
_cell_formula_units_Z 16
_cell_length_a 14.068151
_cell_length_b 13.436495
_cell_length_c 9.185297
_cell_angle_alpha 78.902990
_cell_angle_beta 73.225387
_cell_angle_gamma 140.178604
_cell_volume 785.055140
_symmetry_space_group_name_H-M "P -1"
_symmetry_group_IT_number 2
_symmetry_cell_setting 'triclinic'
loop_
_space_group_symop_operation_xyz
x,y,z
-x,-y,-z
loop_
_atom_site_type_symbol
_atom_site_label
_atom_site_fract_x
_atom_site_fract_y
_atom_site_fract_z
Si Si1 0.623027 0.792860 0.079844
Si Si2 0.000162 0.117160 0.007596
Si Si3 0.307702 0.015046 0.264119
Si Si4 0.566431 0.239522 0.605384
Si Si5 0.552483 0.512870 0.311058
Si Si6 0.025719 0.606935 0.335604
Si Si7 0.398029 0.893201 0.919524
Si Si8 0.723759 0.913594 0.448880
O O1 0.446690 0.699462 0.264972
O O2 0.577337 0.632396 0.161354
O O3 0.839458 0.023969 0.992866
O O4 0.626872 0.825954 0.899653
O O5 0.925242 0.072720 0.217687
O O6 0.235970 0.364671 0.816196
O O7 0.000000 0.000000 0.000000
O O8 0.139632 0.803723 0.304694
O O9 0.514919 0.135199 0.172440
O O10 0.209274 0.961588 0.475651
O O11 0.808124 0.443343 0.408848
O O12 0.455409 0.189780 0.530991
O O13 0.460385 0.036494 0.739317
O O14 0.500000 0.500000 0.500000
O O15 0.369310 0.277334 0.401731
O O16 0.000000 0.500000 0.500000
O O17 0.152939 0.675908 0.121260
O O18 0.500000 0.000000 0.000000
#
# Coordination Sequence:
#
# PCOD8044399 Si02
#       8
#     2   2   2   2   2   2   2   2
#     4  10  20  37  65  88 119 164 205 245 293 361
#     4   9  19  39  62  85 115 157 208 243 287 361
#     4  11  23  41  59  92 132 151 193 267 306 336
#     4  11  20  38  65  90 110 166 211 233 296 370
#     4  11  20  39  66  88 117 164 209 243 287 372
#     4  11  20  38  67  85 113 166 209 236 293 373
#     4  10  19  38  60  86 124 152 200 253 287 362
#     4  11  25  40  60  93 127 156 196 260 307 339
#
# _framework density 20.380734
#
# number of rings (size 3 to 8) (size 9 to 14) (size 15 to 20)
#    0.000    1.500    8.750    0.000    1.750    1.000 
#    4.500    3.125    0.000    0.000    0.000    0.000 
#    0.000    0.000    0.000    0.000    0.000    0.000 
#
# Total GULP energy -198334.774919 kJ/mol
# GULP energy per Si atom -12395.923432 kJ/mol
# Density = 2.033435 g / cm^3
# Si number density = 20.380734 Si / 1000 Ang^3
#
#
#
# Elastic Constant Matrix: (Units=GPa)
#
#
# Indices 1 2 3 4 5 6 
#
# 1 99.6612 16.9889 52.5664 -2.0835 3.4512 -5.4432
# 2 16.9889 36.8960 39.2239 5.8300 -0.0935 -8.3873
# 3 52.5664 39.2239 140.1529 -1.4387 -22.4660 0.9660
# 4 -2.0835 5.8300 -1.4387 39.5037 1.4735 -4.5613
# 5 3.4512 -0.0935 -22.4660 1.4735 44.1479 -5.9126
# 6 -5.4432 -8.3873 0.9660 -4.5613 -5.9126 19.5015
#
#
#
# Elastic Compliance Matrix: (Units=1/GPa)
#
#
# Indices 1 2 3 4 5 6 
#
# 1 0.013280 0.000585 -0.005724 0.000929 -0.003527 0.003390
# 2 0.000585 0.047041 -0.014298 -0.005124 -0.004571 0.018519
# 3 -0.005724 -0.014298 0.014447 0.001379 0.006914 -0.006044
# 4 0.000929 -0.005124 0.001379 0.026656 0.000306 0.004315
# 5 -0.003527 -0.004571 0.006914 0.000306 0.027094 0.004994
# 6 0.003390 0.018519 -0.006044 0.004315 0.004994 0.063012
#
#
# Mechanical properties :
#
#
# Convention : Reuss Voigt Hill
#
# Bulk Modulus (GPa) = 27.85829 54.91871 41.38850
# Shear Modulus (GPa) = 20.62980 31.82602 26.22791
#
# Velocity S-wave (km/s) = 3.18499 3.95596 3.59123
# Velocity P-wave (km/s) = 5.21768 6.91889 6.12761
#
# Compressibility (1/GPa) = 0.03589596
#
# Stress axis : x y z
#
# Youngs Moduli (GPa) = 75.30180 21.25790 69.21750
#
# Poissons Ratio (x) = -0.01243 0.39618
# Poissons Ratio (y) = -0.04404 0.98964
# Poissons Ratio (z) = 0.43100 0.30393
#
# Static dielectric constant tensor:
#      x y z
#    x 4.187570 -0.052610 -0.361620 
#    y -0.052610 3.412480 -0.397530 
#    z -0.361620 -0.397530 4.439670 
# 
# 
# High freq. dielectric constant tensor:
#      x y z
#    x 1.809160 -0.006320 -0.005900 
#    y -0.006320 1.744660 -0.009550 
#    z -0.005900 -0.009550 1.807980 
# 
# From -- ./inp_files/313120.got.cif
#   From: 2010.06.25/outbox.cif.g09.slc.cpg/sg2_157_cif.got.tgz:313120.got - 2010.06.27 13:26:56.
