data_PCOD8044290
_publ_section_title
;
Structure prediction by ZEFSAII (Michael W. Deem and Ramdas Pophale) SiO2 
 PCOD8044290
Probable space group: P -1
;
_chemical_formula_sum "Si O2"
_cell_formula_units_Z 16
_cell_length_a 9.224110
_cell_length_b 11.327095
_cell_length_c 11.951169
_cell_angle_alpha 54.876698
_cell_angle_beta 126.021807
_cell_angle_gamma 96.178345
_cell_volume 774.164737
_symmetry_space_group_name_H-M "P -1"
_symmetry_group_IT_number 2
_symmetry_cell_setting 'triclinic'
loop_
_space_group_symop_operation_xyz
x,y,z
-x,-y,-z
loop_
_atom_site_type_symbol
_atom_site_label
_atom_site_fract_x
_atom_site_fract_y
_atom_site_fract_z
Si Si1 0.455280 0.946604 0.891711
Si Si2 0.328116 0.892021 0.529628
Si Si3 0.936918 0.464913 0.262532
Si Si4 0.589357 0.570687 0.902713
Si Si5 0.032338 0.116531 0.537875
Si Si6 0.651862 0.582714 0.499894
Si Si7 0.480619 0.101537 0.610569
Si Si8 0.607048 0.606067 0.208353
O O1 0.569709 0.996757 0.816921
O O2 0.508815 0.764257 0.010393
O O3 0.232105 0.036854 0.729827
O O4 0.500000 0.000000 0.000000
O O5 0.497409 0.753055 0.741644
O O6 0.134170 0.855382 0.460793
O O7 0.360117 0.919320 0.399630
O O8 0.315136 0.043951 0.513710
O O9 0.017259 0.279889 0.390542
O O10 0.810754 0.518451 0.288852
O O11 0.122878 0.519681 0.321031
O O12 0.812440 0.531357 0.057060
O O13 0.540574 0.488582 0.815019
O O14 0.500000 0.500000 0.000000
O O15 0.000000 0.000000 0.500000
O O16 0.500000 0.500000 0.500000
O O17 0.606653 0.722755 0.488776
O O18 0.636112 0.637412 0.333964
#
# Coordination Sequence:
#
# PCOD8044290 Si02
#       8
#     2   2   2   2   2   2   2   2
#     4  12  23  42  65  97 135 174 221 276 321 396
#     4  11  22  41  69  99 132 177 216 278 336 402
#     4  11  22  40  67  99 128 174 228 272 323 400
#     4  10  19  37  68  99 126 161 226 276 319 389
#     4  12  21  39  71 100 128 170 228 270 328 398
#     4  12  25  43  63  95 138 178 218 272 339 398
#     4  11  23  42  64  92 139 176 213 273 342 387
#     4  11  22  41  68  98 133 173 223 271 334 397
#
# _framework density 20.667438000000001
#
# number of rings (size 3 to 8) (size 9 to 14) (size 15 to 20)
#    0.000    0.750    6.250    3.375    0.000    0.000 
#    0.000    6.875    0.000    0.000    0.000    0.000 
#    0.000    0.000    0.000    0.000    0.000    0.000 
#
# Total GULP energy -198302.380815 kJ/mol
# GULP energy per Si atom -12393.898801 kJ/mol
# Density = 2.062040 g / cm^3
# Si number density = 20.667438 Si / 1000 Ang^3
#
#
#
# Elastic Constant Matrix: (Units=GPa)
#
#
# Indices 1 2 3 4 5 6 
#
# 1 101.4986 47.7228 62.2574 8.6694 4.1050 18.2946
# 2 47.7228 117.7119 49.4071 -1.3375 7.9143 -4.1351
# 3 62.2574 49.4071 136.5685 3.8722 15.9529 3.8623
# 4 8.6694 -1.3375 3.8722 40.2052 -1.7642 -4.1051
# 5 4.1050 7.9143 15.9529 -1.7642 37.8548 7.9867
# 6 18.2946 -4.1351 3.8623 -4.1051 7.9867 31.8274
#
#
#
# Elastic Compliance Matrix: (Units=1/GPa)
#
#
# Indices 1 2 3 4 5 6 
#
# 1 0.019174 -0.005768 -0.006673 -0.004786 0.004391 -0.012680
# 2 -0.005768 0.011914 -0.001643 0.002303 -0.002319 0.005942
# 3 -0.006673 -0.001643 0.011366 0.000444 -0.004421 0.003409
# 4 -0.004786 0.002303 0.000444 0.026589 -0.000281 0.006496
# 5 0.004391 -0.002319 -0.004421 -0.000281 0.030374 -0.009947
# 6 -0.012680 0.005942 0.003409 0.006496 -0.009947 0.042400
#
#
# Mechanical properties :
#
#
# Convention : Reuss Voigt Hill
#
# Bulk Modulus (GPa) = 69.99565 74.95038 72.47302
# Shear Modulus (GPa) = 28.61259 35.07025 31.84142
#
# Velocity S-wave (km/s) = 3.72483 4.12379 3.92938
# Velocity P-wave (km/s) = 7.24156 7.68231 7.46519
#
# Compressibility (1/GPa) = 0.01428660
#
# Stress axis : x y z
#
# Youngs Moduli (GPa) = 52.15420 83.93279 87.97962
#
# Poissons Ratio (x) = 0.48411 0.58707
# Poissons Ratio (y) = 0.30081 0.14458
# Poissons Ratio (z) = 0.34801 0.13793
#
# Static dielectric constant tensor:
#      x y z
#    x 3.954700 0.070570 0.041540 
#    y 0.070570 4.121170 0.068490 
#    z 0.041540 0.068490 3.924730 
# 
# 
# High freq. dielectric constant tensor:
#      x y z
#    x 1.798500 -0.002890 -0.002680 
#    y -0.002890 1.827980 0.004390 
#    z -0.002680 0.004390 1.798920 
# 
# From -- ./inp_files/389572.got.cif
#   From: 2010.06.25/outbox.cif.g09.slc.cpg/sg2_195_cif.got.tgz:389572.got - 2010.06.27 13:26:56.
