data_PCOD8044092
_publ_section_title
;
Structure prediction by ZEFSAII (Michael W. Deem and Ramdas Pophale) SiO2 
 PCOD8044092
Probable space group: P -1
;
_chemical_formula_sum "Si O2"
_cell_formula_units_Z 16
_cell_length_a 13.939896
_cell_length_b 12.498118
_cell_length_c 8.787601
_cell_angle_alpha 90.844756
_cell_angle_beta 79.240120
_cell_angle_gamma 147.703114
_cell_volume 773.214073
_symmetry_space_group_name_H-M "P -1"
_symmetry_group_IT_number 2
_symmetry_cell_setting 'triclinic'
loop_
_space_group_symop_operation_xyz
x,y,z
-x,-y,-z
loop_
_atom_site_type_symbol
_atom_site_label
_atom_site_fract_x
_atom_site_fract_y
_atom_site_fract_z
Si Si1 0.897320 0.311765 0.617979
Si Si2 0.589559 0.713269 0.617146
Si Si3 0.986611 0.167835 0.538151
Si Si4 0.417555 0.130246 0.889171
Si Si5 0.986534 0.257806 0.852001
Si Si6 0.591060 0.474338 0.650568
Si Si7 0.370357 0.676742 0.867421
Si Si8 0.484256 0.985695 0.684414
O O1 0.920567 0.225497 0.509068
O O2 0.976735 0.362685 0.765815
O O3 0.000000 0.500000 0.500000
O O4 0.682985 0.143886 0.704986
O O5 0.530537 0.540753 0.691628
O O6 0.480558 0.637259 0.492307
O O7 0.532094 0.749874 0.755321
O O8 0.818501 0.929831 0.530841
O O9 0.014771 0.190972 0.714797
O O10 0.181365 0.321869 0.399537
O O11 0.490341 0.311477 0.807361
O O12 0.416450 0.038307 0.758611
O O13 0.563481 0.232492 0.980578
O O14 0.203002 0.944658 0.003167
O O15 0.164667 0.426065 0.918278
O O16 0.344729 0.760977 0.778351
O O17 0.500000 0.000000 0.500000
#
# Coordination Sequence:
#
# PCOD8044092 Si02
#       8
#     2   2   2   2   2   2   2   2
#     4  10  19  37  63  93 126 169 213 261 311 387
#     4  11  21  44  71  93 130 171 223 264 319 379
#     4  10  20  41  66  93 129 167 220 260 321 379
#     4  12  26  44  62 100 134 164 218 267 328 384
#     4  10  23  41  65  91 134 171 211 264 325 382
#     4  11  25  40  69 100 126 172 221 269 314 387
#     4  12  22  44  65  93 132 176 206 269 327 376
#     4  12  24  41  67  93 131 171 211 266 319 384
#
# _framework density 20.692848000000001
#
# number of rings (size 3 to 8) (size 9 to 14) (size 15 to 20)
#    0.750    0.250    5.000    3.000    0.000    2.000 
#    2.250    0.625    0.000    0.000    0.000    0.000 
#    0.000    0.000    0.000    0.000    0.000    0.000 
#
# Total GULP energy -198376.343745 kJ/mol
# GULP energy per Si atom -12398.521484 kJ/mol
# Density = 2.064575 g / cm^3
# Si number density = 20.692848 Si / 1000 Ang^3
#
#
#
# Elastic Constant Matrix: (Units=GPa)
#
#
# Indices 1 2 3 4 5 6 
#
# 1 54.2440 27.0818 29.1092 -16.0336 7.7666 -2.8992
# 2 27.0818 110.9614 37.8247 -16.1799 7.7502 10.6477
# 3 29.1092 37.8247 96.6743 -15.5129 13.5955 -6.3998
# 4 -16.0336 -16.1799 -15.5129 33.6241 -2.8997 -5.1544
# 5 7.7666 7.7502 13.5955 -2.8997 23.6435 -7.0826
# 6 -2.8992 10.6477 -6.3998 -5.1544 -7.0826 46.6222
#
#
#
# Elastic Compliance Matrix: (Units=1/GPa)
#
#
# Indices 1 2 3 4 5 6 
#
# 1 0.025642 -0.003517 -0.004391 0.008601 -0.003005 0.002290
# 2 -0.003517 0.011664 -0.003213 0.001798 -0.001609 -0.003369
# 3 -0.004391 -0.003213 0.014166 0.002797 -0.004709 0.001999
# 4 0.008601 0.001798 0.002797 0.036798 0.000902 0.004713
# 5 -0.003005 -0.001609 -0.004709 0.000902 0.048736 0.007038
# 6 0.002290 -0.003369 0.001999 0.004713 0.007038 0.024226
#
#
# Mechanical properties :
#
#
# Convention : Reuss Voigt Hill
#
# Bulk Modulus (GPa) = 34.20998 49.99012 42.10005
# Shear Modulus (GPa) = 25.87773 31.96889 28.92331
#
# Velocity S-wave (km/s) = 3.54017 3.93482 3.74270
# Velocity P-wave (km/s) = 5.76876 6.69734 6.25031
#
# Compressibility (1/GPa) = 0.02923124
#
# Stress axis : x y z
#
# Youngs Moduli (GPa) = 38.99787 85.73685 70.59008
#
# Poissons Ratio (x) = 0.30157 0.30993
# Poissons Ratio (y) = 0.13717 0.22678
# Poissons Ratio (z) = 0.17122 0.27544
#
# Static dielectric constant tensor:
#      x y z
#    x 3.555630 0.392310 -0.112560 
#    y 0.392310 2.299320 0.548050 
#    z -0.112560 0.548050 3.248160 
# 
# 
# High freq. dielectric constant tensor:
#      x y z
#    x 1.804060 0.006300 -0.001100 
#    y 0.006300 1.820360 -0.007070 
#    z -0.001100 -0.007070 1.788900 
# 
# From -- ./inp_files/307549.got.cif
#   From: 2010.06.25/outbox.cif.g09.slc.cpg/sg2_154_cif.got.tgz:307549.got - 2010.06.27 13:26:56.
