data_PCOD8044109
_publ_section_title
;
Structure prediction by ZEFSAII (Michael W. Deem and Ramdas Pophale) SiO2 
 PCOD8044109
Probable space group: P -1
;
_chemical_formula_sum "Si O2"
_cell_formula_units_Z 16
_cell_length_a 15.087763
_cell_length_b 11.748659
_cell_length_c 11.696897
_cell_angle_alpha 96.551894
_cell_angle_beta 64.553087
_cell_angle_gamma 151.300171
_cell_volume 715.190357
_symmetry_space_group_name_H-M "P -1"
_symmetry_group_IT_number 2
_symmetry_cell_setting 'triclinic'
loop_
_space_group_symop_operation_xyz
x,y,z
-x,-y,-z
loop_
_atom_site_type_symbol
_atom_site_label
_atom_site_fract_x
_atom_site_fract_y
_atom_site_fract_z
Si Si1 0.438012 0.663147 0.370710
Si Si2 0.930910 0.403570 0.720894
Si Si3 0.997607 0.214056 0.403354
Si Si4 0.138017 0.262571 0.904421
Si Si5 0.009150 0.303508 0.161863
Si Si6 0.846818 0.561815 0.276499
Si Si7 0.580576 0.605702 0.597804
Si Si8 0.661655 0.069264 0.609739
O O1 0.304763 0.537049 0.551388
O O2 0.463533 0.555295 0.322634
O O3 0.268823 0.533273 0.347882
O O4 0.719341 0.019389 0.250453
O O5 0.706136 0.167206 0.723834
O O6 0.870853 0.443330 0.846237
O O7 0.939656 0.294330 0.774735
O O8 0.204472 0.709372 0.538213
O O9 0.021076 0.234711 0.257093
O O10 0.796664 0.092834 0.536051
O O11 0.877348 0.963363 0.480691
O O12 0.014016 0.191359 0.851924
O O13 0.419361 0.531450 0.740152
O O14 0.161319 0.392166 0.995922
O O15 0.000000 0.000000 0.000000
O O16 0.640374 0.265417 0.283970
O O17 0.500000 0.500000 0.500000
#
# Coordination Sequence:
#
# PCOD8044109 Si02
#       8
#     2   2   2   2   2   2   2   2
#     4  12  22  38  67 100 123 165 220 272 319 379
#     4  10  22  37  65  99 130 165 216 267 322 377
#     4  11  21  39  66  97 124 165 217 272 321 374
#     4  12  24  43  69  90 134 180 209 262 333 385
#     4  11  24  42  62  94 140 170 202 263 330 390
#     4  12  22  39  70  96 127 170 222 268 313 382
#     4  12  20  42  68  91 124 165 221 274 320 373
#     4  10  19  37  64 100 129 158 212 277 320 367
#
# _framework density 22.371666999999999
#
# number of rings (size 3 to 8) (size 9 to 14) (size 15 to 20)
#    0.000    0.750    8.750    0.750    0.000    0.500 
#    0.000    3.750    0.000    0.000    0.000    0.000 
#    0.000    0.000    0.000    0.000    0.000    0.000 
#
# Total GULP energy -198311.989454 kJ/mol
# GULP energy per Si atom -12394.499341 kJ/mol
# Density = 2.232075 g / cm^3
# Si number density = 22.371667 Si / 1000 Ang^3
#
#
#
# Elastic Constant Matrix: (Units=GPa)
#
#
# Indices 1 2 3 4 5 6 
#
# 1 109.7894 19.9547 24.1155 7.4297 9.1920 -6.3710
# 2 19.9547 90.9407 32.8280 16.1483 0.0425 18.3989
# 3 24.1155 32.8280 86.1666 29.3783 -13.2240 -2.8151
# 4 7.4297 16.1483 29.3783 30.6118 -17.5272 -8.4083
# 5 9.1920 0.0425 -13.2240 -17.5272 21.5091 1.3052
# 6 -6.3710 18.3989 -2.8151 -8.4083 1.3052 33.4620
#
#
#
# Elastic Compliance Matrix: (Units=1/GPa)
#
#
# Indices 1 2 3 4 5 6 
#
# 1 0.011228 -0.000710 -0.002478 -0.006188 -0.011436 0.001211
# 2 -0.000710 0.019451 -0.002988 -0.022410 -0.018864 -0.015977
# 3 -0.002478 -0.002988 0.019074 -0.017177 -0.001115 -0.001497
# 4 -0.006188 -0.022410 -0.017177 0.125613 0.092202 0.037667
# 5 -0.011436 -0.018864 -0.001115 0.092202 0.124260 0.026423
# 6 0.001211 -0.015977 -0.001497 0.037667 0.026423 0.047209
#
#
# Mechanical properties :
#
#
# Convention : Reuss Voigt Hill
#
# Bulk Modulus (GPa) = 26.73698 48.96591 37.85144
# Shear Modulus (GPa) = 13.45334 31.11648 22.28491
#
# Velocity S-wave (km/s) = 2.45492 3.73351 3.15956
# Velocity P-wave (km/s) = 4.47356 6.36556 5.50150
#
# Compressibility (1/GPa) = 0.03740139
#
# Stress axis : x y z
#
# Youngs Moduli (GPa) = 89.06180 51.41002 52.42812
#
# Poissons Ratio (x) = 0.03651 0.12989
# Poissons Ratio (y) = 0.06325 0.15666
# Poissons Ratio (z) = 0.22066 0.15362
#
# Static dielectric constant tensor:
#      x y z
#    x 4.298690 -0.092940 0.132360 
#    y -0.092940 4.196580 0.213110 
#    z 0.132360 0.213110 3.806400 
# 
# 
# High freq. dielectric constant tensor:
#      x y z
#    x 1.887450 -0.010460 0.004150 
#    y -0.010460 1.877200 0.020490 
#    z 0.004150 0.020490 1.850300 
# 
# From -- ./inp_files/355208.got.cif
#   From: 2010.06.25/outbox.cif.g09.slc.cpg/sg2_178_cif.got.tgz:355208.got - 2010.06.27 13:26:56.
