data_PCOD8044529
_publ_section_title
;
Structure prediction by ZEFSAII (Michael W. Deem and Ramdas Pophale) SiO2 
 PCOD8044529
Probable space group: P -1
;
_chemical_formula_sum "Si O2"
_cell_formula_units_Z 16
_cell_length_a 14.612070
_cell_length_b 14.465757
_cell_length_c 11.884315
_cell_angle_alpha 150.392847
_cell_angle_beta 48.320571
_cell_angle_gamma 140.371239
_cell_volume 791.484543
_symmetry_space_group_name_H-M "P -1"
_symmetry_group_IT_number 2
_symmetry_cell_setting 'triclinic'
loop_
_space_group_symop_operation_xyz
x,y,z
-x,-y,-z
loop_
_atom_site_type_symbol
_atom_site_label
_atom_site_fract_x
_atom_site_fract_y
_atom_site_fract_z
Si Si1 0.158418 0.597931 0.613878
Si Si2 0.087290 0.350681 0.067918
Si Si3 0.135311 0.437287 0.706174
Si Si4 0.890501 0.983032 0.662957
Si Si5 0.152980 0.208501 0.076165
Si Si6 0.809855 0.206554 0.798116
Si Si7 0.335398 0.806440 0.302341
Si Si8 0.661731 0.994240 0.254047
O O1 0.190185 0.582361 0.702321
O O2 0.168681 0.411593 0.345071
O O3 0.276415 0.832016 0.713903
O O4 0.001244 0.568517 0.698634
O O5 0.163224 0.258115 0.987445
O O6 0.217026 0.551118 0.108126
O O7 0.973397 0.166703 0.883449
O O8 0.962159 0.304524 0.713513
O O9 0.187646 0.260921 0.477752
O O10 0.200301 0.596343 0.928517
O O11 0.782423 0.032822 0.735995
O O12 0.000000 0.000000 0.500000
O O13 0.276372 0.165623 0.969906
O O14 0.000000 0.000000 0.000000
O O15 0.685342 0.080578 0.672241
O O16 0.299761 0.887139 0.531246
O O17 0.491963 0.841601 0.215481
#
# Coordination Sequence:
#
# PCOD8044529 Si02
#       8
#     2   2   2   2   2   2   2   2
#     4  12  22  42  63  94 129 161 205 261 311 368
#     4  12  21  38  67  94 123 161 207 259 313 365
#     4  10  20  35  64  97 126 155 204 262 309 367
#     4  10  21  34  58 103 124 152 206 262 310 367
#     4  12  24  37  64  93 123 166 206 257 316 362
#     4  10  19  38  62  91 126 163 200 258 314 356
#     4  11  23  45  65  87 130 170 207 258 307 373
#     4  11  27  44  60  93 129 168 212 253 310 373
#
# _framework density 20.215174999999999
#
# number of rings (size 3 to 8) (size 9 to 14) (size 15 to 20)
#    0.000    1.000    5.000    3.375    3.500    0.500 
#    0.000    0.625    0.000    1.500    0.000    0.000 
#    0.000    0.000    0.000    0.000    0.000    0.000 
#
# Total GULP energy -198364.338021 kJ/mol
# GULP energy per Si atom -12397.771126 kJ/mol
# Density = 2.016916 g / cm^3
# Si number density = 20.215175 Si / 1000 Ang^3
#
#
#
# Elastic Constant Matrix: (Units=GPa)
#
#
# Indices 1 2 3 4 5 6 
#
# 1 129.0553 47.8191 71.3991 -2.0966 0.2904 -23.2062
# 2 47.8191 82.3487 41.7555 2.0589 -8.5076 -13.5209
# 3 71.3991 41.7555 93.5374 5.3389 -18.4301 -11.0968
# 4 -2.0966 2.0589 5.3389 21.5237 -8.0872 -2.7124
# 5 0.2904 -8.5076 -18.4301 -8.0872 31.5378 -3.5309
# 6 -23.2062 -13.5209 -11.0968 -2.7124 -3.5309 35.1410
#
#
#
# Elastic Compliance Matrix: (Units=1/GPa)
#
#
# Indices 1 2 3 4 5 6 
#
# 1 0.016805 -0.003482 -0.012134 0.003128 -0.006769 0.005487
# 2 -0.003482 0.017025 -0.004036 0.000485 0.002759 0.003291
# 3 -0.012134 -0.004036 0.024255 -0.002203 0.012541 -0.000817
# 4 0.003128 0.000485 -0.002203 0.053111 0.013216 0.006984
# 5 -0.006769 0.002759 0.012541 0.013216 0.043902 0.005983
# 6 0.005487 0.003291 -0.000817 0.006984 0.005983 0.034229
#
#
# Mechanical properties :
#
#
# Convention : Reuss Voigt Hill
#
# Bulk Modulus (GPa) = 53.24685 69.65431 61.45058
# Shear Modulus (GPa) = 21.28650 27.23834 24.26242
#
# Velocity S-wave (km/s) = 3.24851 3.67470 3.46816
# Velocity P-wave (km/s) = 6.36142 7.24816 6.81922
#
# Compressibility (1/GPa) = 0.01878045
#
# Stress axis : x y z
#
# Youngs Moduli (GPa) = 59.50675 58.73642 41.22946
#
# Poissons Ratio (x) = 0.20453 0.50029
# Poissons Ratio (y) = 0.20721 0.16639
# Poissons Ratio (z) = 0.72207 0.23704
#
# Static dielectric constant tensor:
#      x y z
#    x 4.055170 -0.564060 -0.439180 
#    y -0.564060 3.595800 0.149540 
#    z -0.439180 0.149540 3.939890 
# 
# 
# High freq. dielectric constant tensor:
#      x y z
#    x 1.792430 -0.039250 -0.003310 
#    y -0.039250 1.761330 -0.002310 
#    z -0.003310 -0.002310 1.795340 
# 
# From -- ./inp_files/451721.got.cif
#   From: 2010.06.25/outbox.cif.g09.slc.cpg/sg2_226_cif.got.tgz:451721.got - 2010.06.27 13:26:56.
