data_PCOD8044554
_publ_section_title
;
Structure prediction by ZEFSAII (Michael W. Deem and Ramdas Pophale) SiO2 
 PCOD8044554
Probable space group: P -1
;
_chemical_formula_sum "Si O2"
_cell_formula_units_Z 16
_cell_length_a 15.075587
_cell_length_b 9.544476
_cell_length_c 8.540511
_cell_angle_alpha 86.189769
_cell_angle_beta 130.604574
_cell_angle_gamma 119.899993
_cell_volume 744.084472
_symmetry_space_group_name_H-M "P -1"
_symmetry_group_IT_number 2
_symmetry_cell_setting 'triclinic'
loop_
_space_group_symop_operation_xyz
x,y,z
-x,-y,-z
loop_
_atom_site_type_symbol
_atom_site_label
_atom_site_fract_x
_atom_site_fract_y
_atom_site_fract_z
Si Si1 0.333862 0.198809 0.741874
Si Si2 0.865022 0.198940 0.456951
Si Si3 0.216041 0.803835 0.970460
Si Si4 0.174554 0.349068 0.674511
Si Si5 0.412302 0.196287 0.166664
Si Si6 0.898141 0.490514 0.676138
Si Si7 0.662601 0.325133 0.662596
Si Si8 0.592293 0.490385 0.814329
O O1 0.215364 0.226862 0.661048
O O2 0.432470 0.333163 0.707351
O O3 0.247845 0.999910 0.594675
O O4 0.437864 0.233411 0.006542
O O5 0.795561 0.233424 0.226815
O O6 0.900838 0.333397 0.625864
O O7 0.011554 0.226956 0.565795
O O8 0.059607 0.665914 0.879571
O O9 0.337447 0.791007 0.190640
O O10 0.264511 0.000079 0.038834
O O11 0.189902 0.474784 0.546905
O O12 0.284991 0.474843 0.927873
O O13 0.546548 0.209093 0.399631
O O14 0.393885 0.334298 0.213808
O O15 0.822553 0.443293 0.761378
O O16 0.620799 0.443259 0.682043
#
# Coordination Sequence:
#
# PCOD8044554 Si02
#       8
#     2   2   2   2   2   2   2   2
#     4  10  21  38  61  88 115 146 189 238 286 338
#     4  10  21  38  61  88 115 146 189 238 286 338
#     4  10  22  39  59  84 114 149 192 238 283 336
#     4  10  19  38  63  86 112 148 187 238 291 336
#     4  10  22  39  59  84 114 149 192 238 283 336
#     4  11  22  39  59  86 117 151 190 235 282 338
#     4  12  23  38  57  82 118 160 191 228 279 336
#     4  11  22  39  59  86 117 151 190 235 282 338
#
# _framework density 21.502935999999998
#
# number of rings (size 3 to 8) (size 9 to 14) (size 15 to 20)
#    0.000    1.500    0.000    7.500    0.000    3.000 
#    0.000    3.750    0.000    0.000    0.000    0.000 
#    0.000    0.000    0.000    0.000    0.000    0.000 
#
# Total GULP energy -198428.197088 kJ/mol
# GULP energy per Si atom -12401.762318 kJ/mol
# Density = 2.145399 g / cm^3
# Si number density = 21.502936 Si / 1000 Ang^3
#
#
#
# Elastic Constant Matrix: (Units=GPa)
#
#
# Indices 1 2 3 4 5 6 
#
# 1 118.9771 52.0801 31.5442 21.2076 -10.1298 1.5835
# 2 52.0801 108.9063 46.5708 24.8693 -0.6965 -2.2402
# 3 31.5442 46.5708 75.4475 -3.4411 10.3317 4.4714
# 4 21.2076 24.8693 -3.4411 35.7296 -2.5502 9.0383
# 5 -10.1298 -0.6965 10.3317 -2.5502 20.4660 -3.7649
# 6 1.5835 -2.2402 4.4714 9.0383 -3.7649 12.0660
#
#
#
# Elastic Compliance Matrix: (Units=1/GPa)
#
#
# Indices 1 2 3 4 5 6 
#
# 1 0.013673 0.000657 -0.009316 -0.012358 0.012713 0.015004
# 2 0.000657 0.026283 -0.022514 -0.029980 0.016335 0.040690
# 3 -0.009316 -0.022514 0.040282 0.036817 -0.031284 -0.055225
# 4 -0.012358 -0.029980 0.036817 0.079488 -0.031834 -0.087063
# 5 0.012713 0.016335 -0.031284 -0.031834 0.078831 0.061401
# 6 0.015004 0.040690 -0.055225 -0.087063 0.061401 0.193303
#
#
# Mechanical properties :
#
#
# Convention : Reuss Voigt Hill
#
# Bulk Modulus (GPa) = 55.88902 62.63567 59.26234
# Shear Modulus (GPa) = 9.99662 25.19471 17.59566
#
# Velocity S-wave (km/s) = 2.15848 3.42670 2.86368
# Velocity P-wave (km/s) = 5.67977 6.69690 6.20920
#
# Compressibility (1/GPa) = 0.01789260
#
# Stress axis : x y z
#
# Youngs Moduli (GPa) = 73.13809 38.04774 24.82486
#
# Poissons Ratio (x) = -0.02501 0.23127
# Poissons Ratio (y) = -0.04808 0.55890
# Poissons Ratio (z) = 0.68136 0.85660
#
# Static dielectric constant tensor:
#      x y z
#    x 3.543850 0.002740 0.062070 
#    y 0.002740 3.906400 -0.096750 
#    z 0.062070 -0.096750 4.015940 
# 
# 
# High freq. dielectric constant tensor:
#      x y z
#    x 1.821950 -0.000330 0.006220 
#    y -0.000330 1.850130 -0.003960 
#    z 0.006220 -0.003960 1.853750 
# 
# From -- ./inp_files/175185.got.cif
#   From: 2010.06.25/outbox.cif.g09.slc.cpg/sg2_88_cif.got.tgz:175185.got - 2010.06.27 13:26:56.
