data_PCOD8044803
_publ_section_title
;
Structure prediction by ZEFSAII (Michael W. Deem and Ramdas Pophale) SiO2 
 PCOD8044803
Probable space group: P -1
;
_chemical_formula_sum "Si O2"
_cell_formula_units_Z 16
_cell_length_a 20.644500
_cell_length_b 8.406808
_cell_length_c 13.791849
_cell_angle_alpha 69.093663
_cell_angle_beta 157.337740
_cell_angle_gamma 99.457658
_cell_volume 765.722159
_symmetry_space_group_name_H-M "P -1"
_symmetry_group_IT_number 2
_symmetry_cell_setting 'triclinic'
loop_
_space_group_symop_operation_xyz
x,y,z
-x,-y,-z
loop_
_atom_site_type_symbol
_atom_site_label
_atom_site_fract_x
_atom_site_fract_y
_atom_site_fract_z
Si Si1 0.103557 0.828401 0.754154
Si Si2 0.241747 0.260730 0.461980
Si Si3 0.548561 0.387241 0.839875
Si Si4 0.702814 0.407668 0.251018
Si Si5 0.875330 0.791727 0.896658
Si Si6 0.967698 0.526893 0.689539
Si Si7 0.062171 0.017326 0.310727
Si Si8 0.217636 0.801996 0.286323
O O1 0.030062 0.669010 0.692117
O O2 0.063278 0.936536 0.776416
O O3 0.324342 0.712289 0.057000
O O4 0.000000 0.000000 0.500000
O O5 0.444876 0.258102 0.751279
O O6 0.176293 0.294212 0.251780
O O7 0.102413 0.425612 0.305716
O O8 0.237778 0.070825 0.541464
O O9 0.408060 0.607530 0.574118
O O10 0.683921 0.383393 0.115582
O O11 0.806736 0.535961 0.391219
O O12 0.840042 0.204305 0.531567
O O13 0.500000 0.500000 0.000000
O O14 0.735472 0.022478 0.659578
O O15 0.861375 0.685771 0.000957
O O16 0.090073 0.769677 0.198884
O O17 0.910344 0.149264 0.995663
#
# Coordination Sequence:
#
# PCOD8044803 Si02
#       8
#     2   2   2   2   2   2   2   2
#     4  11  26  47  62  91 133 180 214 261 326 390
#     4  10  22  36  65 100 129 163 217 269 323 378
#     4  12  25  42  63  99 133 167 218 273 317 378
#     4  12  23  40  68 100 129 163 221 272 316 378
#     4  10  19  38  67  98 131 166 209 268 334 378
#     4  11  22  42  68  92 127 178 219 254 329 391
#     4  10  23  43  68  90 133 178 210 264 330 388
#     4  10  21  39  66  98 131 165 215 271 323 378
#
# _framework density 20.895308
#
# number of rings (size 3 to 8) (size 9 to 14) (size 15 to 20)
#    0.000    1.250    5.000    0.375    7.000    2.500 
#    0.000    0.625    0.000    0.000    0.000    0.000 
#    0.000    0.000    0.000    0.000    0.000    0.000 
#
# Total GULP energy -198232.473579 kJ/mol
# GULP energy per Si atom -12389.529599 kJ/mol
# Density = 2.084775 g / cm^3
# Si number density = 20.895308 Si / 1000 Ang^3
#
#
#
# Elastic Constant Matrix: (Units=GPa)
#
#
# Indices 1 2 3 4 5 6 
#
# 1 99.4293 43.0126 42.0088 -1.9663 5.3672 6.1215
# 2 43.0126 113.1247 41.1724 -5.3592 -2.3485 7.5728
# 3 42.0088 41.1724 87.5917 -15.0482 3.9292 0.6473
# 4 -1.9663 -5.3592 -15.0482 37.8496 -4.8677 -5.7862
# 5 5.3672 -2.3485 3.9292 -4.8677 37.7328 -1.9597
# 6 6.1215 7.5728 0.6473 -5.7862 -1.9597 34.7264
#
#
#
# Elastic Compliance Matrix: (Units=1/GPa)
#
#
# Indices 1 2 3 4 5 6 
#
# 1 0.014015 -0.003355 -0.005468 -0.002520 -0.002071 -0.002174
# 2 -0.003355 0.011710 -0.003981 -0.000186 0.001501 -0.001834
# 3 -0.005468 -0.003981 0.016979 0.006253 -0.000299 0.002540
# 4 -0.002520 -0.000186 0.006253 0.030103 0.003870 0.005603
# 5 -0.002071 0.001501 -0.000299 0.003870 0.027537 0.002242
# 6 -0.002174 -0.001834 0.002540 0.005603 0.002242 0.030592
#
#
# Mechanical properties :
#
#
# Convention : Reuss Voigt Hill
#
# Bulk Modulus (GPa) = 58.49649 61.39260 59.94454
# Shear Modulus (GPa) = 30.81791 33.65856 32.23823
#
# Velocity S-wave (km/s) = 3.84457 4.01785 3.93217
# Velocity P-wave (km/s) = 6.91111 7.13926 7.02611
#
# Compressibility (1/GPa) = 0.01709504
#
# Stress axis : x y z
#
# Youngs Moduli (GPa) = 71.35167 85.40072 58.89591
#
# Poissons Ratio (x) = 0.28656 0.32206
# Poissons Ratio (y) = 0.23942 0.23444
# Poissons Ratio (z) = 0.39017 0.33994
#
# Static dielectric constant tensor:
#      x y z
#    x 3.994840 -0.062690 -0.027880 
#    y -0.062690 4.231570 -0.034560 
#    z -0.027880 -0.034560 3.502430 
# 
# 
# High freq. dielectric constant tensor:
#      x y z
#    x 1.810540 -0.010240 -0.019330 
#    y -0.010240 1.838490 -0.011950 
#    z -0.019330 -0.011950 1.791680 
# 
# From -- ./inp_files/243511.got.cif
#   From: 2010.06.25/outbox.cif.g09.slc.cpg/sg2_122_cif.got.tgz:243511.got - 2010.06.27 13:26:56.
