data_PCOD8044292
_publ_section_title
;
Structure prediction by ZEFSAII (Michael W. Deem and Ramdas Pophale) SiO2 
 PCOD8044292
Probable space group: P -1
;
_chemical_formula_sum "Si O2"
_cell_formula_units_Z 14
_cell_length_a 9.997019
_cell_length_b 15.130490
_cell_length_c 15.733880
_cell_angle_alpha 27.908252
_cell_angle_beta 143.390071
_cell_angle_gamma 142.675166
_cell_volume 632.105405
_symmetry_space_group_name_H-M "P -1"
_symmetry_group_IT_number 2
_symmetry_cell_setting 'triclinic'
loop_
_space_group_symop_operation_xyz
x,y,z
-x,-y,-z
loop_
_atom_site_type_symbol
_atom_site_label
_atom_site_fract_x
_atom_site_fract_y
_atom_site_fract_z
Si Si1 0.836672 0.776224 0.970288
Si Si2 0.116612 0.441378 0.976266
Si Si3 0.194684 0.445766 0.696878
Si Si4 0.558769 0.113962 0.223280
Si Si5 0.396696 0.550594 0.316333
Si Si6 0.695310 0.886244 0.067270
Si Si7 0.338431 0.274218 0.364622
O O1 0.651581 0.882795 0.821507
O O2 0.087415 0.935315 0.940456
O O3 0.748101 0.656123 0.940275
O O4 0.878918 0.610143 0.196250
O O5 0.255969 0.669698 0.869371
O O6 0.858324 0.421494 0.826286
O O7 0.114723 0.321657 0.165985
O O8 0.207090 0.244990 0.833864
O O9 0.438173 0.620975 0.669741
O O10 0.000000 0.500000 0.500000
O O11 0.693035 0.959564 0.453471
O O12 0.473863 0.041883 0.144932
O O13 0.500000 0.500000 0.500000
O O14 0.563973 0.760795 0.187582
O O15 0.381027 0.369165 0.399074
#
# Coordination Sequence:
#
# PCOD8044292 Si02
#       7
#     2   2   2   2   2   2   2
#     4  11  23  41  69 106 145 175 224 291 346 411
#     4  12  26  46  68 103 149 177 231 291 342 413
#     4  10  19  37  69 100 138 177 226 282 344 409
#     4  11  23  45  73 104 139 182 227 281 358 414
#     4  11  27  48  71  99 139 185 241 287 340 408
#     4  10  22  42  68  99 136 182 236 282 337 410
#     4  11  24  45  72 100 136 191 225 284 350 404
#
# _framework density 22.148204
#
# number of rings (size 3 to 8) (size 9 to 14) (size 15 to 20)
#    0.000    1.143    4.286    4.286    6.000    2.857 
#    0.000    0.000    0.000    0.000    0.000    0.000 
#    0.000    0.000    0.000    0.000    0.000    0.000 
#
# Total GULP energy -173553.884476 kJ/mol
# GULP energy per Si atom -12396.706034 kJ/mol
# Density = 2.209779 g / cm^3
# Si number density = 22.148204 Si / 1000 Ang^3
#
#
#
# Elastic Constant Matrix: (Units=GPa)
#
#
# Indices 1 2 3 4 5 6 
#
# 1 84.1749 32.0892 41.7352 4.1632 -18.6397 2.7087
# 2 32.0892 57.5808 53.4060 8.5403 -7.5494 -4.1425
# 3 41.7352 53.4060 170.2270 8.3632 -5.7302 -5.4181
# 4 4.1632 8.5403 8.3632 42.9973 -1.7656 1.4991
# 5 -18.6397 -7.5494 -5.7302 -1.7656 28.4645 7.2357
# 6 2.7087 -4.1425 -5.4181 1.4991 7.2357 26.9133
#
#
#
# Elastic Compliance Matrix: (Units=1/GPa)
#
#
# Indices 1 2 3 4 5 6 
#
# 1 0.018431 -0.007477 -0.002036 0.000791 0.011383 -0.006520
# 2 -0.007477 0.028775 -0.006878 -0.003788 0.000104 0.003980
# 3 -0.002036 -0.006878 0.008525 -0.000216 -0.001800 0.001359
# 4 0.000791 -0.003788 -0.000216 0.024127 0.001597 -0.002479
# 5 0.011383 0.000104 -0.001800 0.001597 0.045888 -0.013918
# 6 -0.006520 0.003980 0.001359 -0.002479 -0.013918 0.042579
#
#
# Mechanical properties :
#
#
# Convention : Reuss Voigt Hill
#
# Bulk Modulus (GPa) = 43.57608 62.93816 53.25712
# Shear Modulus (GPa) = 23.95117 31.99183 27.97150
#
# Velocity S-wave (km/s) = 3.29204 3.80471 3.55762
# Velocity P-wave (km/s) = 5.84530 6.91228 6.40106
#
# Compressibility (1/GPa) = 0.02294837
#
# Stress axis : x y z
#
# Youngs Moduli (GPa) = 54.25511 34.75217 117.30233
#
# Poissons Ratio (x) = 0.25984 0.23887
# Poissons Ratio (y) = 0.40566 0.80684
# Poissons Ratio (z) = 0.11048 0.23904
#
# Static dielectric constant tensor:
#      x y z
#    x 3.867450 -0.402780 -0.860800 
#    y -0.402780 1.732470 -3.947170 
#    z -0.860800 -3.947170 -3.312880 
# 
# 
# High freq. dielectric constant tensor:
#      x y z
#    x 1.865540 -0.000570 -0.006110 
#    y -0.000570 1.871230 0.000820 
#    z -0.006110 0.000820 1.878850 
# 
# From -- ./inp_files/505183.got.cif
#   From: 2010.06.25/outbox.cif.g09.slc.cpg/sg2_253_cif.got.tgz:505183.got - 2010.06.27 13:26:56.
