data_PCOD8044630
_publ_section_title
;
Structure prediction by ZEFSAII (Michael W. Deem and Ramdas Pophale) SiO2 
 PCOD8044630
Probable space group: P -1
;
_chemical_formula_sum "Si O2"
_cell_formula_units_Z 16
_cell_length_a 9.072203
_cell_length_b 11.235206
_cell_length_c 12.404763
_cell_angle_alpha 104.106023
_cell_angle_beta 49.654046
_cell_angle_gamma 123.769944
_cell_volume 787.488571
_symmetry_space_group_name_H-M "P -1"
_symmetry_group_IT_number 2
_symmetry_cell_setting 'triclinic'
loop_
_space_group_symop_operation_xyz
x,y,z
-x,-y,-z
loop_
_atom_site_type_symbol
_atom_site_label
_atom_site_fract_x
_atom_site_fract_y
_atom_site_fract_z
Si Si1 0.685172 0.461713 0.873874
Si Si2 0.857186 0.335747 0.181571
Si Si3 0.017125 0.839619 0.054729
Si Si4 0.447089 0.369321 0.366554
Si Si5 0.367249 0.303696 0.627189
Si Si6 0.731026 0.831134 0.986902
Si Si7 0.861890 0.708552 0.698671
Si Si8 0.655125 0.170710 0.460606
O O1 0.778974 0.541228 0.731525
O O2 0.891992 0.524350 0.876129
O O3 0.500000 0.500000 0.000000
O O4 0.545886 0.285191 0.898403
O O5 0.695556 0.393055 0.236562
O O6 0.749017 0.225102 0.307868
O O7 0.870859 0.250494 0.053707
O O8 0.878297 0.772983 0.216354
O O9 0.841010 0.823187 0.043821
O O10 0.218579 0.007577 0.017125
O O11 0.325984 0.279305 0.512764
O O12 0.475811 0.524903 0.387774
O O13 0.279746 0.278698 0.327771
O O14 0.510842 0.236404 0.587474
O O15 0.843845 0.792728 0.828264
O O16 0.127603 0.784110 0.555170
O O17 0.500000 0.000000 0.500000
#
# Coordination Sequence:
#
# PCOD8044630 Si02
#       8
#     2   2   2   2   2   2   2   2
#     4   9  16  34  58  93 115 150 205 258 291 347
#     4  10  21  39  65  89 121 168 205 241 308 372
#     4  11  20  37  62  93 124 157 200 256 308 359
#     4  10  23  42  62  87 126 165 207 242 305 372
#     4  10  23  39  61  91 123 163 202 252 301 366
#     4  10  20  33  61  94 124 149 200 264 309 342
#     4  10  19  38  64  90 118 160 206 253 298 363
#     4  10  20  39  65  90 120 159 206 248 310 363
#
# _framework density 20.317755999999999
#
# number of rings (size 3 to 8) (size 9 to 14) (size 15 to 20)
#    0.000    2.000    3.750    1.500    3.500    1.000 
#    0.000    8.750    2.750    0.000    0.000    0.000 
#    0.000    0.000    0.000    0.000    0.000    0.000 
#
# Total GULP energy -198356.341119 kJ/mol
# GULP energy per Si atom -12397.271320 kJ/mol
# Density = 2.027151 g / cm^3
# Si number density = 20.317756 Si / 1000 Ang^3
#
#
#
# Elastic Constant Matrix: (Units=GPa)
#
#
# Indices 1 2 3 4 5 6 
#
# 1 118.3441 47.6047 37.3579 -1.0021 -15.8286 6.5339
# 2 47.6047 121.2319 45.9396 -8.5945 -9.4971 11.5083
# 3 37.3579 45.9396 98.9083 1.0683 -9.7561 5.4954
# 4 -1.0021 -8.5945 1.0683 29.3448 -0.2225 -11.4297
# 5 -15.8286 -9.4971 -9.7561 -0.2225 26.1501 1.4459
# 6 6.5339 11.5083 5.4954 -11.4297 1.4459 23.5787
#
#
#
# Elastic Compliance Matrix: (Units=1/GPa)
#
#
# Indices 1 2 3 4 5 6 
#
# 1 0.011120 -0.003055 -0.002177 -0.001156 0.004907 -0.001944
# 2 -0.003055 0.011445 -0.003934 0.002324 0.001012 -0.002758
# 3 -0.002177 -0.003934 0.013107 -0.002400 0.002224 -0.001831
# 4 -0.001156 0.002324 -0.002400 0.042816 -0.001525 0.020594
# 5 0.004907 0.001012 0.002224 -0.001525 0.042712 -0.005731
# 6 -0.001944 -0.002758 -0.001831 0.020594 -0.005731 0.055057
#
#
# Mechanical properties :
#
#
# Convention : Reuss Voigt Hill
#
# Bulk Modulus (GPa) = 57.66765 66.69873 62.18319
# Shear Modulus (GPa) = 24.95419 29.65352 27.30386
#
# Velocity S-wave (km/s) = 3.50837 3.82447 3.66982
# Velocity P-wave (km/s) = 6.69746 7.23886 6.97342
#
# Compressibility (1/GPa) = 0.01734074
#
# Stress axis : x y z
#
# Youngs Moduli (GPa) = 89.93109 87.37648 76.29618
#
# Poissons Ratio (x) = 0.26689 0.16607
# Poissons Ratio (y) = 0.27470 0.30015
# Poissons Ratio (z) = 0.19575 0.34374
#
# Static dielectric constant tensor:
#      x y z
#    x 3.587410 0.056580 -0.083160 
#    y 0.056580 4.007930 -0.214130 
#    z -0.083160 -0.214130 3.871640 
# 
# 
# High freq. dielectric constant tensor:
#      x y z
#    x 1.774120 0.001460 -0.004950 
#    y 0.001460 1.789630 -0.007600 
#    z -0.004950 -0.007600 1.793250 
# 
# From -- ./inp_files/390344.got.cif
#   From: 2010.06.25/outbox.cif.g09.slc.cpg/sg2_196_cif.got.tgz:390344.got - 2010.06.27 13:26:56.
