data_PCOD8044312
_publ_section_title
;
Structure prediction by ZEFSAII (Michael W. Deem and Ramdas Pophale) SiO2 
 PCOD8044312
Probable space group: P -1
;
_chemical_formula_sum "Si O2"
_cell_formula_units_Z 14
_cell_length_a 7.002239
_cell_length_b 5.240154
_cell_length_c 26.337841
_cell_angle_alpha 82.742032
_cell_angle_beta 51.014606
_cell_angle_gamma 70.165823
_cell_volume 701.600059
_symmetry_space_group_name_H-M "P -1"
_symmetry_group_IT_number 2
_symmetry_cell_setting 'triclinic'
loop_
_space_group_symop_operation_xyz
x,y,z
-x,-y,-z
loop_
_atom_site_type_symbol
_atom_site_label
_atom_site_fract_x
_atom_site_fract_y
_atom_site_fract_z
Si Si1 0.624440 0.076776 0.323107
Si Si2 0.303711 0.558886 0.986594
Si Si3 0.502681 0.254871 0.141095
Si Si4 0.947893 0.468321 0.263622
Si Si5 0.267601 0.039691 0.576333
Si Si6 0.943413 0.648566 0.636044
Si Si7 0.271947 0.321895 0.897362
O O1 0.768566 0.783252 0.280923
O O2 0.605780 0.035339 0.387412
O O3 0.782395 0.279780 0.279550
O O4 0.339347 0.206947 0.344037
O O5 0.361094 0.791049 0.936718
O O6 0.341125 0.306984 0.947036
O O7 0.500000 0.500000 0.000000
O O8 0.028367 0.643288 0.058823
O O9 0.646688 0.427119 0.146272
O O10 0.192841 0.414177 0.186226
O O11 0.562435 0.943126 0.156672
O O12 0.076544 0.385241 0.299515
O O13 0.073388 0.350727 0.597094
O O14 0.500000 0.000000 0.500000
O O15 0.116117 0.837093 0.590010
#
# Coordination Sequence:
#
# PCOD8044312 Si02
#       7
#     2   2   2   2   2   2   2
#     4  10  21  38  57  80 116 148 183 228 269 322
#     4   9  20  36  55  77 106 136 172 221 278 324
#     4  10  19  38  54  75 108 137 176 227 265 322
#     4  10  21  38  55  79 112 145 188 229 268 322
#     4  10  21  36  59  87 114 145 185 226 270 322
#     4  10  21  38  57  81 114 152 179 226 278 313
#     4   9  20  36  53  75 106 136 168 222 278 319
#
# _framework density 19.954388999999999
#
# number of rings (size 3 to 8) (size 9 to 14) (size 15 to 20)
#    0.857    1.429    0.000    2.571    0.000    1.714 
#    5.143    0.000    0.000    0.000    0.000    0.000 
#    0.000    0.000    0.000    0.000    0.000    0.000 
#
# Total GULP energy -173450.207659 kJ/mol
# GULP energy per Si atom -12389.300547 kJ/mol
# Density = 1.990897 g / cm^3
# Si number density = 19.954389 Si / 1000 Ang^3
#
#
#
# Elastic Constant Matrix: (Units=GPa)
#
#
# Indices 1 2 3 4 5 6 
#
# 1 122.4581 48.2658 28.4643 1.2329 -29.8816 -8.6343
# 2 48.2658 158.6364 37.1780 13.0973 -17.6524 12.7691
# 3 28.4643 37.1780 62.9324 3.7758 -30.9847 4.9663
# 4 1.2329 13.0973 3.7758 23.3229 -0.7868 -9.4523
# 5 -29.8816 -17.6524 -30.9847 -0.7868 24.6807 1.4207
# 6 -8.6343 12.7691 4.9663 -9.4523 1.4207 25.3543
#
#
#
# Elastic Compliance Matrix: (Units=1/GPa)
#
#
# Indices 1 2 3 4 5 6 
#
# 1 0.013890 -0.004007 0.005669 0.003667 0.020849 0.005837
# 2 -0.004007 0.009446 -0.004267 -0.007751 -0.003239 -0.007994
# 3 0.005669 -0.004267 0.051200 -0.009244 0.068557 -0.013237
# 4 0.003667 -0.007751 -0.009244 0.060332 -0.012522 0.030157
# 5 0.020849 -0.003239 0.068557 -0.012522 0.150135 -0.017778
# 6 0.005837 -0.007994 -0.013237 0.030157 -0.017778 0.060287
#
#
# Mechanical properties :
#
#
# Convention : Reuss Voigt Hill
#
# Bulk Modulus (GPa) = 14.42455 63.53812 38.98134
# Shear Modulus (GPa) = 13.38306 30.01284 21.69795
#
# Velocity S-wave (km/s) = 2.59256 3.88244 3.30112
# Velocity P-wave (km/s) = 4.02570 7.21170 5.84016
#
# Compressibility (1/GPa) = 0.06932627
#
# Stress axis : x y z
#
# Youngs Moduli (GPa) = 71.99530 105.86622 19.53142
#
# Poissons Ratio (x) = 0.42424 -0.11073
# Poissons Ratio (y) = 0.28851 0.08333
# Poissons Ratio (z) = -0.40817 0.45169
#
# Static dielectric constant tensor:
#      x y z
#    x 3.378380 -0.031240 0.133640 
#    y -0.031240 2.545020 1.068010 
#    z 0.133640 1.068010 2.656600 
# 
# 
# High freq. dielectric constant tensor:
#      x y z
#    x 1.763670 0.019160 -0.021840 
#    y 0.019160 1.789970 0.001810 
#    z -0.021840 0.001810 1.773410 
# 
# From -- ./inp_files/120949.got.cif
#   From: 2010.06.25/outbox.cif.g09.slc.cpg/sg2_61_cif.got.tgz:120949.got - 2010.06.27 13:26:56.
