data_PCOD8044244
_publ_section_title
;
Structure prediction by ZEFSAII (Michael W. Deem and Ramdas Pophale) SiO2 
 PCOD8044244
Probable space group: P -1
;
_chemical_formula_sum "Si O2"
_cell_formula_units_Z 16
_cell_length_a 9.251452
_cell_length_b 9.535291
_cell_length_c 11.544054
_cell_angle_alpha 92.223814
_cell_angle_beta 128.407942
_cell_angle_gamma 106.767776
_cell_volume 731.093977
_symmetry_space_group_name_H-M "P -1"
_symmetry_group_IT_number 2
_symmetry_cell_setting 'triclinic'
loop_
_space_group_symop_operation_xyz
x,y,z
-x,-y,-z
loop_
_atom_site_type_symbol
_atom_site_label
_atom_site_fract_x
_atom_site_fract_y
_atom_site_fract_z
Si Si1 0.419242 0.424469 0.583043
Si Si2 0.034538 0.663548 0.300372
Si Si3 0.636540 0.674750 0.096417
Si Si4 0.349927 0.846678 0.648127
Si Si5 0.016689 0.616592 0.615102
Si Si6 0.349070 0.283080 0.156362
Si Si7 0.041425 0.676920 0.039910
Si Si8 0.481048 0.804513 0.230414
O O1 0.500000 0.500000 0.500000
O O2 0.485137 0.549862 0.722229
O O3 0.506414 0.298295 0.656964
O O4 0.176991 0.341723 0.465176
O O5 0.234361 0.761579 0.473432
O O6 0.064683 0.719322 0.187069
O O7 0.847057 0.693022 0.260335
O O8 0.977594 0.479201 0.270079
O O9 0.541777 0.756617 0.137794
O O10 0.500000 0.500000 0.000000
O O11 0.669341 0.752932 0.989865
O O12 0.219040 0.767856 0.696276
O O13 0.569440 0.838060 0.753350
O O14 0.378558 0.021407 0.665252
O O15 0.000000 0.500000 0.500000
O O16 0.135430 0.277030 0.099493
O O17 0.252268 0.782963 0.091437
O O18 0.000000 0.500000 0.000000
#
# Coordination Sequence:
#
# PCOD8044244 Si02
#       8
#     2   2   2   2   2   2   2   2
#     4  12  23  41  68 104 129 167 230 282 324 393
#     4  10  21  40  67  96 131 181 221 271 337 402
#     4  11  21  40  69  94 133 172 221 274 330 399
#     4  11  25  41  68  99 139 172 225 280 344 389
#     4  10  19  37  66  94 127 171 217 265 327 398
#     4  11  23  43  65  95 132 180 221 272 338 394
#     4  11  23  41  67  98 129 177 238 272 329 402
#     4  12  25  42  68 102 135 172 227 284 335 397
#
# _framework density 21.885010999999999
#
# number of rings (size 3 to 8) (size 9 to 14) (size 15 to 20)
#    0.000    1.000    5.000    3.750    0.000    3.500 
#    0.000    0.000    0.000    0.000    0.000    0.000 
#    0.000    0.000    0.000    0.000    0.000    0.000 
#
# Total GULP energy -198320.213256 kJ/mol
# GULP energy per Si atom -12395.013329 kJ/mol
# Density = 2.183520 g / cm^3
# Si number density = 21.885011 Si / 1000 Ang^3
#
#
#
# Elastic Constant Matrix: (Units=GPa)
#
#
# Indices 1 2 3 4 5 6 
#
# 1 123.6267 31.6502 47.8027 -6.1091 29.4276 -14.7210
# 2 31.6502 117.3275 34.6498 2.0378 0.9954 -5.2844
# 3 47.8027 34.6498 103.8768 -13.3692 18.3420 -11.3306
# 4 -6.1091 2.0378 -13.3692 23.8584 -5.9025 6.6803
# 5 29.4276 0.9954 18.3420 -5.9025 38.5551 -3.9004
# 6 -14.7210 -5.2844 -11.3306 6.6803 -3.9004 22.1780
#
#
#
# Elastic Compliance Matrix: (Units=1/GPa)
#
#
# Indices 1 2 3 4 5 6 
#
# 1 0.012162 -0.001978 -0.003301 -0.001849 -0.007422 0.005167
# 2 -0.001978 0.010042 -0.003135 -0.002730 0.002397 0.000722
# 3 -0.003301 -0.003135 0.013636 0.005875 -0.002809 0.001765
# 4 -0.001849 -0.002730 0.005875 0.049846 0.005002 -0.013011
# 5 -0.007422 0.002397 -0.002809 0.005002 0.033500 -0.001406
# 6 0.005167 0.000722 0.001765 -0.013011 -0.001406 0.053265
#
#
# Mechanical properties :
#
#
# Convention : Reuss Voigt Hill
#
# Bulk Modulus (GPa) = 52.59894 63.67071 58.13483
# Shear Modulus (GPa) = 25.55998 32.30020 28.93009
#
# Velocity S-wave (km/s) = 3.42119 3.84592 3.63976
# Velocity P-wave (km/s) = 6.30020 6.99127 6.65471
#
# Compressibility (1/GPa) = 0.01901179
#
# Stress axis : x y z
#
# Youngs Moduli (GPa) = 82.22159 99.57828 73.33374
#
# Poissons Ratio (x) = 0.19699 0.24207
# Poissons Ratio (y) = 0.16265 0.22993
# Poissons Ratio (z) = 0.27141 0.31222
#
# Static dielectric constant tensor:
#      x y z
#    x 4.788940 -0.195540 -0.412690 
#    y -0.195540 3.924700 -0.078320 
#    z -0.412690 -0.078320 4.904710 
# 
# 
# High freq. dielectric constant tensor:
#      x y z
#    x 1.871250 -0.008030 0.013830 
#    y -0.008030 1.823440 -0.014450 
#    z 0.013830 -0.014450 1.865960 
# 
# From -- ./inp_files/205652.got.cif
#   From: 2010.06.25/outbox.cif.g09.slc.cpg/sg2_103_cif.got.tgz:205652.got - 2010.06.27 13:26:56.
