data_PCOD8044323
_publ_section_title
;
Structure prediction by ZEFSAII (Michael W. Deem and Ramdas Pophale) SiO2 
 PCOD8044323
Probable space group: P -1
;
_chemical_formula_sum "Si O2"
_cell_formula_units_Z 16
_cell_length_a 14.321045
_cell_length_b 11.683047
_cell_length_c 11.517362
_cell_angle_alpha 114.151396
_cell_angle_beta 100.262101
_cell_angle_gamma 136.260307
_cell_volume 802.766837
_symmetry_space_group_name_H-M "P -1"
_symmetry_group_IT_number 2
_symmetry_cell_setting 'triclinic'
loop_
_space_group_symop_operation_xyz
x,y,z
-x,-y,-z
loop_
_atom_site_type_symbol
_atom_site_label
_atom_site_fract_x
_atom_site_fract_y
_atom_site_fract_z
Si Si1 0.979362 0.645806 0.613390
Si Si2 0.280709 0.592713 0.865045
Si Si3 0.238552 0.387239 0.538683
Si Si4 0.303087 0.956070 0.457738
Si Si5 0.640084 0.901393 0.709054
Si Si6 0.894537 0.047066 0.664308
Si Si7 0.332752 0.924282 0.695953
Si Si8 0.108971 0.656945 0.866777
O O1 0.088354 0.739607 0.798058
O O2 0.932308 0.738204 0.626750
O O3 0.133126 0.780656 0.602023
O O4 0.754854 0.319153 0.415099
O O5 0.289577 0.518453 0.722526
O O6 0.216139 0.657311 0.839879
O O7 0.134872 0.359810 0.834084
O O8 0.505726 0.858856 0.079373
O O9 0.445848 0.609928 0.604551
O O10 0.143688 0.142626 0.446943
O O11 0.433576 0.110248 0.430146
O O12 0.426108 0.057711 0.642243
O O13 0.219771 0.001318 0.478562
O O14 0.114975 0.640929 0.260331
O O15 0.805724 0.987177 0.745868
O O16 0.749881 0.129080 0.910256
#
# Coordination Sequence:
#
# PCOD8044323 Si02
#       8
#     2   2   2   2   2   2   2   2
#     4  10  21  34  59  84 125 147 179 251 280 343
#     4  11  22  36  67  85 113 149 194 247 278 347
#     4  12  22  39  58  88 115 156 196 226 293 338
#     4   8  19  36  60  80 115 151 179 242 274 341
#     4  10  21  38  63  84 114 157 188 238 282 347
#     4   9  22  41  59  82 115 159 191 235 281 340
#     4  10  19  38  56  91 115 146 193 234 300 328
#     4  10  19  39  59  90 113 146 193 234 300 325
#
# _framework density 19.931069000000001
#
# number of rings (size 3 to 8) (size 9 to 14) (size 15 to 20)
#    0.750    1.250    0.000    5.625    0.000    1.500 
#    2.250    6.250    0.000    0.000    0.000    0.000 
#    0.000    0.000    0.000    0.000    0.000    0.000 
#
# Total GULP energy -198269.960428 kJ/mol
# GULP energy per Si atom -12391.872527 kJ/mol
# Density = 1.988571 g / cm^3
# Si number density = 19.931069 Si / 1000 Ang^3
#
#
#
# Elastic Constant Matrix: (Units=GPa)
#
#
# Indices 1 2 3 4 5 6 
#
# 1 57.0443 25.1647 32.8684 -0.3823 -3.5335 -9.6955
# 2 25.1647 90.0868 36.2884 -6.3369 3.5021 -1.1193
# 3 32.8684 36.2884 76.7555 -9.0348 0.5449 -11.5981
# 4 -0.3823 -6.3369 -9.0348 23.7610 5.0152 0.1582
# 5 -3.5335 3.5021 0.5449 5.0152 23.9314 1.1682
# 6 -9.6955 -1.1193 -11.5981 0.1582 1.1682 34.1683
#
#
#
# Elastic Compliance Matrix: (Units=1/GPa)
#
#
# Indices 1 2 3 4 5 6 
#
# 1 0.025500 -0.003990 -0.009115 -0.005302 0.005480 0.003848
# 2 -0.003990 0.014583 -0.005224 0.002490 -0.003012 -0.002336
# 3 -0.009115 -0.005224 0.020905 0.006956 -0.002730 0.004399
# 4 -0.005302 0.002490 0.006956 0.047699 -0.011355 0.001105
# 5 0.005480 -0.003012 -0.002730 -0.011355 0.045525 -0.000974
# 6 0.003848 -0.002336 0.004399 0.001105 -0.000974 0.031804
#
#
# Mechanical properties :
#
#
# Convention : Reuss Voigt Hill
#
# Bulk Modulus (GPa) = 41.10317 45.83663 43.46990
# Shear Modulus (GPa) = 21.66538 25.00982 23.33760
#
# Velocity S-wave (km/s) = 3.30057 3.54618 3.42558
# Velocity P-wave (km/s) = 5.93232 6.30989 6.12402
#
# Compressibility (1/GPa) = 0.02432902
#
# Stress axis : x y z
#
# Youngs Moduli (GPa) = 39.21539 68.57511 47.83659
#
# Poissons Ratio (x) = 0.27359 0.43603
# Poissons Ratio (y) = 0.15646 0.24992
# Poissons Ratio (z) = 0.35745 0.35827
#
# Static dielectric constant tensor:
#      x y z
#    x 3.448730 0.078060 0.009350 
#    y 0.078060 3.755680 0.000300 
#    z 0.009350 0.000300 3.272960 
# 
# 
# High freq. dielectric constant tensor:
#      x y z
#    x 1.761310 0.006340 0.001800 
#    y 0.006340 1.790320 -0.002750 
#    z 0.001800 -0.002750 1.751220 
# 
# From -- ./inp_files/452569.got.cif
#   From: 2010.06.25/outbox.cif.g09.slc.cpg/sg2_227_cif.got.tgz:452569.got - 2010.06.27 13:26:56.
