data_PCOD8044215
_publ_section_title
;
Structure prediction by ZEFSAII (Michael W. Deem and Ramdas Pophale) SiO2 
 PCOD8044215
Probable space group: P -1
;
_chemical_formula_sum "Si O2"
_cell_formula_units_Z 14
_cell_length_a 13.416401
_cell_length_b 24.418565
_cell_length_c 16.947616
_cell_angle_alpha 16.671916
_cell_angle_beta 25.111864
_cell_angle_gamma 24.590685
_cell_volume 634.732266
_symmetry_space_group_name_H-M "P -1"
_symmetry_group_IT_number 2
_symmetry_cell_setting 'triclinic'
loop_
_space_group_symop_operation_xyz
x,y,z
-x,-y,-z
loop_
_atom_site_type_symbol
_atom_site_label
_atom_site_fract_x
_atom_site_fract_y
_atom_site_fract_z
Si Si1 0.739905 0.380372 0.400369
Si Si2 0.548524 0.579636 0.106859
Si Si3 0.155661 0.773093 0.728576
Si Si4 0.972575 0.124499 0.928480
Si Si5 0.527969 0.076719 0.600185
Si Si6 0.228950 0.096283 0.488237
Si Si7 0.697886 0.700038 0.114560
O O1 0.663036 0.547327 0.156924
O O2 0.757908 0.482466 0.330361
O O3 0.541612 0.261446 0.710884
O O4 0.012776 0.219188 0.411817
O O5 0.654325 0.366041 0.280690
O O6 0.247399 0.655947 0.222659
O O7 0.636064 0.763249 0.756991
O O8 0.332090 0.769532 0.681948
O O9 0.000000 0.000000 0.500000
O O10 0.935868 0.679513 0.028934
O O11 0.229831 0.163296 0.709920
O O12 0.898206 0.004998 0.217570
O O13 0.000000 0.000000 0.000000
O O14 0.568339 0.056179 0.505176
O O15 0.646221 0.870262 0.849610
#
# Coordination Sequence:
#
# PCOD8044215 Si02
#       7
#     2   2   2   2   2   2   2
#     4  11  20  36  69 102 125 164 231 279 318 383
#     4  12  24  41  69 101 134 178 222 273 338 393
#     4  10  23  42  65  97 138 176 220 277 333 393
#     4  12  26  44  69 102 137 170 225 277 328 402
#     4  11  23  45  64  94 141 177 215 275 331 397
#     4  12  23  43  72  97 132 174 224 277 334 388
#     4  10  19  37  65  99 131 169 217 281 328 373
#
# _framework density 22.056545
#
# number of rings (size 3 to 8) (size 9 to 14) (size 15 to 20)
#    0.000    0.857    5.714    2.571    2.000    0.571 
#    2.571    2.857    0.000    0.000    0.000    0.000 
#    0.000    0.000    0.000    0.000    0.000    0.000 
#
# Total GULP energy -173513.934609 kJ/mol
# GULP energy per Si atom -12393.852472 kJ/mol
# Density = 2.200634 g / cm^3
# Si number density = 22.056545 Si / 1000 Ang^3
#
#
#
# Elastic Constant Matrix: (Units=GPa)
#
#
# Indices 1 2 3 4 5 6 
#
# 1 99.0316 51.0771 43.2106 9.4441 -23.7941 -13.2134
# 2 51.0771 157.1625 42.1898 8.6631 -19.5297 -15.3903
# 3 43.2106 42.1898 72.1752 19.6551 -21.5856 6.4099
# 4 9.4441 8.6631 19.6551 37.1778 -1.3308 -5.4195
# 5 -23.7941 -19.5297 -21.5856 -1.3308 35.6055 8.0212
# 6 -13.2134 -15.3903 6.4099 -5.4195 8.0212 40.1293
#
#
#
# Elastic Compliance Matrix: (Units=1/GPa)
#
#
# Indices 1 2 3 4 5 6 
#
# 1 0.016260 -0.002172 -0.008386 0.001720 0.003438 0.005406
# 2 -0.002172 0.008492 -0.004416 0.001407 -0.000201 0.003478
# 3 -0.008386 -0.004416 0.030581 -0.014570 0.013106 -0.013927
# 4 0.001720 0.001407 -0.014570 0.034973 -0.007792 0.009714
# 5 0.003438 -0.000201 0.013106 -0.007792 0.040208 -0.010128
# 6 0.005406 0.003478 -0.013927 0.009714 -0.010128 0.033594
#
#
# Mechanical properties :
#
#
# Convention : Reuss Voigt Hill
#
# Bulk Modulus (GPa) = 39.39107 66.81380 53.10244
# Shear Modulus (GPa) = 24.68924 35.37530 30.03227
#
# Velocity S-wave (km/s) = 3.34931 4.00915 3.69399
# Velocity P-wave (km/s) = 5.73194 7.19645 6.50553
#
# Compressibility (1/GPa) = 0.02538646
#
# Stress axis : x y z
#
# Youngs Moduli (GPa) = 61.50089 117.75712 32.69969
#
# Poissons Ratio (x) = 0.25572 0.27421
# Poissons Ratio (y) = 0.13355 0.14441
# Poissons Ratio (z) = 0.51572 0.52004
#
# Static dielectric constant tensor:
#      x y z
#    x 4.076500 -0.315870 -0.389630 
#    y -0.315870 4.238580 0.251720 
#    z -0.389630 0.251720 4.003900 
# 
# 
# High freq. dielectric constant tensor:
#      x y z
#    x 1.857470 -0.021660 -0.010800 
#    y -0.021660 1.878080 0.019400 
#    z -0.010800 0.019400 1.851040 
# 
# From -- ./inp_files/258361.got.cif
#   From: 2010.06.25/outbox.cif.g09.slc.cpg/sg2_130_cif.got.tgz:258361.got - 2010.06.27 13:26:56.
