data_PCOD8044269
_publ_section_title
;
Structure prediction by ZEFSAII (Michael W. Deem and Ramdas Pophale) SiO2 
 PCOD8044269
Probable space group: P -1
;
_chemical_formula_sum "Si O2"
_cell_formula_units_Z 14
_cell_length_a 21.778506
_cell_length_b 10.407292
_cell_length_c 8.747692
_cell_angle_alpha 61.315641
_cell_angle_beta 147.918159
_cell_angle_gamma 138.080987
_cell_volume 637.145551
_symmetry_space_group_name_H-M "P -1"
_symmetry_group_IT_number 2
_symmetry_cell_setting 'triclinic'
loop_
_space_group_symop_operation_xyz
x,y,z
-x,-y,-z
loop_
_atom_site_type_symbol
_atom_site_label
_atom_site_fract_x
_atom_site_fract_y
_atom_site_fract_z
Si Si1 0.506190 0.588874 0.621152
Si Si2 0.439358 0.125020 0.937804
Si Si3 0.735179 0.604835 0.288087
Si Si4 0.151299 0.242983 0.232313
Si Si5 0.920848 0.245191 0.601074
Si Si6 0.533295 0.171252 0.762919
Si Si7 0.120539 0.467892 0.608364
O O1 0.500000 0.500000 0.500000
O O2 0.333135 0.389700 0.455980
O O3 0.548812 0.801620 0.558124
O O4 0.665499 0.676579 0.002223
O O5 0.454656 0.116595 0.794624
O O6 0.248256 0.010010 0.614879
O O7 0.575528 0.364445 0.149125
O O8 0.464854 0.001420 0.166427
O O9 0.834322 0.756917 0.555048
O O10 0.867863 0.625361 0.462570
O O11 0.078213 0.333710 0.979103
O O12 0.000000 0.000000 0.000000
O O13 0.873918 0.354781 0.523945
O O14 0.960315 0.292952 0.476138
O O15 0.716669 0.412984 0.013448
#
# Coordination Sequence:
#
# PCOD8044269 Si02
#       7
#     2   2   2   2   2   2   2
#     4  12  21  41  70  92 128 171 211 262 322 386
#     4   9  18  35  67  94 122 162 209 261 310 384
#     4  11  23  43  65  93 131 170 221 261 313 387
#     4  12  27  43  63  91 129 176 216 268 325 375
#     4  10  19  37  67  94 128 165 206 255 327 378
#     4   9  17  34  64  97 125 164 208 250 323 379
#     4   9  18  37  67  94 125 169 206 261 314 383
#
# _framework density 21.973002999999999
#
# number of rings (size 3 to 8) (size 9 to 14) (size 15 to 20)
#    0.000    1.714    4.286    2.143    0.000    0.571 
#    0.000    5.000    6.286    0.000    0.000    0.000 
#    0.000    0.000    0.000    0.000    0.000    0.000 
#
# Total GULP energy -173457.587066 kJ/mol
# GULP energy per Si atom -12389.827648 kJ/mol
# Density = 2.192299 g / cm^3
# Si number density = 21.973003 Si / 1000 Ang^3
#
#
#
# Elastic Constant Matrix: (Units=GPa)
#
#
# Indices 1 2 3 4 5 6 
#
# 1 109.7448 33.0247 67.6446 -4.1213 3.8428 0.4124
# 2 33.0247 71.2746 24.3263 -9.5994 -11.7191 16.4672
# 3 67.6446 24.3263 96.1957 -5.4042 -11.4264 -1.9570
# 4 -4.1213 -9.5994 -5.4042 31.8629 5.7402 3.2487
# 5 3.8428 -11.7191 -11.4264 5.7402 37.3514 6.5390
# 6 0.4124 16.4672 -1.9570 3.2487 6.5390 20.0850
#
#
#
# Elastic Compliance Matrix: (Units=1/GPa)
#
#
# Indices 1 2 3 4 5 6 
#
# 1 0.020010 -0.008803 -0.012943 -0.001354 -0.010160 0.009072
# 2 -0.008803 0.027617 0.000673 0.007723 0.013498 -0.028040
# 3 -0.012943 0.000673 0.020272 0.000658 0.007811 -0.000960
# 4 -0.001354 0.007723 0.000658 0.034942 -0.000556 -0.011711
# 5 -0.010160 0.013498 0.007811 -0.000556 0.038473 -0.022533
# 6 0.009072 -0.028040 -0.000960 -0.011711 -0.022533 0.081728
#
#
# Mechanical properties :
#
#
# Convention : Reuss Voigt Hill
#
# Bulk Modulus (GPa) = 38.82993 58.57849 48.70421
# Shear Modulus (GPa) = 18.26336 28.00782 23.13559
#
# Velocity S-wave (km/s) = 2.88613 3.57409 3.24838
# Velocity P-wave (km/s) = 5.36809 6.61433 6.02353
#
# Compressibility (1/GPa) = 0.02575333
#
# Stress axis : x y z
#
# Youngs Moduli (GPa) = 49.97584 36.20931 49.32885
#
# Poissons Ratio (x) = 0.31874 0.63847
# Poissons Ratio (y) = 0.43992 -0.03319
# Poissons Ratio (z) = 0.64684 -0.02437
#
# Static dielectric constant tensor:
#      x y z
#    x 3.908730 0.107690 0.497600 
#    y 0.107690 4.263380 -0.271040 
#    z 0.497600 -0.271040 4.218090 
# 
# 
# High freq. dielectric constant tensor:
#      x y z
#    x 1.854050 0.010190 0.032480 
#    y 0.010190 1.868710 -0.021170 
#    z 0.032480 -0.021170 1.849550 
# 
# From -- ./inp_files/181938.got.cif
#   From: 2010.06.25/outbox.cif.g09.slc.cpg/sg2_91_cif.got.tgz:181938.got - 2010.06.27 13:26:56.
