data_PCOD8044137
_publ_section_title
;
Structure prediction by ZEFSAII (Michael W. Deem and Ramdas Pophale) SiO2 
 PCOD8044137
Probable space group: P -1
;
_chemical_formula_sum "Si O2"
_cell_formula_units_Z 16
_cell_length_a 9.576275
_cell_length_b 19.470042
_cell_length_c 10.008913
_cell_angle_alpha 35.253396
_cell_angle_beta 104.712906
_cell_angle_gamma 124.408255
_cell_volume 799.892700
_symmetry_space_group_name_H-M "P -1"
_symmetry_group_IT_number 2
_symmetry_cell_setting 'triclinic'
loop_
_space_group_symop_operation_xyz
x,y,z
-x,-y,-z
loop_
_atom_site_type_symbol
_atom_site_label
_atom_site_fract_x
_atom_site_fract_y
_atom_site_fract_z
Si Si1 0.600103 0.955852 0.855335
Si Si2 0.308795 0.361198 0.241683
Si Si3 0.712109 0.035446 0.273585
Si Si4 0.605037 0.804983 0.850152
Si Si5 0.558985 0.814715 0.349071
Si Si6 0.094978 0.177141 0.225653
Si Si7 0.210977 0.536952 0.104306
Si Si8 0.200637 0.695716 0.598884
O O1 0.743980 0.136655 0.640086
O O2 0.401121 0.901590 0.838973
O O3 0.683111 0.918368 0.816177
O O4 0.566181 0.855472 0.133206
O O5 0.347675 0.264897 0.491291
O O6 0.153744 0.257598 0.255210
O O7 0.228219 0.419484 0.223816
O O8 0.500000 0.500000 0.000000
O O9 0.933946 0.178388 0.123288
O O10 0.625429 0.893192 0.580302
O O11 0.679255 0.970436 0.219182
O O12 0.727210 0.748104 0.949202
O O13 0.388208 0.651697 0.063009
O O14 0.341298 0.700713 0.525639
O O15 0.000000 0.000000 0.500000
O O16 0.013736 0.430008 0.307830
O O17 0.210500 0.644314 0.829131
#
# Coordination Sequence:
#
# PCOD8044137 Si02
#       8
#     2   2   2   2   2   2   2   2
#     4  11  24  38  65  89 128 161 200 254 311 356
#     4  12  20  40  65  91 120 164 204 247 304 363
#     4  10  19  37  64  90 119 155 208 254 296 350
#     4  11  20  39  57  97 119 157 208 257 296 350
#     4  11  21  43  62  90 124 165 200 249 310 368
#     4  10  20  35  64  91 119 150 212 257 289 344
#     4  11  22  35  63  91 123 152 209 255 296 357
#     4  10  21  38  60  92 118 161 203 252 300 361
#
# _framework density 20.002683999999999
#
# number of rings (size 3 to 8) (size 9 to 14) (size 15 to 20)
#    0.000    1.250    7.500    1.875    3.500    1.000 
#    0.000    5.000    2.750    0.000    0.000    0.000 
#    0.000    0.000    0.000    0.000    0.000    0.000 
#
# Total GULP energy -198372.049332 kJ/mol
# GULP energy per Si atom -12398.253083 kJ/mol
# Density = 1.995716 g / cm^3
# Si number density = 20.002684 Si / 1000 Ang^3
#
#
#
# Elastic Constant Matrix: (Units=GPa)
#
#
# Indices 1 2 3 4 5 6 
#
# 1 94.0323 30.3859 33.3767 1.7849 -3.6406 24.0955
# 2 30.3859 73.2039 19.8698 -2.8411 -7.3472 12.1432
# 3 33.3767 19.8698 50.8089 -0.1659 -0.9393 13.6120
# 4 1.7849 -2.8411 -0.1659 24.5400 1.3913 -6.8416
# 5 -3.6406 -7.3472 -0.9393 1.3913 19.5031 -10.9850
# 6 24.0955 12.1432 13.6120 -6.8416 -10.9850 40.4453
#
#
#
# Elastic Compliance Matrix: (Units=1/GPa)
#
#
# Indices 1 2 3 4 5 6 
#
# 1 0.016383 -0.004008 -0.007254 -0.003634 -0.002754 -0.007478
# 2 -0.004008 0.016975 -0.004034 0.002056 0.005597 0.000517
# 3 -0.007254 -0.004034 0.027272 -0.000895 -0.004291 -0.004963
# 4 -0.003634 0.002056 -0.000895 0.043879 0.002532 0.009959
# 5 -0.002754 0.005597 -0.004291 0.002532 0.063178 0.018992
# 6 -0.007478 0.000517 -0.004963 0.009959 0.018992 0.037538
#
#
# Mechanical properties :
#
#
# Convention : Reuss Voigt Hill
#
# Bulk Modulus (GPa) = 33.29147 42.81223 38.05185
# Shear Modulus (GPa) = 20.33932 25.85855 23.09893
#
# Velocity S-wave (km/s) = 3.19224 3.59939 3.40191
# Velocity P-wave (km/s) = 5.50153 6.22285 5.87327
#
# Compressibility (1/GPa) = 0.03003772
#
# Stress axis : x y z
#
# Youngs Moduli (GPa) = 61.03732 58.91049 36.66830
#
# Poissons Ratio (x) = 0.23614 0.26600
# Poissons Ratio (y) = 0.24466 0.14790
# Poissons Ratio (z) = 0.44277 0.23762
#
# Static dielectric constant tensor:
#      x y z
#    x 4.622510 0.331710 -0.088080 
#    y 0.331710 3.530640 -0.196950 
#    z -0.088080 -0.196950 3.376690 
# 
# 
# High freq. dielectric constant tensor:
#      x y z
#    x 1.797290 0.008780 -0.001710 
#    y 0.008780 1.770410 -0.015940 
#    z -0.001710 -0.015940 1.744590 
# 
# From -- ./inp_files/216540.got.cif
#   From: 2010.06.25/outbox.cif.g09.slc.cpg/sg2_109_cif.got.tgz:216540.got - 2010.06.27 13:26:56.
