data_PCOD8044009
_publ_section_title
;
Structure prediction by ZEFSAII (Michael W. Deem and Ramdas Pophale) SiO2 
 PCOD8044009
Probable space group: P -1
;
_chemical_formula_sum "Si O2"
_cell_formula_units_Z 16
_cell_length_a 10.505107
_cell_length_b 11.845459
_cell_length_c 8.785265
_cell_angle_alpha 129.262038
_cell_angle_beta 66.513769
_cell_angle_gamma 99.488013
_cell_volume 770.414404
_symmetry_space_group_name_H-M "P -1"
_symmetry_group_IT_number 2
_symmetry_cell_setting 'triclinic'
loop_
_space_group_symop_operation_xyz
x,y,z
-x,-y,-z
loop_
_atom_site_type_symbol
_atom_site_label
_atom_site_fract_x
_atom_site_fract_y
_atom_site_fract_z
Si Si1 0.103937 0.107848 0.362518
Si Si2 0.857116 0.926672 0.340842
Si Si3 0.393015 0.907898 0.549350
Si Si4 0.624672 0.939631 0.994999
Si Si5 0.533732 0.578187 0.203780
Si Si6 0.814132 0.618287 0.984103
Si Si7 0.053817 0.431926 0.576255
Si Si8 0.664560 0.605674 0.728351
O O1 0.160025 0.125150 0.521904
O O2 0.231166 0.049823 0.147164
O O3 0.027161 0.262532 0.467058
O O4 0.007456 0.978360 0.289614
O O5 0.837053 0.788753 0.125086
O O6 0.746802 0.065063 0.462857
O O7 0.453371 0.739811 0.375923
O O8 0.500000 0.000000 0.500000
O O9 0.367363 0.960096 0.777094
O O10 0.599167 0.774040 0.901997
O O11 0.500000 0.000000 0.000000
O O12 0.703365 0.580346 0.136518
O O13 0.465774 0.491822 0.300505
O O14 0.500000 0.500000 0.000000
O O15 0.747801 0.578827 0.823009
O O16 0.968688 0.522112 0.832315
O O17 0.223679 0.435637 0.498824
O O18 0.000000 0.500000 0.500000
#
# Coordination Sequence:
#
# PCOD8044009 Si02
#       8
#     2   2   2   2   2   2   2   2
#     4  10  25  42  61  95 128 171 210 271 321 376
#     4  11  23  41  64  92 132 161 222 264 320 383
#     4  12  22  39  67  96 121 174 214 263 324 385
#     4  11  23  43  67  92 130 167 213 271 327 380
#     4  10  21  35  60  97 121 156 220 258 313 381
#     4  10  19  37  62  90 120 164 208 261 308 383
#     4   9  20  38  62  84 124 167 206 254 326 376
#     4   9  19  40  58  94 121 163 208 259 322 379
#
# _framework density 20.768045000000001
#
# number of rings (size 3 to 8) (size 9 to 14) (size 15 to 20)
#    0.000    1.750    2.500    1.500    5.250    2.000 
#    2.250    0.625    0.000    0.000    0.000    0.000 
#    0.000    0.000    0.000    0.000    0.000    0.000 
#
# Total GULP energy -198291.963101 kJ/mol
# GULP energy per Si atom -12393.247694 kJ/mol
# Density = 2.072078 g / cm^3
# Si number density = 20.768045 Si / 1000 Ang^3
#
#
#
# Elastic Constant Matrix: (Units=GPa)
#
#
# Indices 1 2 3 4 5 6 
#
# 1 67.8200 36.4977 49.1839 -0.5842 -11.9840 8.2880
# 2 36.4977 116.9415 68.0904 2.6133 -7.6092 20.2268
# 3 49.1839 68.0904 139.1093 10.3098 -32.7696 12.2849
# 4 -0.5842 2.6133 10.3098 30.8795 -2.1232 -0.4359
# 5 -11.9840 -7.6092 -32.7696 -2.1232 26.5353 -6.3407
# 6 8.2880 20.2268 12.2849 -0.4359 -6.3407 40.3273
#
#
#
# Elastic Compliance Matrix: (Units=1/GPa)
#
#
# Indices 1 2 3 4 5 6 
#
# 1 0.020876 -0.003061 -0.005627 0.002634 0.001632 -0.000756
# 2 -0.003061 0.014098 -0.007119 0.000541 -0.007385 -0.005429
# 3 -0.005627 -0.007119 0.016540 -0.003892 0.016051 0.002170
# 4 0.002634 0.000541 -0.003892 0.033654 -0.000616 0.000640
# 5 0.001632 -0.007385 0.016051 -0.000616 0.057887 0.007574
# 6 -0.000756 -0.005429 0.002170 0.000640 0.007574 0.028212
#
#
# Mechanical properties :
#
#
# Convention : Reuss Voigt Hill
#
# Bulk Modulus (GPa) = 50.24766 70.15719 60.20243
# Shear Modulus (GPa) = 23.86465 30.88835 27.37650
#
# Velocity S-wave (km/s) = 3.39352 3.86074 3.63465
# Velocity P-wave (km/s) = 6.29300 7.32997 6.83119
#
# Compressibility (1/GPa) = 0.01990142
#
# Stress axis : x y z
#
# Youngs Moduli (GPa) = 47.90113 70.93263 60.45872
#
# Poissons Ratio (x) = 0.21714 0.34019
# Poissons Ratio (y) = 0.14664 0.43038
# Poissons Ratio (z) = 0.26953 0.50493
#
# Static dielectric constant tensor:
#      x y z
#    x 3.963330 0.364680 -0.554990 
#    y 0.364680 4.002740 -0.386650 
#    z -0.554990 -0.386650 4.139010 
# 
# 
# High freq. dielectric constant tensor:
#      x y z
#    x 1.797670 0.012510 -0.025710 
#    y 0.012510 1.820880 -0.000710 
#    z -0.025710 -0.000710 1.818560 
# 
# From -- ./inp_files/260532.got.cif
#   From: 2010.06.25/outbox.cif.g09.slc.cpg/sg2_131_cif.got.tgz:260532.got - 2010.06.27 13:26:56.
