data_PCOD8044594
_publ_section_title
;
Structure prediction by ZEFSAII (Michael W. Deem and Ramdas Pophale) SiO2 
 PCOD8044594
Probable space group: P -1
;
_chemical_formula_sum "Si O2"
_cell_formula_units_Z 16
_cell_length_a 13.735786
_cell_length_b 11.406551
_cell_length_c 14.197526
_cell_angle_alpha 66.157267
_cell_angle_beta 143.237252
_cell_angle_gamma 137.914922
_cell_volume 785.473255
_symmetry_space_group_name_H-M "P -1"
_symmetry_group_IT_number 2
_symmetry_cell_setting 'triclinic'
loop_
_space_group_symop_operation_xyz
x,y,z
-x,-y,-z
loop_
_atom_site_type_symbol
_atom_site_label
_atom_site_fract_x
_atom_site_fract_y
_atom_site_fract_z
Si Si1 0.984822 0.433098 0.866151
Si Si2 0.613640 0.200813 0.820646
Si Si3 0.577103 0.191950 0.385367
Si Si4 0.487514 0.136446 0.116732
Si Si5 0.866126 0.149430 0.724274
Si Si6 0.262933 0.269137 0.863522
Si Si7 0.009572 0.394303 0.355168
Si Si8 0.953703 0.096367 0.493592
O O1 0.737988 0.262981 0.793880
O O2 0.015730 0.329295 0.856153
O O3 0.945113 0.537744 0.739837
O O4 0.236510 0.600999 0.068706
O O5 0.626464 0.072659 0.929329
O O6 0.327247 0.074348 0.625214
O O7 0.485606 0.136217 0.227095
O O8 0.735526 0.158952 0.540751
O O9 0.749656 0.420309 0.457136
O O10 0.340295 0.060549 0.314424
O O11 0.765388 0.321267 0.229872
O O12 0.322989 0.154077 0.944254
O O13 0.055718 0.165977 0.816804
O O14 0.154731 0.238109 0.686912
O O15 0.500000 0.500000 0.000000
O O16 0.978550 0.224371 0.395200
O O17 0.000000 0.000000 0.500000
#
# Coordination Sequence:
#
# PCOD8044594 Si02
#       8
#     2   2   2   2   2   2   2   2
#     4  10  21  41  69  96 119 174 217 269 307 392
#     4  10  23  43  68  90 132 166 221 259 325 384
#     4  10  19  38  63  94 122 165 213 263 322 379
#     4  11  22  39  64  94 128 168 213 263 321 386
#     4  10  21  37  68  92 133 162 216 265 326 374
#     4  12  26  41  64  97 136 170 214 270 322 376
#     4  10  22  38  69  89 126 164 223 259 322 385
#     4  11  27  44  65  94 133 173 211 269 322 382
#
# _framework density 20.369885
#
# number of rings (size 3 to 8) (size 9 to 14) (size 15 to 20)
#    0.000    1.500    1.250    4.125    8.750    1.500 
#    0.000    1.875    0.000    0.000    0.000    0.000 
#    0.000    0.000    0.000    0.000    0.000    0.000 
#
# Total GULP energy -198418.823603 kJ/mol
# GULP energy per Si atom -12401.176475 kJ/mol
# Density = 2.032352 g / cm^3
# Si number density = 20.369885 Si / 1000 Ang^3
#
#
#
# Elastic Constant Matrix: (Units=GPa)
#
#
# Indices 1 2 3 4 5 6 
#
# 1 84.6264 45.6117 34.3581 -1.0361 15.3917 -5.3657
# 2 45.6117 106.0863 39.6102 3.6346 19.9218 11.9940
# 3 34.3581 39.6102 91.6239 4.6465 8.1053 -2.1247
# 4 -1.0361 3.6346 4.6465 34.1604 0.2194 0.6874
# 5 15.3917 19.9218 8.1053 0.2194 34.8034 -0.6707
# 6 -5.3657 11.9940 -2.1247 0.6874 -0.6707 30.1161
#
#
#
# Elastic Compliance Matrix: (Units=1/GPa)
#
#
# Indices 1 2 3 4 5 6 
#
# 1 0.017588 -0.006272 -0.003554 0.001599 -0.003269 0.005272
# 2 -0.006272 0.015526 -0.004011 -0.001108 -0.005320 -0.007677
# 3 -0.003554 -0.004011 0.014053 -0.001637 0.000644 0.002007
# 4 0.001599 -0.001108 -0.001637 0.029663 0.000120 -0.000064
# 5 -0.003269 -0.005320 0.000644 0.000120 0.033118 0.002317
# 6 0.005272 -0.007677 0.002007 -0.000064 0.002317 0.037396
#
#
# Mechanical properties :
#
#
# Convention : Reuss Voigt Hill
#
# Bulk Modulus (GPa) = 51.29887 57.94407 54.62147
# Shear Modulus (GPa) = 27.54579 30.66643 29.10611
#
# Velocity S-wave (km/s) = 3.68133 3.88426 3.78415
# Velocity P-wave (km/s) = 6.58087 6.97311 6.77983
#
# Compressibility (1/GPa) = 0.01949361
#
# Stress axis : x y z
#
# Youngs Moduli (GPa) = 56.85583 64.40982 71.15697
#
# Poissons Ratio (x) = 0.40399 0.25286
# Poissons Ratio (y) = 0.35661 0.28542
# Poissons Ratio (z) = 0.20204 0.25836
#
# Static dielectric constant tensor:
#      x y z
#    x 3.670320 0.056710 -0.051760 
#    y 0.056710 3.983350 0.095450 
#    z -0.051760 0.095450 3.693620 
# 
# 
# High freq. dielectric constant tensor:
#      x y z
#    x 1.795430 0.010900 -0.010090 
#    y 0.010900 1.807000 0.015210 
#    z -0.010090 0.015210 1.787360 
# 
# From -- ./inp_files/262148.got.cif
#   From: 2010.06.25/outbox.cif.g09.slc.cpg/sg2_132_cif.got.tgz:262148.got - 2010.06.27 13:26:56.
