data_PCOD8044336
_publ_section_title
;
Structure prediction by ZEFSAII (Michael W. Deem and Ramdas Pophale) SiO2 
 PCOD8044336
Probable space group: P -1
;
_chemical_formula_sum "Si O2"
_cell_formula_units_Z 16
_cell_length_a 7.555358
_cell_length_b 9.118316
_cell_length_c 13.774806
_cell_angle_alpha 93.440165
_cell_angle_beta 84.904369
_cell_angle_gamma 51.055460
_cell_volume 726.888853
_symmetry_space_group_name_H-M "P -1"
_symmetry_group_IT_number 2
_symmetry_cell_setting 'triclinic'
loop_
_space_group_symop_operation_xyz
x,y,z
-x,-y,-z
loop_
_atom_site_type_symbol
_atom_site_label
_atom_site_fract_x
_atom_site_fract_y
_atom_site_fract_z
Si Si1 0.481399 0.506105 0.616639
Si Si2 0.175142 0.281231 0.097463
Si Si3 0.029062 0.184530 0.761786
Si Si4 0.298398 0.392607 0.265355
Si Si5 0.730567 0.712165 0.126355
Si Si6 0.017412 0.301059 0.370872
Si Si7 0.786771 0.018455 0.802785
Si Si8 0.028858 0.833797 0.439737
O O1 0.500000 0.500000 0.500000
O O2 0.488347 0.660413 0.680775
O O3 0.240960 0.556236 0.656873
O O4 0.714410 0.298066 0.627318
O O5 0.356115 0.250483 0.168604
O O6 0.922593 0.487962 0.132389
O O7 0.155062 0.118730 0.114353
O O8 0.278866 0.253841 0.986539
O O9 0.223277 0.156260 0.818007
O O10 0.819693 0.408844 0.774381
O O11 0.945189 0.077952 0.810562
O O12 0.134259 0.099561 0.644103
O O13 0.127550 0.401239 0.350026
O O14 0.480476 0.788882 0.175963
O O15 0.010946 0.276499 0.486157
O O16 0.157758 0.094550 0.305331
O O17 0.000000 0.000000 0.500000
#
# Coordination Sequence:
#
# PCOD8044336 Si02
#       8
#     2   2   2   2   2   2   2   2
#     4   9  20  35  61  82 117 159 196 249 297 347
#     4   9  21  42  65  89 125 155 204 248 303 367
#     4  10  22  37  61  88 123 156 204 248 297 362
#     4   9  20  39  61  90 119 159 202 251 296 363
#     4  10  22  44  64  89 122 162 197 254 305 356
#     4  10  21  39  61  88 121 162 205 243 304 362
#     4  11  22  39  63  92 123 159 200 254 301 358
#     4  10  19  38  57  86 125 154 201 252 293 355
#
# _framework density 22.011619
#
# number of rings (size 3 to 8) (size 9 to 14) (size 15 to 20)
#    0.000    2.250    1.250    0.375    0.000   13.000 
#    0.000   11.250    0.000    0.000    0.000    0.000 
#    0.000    0.000    0.000    0.000    0.000    0.000 
#
# Total GULP energy -198229.134889 kJ/mol
# GULP energy per Si atom -12389.320931 kJ/mol
# Density = 2.196152 g / cm^3
# Si number density = 22.011619 Si / 1000 Ang^3
#
#
#
# Elastic Constant Matrix: (Units=GPa)
#
#
# Indices 1 2 3 4 5 6 
#
# 1 90.8838 18.3337 34.2927 -0.5287 6.3412 6.9062
# 2 18.3337 66.4404 7.1011 -0.0780 -4.8808 7.3050
# 3 34.2927 7.1011 119.3376 7.2429 16.1130 -0.3531
# 4 -0.5287 -0.0780 7.2429 22.4892 -0.9464 -8.1561
# 5 6.3412 -4.8808 16.1130 -0.9464 34.2226 5.9673
# 6 6.9062 7.3050 -0.3531 -8.1561 5.9673 34.9737
#
#
#
# Elastic Compliance Matrix: (Units=1/GPa)
#
#
# Indices 1 2 3 4 5 6 
#
# 1 0.013159 -0.003142 -0.003524 0.000802 -0.000920 -0.001634
# 2 -0.003142 0.016673 -0.000557 -0.001041 0.003851 -0.003768
# 3 -0.003524 -0.000557 0.010231 -0.003232 -0.004495 0.000929
# 4 0.000802 -0.001041 -0.003232 0.049725 0.000591 0.011522
# 5 -0.000920 0.003851 -0.004495 0.000591 0.033152 -0.006187
# 6 -0.001634 -0.003768 0.000929 0.011522 -0.006187 0.033454
#
#
# Mechanical properties :
#
#
# Convention : Reuss Voigt Hill
#
# Bulk Modulus (GPa) = 39.03402 44.01297 41.52350
# Shear Modulus (GPa) = 27.87373 32.79940 30.33657
#
# Velocity S-wave (km/s) = 3.56240 3.86436 3.71645
# Velocity P-wave (km/s) = 5.89006 6.32059 6.10912
#
# Compressibility (1/GPa) = 0.02561868
#
# Stress axis : x y z
#
# Youngs Moduli (GPa) = 75.99096 59.97567 97.74043
#
# Poissons Ratio (x) = 0.18842 0.34442
# Poissons Ratio (y) = 0.23874 0.05447
# Poissons Ratio (z) = 0.26778 0.03342
#
# Static dielectric constant tensor:
#      x y z
#    x 4.277880 -0.040570 0.329410 
#    y -0.040570 4.069950 -0.035940 
#    z 0.329410 -0.035940 4.404240 
# 
# 
# High freq. dielectric constant tensor:
#      x y z
#    x 1.846230 0.008070 0.008610 
#    y 0.008070 1.861610 0.001780 
#    z 0.008610 0.001780 1.875500 
# 
# From -- ./inp_files/480643.got.cif
#   From: 2010.06.25/outbox.cif.g09.slc.cpg/sg2_241_cif.got.tgz:480643.got - 2010.06.27 13:26:56.
