data_PCOD8044194
_publ_section_title
;
Structure prediction by ZEFSAII (Michael W. Deem and Ramdas Pophale) SiO2 
 PCOD8044194
Probable space group: P -1
;
_chemical_formula_sum "Si O2"
_cell_formula_units_Z 16
_cell_length_a 14.170528
_cell_length_b 9.878967
_cell_length_c 11.977582
_cell_angle_alpha 62.732253
_cell_angle_beta 125.943251
_cell_angle_gamma 70.236254
_cell_volume 647.966281
_symmetry_space_group_name_H-M "P -1"
_symmetry_group_IT_number 2
_symmetry_cell_setting 'triclinic'
loop_
_space_group_symop_operation_xyz
x,y,z
-x,-y,-z
loop_
_atom_site_type_symbol
_atom_site_label
_atom_site_fract_x
_atom_site_fract_y
_atom_site_fract_z
Si Si1 0.872783 0.261166 0.152854
Si Si2 0.091571 0.118469 0.728923
Si Si3 0.986076 0.659540 0.180766
Si Si4 0.154232 0.141887 0.525811
Si Si5 0.462007 0.968454 0.263951
Si Si6 0.166684 0.452289 0.165241
Si Si7 0.550660 0.778940 0.169108
Si Si8 0.346173 0.401107 0.917266
O O1 0.106442 0.070575 0.423403
O O2 0.891909 0.081019 0.172271
O O3 0.775206 0.495309 0.913162
O O4 0.738525 0.385425 0.129821
O O5 0.954437 0.333239 0.659230
O O6 0.004927 0.263750 0.487382
O O7 0.330722 0.925798 0.974542
O O8 0.098951 0.369388 0.358633
O O9 0.068686 0.654146 0.127560
O O10 0.725310 0.946928 0.872417
O O11 0.401616 0.850295 0.838450
O O12 0.596746 0.867777 0.505611
O O13 0.627443 0.721909 0.373323
O O14 0.317956 0.267810 0.005312
O O15 0.000000 0.500000 0.000000
O O16 0.725533 0.508357 0.302214
O O17 0.500000 0.000000 0.000000
#
# Coordination Sequence:
#
# PCOD8044194 Si02
#       8
#     2   2   2   2   2   2   2   2
#     4  12  25  41  60  97 133 174 209 258 328 378
#     4  10  24  41  65  96 135 162 209 270 328 380
#     4  11  22  42  66  96 123 167 221 266 310 376
#     4  11  21  41  67  96 125 167 218 261 321 380
#     4  10  19  38  63  97 121 160 214 273 311 364
#     4  12  24  41  65  95 124 172 226 255 310 385
#     4   8  18  35  62  93 120 158 207 255 313 373
#     4  10  19  37  65  91 130 160 211 268 312 376
#
# _framework density 24.692641999999999
#
# number of rings (size 3 to 8) (size 9 to 14) (size 15 to 20)
#    0.000    1.500    3.750    0.750    0.000    6.500 
#    0.000    5.000    0.000    0.000    0.000    0.000 
#    0.000    0.000    0.000    0.000    0.000    0.000 
#
# Total GULP energy -198221.320913 kJ/mol
# GULP energy per Si atom -12388.832557 kJ/mol
# Density = 2.463644 g / cm^3
# Si number density = 24.692642 Si / 1000 Ang^3
#
#
#
# Elastic Constant Matrix: (Units=GPa)
#
#
# Indices 1 2 3 4 5 6 
#
# 1 78.0301 48.9803 19.1191 10.0597 -4.4687 -8.3815
# 2 48.9803 130.5295 31.1909 20.1430 1.4205 -3.5700
# 3 19.1191 31.1909 92.9602 33.4164 -13.3329 -2.1661
# 4 10.0597 20.1430 33.4164 43.8055 -7.5405 0.3311
# 5 -4.4687 1.4205 -13.3329 -7.5405 25.8506 1.4495
# 6 -8.3815 -3.5700 -2.1661 0.3311 1.4495 51.3356
#
#
#
# Elastic Compliance Matrix: (Units=1/GPa)
#
#
# Indices 1 2 3 4 5 6 
#
# 1 0.017390 -0.006256 -0.001097 0.000169 0.002706 0.002280
# 2 -0.006256 0.010913 -0.001893 -0.002728 -0.003441 -0.000228
# 3 -0.001097 -0.001893 0.016045 -0.010226 0.005191 0.000286
# 4 0.000169 -0.002728 -0.010226 0.032622 0.004473 -0.000930
# 5 0.002706 -0.003441 0.005191 0.004473 0.043369 -0.000832
# 6 0.002280 -0.000228 0.000286 -0.000930 -0.000832 0.019878
#
#
# Mechanical properties :
#
#
# Convention : Reuss Voigt Hill
#
# Bulk Modulus (GPa) = 38.67628 55.56671 47.12150
# Shear Modulus (GPa) = 29.88148 37.68032 33.78090
#
# Velocity S-wave (km/s) = 3.48248 3.91061 3.70274
# Velocity P-wave (km/s) = 5.64511 6.55307 6.11596
#
# Compressibility (1/GPa) = 0.02585564
#
# Stress axis : x y z
#
# Youngs Moduli (GPa) = 57.50561 91.63124 62.32382
#
# Poissons Ratio (x) = 0.57328 0.06835
# Poissons Ratio (y) = 0.35977 0.11799
# Poissons Ratio (z) = 0.06307 0.17348
#
# Static dielectric constant tensor:
#      x y z
#    x 4.645460 -0.553990 0.396400 
#    y -0.553990 4.703800 0.458940 
#    z 0.396400 0.458940 4.653100 
# 
# 
# High freq. dielectric constant tensor:
#      x y z
#    x 1.981600 -0.044280 0.047720 
#    y -0.044280 1.978680 0.037000 
#    z 0.047720 0.037000 2.006580 
# 
# From -- ./inp_files/447212.got.cif
#   From: 2010.06.25/outbox.cif.g09.slc.cpg/sg2_224_cif.got.tgz:447212.got - 2010.06.27 13:26:56.
