data_PCOD8044136
_publ_section_title
;
Structure prediction by ZEFSAII (Michael W. Deem and Ramdas Pophale) SiO2 
 PCOD8044136
Probable space group: P -1
;
_chemical_formula_sum "Si O2"
_cell_formula_units_Z 14
_cell_length_a 8.591370
_cell_length_b 11.031590
_cell_length_c 8.964133
_cell_angle_alpha 47.793640
_cell_angle_beta 73.060126
_cell_angle_gamma 82.665206
_cell_volume 599.226039
_symmetry_space_group_name_H-M "P -1"
_symmetry_group_IT_number 2
_symmetry_cell_setting 'triclinic'
loop_
_space_group_symop_operation_xyz
x,y,z
-x,-y,-z
loop_
_atom_site_type_symbol
_atom_site_label
_atom_site_fract_x
_atom_site_fract_y
_atom_site_fract_z
Si Si1 0.260530 0.109433 0.310118
Si Si2 0.570373 0.353439 0.519148
Si Si3 0.440824 0.009557 0.840696
Si Si4 0.063917 0.644812 0.073553
Si Si5 0.833343 0.228500 0.772558
Si Si6 0.763003 0.519473 0.081897
Si Si7 0.030410 0.016197 0.700812
O O1 0.124453 0.989055 0.362725
O O2 0.437261 0.053566 0.265932
O O3 0.204375 0.084407 0.519797
O O4 0.268182 0.299270 0.108148
O O5 0.500000 0.500000 0.500000
O O6 0.429709 0.203602 0.655962
O O7 0.722180 0.292443 0.620081
O O8 0.612165 0.421647 0.286881
O O9 0.500000 0.000000 0.000000
O O10 0.266445 0.902416 0.975985
O O11 0.099290 0.621167 0.260026
O O12 0.909099 0.525808 0.157849
O O13 0.212770 0.592628 0.975931
O O14 0.034918 0.833703 0.908514
O O15 0.987858 0.143436 0.735734
#
# Coordination Sequence:
#
# PCOD8044136 Si02
#       7
#     2   2   2   2   2   2   2
#     4  10  19  37  64  90 118 166 209 249 301 374
#     4  11  23  39  64  91 125 165 207 249 313 375
#     4  10  19  38  62  86 120 163 208 247 301 367
#     4  10  23  39  62  92 129 159 204 260 311 362
#     4  11  23  40  64  93 126 162 211 258 302 364
#     4  10  22  40  62  89 129 165 203 249 318 372
#     4  10  20  36  63  90 123 157 210 255 302 364
#
# _framework density 23.36347
#
# number of rings (size 3 to 8) (size 9 to 14) (size 15 to 20)
#    0.000    1.714    2.857    3.000    8.000    0.571 
#    0.000    5.714    0.000    0.000    0.000    0.000 
#    0.000    0.000    0.000    0.000    0.000    0.000 
#
# Total GULP energy -173500.815304 kJ/mol
# GULP energy per Si atom -12392.915379 kJ/mol
# Density = 2.331029 g / cm^3
# Si number density = 23.363470 Si / 1000 Ang^3
#
#
#
# Elastic Constant Matrix: (Units=GPa)
#
#
# Indices 1 2 3 4 5 6 
#
# 1 31.4473 29.6799 7.3993 7.9344 -11.5473 -9.5359
# 2 29.6799 170.0541 32.1718 23.1830 -7.8117 -27.3242
# 3 7.3993 32.1718 98.3849 11.8003 -28.4637 -16.1467
# 4 7.9344 23.1830 11.8003 36.9026 -11.6173 -1.4373
# 5 -11.5473 -7.8117 -28.4637 -11.6173 23.8968 11.3716
# 6 -9.5359 -27.3242 -16.1467 -1.4373 11.3716 40.0444
#
#
#
# Elastic Compliance Matrix: (Units=1/GPa)
#
#
# Indices 1 2 3 4 5 6 
#
# 1 0.049518 -0.009076 0.008174 0.002497 0.031953 -0.000089
# 2 -0.009076 0.009497 -0.004225 -0.006256 -0.012131 0.005836
# 3 0.008174 -0.004225 0.017877 0.003306 0.025933 -0.000973
# 4 0.002497 -0.006256 0.003306 0.036964 0.024919 -0.008091
# 5 0.031953 -0.012131 0.025933 0.024919 0.105497 -0.019276
# 6 -0.000089 0.005836 -0.000973 -0.008091 -0.019276 0.033724
#
#
# Mechanical properties :
#
#
# Convention : Reuss Voigt Hill
#
# Bulk Modulus (GPa) = 15.00620 48.70981 31.85800
# Shear Modulus (GPa) = 17.51052 35.54446 26.52749
#
# Velocity S-wave (km/s) = 2.74064 3.90470 3.37326
# Velocity P-wave (km/s) = 4.05607 6.42051 5.37004
#
# Compressibility (1/GPa) = 0.06663912
#
# Stress axis : x y z
#
# Youngs Moduli (GPa) = 20.19483 105.29669 55.93727
#
# Poissons Ratio (x) = 0.95564 -0.45722
# Poissons Ratio (y) = 0.18328 0.23631
# Poissons Ratio (z) = -0.16507 0.44483
#
# Static dielectric constant tensor:
#      x y z
#    x 4.198140 0.133500 -0.188600 
#    y 0.133500 4.396670 0.026030 
#    z -0.188600 0.026030 4.327180 
# 
# 
# High freq. dielectric constant tensor:
#      x y z
#    x 1.890460 -0.005310 -0.010900 
#    y -0.005310 1.939590 0.006100 
#    z -0.010900 0.006100 1.929230 
# 
# From -- ./inp_files/174080.got.cif
#   From: 2010.06.25/outbox.cif.g09.slc.cpg/sg2_88_cif.got.tgz:174080.got - 2010.06.27 13:26:56.
