data_PCOD8044180
_publ_section_title
;
Structure prediction by ZEFSAII (Michael W. Deem and Ramdas Pophale) SiO2 
 PCOD8044180
Probable space group: P -1
;
_chemical_formula_sum "Si O2"
_cell_formula_units_Z 16
_cell_length_a 8.430664
_cell_length_b 19.281617
_cell_length_c 9.517890
_cell_angle_alpha 143.022929
_cell_angle_beta 102.863143
_cell_angle_gamma 60.656314
_cell_volume 768.004986
_symmetry_space_group_name_H-M "P -1"
_symmetry_group_IT_number 2
_symmetry_cell_setting 'triclinic'
loop_
_space_group_symop_operation_xyz
x,y,z
-x,-y,-z
loop_
_atom_site_type_symbol
_atom_site_label
_atom_site_fract_x
_atom_site_fract_y
_atom_site_fract_z
Si Si1 0.190235 0.904041 0.464786
Si Si2 0.201724 0.312229 0.164402
Si Si3 0.562289 0.394810 0.966126
Si Si4 0.695684 0.908823 0.696726
Si Si5 0.213013 0.493154 0.691443
Si Si6 0.256173 0.069286 0.954131
Si Si7 0.436829 0.904970 0.271499
Si Si8 0.786584 0.616884 0.189097
O O1 0.250044 0.752925 0.280918
O O2 0.352740 0.866989 0.321714
O O3 0.168502 0.989433 0.736573
O O4 0.000000 0.000000 0.500000
O O5 0.243835 0.410798 0.421791
O O6 0.012094 0.388360 0.153913
O O7 0.172357 0.215533 0.104783
O O8 0.381824 0.234434 0.972042
O O9 0.373004 0.386985 0.948553
O O10 0.500000 0.500000 0.000000
O O11 0.643837 0.449052 0.192934
O O12 0.770849 0.761204 0.405410
O O13 0.480647 0.973289 0.813246
O O14 0.709297 0.007063 0.743339
O O15 0.808962 0.904458 0.852836
O O16 0.259947 0.398189 0.683177
O O17 0.500000 0.000000 0.500000
O O18 0.000000 0.500000 0.000000
#
# Coordination Sequence:
#
# PCOD8044180 Si02
#       8
#     2   2   2   2   2   2   2   2
#     4  12  24  41  65  95 130 167 210 262 326 379
#     4  10  20  38  63  91 120 166 213 259 310 382
#     4  10  23  40  59  90 127 169 205 254 318 379
#     4  10  20  36  61  92 118 155 209 263 310 362
#     4  10  22  38  62  87 127 164 208 250 319 378
#     4  10  19  37  65  88 120 159 209 260 312 376
#     4  11  22  37  64  93 123 155 214 267 308 367
#     4  11  22  36  61  92 123 162 210 256 311 383
#
# _framework density 20.833199
#
# number of rings (size 3 to 8) (size 9 to 14) (size 15 to 20)
#    0.000    1.500    5.000    0.750    3.500    1.000 
#    0.000    2.500    0.000    0.000    0.000    0.000 
#    0.000    0.000    0.000    0.000    0.000    0.000 
#
# Total GULP energy -198241.854383 kJ/mol
# GULP energy per Si atom -12390.115899 kJ/mol
# Density = 2.078578 g / cm^3
# Si number density = 20.833199 Si / 1000 Ang^3
#
#
#
# Elastic Constant Matrix: (Units=GPa)
#
#
# Indices 1 2 3 4 5 6 
#
# 1 59.6970 16.8374 43.4074 -0.1208 10.2099 -20.7136
# 2 16.8374 90.9572 36.3249 10.4814 9.8434 -9.3175
# 3 43.4074 36.3249 125.6328 12.0869 17.6784 -12.3962
# 4 -0.1208 10.4814 12.0869 43.8568 -7.9477 -4.5861
# 5 10.2099 9.8434 17.6784 -7.9477 31.0360 -5.4448
# 6 -20.7136 -9.3175 -12.3962 -4.5861 -5.4448 29.2039
#
#
#
# Elastic Compliance Matrix: (Units=1/GPa)
#
#
# Indices 1 2 3 4 5 6 
#
# 1 0.029353 -0.000671 -0.008586 0.004384 -0.000345 0.017585
# 2 -0.000671 0.012973 -0.002717 -0.002689 -0.002759 0.001573
# 3 -0.008586 -0.002717 0.012493 -0.004069 -0.005039 -0.003232
# 4 0.004384 -0.002689 -0.004069 0.027046 0.009812 0.006601
# 5 -0.000345 -0.002759 -0.005039 0.009812 0.039585 0.005657
# 6 0.017585 0.001573 -0.003232 0.006601 0.005657 0.047936
#
#
# Mechanical properties :
#
#
# Convention : Reuss Voigt Hill
#
# Bulk Modulus (GPa) = 32.39236 52.15848 42.27542
# Shear Modulus (GPa) = 24.55505 32.80050 28.67777
#
# Velocity S-wave (km/s) = 3.43687 3.97222 3.71420
# Velocity P-wave (km/s) = 5.59747 6.79181 6.22335
#
# Compressibility (1/GPa) = 0.03087147
#
# Stress axis : x y z
#
# Youngs Moduli (GPa) = 34.06809 77.08304 80.04266
#
# Poissons Ratio (x) = 0.05174 0.68723
# Poissons Ratio (y) = 0.02287 0.21747
# Poissons Ratio (z) = 0.29250 0.20943
#
# Static dielectric constant tensor:
#      x y z
#    x 3.568010 -0.166590 0.243930 
#    y -0.166590 4.148970 0.103030 
#    z 0.243930 0.103030 3.993360 
# 
# 
# High freq. dielectric constant tensor:
#      x y z
#    x 1.776120 -0.015660 0.011470 
#    y -0.015660 1.838370 0.011010 
#    z 0.011470 0.011010 1.823050 
# 
# From -- ./inp_files/218930.got.cif
#   From: 2010.06.25/outbox.cif.g09.slc.cpg/sg2_110_cif.got.tgz:218930.got - 2010.06.27 13:26:56.
