data_PCOD8044245
_publ_section_title
;
Structure prediction by ZEFSAII (Michael W. Deem and Ramdas Pophale) SiO2 
 PCOD8044245
Probable space group: P -1
;
_chemical_formula_sum "Si O2"
_cell_formula_units_Z 16
_cell_length_a 8.798885
_cell_length_b 12.382955
_cell_length_c 9.645025
_cell_angle_alpha 72.079379
_cell_angle_beta 134.068630
_cell_angle_gamma 107.439664
_cell_volume 712.769525
_symmetry_space_group_name_H-M "P -1"
_symmetry_group_IT_number 2
_symmetry_cell_setting 'triclinic'
loop_
_space_group_symop_operation_xyz
x,y,z
-x,-y,-z
loop_
_atom_site_type_symbol
_atom_site_label
_atom_site_fract_x
_atom_site_fract_y
_atom_site_fract_z
Si Si1 0.396078 0.977840 0.090278
Si Si2 0.468004 0.414888 0.884378
Si Si3 0.926092 0.361320 0.209276
Si Si4 0.298582 0.213098 0.029761
Si Si5 0.833265 0.467614 0.526735
Si Si6 0.018361 0.187381 0.116896
Si Si7 0.767191 0.246252 0.431224
Si Si8 0.693306 0.996099 0.521043
O O1 0.269297 0.083392 0.008395
O O2 0.594123 0.962406 0.321762
O O3 0.500000 0.000000 0.000000
O O4 0.229168 0.863415 0.031459
O O5 0.378909 0.475865 0.670822
O O6 0.500000 0.500000 0.000000
O O7 0.695357 0.380302 0.997242
O O8 0.302641 0.303734 0.869590
O O9 0.906557 0.291843 0.368808
O O10 0.073110 0.482749 0.286142
O O11 0.043148 0.294520 0.194495
O O12 0.105961 0.229639 0.005415
O O13 0.519532 0.236900 0.241428
O O14 0.794233 0.329082 0.551293
O O15 0.000000 0.500000 0.500000
O O16 0.153097 0.092868 0.300423
O O17 0.831765 0.121996 0.559137
O O18 0.500000 0.000000 0.500000
#
# Coordination Sequence:
#
# PCOD8044245 Si02
#       8
#     2   2   2   2   2   2   2   2
#     4  11  24  42  65  97 130 170 225 266 315 392
#     4  11  19  39  68  86 127 168 213 272 322 373
#     4  10  23  38  61  97 126 161 216 269 316 388
#     4  10  21  38  63  93 125 174 205 268 326 384
#     4  10  19  37  66  95 117 161 224 266 313 383
#     4  12  24  43  63  95 142 165 217 268 331 398
#     4   9  18  38  63  91 120 164 220 262 312 385
#     4  11  23  41  68  94 132 179 210 264 339 385
#
# _framework density 22.447648999999998
#
# number of rings (size 3 to 8) (size 9 to 14) (size 15 to 20)
#    0.000    1.500    6.250    2.625    0.000    6.000 
#    0.000    1.250    0.000    0.000    0.000    0.000 
#    0.000    0.000    0.000    0.000    0.000    0.000 
#
# Total GULP energy -198394.300437 kJ/mol
# GULP energy per Si atom -12399.643777 kJ/mol
# Density = 2.239656 g / cm^3
# Si number density = 22.447649 Si / 1000 Ang^3
#
#
#
# Elastic Constant Matrix: (Units=GPa)
#
#
# Indices 1 2 3 4 5 6 
#
# 1 92.9924 17.8525 23.8039 11.8304 -6.1254 -19.9284
# 2 17.8525 87.3627 37.3877 27.5069 -0.0094 -28.2250
# 3 23.8039 37.3877 82.8385 1.1984 3.0225 -5.0795
# 4 11.8304 27.5069 1.1984 39.2465 -9.1934 2.3242
# 5 -6.1254 -0.0094 3.0225 -9.1934 21.8109 0.3279
# 6 -19.9284 -28.2250 -5.0795 2.3242 0.3279 31.3497
#
#
#
# Elastic Compliance Matrix: (Units=1/GPa)
#
#
# Indices 1 2 3 4 5 6 
#
# 1 0.016903 0.011128 -0.008416 -0.013906 -0.000251 0.020434
# 2 0.011128 0.046514 -0.020159 -0.041068 -0.012106 0.048856
# 3 -0.008416 -0.020159 0.021937 0.017824 0.002421 -0.021292
# 4 -0.013906 -0.041068 0.017824 0.065938 0.022123 -0.048046
# 5 -0.000251 -0.012106 0.002421 0.022123 0.054956 -0.012881
# 6 0.020434 0.048856 -0.021292 -0.048046 -0.012881 0.089121
#
#
# Mechanical properties :
#
#
# Convention : Reuss Voigt Hill
#
# Bulk Modulus (GPa) = 19.81831 46.80908 33.31370
# Shear Modulus (GPa) = 14.40576 30.75806 22.58191
#
# Velocity S-wave (km/s) = 2.53603 3.70565 3.17516
# Velocity P-wave (km/s) = 4.17410 6.26155 5.32119
#
# Compressibility (1/GPa) = 0.05045838
#
# Stress axis : x y z
#
# Youngs Moduli (GPa) = 59.16033 21.49913 45.58549
#
# Poissons Ratio (x) = -0.23924 0.38366
# Poissons Ratio (y) = -0.65832 0.91896
# Poissons Ratio (z) = 0.49791 0.43340
#
# Static dielectric constant tensor:
#      x y z
#    x 0.000000 0.000000 0.000000 
#    y 0.000000 0.000000 0.000000 
#    z 0.000000 0.000000 0.000000 
# 
# 
# High freq. dielectric constant tensor:
#      x y z
#    x 1.861360 -0.000440 0.013800 
#    y -0.000440 1.898600 0.008410 
#    z 0.013800 0.008410 1.875980 
# 
# From -- ./inp_files/187103.got.cif
#   From: 2010.06.25/outbox.cif.g09.slc.cpg/sg2_94_cif.got.tgz:187103.got - 2010.06.27 13:26:56.
