data_PCOD8044721
_publ_section_title
;
Structure prediction by ZEFSAII (Michael W. Deem and Ramdas Pophale) SiO2 
 PCOD8044721
Probable space group: P -1
;
_chemical_formula_sum "Si O2"
_cell_formula_units_Z 16
_cell_length_a 21.510216
_cell_length_b 12.949367
_cell_length_c 9.727930
_cell_angle_alpha 35.692152
_cell_angle_beta 135.175088
_cell_angle_gamma 155.863430
_cell_volume 640.644791
_symmetry_space_group_name_H-M "P -1"
_symmetry_group_IT_number 2
_symmetry_cell_setting 'triclinic'
loop_
_space_group_symop_operation_xyz
x,y,z
-x,-y,-z
loop_
_atom_site_type_symbol
_atom_site_label
_atom_site_fract_x
_atom_site_fract_y
_atom_site_fract_z
Si Si1 0.212542 0.486472 0.806875
Si Si2 0.210295 0.340178 0.686674
Si Si3 0.448049 0.150757 0.349378
Si Si4 0.532205 0.283421 0.889419
Si Si5 0.569410 0.744612 0.501879
Si Si6 0.214052 0.662777 0.143352
Si Si7 0.189873 0.907695 0.056180
Si Si8 0.887379 0.423802 0.222525
O O1 0.127348 0.237974 0.817775
O O2 0.102511 0.419924 0.804716
O O3 0.332879 0.802070 0.570492
O O4 0.301499 0.504921 0.032519
O O5 0.390754 0.643195 0.685553
O O6 0.160154 0.410292 0.425645
O O7 0.164170 0.077831 0.829184
O O8 0.493759 0.319662 0.378875
O O9 0.360393 0.146570 0.119030
O O10 0.506660 0.448658 0.694807
O O11 0.506844 0.228318 0.744121
O O12 0.399650 0.956987 0.112612
O O13 0.755258 0.062630 0.436957
O O14 0.164889 0.771064 0.017604
O O15 0.143295 0.533008 0.020694
O O16 0.056734 0.614074 0.269537
#
# Coordination Sequence:
#
# PCOD8044721 Si02
#       8
#     2   2   2   2   2   2   2   2
#     4  11  22  40  65  98 130 169 210 272 327 382
#     4  12  24  41  71 100 128 166 220 273 329 373
#     4  11  21  39  66  96 126 166 214 275 326 370
#     4  10  19  38  65  97 131 160 219 274 325 375
#     4   9  21  37  63  98 125 175 212 266 329 379
#     4  11  23  45  69  97 129 168 220 276 318 380
#     4  12  25  44  66  94 135 176 217 262 320 391
#     4  10  26  44  64  92 134 180 213 258 323 393
#
# _framework density 24.974837000000001
#
# number of rings (size 3 to 8) (size 9 to 14) (size 15 to 20)
#    0.000    1.250    2.500    3.375    1.750    4.500 
#    2.250    0.000    0.000    0.000    0.000    0.000 
#    0.000    0.000    0.000    0.000    0.000    0.000 
#
# Total GULP energy -198315.699468 kJ/mol
# GULP energy per Si atom -12394.731217 kJ/mol
# Density = 2.491799 g / cm^3
# Si number density = 24.974837 Si / 1000 Ang^3
#
#
#
# Elastic Constant Matrix: (Units=GPa)
#
#
# Indices 1 2 3 4 5 6 
#
# 1 111.3292 18.6422 23.1440 9.8729 -16.8192 -20.6016
# 2 18.6422 51.5004 12.2054 2.6367 -4.9080 -9.6586
# 3 23.1440 12.2054 72.8202 5.1873 -0.5186 -23.7600
# 4 9.8729 2.6367 5.1873 22.0497 -6.2199 -1.7973
# 5 -16.8192 -4.9080 -0.5186 -6.2199 28.9488 0.4635
# 6 -20.6016 -9.6586 -23.7600 -1.7973 0.4635 33.5652
#
#
#
# Elastic Compliance Matrix: (Units=1/GPa)
#
#
# Indices 1 2 3 4 5 6 
#
# 1 0.011739 -0.002233 -0.001379 -0.002599 0.005773 0.005367
# 2 -0.002233 0.021522 -0.001696 -0.000260 0.002208 0.003578
# 3 -0.001379 -0.001696 0.018436 -0.003023 -0.001593 0.011576
# 4 -0.002599 -0.000260 -0.003023 0.049720 0.009095 -0.001273
# 5 0.005773 0.002208 -0.001593 0.009095 0.040150 0.002983
# 6 0.005367 0.003578 0.011576 -0.001273 0.002983 0.042202
#
#
# Mechanical properties :
#
#
# Convention : Reuss Voigt Hill
#
# Bulk Modulus (GPa) = 24.34189 38.18145 31.26167
# Shear Modulus (GPa) = 24.02948 29.02329 26.52638
#
# Velocity S-wave (km/s) = 3.10522 3.41266 3.26256
# Velocity P-wave (km/s) = 4.75649 5.55423 5.17077
#
# Compressibility (1/GPa) = 0.04108144
#
# Stress axis : x y z
#
# Youngs Moduli (GPa) = 85.18807 46.46368 54.24138
#
# Poissons Ratio (x) = 0.10373 0.07480
# Poissons Ratio (y) = 0.19019 0.09200
# Poissons Ratio (z) = 0.11748 0.07881
#
# Static dielectric constant tensor:
#      x y z
#    x 4.747220 -0.211890 -0.229190 
#    y -0.211890 4.416340 0.065200 
#    z -0.229190 0.065200 4.360040 
# 
# 
# High freq. dielectric constant tensor:
#      x y z
#    x 2.006000 -0.017380 -0.009610 
#    y -0.017380 1.983450 0.000300 
#    z -0.009610 0.000300 1.985770 
# 
# From -- ./inp_files/345884.got.cif
#   From: 2010.06.25/outbox.cif.g09.slc.cpg/sg2_173_cif.got.tgz:345884.got - 2010.06.27 13:26:56.
