data_PCOD8044202
_publ_section_title
;
Structure prediction by ZEFSAII (Michael W. Deem and Ramdas Pophale) SiO2 
 PCOD8044202
Probable space group: P -1
;
_chemical_formula_sum "Si O2"
_cell_formula_units_Z 14
_cell_length_a 17.351941
_cell_length_b 14.252227
_cell_length_c 11.776088
_cell_angle_alpha 147.932798
_cell_angle_beta 152.057654
_cell_angle_gamma 30.327954
_cell_volume 643.183142
_symmetry_space_group_name_H-M "P -1"
_symmetry_group_IT_number 2
_symmetry_cell_setting 'triclinic'
loop_
_space_group_symop_operation_xyz
x,y,z
-x,-y,-z
loop_
_atom_site_type_symbol
_atom_site_label
_atom_site_fract_x
_atom_site_fract_y
_atom_site_fract_z
Si Si1 0.692715 0.842501 0.536808
Si Si2 0.364867 0.840574 0.377194
Si Si3 0.694362 0.445873 0.141420
Si Si4 0.670497 0.040454 0.292381
Si Si5 0.075026 0.674446 0.459809
Si Si6 0.771500 0.756244 0.786813
Si Si7 0.206440 0.893226 0.696934
O O1 0.688186 0.644124 0.281587
O O2 0.832242 0.787382 0.770134
O O3 0.500000 0.000000 0.500000
O O4 0.747489 0.940027 0.602224
O O5 0.577569 0.745838 0.516828
O O6 0.352968 0.849438 0.506388
O O7 0.271149 0.706915 0.073637
O O8 0.861115 0.346654 0.347713
O O9 0.500000 0.500000 0.000000
O O10 0.863677 0.837790 0.336900
O O11 0.672686 0.185771 0.342193
O O12 0.500000 0.000000 0.000000
O O13 0.084669 0.466202 0.212540
O O14 0.223953 0.723307 0.633763
O O15 0.745868 0.937796 0.017736
O O16 0.000000 0.000000 0.500000
#
# Coordination Sequence:
#
# PCOD8044202 Si02
#       7
#     2   2   2   2   2   2   2
#     4   9  18  32  60  92 116 155 193 247 308 365
#     4  11  21  37  62  90 132 159 193 261 311 361
#     4  11  19  35  63 100 119 153 211 249 308 377
#     4  11  24  43  60  88 129 171 204 254 315 356
#     4  10  23  41  68  90 121 162 211 258 299 373
#     4  10  19  37  65  93 116 159 213 250 302 373
#     4  10  22  40  63  86 119 165 219 246 298 364
#
# _framework density 21.766739000000001
#
# number of rings (size 3 to 8) (size 9 to 14) (size 15 to 20)
#    0.000    1.714    5.714    0.857    2.000    2.857 
#    0.000    7.857    0.000    0.000    0.000    0.000 
#    0.000    0.000    0.000    0.000    0.000    0.000 
#
# Total GULP energy -173445.662284 kJ/mol
# GULP energy per Si atom -12388.975877 kJ/mol
# Density = 2.171720 g / cm^3
# Si number density = 21.766739 Si / 1000 Ang^3
#
#
#
# Elastic Constant Matrix: (Units=GPa)
#
#
# Indices 1 2 3 4 5 6 
#
# 1 101.7738 29.5589 68.4513 14.5169 -20.3969 4.4003
# 2 29.5589 88.2217 40.8149 13.1925 1.4142 16.5016
# 3 68.4513 40.8149 109.6521 21.6944 -16.8924 27.2323
# 4 14.5169 13.1925 21.6944 39.0089 -3.5097 11.9892
# 5 -20.3969 1.4142 -16.8924 -3.5097 29.8744 -4.1038
# 6 4.4003 16.5016 27.2323 11.9892 -4.1038 15.7293
#
#
#
# Elastic Compliance Matrix: (Units=1/GPa)
#
#
# Indices 1 2 3 4 5 6 
#
# 1 0.032519 -0.007633 -0.027854 -0.010947 0.013638 0.059037
# 2 -0.007633 0.016860 0.002929 0.002319 -0.007423 -0.024328
# 3 -0.027854 0.002929 0.041627 0.008980 -0.004932 -0.075481
# 4 -0.010947 0.002319 0.008980 0.037185 -0.004232 -0.044364
# 5 0.013638 -0.007423 -0.004932 -0.004232 0.043573 0.027106
# 6 0.059037 -0.024328 -0.075481 -0.044364 0.027106 0.244149
#
#
# Mechanical properties :
#
#
# Convention : Reuss Voigt Hill
#
# Bulk Modulus (GPa) = 38.62624 64.14422 51.38523
# Shear Modulus (GPa) = 10.21115 27.64404 18.92760
#
# Velocity S-wave (km/s) = 2.16826 3.56759 2.95204
# Velocity P-wave (km/s) = 4.90434 6.81932 5.93952
#
# Compressibility (1/GPa) = 0.02588914
#
# Stress axis : x y z
#
# Youngs Moduli (GPa) = 30.75124 59.31100 24.02288
#
# Poissons Ratio (x) = 0.45275 0.66913
# Poissons Ratio (y) = 0.23474 -0.07036
# Poissons Ratio (z) = 0.85655 -0.17371
#
# Static dielectric constant tensor:
#      x y z
#    x 5.879820 1.196180 0.201920 
#    y 1.196180 4.310660 0.171450 
#    z 0.201920 0.171450 4.162890 
# 
# 
# High freq. dielectric constant tensor:
#      x y z
#    x 1.844660 0.025760 -0.011350 
#    y 0.025760 1.844060 0.002900 
#    z -0.011350 0.002900 1.855860 
# 
# From -- ./inp_files/379619.got.cif
#   From: 2010.06.25/outbox.cif.g09.slc.cpg/sg2_190_cif.got.tgz:379619.got - 2010.06.27 13:26:56.
