data_PCOD8044191
_publ_section_title
;
Structure prediction by ZEFSAII (Michael W. Deem and Ramdas Pophale) SiO2 
 PCOD8044191
Probable space group: P -1
;
_chemical_formula_sum "Si O2"
_cell_formula_units_Z 16
_cell_length_a 15.137373
_cell_length_b 8.491452
_cell_length_c 7.531575
_cell_angle_alpha 95.007982
_cell_angle_beta 132.297616
_cell_angle_gamma 105.649068
_cell_volume 638.517190
_symmetry_space_group_name_H-M "P -1"
_symmetry_group_IT_number 2
_symmetry_cell_setting 'triclinic'
loop_
_space_group_symop_operation_xyz
x,y,z
-x,-y,-z
loop_
_atom_site_type_symbol
_atom_site_label
_atom_site_fract_x
_atom_site_fract_y
_atom_site_fract_z
Si Si1 0.603719 0.607412 0.460899
Si Si2 0.969803 0.813712 0.709297
Si Si3 0.392197 0.056612 0.430576
Si Si4 0.111205 0.206844 0.024853
Si Si5 0.698773 0.473526 0.875556
Si Si6 0.784573 0.187189 0.100910
Si Si7 0.331144 0.341392 0.819048
Si Si8 0.358855 0.995089 0.777104
O O1 0.752812 0.779450 0.696495
O O2 0.597627 0.453715 0.570415
O O3 0.589727 0.538268 0.232144
O O4 0.525665 0.727976 0.410642
O O5 0.057437 0.737152 0.710681
O O6 0.973098 0.772562 0.920438
O O7 0.825664 0.716867 0.416027
O O8 0.026421 0.025919 0.786163
O O9 0.500000 0.000000 0.500000
O O10 0.326235 0.962109 0.520426
O O11 0.279315 0.994869 0.117885
O O12 0.154763 0.368693 0.959384
O O13 0.721450 0.308484 0.944810
O O14 0.622583 0.536803 0.929569
O O15 0.750972 0.158508 0.262840
O O16 0.362633 0.176908 0.867157
O O17 0.500000 0.000000 0.000000
#
# Coordination Sequence:
#
# PCOD8044191 Si02
#       8
#     2   2   2   2   2   2   2   2
#     4   8  18  39  59  86 114 158 203 243 294 357
#     4  10  19  37  65  90 121 156 219 243 290 359
#     4  11  21  40  71  86 114 159 209 261 301 344
#     4   8  17  35  58  85 117 158 194 249 284 352
#     4  10  22  38  59  86 139 160 191 243 315 369
#     4  12  24  40  59  97 126 159 198 254 308 366
#     4  10  21  39  65  89 119 168 199 253 299 356
#     4  11  24  42  67  92 116 154 216 262 294 354
#
# _framework density 25.058056000000001
#
# number of rings (size 3 to 8) (size 9 to 14) (size 15 to 20)
#    0.750    1.250    2.500    1.500    1.750    4.000 
#    0.000    1.250    0.000    0.000    0.000    0.000 
#    0.000    0.000    0.000    0.000    0.000    0.000 
#
# Total GULP energy -198301.520332 kJ/mol
# GULP energy per Si atom -12393.845021 kJ/mol
# Density = 2.500102 g / cm^3
# Si number density = 25.058056 Si / 1000 Ang^3
#
#
#
# Elastic Constant Matrix: (Units=GPa)
#
#
# Indices 1 2 3 4 5 6 
#
# 1 191.5860 65.5887 41.1909 -19.5474 -18.9121 0.9373
# 2 65.5887 112.8422 29.3390 -23.1910 -18.4649 2.3903
# 3 41.1909 29.3390 85.8376 -10.5979 -26.1614 -2.6272
# 4 -19.5474 -23.1910 -10.5979 36.6873 -0.5927 -1.5255
# 5 -18.9121 -18.4649 -26.1614 -0.5927 46.4996 -11.4571
# 6 0.9373 2.3903 -2.6272 -1.5255 -11.4571 49.0323
#
#
#
# Elastic Compliance Matrix: (Units=1/GPa)
#
#
# Indices 1 2 3 4 5 6 
#
# 1 0.006889 -0.003200 -0.001929 0.001101 0.000476 0.000067
# 2 -0.003200 0.012800 -0.001045 0.006154 0.003360 0.000358
# 3 -0.001929 -0.001045 0.016053 0.003216 0.008628 0.003064
# 4 0.001101 0.006154 0.003216 0.032846 0.005661 0.002196
# 5 0.000476 0.003360 0.008628 0.005661 0.029790 0.007426
# 6 0.000067 0.000358 0.003064 0.002196 0.007426 0.022344
#
#
# Mechanical properties :
#
#
# Convention : Reuss Voigt Hill
#
# Bulk Modulus (GPa) = 42.74288 73.61147 58.17718
# Shear Modulus (GPa) = 35.49433 43.38699 39.44066
#
# Velocity S-wave (km/s) = 3.76770 4.16559 3.97163
# Velocity P-wave (km/s) = 6.00184 7.25096 6.65576
#
# Compressibility (1/GPa) = 0.02339571
#
# Stress axis : x y z
#
# Youngs Moduli (GPa) = 145.16450 78.12234 62.29281
#
# Poissons Ratio (x) = 0.24997 0.12016
# Poissons Ratio (y) = 0.46448 0.06508
# Poissons Ratio (z) = 0.28001 0.08162
#
# Static dielectric constant tensor:
#      x y z
#    x 5.146300 0.205570 0.028970 
#    y 0.205570 4.286690 0.215430 
#    z 0.028970 0.215430 4.758430 
# 
# 
# High freq. dielectric constant tensor:
#      x y z
#    x 2.039460 0.010770 0.005830 
#    y 0.010770 1.975500 0.000840 
#    z 0.005830 0.000840 1.999660 
# 
# From -- ./inp_files/326337.got.cif
#   From: 2010.06.25/outbox.cif.g09.slc.cpg/sg2_164_cif.got.tgz:326337.got - 2010.06.27 13:26:56.
