data_PCOD8044356
_publ_section_title
;
Structure prediction by ZEFSAII (Michael W. Deem and Ramdas Pophale) SiO2 
 PCOD8044356
Probable space group: P -1
;
_chemical_formula_sum "Si O2"
_cell_formula_units_Z 16
_cell_length_a 14.213510
_cell_length_b 10.249467
_cell_length_c 5.269665
_cell_angle_alpha 89.999141
_cell_angle_beta 111.771813
_cell_angle_gamma 97.752678
_cell_volume 705.368118
_symmetry_space_group_name_H-M "P -1"
_symmetry_group_IT_number 2
_symmetry_cell_setting 'triclinic'
loop_
_space_group_symop_operation_xyz
x,y,z
-x,-y,-z
loop_
_atom_site_type_symbol
_atom_site_label
_atom_site_fract_x
_atom_site_fract_y
_atom_site_fract_z
Si Si1 0.592045 0.616106 0.592121
Si Si2 0.378626 0.962110 0.878543
Si Si3 0.092159 0.120166 0.592137
Si Si4 0.851923 0.605979 0.352120
Si Si5 0.122715 0.021054 0.122706
Si Si6 0.349157 0.250951 0.849064
Si Si7 0.789859 0.476359 0.790036
Si Si8 0.279532 0.832064 0.279403
O O1 0.500000 0.500000 0.500000
O O2 0.583798 0.703822 0.333396
O O3 0.696828 0.557502 0.696971
O O4 0.583779 0.703810 0.834337
O O5 0.344456 0.876904 0.594487
O O6 0.325120 0.093033 0.825037
O O7 0.344431 0.876868 0.094144
O O8 0.500000 0.000000 0.000000
O O9 0.056601 0.266852 0.556407
O O10 0.160751 0.106431 0.409307
O O11 0.160715 0.106559 0.912291
O O12 0.000000 0.000000 0.500000
O O13 0.753654 0.682954 0.253774
O O14 0.857751 0.515376 0.605647
O O15 0.857742 0.515338 0.110294
O O16 0.170470 0.886331 0.170299
O O17 0.000000 0.000000 0.000000
O O18 0.747095 0.323929 0.747204
#
# Coordination Sequence:
#
# PCOD8044356 Si02
#       8
#     2   2   2   2   2   2   2   2
#     4  10  21  35  58  78 112 155 208 251 294 361
#     4  12  27  40  62  92 129 170 212 272 316 377
#     4  10  20  36  66  97 123 153 200 262 319 373
#     4  10  19  38  58  88 121 157 208 250 302 375
#     4  10  21  38  66  97 121 158 210 266 319 380
#     4  10  21  36  55  83 110 155 206 252 303 341
#     4  10  23  36  59  87 117 172 201 252 310 374
#     4  12  24  43  63  89 131 170 211 259 332 381
#
# _framework density 22.683188999999999
#
# number of rings (size 3 to 8) (size 9 to 14) (size 15 to 20)
#    0.000    1.500    0.000    5.250    3.500    2.000 
#    0.000    0.000    0.000   18.000    0.000    0.000 
#    0.000    0.000    0.000    0.000    0.000    0.000 
#
# Total GULP energy -198321.243508 kJ/mol
# GULP energy per Si atom -12395.077719 kJ/mol
# Density = 2.263156 g / cm^3
# Si number density = 22.683189 Si / 1000 Ang^3
#
#
#
# Elastic Constant Matrix: (Units=GPa)
#
#
# Indices 1 2 3 4 5 6 
#
# 1 61.0387 24.3693 49.3970 2.6512 -4.2242 9.4641
# 2 24.3693 184.4469 84.7111 9.5700 -29.6626 25.5035
# 3 49.3970 84.7111 199.7534 7.7689 -62.7068 8.1413
# 4 2.6512 9.5700 7.7689 35.7491 0.3566 -2.2586
# 5 -4.2242 -29.6626 -62.7068 0.3566 37.5866 -1.5851
# 6 9.4641 25.5035 8.1413 -2.2586 -1.5851 32.3706
#
#
#
# Elastic Compliance Matrix: (Units=1/GPa)
#
#
# Indices 1 2 3 4 5 6 
#
# 1 0.024851 -0.000137 -0.010743 0.000355 -0.015460 -0.005188
# 2 -0.000137 0.007669 -0.002295 -0.001909 0.001995 -0.005460
# 3 -0.010743 -0.002295 0.016230 -0.002237 0.024160 0.001894
# 4 0.000355 -0.001909 -0.002237 0.029233 -0.005319 0.003742
# 5 -0.015460 0.001995 0.024160 -0.005319 0.066790 -0.000229
# 6 -0.005188 -0.005460 0.001894 0.003742 -0.000229 0.036484
#
#
# Mechanical properties :
#
#
# Convention : Reuss Voigt Hill
#
# Bulk Modulus (GPa) = 44.64247 84.68821 64.66534
# Shear Modulus (GPa) = 23.24796 40.25869 31.75333
#
# Velocity S-wave (km/s) = 3.20488 4.21744 3.74553
# Velocity P-wave (km/s) = 5.78088 7.81869 6.87570
#
# Compressibility (1/GPa) = 0.02240020
#
# Stress axis : x y z
#
# Youngs Moduli (GPa) = 40.24044 130.40063 61.61380
#
# Poissons Ratio (x) = 0.01782 0.66191
# Poissons Ratio (y) = 0.00550 0.14141
# Poissons Ratio (z) = 0.43230 0.29929
#
# Static dielectric constant tensor:
#      x y z
#    x 4.629730 0.104330 -1.828130 
#    y 0.104330 4.262420 0.227320 
#    z -1.828130 0.227320 8.479360 
# 
# 
# High freq. dielectric constant tensor:
#      x y z
#    x 1.873040 0.012410 -0.023530 
#    y 0.012410 1.902790 0.006000 
#    z -0.023530 0.006000 1.921350 
# 
# From -- ./inp_files/90209.got.cif
#   From: 2010.06.25/outbox.cif.g09.slc.cpg/sg2_46_cif.got.tgz:90209.got - 2010.06.27 13:26:56.
