data_PCOD8044473
_publ_section_title
;
Structure prediction by ZEFSAII (Michael W. Deem and Ramdas Pophale) SiO2 
 PCOD8044473
Probable space group: P -1
;
_chemical_formula_sum "Si O2"
_cell_formula_units_Z 14
_cell_length_a 9.599781
_cell_length_b 28.280856
_cell_length_c 5.182317
_cell_angle_alpha 101.069501
_cell_angle_beta 101.868109
_cell_angle_gamma 28.495936
_cell_volume 656.709757
_symmetry_space_group_name_H-M "P -1"
_symmetry_group_IT_number 2
_symmetry_cell_setting 'triclinic'
loop_
_space_group_symop_operation_xyz
x,y,z
-x,-y,-z
loop_
_atom_site_type_symbol
_atom_site_label
_atom_site_fract_x
_atom_site_fract_y
_atom_site_fract_z
Si Si1 0.916534 0.143229 0.669121
Si Si2 0.648001 0.719001 0.170162
Si Si3 0.853603 0.824549 0.323107
Si Si4 0.375284 0.597734 0.305421
Si Si5 0.527228 0.074475 0.215960
Si Si6 0.449005 0.822945 0.689867
Si Si7 0.717512 0.488269 0.822480
O O1 0.638287 0.230454 0.849618
O O2 0.839359 0.125317 0.403991
O O3 0.969193 0.178037 0.583504
O O4 0.199173 0.042422 0.832134
O O5 0.672916 0.747461 0.457215
O O6 0.937713 0.600152 0.138406
O O7 0.620193 0.759860 0.949185
O O8 0.611418 0.893062 0.523020
O O9 0.072564 0.715491 0.318346
O O10 0.706869 0.867780 0.032060
O O11 0.563451 0.555981 0.584041
O O12 0.298695 0.564475 0.235364
O O13 0.563149 0.557006 0.084296
O O14 0.647775 0.093044 0.252659
#
# Coordination Sequence:
#
# PCOD8044473 Si02
#       7
#     2   2   2   2   2   2   2
#     4  10  27  41  64  91 135 164 204 255 315 372
#     4  10  22  38  66  90 127 159 206 254 315 361
#     4  12  26  42  63  94 129 165 208 257 314 367
#     4  10  21  36  62  86 124 152 209 251 311 354
#     4  12  24  41  67  92 123 170 216 252 301 366
#     4  10  22  39  65  90 128 160 211 253 302 363
#     4  10  19  38  61  91 114 160 201 263 298 365
#
# _framework density 21.318397999999998
#
# number of rings (size 3 to 8) (size 9 to 14) (size 15 to 20)
#    0.857    0.571    0.000    5.571    4.000    2.857 
#    0.000    1.429    0.000    0.000    0.000    0.000 
#    0.000    0.000    0.000    0.000    0.000    0.000 
#
# Total GULP energy -173613.371581 kJ/mol
# GULP energy per Si atom -12400.955113 kJ/mol
# Density = 2.126988 g / cm^3
# Si number density = 21.318398 Si / 1000 Ang^3
#
#
#
# Elastic Constant Matrix: (Units=GPa)
#
#
# Indices 1 2 3 4 5 6 
#
# 1 80.7644 11.7626 26.1260 0.3525 3.1664 -6.1670
# 2 11.7626 117.4698 33.3963 -11.9958 -9.3963 -27.9989
# 3 26.1260 33.3963 123.3151 -10.1177 -22.6821 -2.2178
# 4 0.3525 -11.9958 -10.1177 28.2133 4.2799 -5.8959
# 5 3.1664 -9.3963 -22.6821 4.2799 19.6793 2.7388
# 6 -6.1670 -27.9989 -2.2178 -5.8959 2.7388 23.3594
#
#
#
# Elastic Compliance Matrix: (Units=1/GPa)
#
#
# Indices 1 2 3 4 5 6 
#
# 1 0.014499 0.000477 -0.004565 0.000700 -0.008230 0.005107
# 2 0.000477 0.015241 -0.003360 0.009868 -0.001708 0.020765
# 3 -0.004565 -0.003360 0.012511 -0.000286 0.014421 -0.005807
# 4 0.000700 0.009868 -0.000286 0.046083 -0.009190 0.024694
# 5 -0.008230 -0.001708 0.014421 -0.009190 0.071835 -0.013593
# 6 0.005107 0.020765 -0.005807 0.024694 -0.013593 0.076322
#
#
# Mechanical properties :
#
#
# Convention : Reuss Voigt Hill
#
# Bulk Modulus (GPa) = 36.55804 51.56881 44.06342
# Shear Modulus (GPa) = 19.19342 30.93469 25.06406
#
# Velocity S-wave (km/s) = 3.00379 3.81344 3.43257
# Velocity P-wave (km/s) = 5.40520 6.60546 6.03524
#
# Compressibility (1/GPa) = 0.02735377
#
# Stress axis : x y z
#
# Youngs Moduli (GPa) = 68.97170 65.61367 79.92977
#
# Poissons Ratio (x) = -0.03127 0.36491
# Poissons Ratio (y) = -0.03287 0.26852
# Poissons Ratio (z) = 0.31488 0.22043
#
# Static dielectric constant tensor:
#      x y z
#    x 3.635580 -0.102180 -0.108950 
#    y -0.102180 3.784150 -0.026750 
#    z -0.108950 -0.026750 3.895330 
# 
# 
# High freq. dielectric constant tensor:
#      x y z
#    x 1.818750 -0.009710 -0.012510 
#    y -0.009710 1.838610 -0.007920 
#    z -0.012510 -0.007920 1.840270 
# 
# From -- ./inp_files/56211.got.cif
#   From: 2010.06.25/outbox.cif.g09.slc.cpg/sg2_29_cif.got.tgz:56211.got - 2010.06.27 13:26:56.
