data_PCOD8044838
_publ_section_title
;
Structure prediction by ZEFSAII (Michael W. Deem and Ramdas Pophale) SiO2 
 PCOD8044838
Probable space group: P 2
;
_chemical_formula_sum "Si O2"
_cell_formula_units_Z 15
_cell_length_a 12.985129
_cell_length_b 11.300460
_cell_length_c 9.014882
_cell_angle_alpha 90.000000
_cell_angle_beta 35.016522
_cell_angle_gamma 90.000000
_cell_volume 759.053762
_symmetry_space_group_name_H-M "P 2"
_symmetry_group_IT_number 3
_symmetry_cell_setting 'monoclinic'
loop_
_space_group_symop_operation_xyz
x,y,z
-x,y,-z
loop_
_atom_site_type_symbol
_atom_site_label
_atom_site_fract_x
_atom_site_fract_y
_atom_site_fract_z
Si Si1 0.810720 0.519160 0.307634
Si Si2 0.294330 0.162489 0.220329
Si Si3 0.747484 0.086154 0.055399
Si Si4 0.190836 0.783092 0.694871
Si Si5 0.058385 0.382351 0.587624
Si Si6 0.080301 0.946076 0.567044
Si Si7 0.500000 0.920518 0.500000
Si Si8 0.178625 0.310921 0.882106
O O1 0.727207 0.649756 0.409416
O O2 0.826991 0.480322 0.459795
O O3 0.703931 0.413720 0.342547
O O4 0.000000 0.525811 0.000000
O O5 0.172035 0.262664 0.437276
O O6 0.244581 0.036573 0.350805
O O7 0.500000 0.194441 0.000000
O O8 0.254927 0.157952 0.093468
O O9 0.727736 0.182990 0.211959
O O10 0.580162 0.998583 0.271618
O O11 0.930295 0.009668 0.845679
O O12 0.162318 0.835750 0.562659
O O13 0.338948 0.848551 0.617155
O O14 0.000000 0.786156 0.000000
O O15 0.000000 0.437606 0.500000
O O16 0.875105 0.355108 0.891054
O O17 0.000000 0.906386 0.500000
O O18 0.000000 0.287014 0.000000
#
# Coordination Sequence:
#
# PCOD8044838 Si02
#       8
#     2   2   2   2   2   2   1   2
#     4   8  20  35  59  87 112 160 207 246 304 351
#     4  11  21  34  55  87 131 157 194 254 315 370
#     4  11  21  36  57  94 119 157 201 248 315 366
#     4  11  22  43  62  86 125 165 214 259 294 363
#     4  10  16  34  60  83 113 155 201 244 302 370
#     4  10  21  38  62  86 121 168 201 252 315 362
#     4  12  26  36  64  98 120 166 210 250 312 372
#     4   9  18  32  58  88 119 152 194 246 301 362
#
# _framework density 19.761444999999998
#
# number of rings (size 3 to 8) (size 9 to 14) (size 15 to 20)
#    0.000    2.133    4.000    1.200    1.867    2.667 
#    0.000    2.000    0.000    0.800    0.000    0.000 
#    0.000    0.000    0.000    0.000    0.000    0.000 
#
# Total GULP energy -185837.537279 kJ/mol
# GULP energy per Si atom -12389.169152 kJ/mol
# Density = 1.971647 g / cm^3
# Si number density = 19.761445 Si / 1000 Ang^3
#
#
#
# Elastic Constant Matrix: (Units=GPa)
#
#
# Indices 1 2 3 4 5 6 
#
# 1 98.3145 61.6064 35.7533 0.0000 15.0876 0.0000
# 2 61.6064 145.4221 35.3376 0.0000 10.4320 0.0000
# 3 35.7533 35.3376 55.2680 0.0000 7.0386 0.0000
# 4 0.0000 0.0000 0.0000 25.1608 0.0000 5.3556
# 5 15.0876 10.4320 7.0386 0.0000 30.7242 0.0000
# 6 0.0000 0.0000 0.0000 5.3556 0.0000 19.6194
#
#
#
# Elastic Compliance Matrix: (Units=1/GPa)
#
#
# Indices 1 2 3 4 5 6 
#
# 1 0.016550 -0.004986 -0.006900 0.000000 -0.004853 0.000000
# 2 -0.004986 0.009723 -0.002969 0.000000 -0.000172 0.000000
# 3 -0.006900 -0.002969 0.024614 0.000000 -0.001242 0.000000
# 4 0.000000 0.000000 0.000000 0.042196 0.000000 -0.011518
# 5 -0.004853 -0.000172 -0.001242 0.000000 0.035274 0.000000
# 6 0.000000 0.000000 0.000000 -0.011518 0.000000 0.054114
#
#
# Mechanical properties :
#
#
# Convention : Reuss Voigt Hill
#
# Bulk Modulus (GPa) = 47.22321 62.71100 54.96711
# Shear Modulus (GPa) = 22.80599 26.18804 24.49701
#
# Velocity S-wave (km/s) = 3.40084 3.64429 3.52467
# Velocity P-wave (km/s) = 6.27451 7.03639 6.66634
#
# Compressibility (1/GPa) = 0.02117603
#
# Stress axis : x y z
#
# Youngs Moduli (GPa) = 60.42237 102.85128 40.62744
#
# Poissons Ratio (x) = 0.51286 0.28033
# Poissons Ratio (y) = 0.30129 0.12062
# Poissons Ratio (z) = 0.41692 0.30536
#
# Static dielectric constant tensor:
#      x y z
#    x 3.528030 0.000000 0.426940 
#    y 0.000000 4.029550 0.000000 
#    z 0.426940 0.000000 3.191170 
# 
# 
# High freq. dielectric constant tensor:
#      x y z
#    x 1.766230 0.000000 0.018860 
#    y 0.000000 1.769620 0.000000 
#    z 0.018860 0.000000 1.748810 
# 
# From -- ./inp_files/7715.got.cif
#   From: 2010.03.12/outbox.cif.g09.slc.cpg/sg3_4_cif.got.tgz:7715.got - 2010.03.31 09:20:49.
