data_PCOD8044704
_publ_section_title
;
Structure prediction by ZEFSAII (Michael W. Deem and Ramdas Pophale) SiO2 
 PCOD8044704
Probable space group: P -1
;
_chemical_formula_sum "Si O2"
_cell_formula_units_Z 16
_cell_length_a 10.786703
_cell_length_b 9.861962
_cell_length_c 9.419785
_cell_angle_alpha 119.283332
_cell_angle_beta 109.716522
_cell_angle_gamma 63.207238
_cell_volume 771.334074
_symmetry_space_group_name_H-M "P -1"
_symmetry_group_IT_number 2
_symmetry_cell_setting 'triclinic'
loop_
_space_group_symop_operation_xyz
x,y,z
-x,-y,-z
loop_
_atom_site_type_symbol
_atom_site_label
_atom_site_fract_x
_atom_site_fract_y
_atom_site_fract_z
Si Si1 0.844193 0.915876 0.980096
Si Si2 0.406147 0.152551 0.629561
Si Si3 0.152197 0.612669 0.635714
Si Si4 0.164500 0.750448 0.992635
Si Si5 0.845306 0.738382 0.608322
Si Si6 0.430068 0.637763 0.657077
Si Si7 0.556939 0.411886 0.834394
Si Si8 0.612224 0.995199 0.156673
O O1 0.791225 0.827243 0.784424
O O2 0.007530 0.816733 0.029450
O O3 0.762665 0.919616 0.097763
O O4 0.810792 0.104809 0.016349
O O5 0.252958 0.185984 0.523539
O O6 0.466244 0.299258 0.696025
O O7 0.398423 0.121152 0.777709
O O8 0.500000 0.000000 0.500000
O O9 0.187850 0.596909 0.811988
O O10 0.143920 0.451167 0.472332
O O11 0.266148 0.666106 0.625062
O O12 0.996640 0.753765 0.638573
O O13 0.276443 0.694336 0.136663
O O14 0.500000 0.500000 0.500000
O O15 0.527061 0.565258 0.794126
O O16 0.428782 0.817854 0.703696
O O17 0.500000 0.500000 0.000000
O O18 0.500000 0.000000 0.000000
#
# Coordination Sequence:
#
# PCOD8044704 Si02
#       8
#     2   2   2   2   2   2   2   2
#     4  10  21  38  64  90 127 158 204 251 316 365
#     4  12  24  40  63  92 124 161 208 250 309 367
#     4  10  20  40  65  86 120 161 211 241 304 364
#     4  10  19  38  65  92 117 167 207 249 304 373
#     4  10  21  39  66  90 117 167 205 250 297 376
#     4  12  25  41  61  91 125 163 204 255 310 363
#     4  12  21  40  67  88 119 162 211 250 297 370
#     4  12  25  41  62  95 128 159 202 264 312 356
#
# _framework density 20.743283000000002
#
# number of rings (size 3 to 8) (size 9 to 14) (size 15 to 20)
#    0.000    1.000    3.750    3.750    1.750    0.000 
#    2.250    0.625    0.000    3.750    0.000    0.000 
#    0.000    0.000    0.000    0.000    0.000    0.000 
#
# Total GULP energy -198325.679850 kJ/mol
# GULP energy per Si atom -12395.354991 kJ/mol
# Density = 2.069607 g / cm^3
# Si number density = 20.743283 Si / 1000 Ang^3
#
#
#
# Elastic Constant Matrix: (Units=GPa)
#
#
# Indices 1 2 3 4 5 6 
#
# 1 89.2731 12.5440 22.2172 -8.5693 6.3283 -21.4304
# 2 12.5440 55.4279 15.4110 -6.1988 6.4759 -10.7826
# 3 22.2172 15.4110 102.7657 6.0501 -2.1096 -11.5969
# 4 -8.5693 -6.1988 6.0501 46.2568 -6.4769 5.8003
# 5 6.3283 6.4759 -2.1096 -6.4769 39.7093 -4.3027
# 6 -21.4304 -10.7826 -11.5969 5.8003 -4.3027 28.7850
#
#
#
# Elastic Compliance Matrix: (Units=1/GPa)
#
#
# Indices 1 2 3 4 5 6 
#
# 1 0.014193 -0.000581 -0.002073 0.001542 -0.001045 0.009047
# 2 -0.000581 0.020430 -0.002486 0.001925 -0.002465 0.005462
# 3 -0.002073 -0.002486 0.011007 -0.002312 0.001226 0.002610
# 4 0.001542 0.001925 -0.002312 0.023268 0.002751 -0.003340
# 5 -0.001045 -0.002465 0.001226 0.002751 0.026504 0.002200
# 6 0.009047 0.005462 0.002610 -0.003340 0.002200 0.045575
#
#
# Mechanical properties :
#
#
# Convention : Reuss Voigt Hill
#
# Bulk Modulus (GPa) = 28.28730 38.64570 33.46650
# Shear Modulus (GPa) = 30.66722 36.10319 33.38521
#
# Velocity S-wave (km/s) = 3.84919 4.17643 4.01614
# Velocity P-wave (km/s) = 5.78113 6.47516 6.13796
#
# Compressibility (1/GPa) = 0.03535156
#
# Stress axis : x y z
#
# Youngs Moduli (GPa) = 70.45781 48.94754 90.84717
#
# Poissons Ratio (x) = 0.02845 0.18828
# Poissons Ratio (y) = 0.04096 0.22581
# Poissons Ratio (z) = 0.14603 0.12166
#
# Static dielectric constant tensor:
#      x y z
#    x 4.103530 -0.264620 0.114370 
#    y -0.264620 3.635490 0.267280 
#    z 0.114370 0.267280 4.026370 
# 
# 
# High freq. dielectric constant tensor:
#      x y z
#    x 1.815830 -0.024770 0.009300 
#    y -0.024770 1.795090 0.021000 
#    z 0.009300 0.021000 1.827700 
# 
# From -- ./inp_files/245603.got.cif
#   From: 2010.06.25/outbox.cif.g09.slc.cpg/sg2_123_cif.got.tgz:245603.got - 2010.06.27 13:26:56.
