data_PCOD8044946
_publ_section_title
;
Structure prediction by ZEFSAII (Michael W. Deem and Ramdas Pophale) SiO2 
 PCOD8044946
Probable space group: P 2
;
_chemical_formula_sum "Si O2"
_cell_formula_units_Z 14
_cell_length_a 16.871329
_cell_length_b 8.799071
_cell_length_c 16.061216
_cell_angle_alpha 90.000000
_cell_angle_beta 162.179167
_cell_angle_gamma 90.000000
_cell_volume 729.700825
_symmetry_space_group_name_H-M "P 2"
_symmetry_group_IT_number 3
_symmetry_cell_setting 'monoclinic'
loop_
_space_group_symop_operation_xyz
x,y,z
-x,y,-z
loop_
_atom_site_type_symbol
_atom_site_label
_atom_site_fract_x
_atom_site_fract_y
_atom_site_fract_z
Si Si1 0.500000 0.340271 0.500000
Si Si2 0.500061 0.679548 0.905849
Si Si3 0.499368 0.797222 0.265468
Si Si4 0.999962 0.475452 0.592720
Si Si5 0.000000 0.128895 0.000000
Si Si6 0.499482 0.452402 0.322342
Si Si7 0.999270 0.972328 0.822731
Si Si8 0.000410 0.293912 0.249625
O O1 0.748670 0.233012 0.748599
O O2 0.499870 0.454588 0.422346
O O3 0.500032 0.811796 0.835473
O O4 0.249676 0.577326 0.640217
O O5 0.500000 0.748728 0.000000
O O6 0.750658 0.577523 0.141205
O O7 0.499169 0.620122 0.286341
O O8 0.748548 0.872494 0.554843
O O9 0.249417 0.872251 0.055320
O O10 0.000113 0.330622 0.653000
O O11 0.000000 0.408318 0.500000
O O12 0.000025 0.022318 0.919239
O O13 0.749305 0.362189 0.543000
O O14 0.249734 0.361785 0.043723
O O15 0.999146 0.113580 0.759713
#
# Coordination Sequence:
#
# PCOD8044946 Si02
#       8
#     1   2   2   2   1   2   2   2
#     4  12  22  42  66  96 114 164 222 266 296 358
#     4  10  20  37  64  92 122 164 208 256 309 370
#     4  12  24  42  61  99 128 164 203 260 320 370
#     4  10  19  35  64  95 122 158 212 264 300 354
#     4  12  24  44  64  90 126 164 218 246 318 388
#     4  12  23  39  69  88 125 158 217 267 295 362
#     4  12  26  40  65  89 134 170 197 255 326 379
#     4  12  21  42  62  96 119 170 209 254 307 374
#
# _framework density 19.185946000000001
#
# number of rings (size 3 to 8) (size 9 to 14) (size 15 to 20)
#    0.000    0.571    5.714    3.429    0.000    1.143 
#    0.000    1.429    0.000    0.000    0.000    0.000 
#    0.000    0.000    0.000    0.000    0.000    0.000 
#
# Total GULP energy -173640.774538 kJ/mol
# GULP energy per Si atom -12402.912467 kJ/mol
# Density = 1.914228 g / cm^3
# Si number density = 19.185946 Si / 1000 Ang^3
#
#
#
# Elastic Constant Matrix: (Units=GPa)
#
#
# Indices 1 2 3 4 5 6 
#
# 1 145.1614 14.1442 23.5014 0.0000 -4.0823 0.0000
# 2 14.1442 65.5015 28.8767 0.0000 5.0889 0.0000
# 3 23.5014 28.8767 158.0405 0.0000 6.9763 0.0000
# 4 0.0000 0.0000 0.0000 121.2350 0.0000 20.8891
# 5 -4.0823 5.0889 6.9763 0.0000 56.2961 0.0000
# 6 0.0000 0.0000 0.0000 20.8891 0.0000 44.8639
#
#
#
# Elastic Compliance Matrix: (Units=1/GPa)
#
#
# Indices 1 2 3 4 5 6 
#
# 1 0.007170 -0.001220 -0.000876 0.000000 0.000739 0.000000
# 2 -0.001220 0.016884 -0.002848 0.000000 -0.001262 0.000000
# 3 -0.000876 -0.002848 0.007008 0.000000 -0.000675 0.000000
# 4 0.000000 0.000000 0.000000 0.008968 0.000000 -0.004176
# 5 0.000739 -0.001262 -0.000675 0.000000 0.018014 0.000000
# 6 0.000000 0.000000 0.000000 -0.004176 0.000000 0.024234
#
#
# Mechanical properties :
#
#
# Convention : Reuss Voigt Hill
#
# Bulk Modulus (GPa) = 47.22551 55.74977 51.48764
# Shear Modulus (GPa) = 50.39137 64.62440 57.50789
#
# Velocity S-wave (km/s) = 5.13047 5.81002 5.48079
# Velocity P-wave (km/s) = 7.73070 8.60983 8.18208
#
# Compressibility (1/GPa) = 0.02117500
#
# Stress axis : x y z
#
# Youngs Moduli (GPa) = 139.46384 59.22870 142.69610
#
# Poissons Ratio (x) = 0.07223 0.12501
# Poissons Ratio (y) = 0.17008 0.40638
# Poissons Ratio (z) = 0.12218 0.16868
#
# Static dielectric constant tensor:
#      x y z
#    x 4.025440 0.000000 -0.099250 
#    y 0.000000 3.370190 0.000000 
#    z -0.099250 0.000000 3.647090 
# 
# 
# High freq. dielectric constant tensor:
#      x y z
#    x 1.769470 0.000000 0.002250 
#    y 0.000000 1.722000 0.000000 
#    z 0.002250 0.000000 1.777230 
# 
# From -- ./inp_files/13991.got.cif
#   From: 2010.03.12/outbox.cif.g09.slc.cpg/sg3_7_cif.got.tgz:13991.got - 2010.03.31 09:20:49.
