data_PCOD8044235
_publ_section_title
;
Structure prediction by ZEFSAII (Michael W. Deem and Ramdas Pophale) SiO2 
 PCOD8044235
Probable space group: P -1
;
_chemical_formula_sum "Si O2"
_cell_formula_units_Z 16
_cell_length_a 13.718522
_cell_length_b 21.557331
_cell_length_c 6.824712
_cell_angle_alpha 89.121985
_cell_angle_beta 87.376587
_cell_angle_gamma 158.554835
_cell_volume 727.809727
_symmetry_space_group_name_H-M "P -1"
_symmetry_group_IT_number 2
_symmetry_cell_setting 'triclinic'
loop_
_space_group_symop_operation_xyz
x,y,z
-x,-y,-z
loop_
_atom_site_type_symbol
_atom_site_label
_atom_site_fract_x
_atom_site_fract_y
_atom_site_fract_z
Si Si1 0.631923 0.666269 0.119135
Si Si2 0.738973 0.180573 0.878559
Si Si3 0.795460 0.957852 0.973294
Si Si4 0.702620 0.011637 0.235520
Si Si5 0.599486 0.861343 0.584911
Si Si6 0.446725 0.673863 0.291276
Si Si7 0.157009 0.338146 0.930554
Si Si8 0.086514 0.609349 0.857284
O O1 0.500242 0.631035 0.304902
O O2 0.736577 0.661014 0.188642
O O3 0.414551 0.528889 0.973237
O O4 0.893880 0.855966 0.993260
O O5 0.984467 0.278664 0.796586
O O6 0.586289 0.122743 0.710804
O O7 0.861873 0.301601 0.014403
O O8 0.500000 0.000000 0.000000
O O9 0.793234 0.954273 0.737550
O O10 0.643507 0.809621 0.087381
O O11 0.643248 0.929802 0.062929
O O12 0.757941 0.004784 0.426669
O O13 0.964410 0.208117 0.144014
O O14 0.518999 0.751546 0.480676
O O15 0.340769 0.742122 0.698479
O O16 0.140615 0.507006 0.272952
O O17 0.000000 0.500000 0.000000
#
# Coordination Sequence:
#
# PCOD8044235 Si02
#       8
#     2   2   2   2   2   2   2   2
#     4  10  20  37  62  88 120 167 215 246 299 366
#     4  10  19  37  66  92 123 164 205 252 315 372
#     4  10  20  38  61  89 125 163 199 251 312 364
#     4   9  19  38  64  92 123 156 204 249 315 376
#     4  11  22  38  62  93 126 160 196 260 319 371
#     4  11  22  37  60  93 124 160 204 252 311 375
#     4   9  19  37  64  88 119 168 210 255 299 363
#     4  12  21  39  66  94 127 157 200 260 320 373
#
# _framework density 21.983768999999999
#
# number of rings (size 3 to 8) (size 9 to 14) (size 15 to 20)
#    0.000    1.750    3.750    1.500    0.000    0.500 
#    0.000    3.125    2.750    4.500    0.000    0.000 
#    0.000    0.000    0.000    0.000    0.000    0.000 
#
# Total GULP energy -198248.657794 kJ/mol
# GULP energy per Si atom -12390.541112 kJ/mol
# Density = 2.193373 g / cm^3
# Si number density = 21.983769 Si / 1000 Ang^3
#
#
#
# Elastic Constant Matrix: (Units=GPa)
#
#
# Indices 1 2 3 4 5 6 
#
# 1 121.0920 26.1134 13.1181 8.4282 -6.0633 22.4398
# 2 26.1134 107.6209 16.0737 12.7489 4.5656 5.2591
# 3 13.1181 16.0737 74.6581 6.1329 8.6379 -2.7558
# 4 8.4282 12.7489 6.1329 18.9643 5.1175 0.2375
# 5 -6.0633 4.5656 8.6379 5.1175 14.5787 0.3467
# 6 22.4398 5.2591 -2.7558 0.2375 0.3467 36.6008
#
#
#
# Elastic Compliance Matrix: (Units=1/GPa)
#
#
# Indices 1 2 3 4 5 6 
#
# 1 0.010893 -0.001719 -0.002342 -0.005114 0.008410 -0.006654
# 2 -0.001719 0.010662 -0.001410 -0.005607 -0.001238 -0.000536
# 3 -0.002342 -0.001410 0.015357 -0.000438 -0.009547 0.002888
# 4 -0.005114 -0.005607 -0.000438 0.065087 -0.023047 0.003704
# 5 0.008410 -0.001238 -0.009547 -0.023047 0.086376 -0.006366
# 6 -0.006654 -0.000536 0.002888 0.003704 -0.006366 0.031732
#
#
# Mechanical properties :
#
#
# Convention : Reuss Voigt Hill
#
# Bulk Modulus (GPa) = 38.50602 45.99792 42.25197
# Shear Modulus (GPa) = 20.85889 30.56648 25.71268
#
# Velocity S-wave (km/s) = 3.08365 3.73287 3.42368
# Velocity P-wave (km/s) = 5.49838 6.28873 5.90679
#
# Compressibility (1/GPa) = 0.02596997
#
# Stress axis : x y z
#
# Youngs Moduli (GPa) = 91.80390 93.78688 65.11879
#
# Poissons Ratio (x) = 0.16122 0.15254
# Poissons Ratio (y) = 0.15781 0.09179
# Poissons Ratio (z) = 0.21504 0.13219
#
# Static dielectric constant tensor:
#      x y z
#    x 4.564890 0.117890 0.008740 
#    y 0.117890 4.208890 0.016390 
#    z 0.008740 0.016390 3.657020 
# 
# 
# High freq. dielectric constant tensor:
#      x y z
#    x 1.889580 0.004750 -0.006930 
#    y 0.004750 1.880470 0.010270 
#    z -0.006930 0.010270 1.804250 
# 
# From -- ./inp_files/101161.got.cif
#   From: 2010.06.25/outbox.cif.g09.slc.cpg/sg2_51_cif.got.tgz:101161.got - 2010.06.27 13:26:56.
