data_PCOD8044579
_publ_section_title
;
Structure prediction by ZEFSAII (Michael W. Deem and Ramdas Pophale) SiO2 
 PCOD8044579
Probable space group: P -1
;
_chemical_formula_sum "Si O2"
_cell_formula_units_Z 14
_cell_length_a 17.588149
_cell_length_b 7.772285
_cell_length_c 10.479512
_cell_angle_alpha 88.757194
_cell_angle_beta 141.635106
_cell_angle_gamma 64.772311
_cell_volume 622.130526
_symmetry_space_group_name_H-M "P -1"
_symmetry_group_IT_number 2
_symmetry_cell_setting 'triclinic'
loop_
_space_group_symop_operation_xyz
x,y,z
-x,-y,-z
loop_
_atom_site_type_symbol
_atom_site_label
_atom_site_fract_x
_atom_site_fract_y
_atom_site_fract_z
Si Si1 0.131874 0.156988 0.164405
Si Si2 0.682327 0.342345 0.173722
Si Si3 0.841620 0.855222 0.278582
Si Si4 0.990688 0.872079 0.235768
Si Si5 0.688735 0.329712 0.692871
Si Si6 0.786336 0.546416 0.134281
Si Si7 0.808224 0.554020 0.872547
O O1 0.240057 0.216249 0.260718
O O2 0.268302 0.858405 0.357044
O O3 0.983507 0.258090 0.860438
O O4 0.020603 0.306642 0.143526
O O5 0.832711 0.217785 0.479875
O O6 0.679274 0.502445 0.065644
O O7 0.709031 0.138962 0.135441
O O8 0.500000 0.500000 0.000000
O O9 0.748284 0.762258 0.158702
O O10 0.918546 0.803675 0.239633
O O11 0.006508 0.699719 0.592948
O O12 0.836560 0.168314 0.003462
O O13 0.500000 0.500000 0.500000
O O14 0.707311 0.504807 0.661500
O O15 0.732225 0.624146 0.914732
#
# Coordination Sequence:
#
# PCOD8044579 Si02
#       7
#     2   2   2   2   2   2   2
#     4   9  22  37  62  90 123 159 205 251 298 353
#     4  11  23  39  62  93 123 158 201 251 311 358
#     4  10  19  38  63  91 117 156 205 249 305 365
#     4   9  19  42  59  89 124 155 199 252 299 355
#     4  10  21  38  61  88 120 161 205 244 298 361
#     4  10  20  36  67  87 118 164 201 244 307 367
#     4  11  19  39  62  89 123 163 200 249 302 358
#
# _framework density 22.503316000000002
#
# number of rings (size 3 to 8) (size 9 to 14) (size 15 to 20)
#    0.857    1.143    1.429    3.857    0.000    1.143 
#    5.143    0.000    3.143    0.000    0.000    0.000 
#    0.000    0.000    0.000    0.000    0.000    0.000 
#
# Total GULP energy -173433.230866 kJ/mol
# GULP energy per Si atom -12388.087919 kJ/mol
# Density = 2.245210 g / cm^3
# Si number density = 22.503316 Si / 1000 Ang^3
#
#
#
# Elastic Constant Matrix: (Units=GPa)
#
#
# Indices 1 2 3 4 5 6 
#
# 1 115.5353 61.4844 28.6254 5.0460 23.8943 16.4581
# 2 61.4844 152.0987 17.1257 -2.6752 25.4107 31.8876
# 3 28.6254 17.1257 58.5200 -0.0787 17.8033 3.8435
# 4 5.0460 -2.6752 -0.0787 10.2248 -4.5615 5.0240
# 5 23.8943 25.4107 17.8033 -4.5615 30.2056 5.0202
# 6 16.4581 31.8876 3.8435 5.0240 5.0202 37.7830
#
#
#
# Elastic Compliance Matrix: (Units=1/GPa)
#
#
# Indices 1 2 3 4 5 6 
#
# 1 0.013615 -0.004241 -0.003333 -0.011171 -0.006991 0.000402
# 2 -0.004241 0.010519 0.000573 0.006988 -0.003522 -0.007549
# 3 -0.003333 0.000573 0.021982 -0.003497 -0.011449 0.000718
# 4 -0.011171 0.006988 -0.003497 0.128097 0.027923 -0.021419
# 5 -0.006991 -0.003522 -0.011449 0.027923 0.053162 -0.003594
# 6 0.000402 -0.007549 0.000718 -0.021419 -0.003594 0.035916
#
#
# Mechanical properties :
#
#
# Convention : Reuss Voigt Hill
#
# Bulk Modulus (GPa) = 31.14001 60.06944 45.60472
# Shear Modulus (GPa) = 17.36133 30.23725 23.79929
#
# Velocity S-wave (km/s) = 2.78060 3.66960 3.25559
# Velocity P-wave (km/s) = 4.91701 6.68627 5.86870
#
# Compressibility (1/GPa) = 0.03211303
#
# Stress axis : x y z
#
# Youngs Moduli (GPa) = 73.45046 95.06978 45.49142
#
# Poissons Ratio (x) = 0.40320 0.15162
# Poissons Ratio (y) = 0.31151 -0.02606
# Poissons Ratio (z) = 0.24481 -0.05447
#
# Static dielectric constant tensor:
#      x y z
#    x 3.968950 0.263430 -0.100780 
#    y 0.263430 4.296510 0.016170 
#    z -0.100780 0.016170 3.565870 
# 
# 
# High freq. dielectric constant tensor:
#      x y z
#    x 1.883490 0.014510 0.003990 
#    y 0.014510 1.908020 0.004290 
#    z 0.003990 0.004290 1.831510 
# 
# From -- ./inp_files/461261.got.cif
#   From: 2010.06.25/outbox.cif.g09.slc.cpg/sg2_231_cif.got.tgz:461261.got - 2010.06.27 13:26:56.
