data_PCOD8044652
_publ_section_title
;
Structure prediction by ZEFSAII (Michael W. Deem and Ramdas Pophale) SiO2 
 PCOD8044652
Probable space group: P -1
;
_chemical_formula_sum "Si O2"
_cell_formula_units_Z 16
_cell_length_a 20.287240
_cell_length_b 11.305494
_cell_length_c 11.569061
_cell_angle_alpha 121.670279
_cell_angle_beta 139.880475
_cell_angle_gamma 30.275161
_cell_volume 783.610175
_symmetry_space_group_name_H-M "P -1"
_symmetry_group_IT_number 2
_symmetry_cell_setting 'triclinic'
loop_
_space_group_symop_operation_xyz
x,y,z
-x,-y,-z
loop_
_atom_site_type_symbol
_atom_site_label
_atom_site_fract_x
_atom_site_fract_y
_atom_site_fract_z
Si Si1 0.148201 0.478710 0.302185
Si Si2 0.186595 0.926807 0.096962
Si Si3 0.737861 0.913710 0.887342
Si Si4 0.220181 0.579665 0.890891
Si Si5 0.767071 0.399733 0.702023
Si Si6 0.215362 0.927289 0.401595
Si Si7 0.627617 0.736444 0.283321
Si Si8 0.508405 0.820125 0.759041
O O1 0.257458 0.233520 0.253960
O O2 0.205013 0.561400 0.364992
O O3 0.211236 0.405385 0.481411
O O4 0.922159 0.714207 0.114145
O O5 0.257928 0.864504 0.290425
O O6 0.278008 0.941125 0.148221
O O7 0.256966 0.699005 0.027156
O O8 0.958117 0.195798 0.929857
O O9 0.553922 0.124945 0.828940
O O10 0.284772 0.477761 0.794524
O O11 0.339129 0.349992 0.021428
O O12 0.001602 0.787677 0.717603
O O13 0.721957 0.289046 0.564714
O O14 0.600484 0.667384 0.683566
O O15 0.339911 0.907702 0.612303
O O16 0.573147 0.933224 0.237427
#
# Coordination Sequence:
#
# PCOD8044652 Si02
#       8
#     2   2   2   2   2   2   2   2
#     4  10  22  40  63  92 122 157 202 250 298 351
#     4  10  20  40  66  90 119 157 205 252 304 342
#     4  10  22  39  65  93 117 158 205 254 291 350
#     4  11  25  43  58  89 130 160 194 251 302 362
#     4  10  19  38  64  94 118 146 202 264 296 340
#     4  11  22  39  67  91 116 156 208 258 297 346
#     4  12  26  40  60  89 131 164 195 237 306 378
#     4  12  23  38  64  92 116 158 206 250 301 351
#
# _framework density 20.418315
#
# number of rings (size 3 to 8) (size 9 to 14) (size 15 to 20)
#    0.000    1.250    3.750    2.625    1.750    3.000 
#    0.000    5.625    0.000    0.000    0.000    0.000 
#    0.000    0.000    0.000    0.000    0.000    0.000 
#
# Total GULP energy -198510.832922 kJ/mol
# GULP energy per Si atom -12406.927058 kJ/mol
# Density = 2.037184 g / cm^3
# Si number density = 20.418315 Si / 1000 Ang^3
#
#
#
# Elastic Constant Matrix: (Units=GPa)
#
#
# Indices 1 2 3 4 5 6 
#
# 1 87.0962 46.0281 28.9284 6.2255 3.1245 3.7452
# 2 46.0281 95.4089 36.4634 1.1403 -7.7774 -12.4742
# 3 28.9284 36.4634 60.6490 -6.3464 -2.7003 -16.6818
# 4 6.2255 1.1403 -6.3464 10.5643 7.2699 -5.4384
# 5 3.1245 -7.7774 -2.7003 7.2699 32.8018 -2.1219
# 6 3.7452 -12.4742 -16.6818 -5.4384 -2.1219 40.9182
#
#
#
# Elastic Compliance Matrix: (Units=1/GPa)
#
#
# Indices 1 2 3 4 5 6 
#
# 1 0.021700 -0.007106 -0.012253 -0.025992 0.000185 -0.012593
# 2 -0.007106 0.017136 -0.006141 -0.003254 0.005163 0.003206
# 3 -0.012253 -0.006141 0.035542 0.042987 -0.005651 0.019160
# 4 -0.025992 -0.003254 0.042987 0.179192 -0.031814 0.041079
# 5 0.000185 0.005163 -0.005651 -0.031814 0.038084 -0.003000
# 6 -0.012593 0.003206 0.019160 0.041079 -0.003000 0.039684
#
#
# Mechanical properties :
#
#
# Convention : Reuss Voigt Hill
#
# Bulk Modulus (GPa) = 42.78085 51.77711 47.27898
# Shear Modulus (GPa) = 12.81620 25.63914 19.22767
#
# Velocity S-wave (km/s) = 2.50808 3.54742 3.07202
# Velocity P-wave (km/s) = 5.42079 6.49555 5.98235
#
# Compressibility (1/GPa) = 0.02337495
#
# Stress axis : x y z
#
# Youngs Moduli (GPa) = 46.08377 58.35828 28.13590
#
# Poissons Ratio (x) = 0.41471 0.34475
# Poissons Ratio (y) = 0.32749 0.17280
# Poissons Ratio (z) = 0.56467 0.35841
#
# Static dielectric constant tensor:
#      x y z
#    x 3.726500 0.183200 0.053820 
#    y 0.183200 3.637990 -0.169340 
#    z 0.053820 -0.169340 3.710790 
# 
# 
# High freq. dielectric constant tensor:
#      x y z
#    x 1.800560 0.014470 0.008090 
#    y 0.014470 1.790650 -0.015410 
#    z 0.008090 -0.015410 1.800260 
# 
# From -- ./inp_files/422740.got.cif
#   From: 2010.06.25/outbox.cif.g09.slc.cpg/sg2_212_cif.got.tgz:422740.got - 2010.06.27 13:26:56.
