data_PCOD8044240
_publ_section_title
;
Structure prediction by ZEFSAII (Michael W. Deem and Ramdas Pophale) SiO2 
 PCOD8044240
Probable space group: P -1
;
_chemical_formula_sum "Si O2"
_cell_formula_units_Z 16
_cell_length_a 9.449150
_cell_length_b 15.062785
_cell_length_c 9.050230
_cell_angle_alpha 84.946206
_cell_angle_beta 88.431329
_cell_angle_gamma 142.227707
_cell_volume 775.943604
_symmetry_space_group_name_H-M "P -1"
_symmetry_group_IT_number 2
_symmetry_cell_setting 'triclinic'
loop_
_space_group_symop_operation_xyz
x,y,z
-x,-y,-z
loop_
_atom_site_type_symbol
_atom_site_label
_atom_site_fract_x
_atom_site_fract_y
_atom_site_fract_z
Si Si1 0.742062 0.301733 0.638231
Si Si2 0.013296 0.398768 0.340312
Si Si3 0.028387 0.955517 0.861537
Si Si4 0.467424 0.520053 0.335928
Si Si5 0.761931 0.345890 0.105257
Si Si6 0.415102 0.312617 0.252095
Si Si7 0.514801 0.908974 0.074280
Si Si8 0.315098 0.205278 0.596610
O O1 0.890860 0.322413 0.511737
O O2 0.663009 0.185998 0.770222
O O3 0.526574 0.241941 0.574250
O O4 0.890384 0.451798 0.695376
O O5 0.832541 0.302057 0.223385
O O6 0.204196 0.417697 0.319550
O O7 0.782133 0.786200 0.854767
O O8 0.224575 0.980614 0.890995
O O9 0.092163 0.045234 0.699196
O O10 0.000000 0.000000 0.000000
O O11 0.500000 0.500000 0.500000
O O12 0.525971 0.468218 0.231100
O O13 0.632241 0.689667 0.299922
O O14 0.632285 0.359136 0.197471
O O15 0.568735 0.207824 0.022126
O O16 0.000000 0.500000 0.000000
O O17 0.288249 0.226540 0.426154
O O18 0.500000 0.000000 0.000000
#
# Coordination Sequence:
#
# PCOD8044240 Si02
#       8
#     2   2   2   2   2   2   2   2
#     4   9  18  37  67  88 120 164 207 254 311 373
#     4  10  19  37  66  94 119 162 209 257 313 373
#     4  11  23  43  63  85 129 176 207 246 317 386
#     4   9  21  37  62  98 127 149 207 271 311 359
#     4  12  24  42  67  93 123 166 215 261 320 379
#     4  11  22  42  63  96 127 163 210 263 314 376
#     4  11  25  44  60  91 131 167 211 261 314 376
#     4   9  19  40  65  92 121 165 211 253 310 376
#
# _framework density 20.620054
#
# number of rings (size 3 to 8) (size 9 to 14) (size 15 to 20)
#    0.000    1.750    3.750    0.375    3.500    0.000 
#    6.750    1.875    0.000    0.000    0.000    0.000 
#    0.000    0.000    0.000    0.000    0.000    0.000 
#
# Total GULP energy -198289.911817 kJ/mol
# GULP energy per Si atom -12393.119489 kJ/mol
# Density = 2.057312 g / cm^3
# Si number density = 20.620054 Si / 1000 Ang^3
#
#
#
# Elastic Constant Matrix: (Units=GPa)
#
#
# Indices 1 2 3 4 5 6 
#
# 1 110.0181 37.7193 46.7403 1.6777 4.4010 -1.9642
# 2 37.7193 79.4277 27.8990 10.6477 -0.7166 2.0183
# 3 46.7403 27.8990 83.2428 -0.1806 3.1970 -1.3337
# 4 1.6777 10.6477 -0.1806 34.7013 1.2795 4.9057
# 5 4.4010 -0.7166 3.1970 1.2795 31.7521 4.8439
# 6 -1.9642 2.0183 -1.3337 4.9057 4.8439 32.6735
#
#
#
# Elastic Compliance Matrix: (Units=1/GPa)
#
#
# Indices 1 2 3 4 5 6 
#
# 1 0.013113 -0.004286 -0.005853 0.000571 -0.001493 0.000950
# 2 -0.004286 0.016423 -0.003185 -0.004777 0.001619 -0.000925
# 3 -0.005853 -0.003185 0.016417 0.001317 -0.001039 0.000471
# 4 0.000571 -0.004777 0.001317 0.030879 -0.000936 -0.004114
# 5 -0.001493 0.001619 -0.001039 -0.000936 0.032632 -0.004929
# 6 0.000950 -0.000925 0.000471 -0.004114 -0.004929 0.032088
#
#
# Mechanical properties :
#
#
# Convention : Reuss Voigt Hill
#
# Bulk Modulus (GPa) = 51.79785 55.26729 53.53257
# Shear Modulus (GPa) = 28.63138 30.51405 29.57272
#
# Velocity S-wave (km/s) = 3.73033 3.85102 3.79116
# Velocity P-wave (km/s) = 6.61275 6.82896 6.72172
#
# Compressibility (1/GPa) = 0.01930582
#
# Stress axis : x y z
#
# Youngs Moduli (GPa) = 76.25869 60.89179 60.91185
#
# Poissons Ratio (x) = 0.26096 0.35651
# Poissons Ratio (y) = 0.32682 0.19401
# Poissons Ratio (z) = 0.44633 0.19394
#
# Static dielectric constant tensor:
#      x y z
#    x 2.988850 3.470250 1.756850 
#    y 3.470250 -11.619790 -7.561120 
#    z 1.756850 -7.561120 -0.000840 
# 
# 
# High freq. dielectric constant tensor:
#      x y z
#    x 1.803480 0.011200 0.006220 
#    y 0.011200 1.794810 0.012350 
#    z 0.006220 0.012350 1.808900 
# 
# From -- ./inp_files/206968.got.cif
#   From: 2010.06.25/outbox.cif.g09.slc.cpg/sg2_104_cif.got.tgz:206968.got - 2010.06.27 13:26:56.
