data_PCOD8044452
_publ_section_title
;
Structure prediction by ZEFSAII (Michael W. Deem and Ramdas Pophale) SiO2 
 PCOD8044452
Probable space group: P -1
;
_chemical_formula_sum "Si O2"
_cell_formula_units_Z 16
_cell_length_a 13.670597
_cell_length_b 16.526429
_cell_length_c 7.754462
_cell_angle_alpha 93.233927
_cell_angle_beta 95.434036
_cell_angle_gamma 23.309766
_cell_volume 688.049502
_symmetry_space_group_name_H-M "P -1"
_symmetry_group_IT_number 2
_symmetry_cell_setting 'triclinic'
loop_
_space_group_symop_operation_xyz
x,y,z
-x,-y,-z
loop_
_atom_site_type_symbol
_atom_site_label
_atom_site_fract_x
_atom_site_fract_y
_atom_site_fract_z
Si Si1 0.335823 0.138609 0.253972
Si Si2 0.900314 0.149845 0.889358
Si Si3 0.857177 0.723068 0.130960
Si Si4 0.636187 0.204760 0.303444
Si Si5 0.126978 0.586550 0.675522
Si Si6 0.506851 0.412625 0.592440
Si Si7 0.204647 0.590690 0.048384
Si Si8 0.722753 0.650192 0.608427
O O1 0.341687 0.206358 0.404301
O O2 0.173142 0.189077 0.321660
O O3 0.613812 0.902841 0.231012
O O4 0.202923 0.266359 0.067641
O O5 0.632048 0.328670 0.789897
O O6 0.866377 0.262066 0.994443
O O7 0.094537 0.017216 0.753194
O O8 0.000000 0.000000 0.000000
O O9 0.976496 0.723325 0.134533
O O10 0.047177 0.524009 0.242552
O O11 0.674790 0.222088 0.491771
O O12 0.461119 0.393660 0.174911
O O13 0.508350 0.215898 0.318093
O O14 0.224825 0.590056 0.583070
O O15 0.217839 0.435290 0.577457
O O16 0.251351 0.501237 0.874489
O O17 0.500000 0.500000 0.500000
#
# Coordination Sequence:
#
# PCOD8044452 Si02
#       8
#     2   2   2   2   2   2   2   2
#     4  10  19  38  61  87 125 154 205 260 305 370
#     4  12  25  39  66  96 121 164 215 264 317 367
#     4   9  20  36  63  91 117 167 203 247 316 377
#     4  10  22  41  64  92 120 165 212 252 309 383
#     4  10  23  38  60  90 122 165 206 255 314 364
#     4  11  23  43  66  87 125 170 208 257 315 369
#     4  10  21  42  61  89 132 160 207 262 311 372
#     4  10  20  38  61  89 123 161 202 251 313 371
#
# _framework density 23.254138999999999
#
# number of rings (size 3 to 8) (size 9 to 14) (size 15 to 20)
#    0.000    1.750    1.250    2.625    1.750    1.500 
#    0.000    6.250    0.000    0.000    0.000    0.000 
#    0.000    0.000    0.000    0.000    0.000    0.000 
#
# Total GULP energy -198291.322114 kJ/mol
# GULP energy per Si atom -12393.207632 kJ/mol
# Density = 2.320121 g / cm^3
# Si number density = 23.254139 Si / 1000 Ang^3
#
#
#
# Elastic Constant Matrix: (Units=GPa)
#
#
# Indices 1 2 3 4 5 6 
#
# 1 120.6595 45.6432 24.2672 15.1721 2.9258 -13.3527
# 2 45.6432 56.6499 13.8776 19.1455 5.2260 -21.0299
# 3 24.2672 13.8776 80.8472 10.8598 15.0261 -3.7894
# 4 15.1721 19.1455 10.8598 35.4058 -2.3757 -6.9751
# 5 2.9258 5.2260 15.0261 -2.3757 34.9444 5.6708
# 6 -13.3527 -21.0299 -3.7894 -6.9751 5.6708 34.0479
#
#
#
# Elastic Compliance Matrix: (Units=1/GPa)
#
#
# Indices 1 2 3 4 5 6 
#
# 1 0.012439 -0.010726 -0.002504 0.000947 0.002056 -0.002174
# 2 -0.010726 0.038194 0.001013 -0.013380 -0.009125 0.018276
# 3 -0.002504 0.001013 0.014860 -0.004182 -0.006873 0.001586
# 4 0.000947 -0.013380 -0.004182 0.036402 0.006517 -0.001986
# 5 0.002056 -0.009125 -0.006873 0.006517 0.034841 -0.010062
# 6 -0.002174 0.018276 0.001586 -0.001986 -0.010062 0.041252
#
#
# Mechanical properties :
#
#
# Convention : Reuss Voigt Hill
#
# Bulk Modulus (GPa) = 24.35442 47.30361 35.82902
# Shear Modulus (GPa) = 23.13666 32.50420 27.82043
#
# Velocity S-wave (km/s) = 3.15770 3.74275 3.46260
# Velocity P-wave (km/s) = 4.87757 6.25010 5.60600
#
# Compressibility (1/GPa) = 0.04106031
#
# Stress axis : x y z
#
# Youngs Moduli (GPa) = 80.39115 26.18220 67.29383
#
# Poissons Ratio (x) = 0.28082 0.16850
# Poissons Ratio (y) = 0.86225 -0.06818
# Poissons Ratio (z) = 0.20130 -0.02653
#
# Static dielectric constant tensor:
#      x y z
#    x 4.461500 -0.576450 0.261040 
#    y -0.576450 4.107410 -0.054940 
#    z 0.261040 -0.054940 4.472890 
# 
# 
# High freq. dielectric constant tensor:
#      x y z
#    x 1.929260 -0.030310 0.008710 
#    y -0.030310 1.894220 0.015400 
#    z 0.008710 0.015400 1.924280 
# 
# From -- ./inp_files/317745.got.cif
#   From: 2010.06.25/outbox.cif.g09.slc.cpg/sg2_159_cif.got.tgz:317745.got - 2010.06.27 13:26:56.
