data_PCOD8044266
_publ_section_title
;
Structure prediction by ZEFSAII (Michael W. Deem and Ramdas Pophale) SiO2 
 PCOD8044266
Probable space group: P -1
;
_chemical_formula_sum "Si O2"
_cell_formula_units_Z 14
_cell_length_a 18.848038
_cell_length_b 9.317203
_cell_length_c 6.750841
_cell_angle_alpha 132.983613
_cell_angle_beta 130.491516
_cell_angle_gamma 54.862000
_cell_volume 640.481598
_symmetry_space_group_name_H-M "P -1"
_symmetry_group_IT_number 2
_symmetry_cell_setting 'triclinic'
loop_
_space_group_symop_operation_xyz
x,y,z
-x,-y,-z
loop_
_atom_site_type_symbol
_atom_site_label
_atom_site_fract_x
_atom_site_fract_y
_atom_site_fract_z
Si Si1 0.532342 0.166259 0.347402
Si Si2 0.020858 0.302025 0.224106
Si Si3 0.180986 0.126583 0.630037
Si Si4 0.826046 0.293927 0.690213
Si Si5 0.326421 0.194665 0.635251
Si Si6 0.632831 0.504464 0.724254
Si Si7 0.158715 0.370184 0.208722
O O1 0.597578 0.298015 0.480644
O O2 0.436907 0.334686 0.402501
O O3 0.597314 0.017020 0.488235
O O4 0.500000 0.000000 0.000000
O O5 0.094211 0.131934 0.322507
O O6 0.067451 0.343361 0.139146
O O7 0.000000 0.500000 0.500000
O O8 0.922029 0.240592 0.946816
O O9 0.273243 0.147679 0.694094
O O10 0.204181 0.915468 0.593146
O O11 0.150409 0.298688 0.901436
O O12 0.741573 0.454344 0.799522
O O13 0.843312 0.391349 0.600268
O O14 0.257750 0.256822 0.383101
O O15 0.372821 0.380623 0.962682
#
# Coordination Sequence:
#
# PCOD8044266 Si02
#       7
#     2   2   2   2   2   2   2
#     4   9  19  36  67  96 120 161 210 253 313 376
#     4  11  23  44  64  87 129 169 208 257 306 363
#     4  11  23  40  63  91 127 167 207 255 304 367
#     4  12  22  39  63  92 127 165 212 255 308 367
#     4  10  20  40  64  92 127 165 206 252 311 367
#     4  10  19  37  67  92 122 166 206 256 313 364
#     4  11  24  41  61  94 129 166 205 256 308 362
#
# _framework density 21.858550999999999
#
# number of rings (size 3 to 8) (size 9 to 14) (size 15 to 20)
#    0.000    1.429    4.286    1.714    0.000    1.714 
#    5.143    0.714    0.000    5.143    0.000    0.000 
#    0.000    0.000    0.000    0.000    0.000    0.000 
#
# Total GULP energy -173441.755981 kJ/mol
# GULP energy per Si atom -12388.696856 kJ/mol
# Density = 2.180880 g / cm^3
# Si number density = 21.858551 Si / 1000 Ang^3
#
#
#
# Elastic Constant Matrix: (Units=GPa)
#
#
# Indices 1 2 3 4 5 6 
#
# 1 71.0469 37.1901 33.7995 -6.9246 14.5716 2.2081
# 2 37.1901 115.3024 28.4979 5.0000 12.7836 9.7604
# 3 33.7995 28.4979 60.8804 -1.9672 14.3589 10.8570
# 4 -6.9246 5.0000 -1.9672 35.0986 1.9770 9.2191
# 5 14.5716 12.7836 14.3589 1.9770 29.5489 -5.0743
# 6 2.2081 9.7604 10.8570 9.2191 -5.0743 34.9209
#
#
#
# Elastic Compliance Matrix: (Units=1/GPa)
#
#
# Indices 1 2 3 4 5 6 
#
# 1 0.022205 -0.004678 -0.009024 0.004593 -0.004709 0.000812
# 2 -0.004678 0.011099 -0.001898 -0.001999 -0.001773 -0.001946
# 3 -0.009024 -0.001898 0.026230 0.002886 -0.009241 -0.009159
# 4 0.004593 -0.001999 0.002886 0.032933 -0.006776 -0.010308
# 5 -0.004709 -0.001773 -0.009241 -0.006776 0.043908 0.011836
# 6 0.000812 -0.001946 -0.009159 -0.010308 0.011836 0.036417
#
#
# Mechanical properties :
#
#
# Convention : Reuss Voigt Hill
#
# Bulk Modulus (GPa) = 35.29158 49.57830 42.43494
# Shear Modulus (GPa) = 23.42628 29.76317 26.59472
#
# Velocity S-wave (km/s) = 3.27727 3.69402 3.49187
# Velocity P-wave (km/s) = 5.52278 6.39727 5.97604
#
# Compressibility (1/GPa) = 0.02833537
#
# Stress axis : x y z
#
# Youngs Moduli (GPa) = 45.03482 90.10129 38.12438
#
# Poissons Ratio (x) = 0.42146 0.34403
# Poissons Ratio (y) = 0.21065 0.07235
# Poissons Ratio (z) = 0.40639 0.17098
#
# Static dielectric constant tensor:
#      x y z
#    x 2.920110 -0.140110 -0.352030 
#    y -0.140110 4.524190 0.004490 
#    z -0.352030 0.004490 3.294010 
# 
# 
# High freq. dielectric constant tensor:
#      x y z
#    x 1.845950 -0.015000 0.036180 
#    y -0.015000 1.887180 0.008480 
#    z 0.036180 0.008480 1.833120 
# 
# From -- ./inp_files/106039.got.cif
#   From: 2010.06.25/outbox.cif.g09.slc.cpg/sg2_54_cif.got.tgz:106039.got - 2010.06.27 13:26:56.
