data_PCOD8044853
_publ_section_title
;
Structure prediction by ZEFSAII (Michael W. Deem and Ramdas Pophale) SiO2 
 PCOD8044853
Probable space group: P 2
;
_chemical_formula_sum "Si O2"
_cell_formula_units_Z 15
_cell_length_a 12.518657
_cell_length_b 7.332958
_cell_length_c 8.992444
_cell_angle_alpha 90.000000
_cell_angle_beta 71.155459
_cell_angle_gamma 90.000000
_cell_volume 781.247606
_symmetry_space_group_name_H-M "P 2"
_symmetry_group_IT_number 3
_symmetry_cell_setting 'monoclinic'
loop_
_space_group_symop_operation_xyz
x,y,z
-x,y,-z
loop_
_atom_site_type_symbol
_atom_site_label
_atom_site_fract_x
_atom_site_fract_y
_atom_site_fract_z
Si Si1 0.775656 0.455920 0.597162
Si Si2 0.867965 0.281737 0.279633
Si Si3 0.797638 0.718421 0.968104
Si Si4 0.369352 0.412425 0.065985
Si Si5 0.913834 0.182697 0.704256
Si Si6 0.239260 0.120607 0.958697
Si Si7 0.000000 0.518825 0.000000
Si Si8 0.881752 0.803255 0.620840
O O1 0.777649 0.385164 0.426469
O O2 0.665899 0.394005 0.742998
O O3 0.882617 0.373904 0.640394
O O4 0.785672 0.677581 0.585788
O O5 0.790361 0.177779 0.196214
O O6 0.949412 0.153708 0.346715
O O7 0.968361 0.401450 0.159861
O O8 0.698085 0.577515 0.979317
O O9 0.880369 0.754915 0.794383
O O10 0.885360 0.636657 0.045503
O O11 0.738314 0.903956 0.052483
O O12 0.500000 0.458915 0.000000
O O13 0.346473 0.228032 0.980564
O O14 0.860421 0.021055 0.624781
O O15 0.866484 0.176057 0.892851
O O16 0.000000 0.743825 0.500000
#
# Coordination Sequence:
#
# PCOD8044853 Si02
#       8
#     2   2   2   2   2   2   1   2
#     4  10  21  35  52  83 110 147 194 239 277 334
#     4  12  19  34  54  83 125 154 188 230 284 351
#     4  10  22  34  55  87 116 151 192 227 291 354
#     4  10  21  44  64  79 105 151 205 254 290 334
#     4  10  19  33  50  78 119 155 184 218 275 349
#     4  10  21  36  55  86 115 147 196 233 290 349
#     4  12  20  32  56  84 128 158 172 220 288 362
#     4  10  18  30  49  77 113 153 187 218 271 337
#
# _framework density 19.200060000000001
#
# number of rings (size 3 to 8) (size 9 to 14) (size 15 to 20)
#    0.000    1.600    2.667    4.400    3.733    0.533 
#    2.400    0.667    0.000    0.000    3.467    0.000 
#    0.000    0.000    0.000    0.000    0.000    0.000 
#
# Total GULP energy -185828.443894 kJ/mol
# GULP energy per Si atom -12388.562926 kJ/mol
# Density = 1.915636 g / cm^3
# Si number density = 19.200060 Si / 1000 Ang^3
#
#
#
# Elastic Constant Matrix: (Units=GPa)
#
#
# Indices 1 2 3 4 5 6 
#
# 1 99.1653 38.8608 32.8809 0.0000 -10.1493 0.0000
# 2 38.8608 113.5214 35.9654 0.0000 6.2553 0.0000
# 3 32.8809 35.9654 99.8229 0.0000 -6.8579 0.0000
# 4 0.0000 0.0000 0.0000 26.2010 0.0000 -1.8749
# 5 -10.1493 6.2553 -6.8579 0.0000 16.3933 0.0000
# 6 0.0000 0.0000 0.0000 -1.8749 0.0000 5.1370
#
#
#
# Elastic Compliance Matrix: (Units=1/GPa)
#
#
# Indices 1 2 3 4 5 6 
#
# 1 0.013482 -0.004411 -0.002227 0.000000 0.009099 0.000000
# 2 -0.004411 0.011884 -0.003426 0.000000 -0.008699 0.000000
# 3 -0.002227 -0.003426 0.012335 0.000000 0.005089 0.000000
# 4 0.000000 0.000000 0.000000 0.039190 0.000000 0.014303
# 5 0.009099 -0.008699 0.005089 0.000000 0.072082 0.000000
# 6 0.000000 0.000000 0.000000 0.014303 0.000000 0.199885
#
#
# Mechanical properties :
#
#
# Convention : Reuss Voigt Hill
#
# Bulk Modulus (GPa) = 56.90447 58.65821 57.78134
# Shear Modulus (GPa) = 13.33887 23.19976 18.26932
#
# Velocity S-wave (km/s) = 2.63863 3.47986 3.08802
# Velocity P-wave (km/s) = 6.24381 6.83837 6.54784
#
# Compressibility (1/GPa) = 0.01757331
#
# Stress axis : x y z
#
# Youngs Moduli (GPa) = 74.17094 84.14822 81.06864
#
# Poissons Ratio (x) = 0.37120 0.18050
# Poissons Ratio (y) = 0.32719 0.27776
# Poissons Ratio (z) = 0.16515 0.28831
#
# Static dielectric constant tensor:
#      x y z
#    x 2.938210 0.000000 -0.010440 
#    y 0.000000 3.841280 0.000000 
#    z -0.010440 0.000000 3.612000 
# 
# 
# High freq. dielectric constant tensor:
#      x y z
#    x 1.684160 0.000000 0.003170 
#    y 0.000000 1.760150 0.000000 
#    z 0.003170 0.000000 1.755390 
# 
# From -- ./inp_files/7004.got.cif
#   From: 2010.03.12/outbox.cif.g09.slc.cpg/sg3_4_cif.got.tgz:7004.got - 2010.03.31 09:20:49.
