data_PCOD8044178
_publ_section_title
;
Structure prediction by ZEFSAII (Michael W. Deem and Ramdas Pophale) SiO2 
 PCOD8044178
Probable space group: P -1
;
_chemical_formula_sum "Si O2"
_cell_formula_units_Z 16
_cell_length_a 11.179196
_cell_length_b 9.349891
_cell_length_c 8.658791
_cell_angle_alpha 73.301443
_cell_angle_beta 68.334984
_cell_angle_gamma 66.638927
_cell_volume 761.557656
_symmetry_space_group_name_H-M "P -1"
_symmetry_group_IT_number 2
_symmetry_cell_setting 'triclinic'
loop_
_space_group_symop_operation_xyz
x,y,z
-x,-y,-z
loop_
_atom_site_type_symbol
_atom_site_label
_atom_site_fract_x
_atom_site_fract_y
_atom_site_fract_z
Si Si1 0.587185 0.818400 0.862121
Si Si2 0.972165 0.856064 0.974872
Si Si3 0.693532 0.044708 0.925774
Si Si4 0.295978 0.667102 0.349069
Si Si5 0.803148 0.609135 0.618370
Si Si6 0.194430 0.652009 0.737021
Si Si7 0.949542 0.569505 0.257832
Si Si8 0.429640 0.466952 0.886152
O O1 0.664755 0.749790 0.686468
O O2 0.627794 0.967714 0.848327
O O3 0.421350 0.874037 0.913976
O O4 0.631427 0.674470 0.008643
O O5 0.002367 0.698277 0.110611
O O6 0.072199 0.808252 0.795151
O O7 0.815152 0.908631 0.986749
O O8 0.000000 0.000000 0.000000
O O9 0.750636 0.170961 0.776464
O O10 0.221781 0.556759 0.339412
O O11 0.256295 0.696673 0.537384
O O12 0.458589 0.586108 0.285924
O O13 0.857326 0.658738 0.418155
O O14 0.920302 0.577653 0.702662
O O15 0.139604 0.503553 0.787401
O O16 0.307264 0.613271 0.832238
O O17 0.500000 0.500000 0.000000
#
# Coordination Sequence:
#
# PCOD8044178 Si02
#       8
#     2   2   2   2   2   2   2   2
#     4  10  20  37  63  83 113 160 197 238 295 352
#     4  12  25  37  58  86 124 159 199 240 295 361
#     4  10  23  38  56  86 123 160 196 234 296 360
#     4  10  22  39  62  91 121 153 199 247 294 354
#     4  10  19  37  65  88 114 158 200 247 299 342
#     4  11  24  40  62  90 118 158 198 253 299 343
#     4  10  22  39  60  90 121 150 202 250 294 358
#     4  11  21  37  68  89 116 151 203 253 293 350
#
# _framework density 21.009574000000001
#
# number of rings (size 3 to 8) (size 9 to 14) (size 15 to 20)
#    0.000    1.500    1.250    3.750    3.500    1.500 
#    0.000    0.625    0.000    0.000    0.000    0.000 
#    0.000    0.000    0.000    0.000    0.000    0.000 
#
# Total GULP energy -198385.607344 kJ/mol
# GULP energy per Si atom -12399.100459 kJ/mol
# Density = 2.096175 g / cm^3
# Si number density = 21.009574 Si / 1000 Ang^3
#
#
#
# Elastic Constant Matrix: (Units=GPa)
#
#
# Indices 1 2 3 4 5 6 
#
# 1 84.5061 25.5182 38.0678 14.8250 4.5676 -11.9470
# 2 25.5182 83.9904 45.4568 21.4910 -5.5829 -6.3456
# 3 38.0678 45.4568 107.8376 32.7737 -19.2332 -6.3686
# 4 14.8250 21.4910 32.7737 34.2179 -5.4901 -14.7709
# 5 4.5676 -5.5829 -19.2332 -5.4901 34.0565 1.4804
# 6 -11.9470 -6.3456 -6.3686 -14.7709 1.4804 41.9294
#
#
#
# Elastic Compliance Matrix: (Units=1/GPa)
#
#
# Indices 1 2 3 4 5 6 
#
# 1 0.015725 -0.001930 -0.005706 0.000551 -0.005720 0.003718
# 2 -0.001930 0.016312 -0.004744 -0.005224 -0.000561 -0.000622
# 3 -0.005706 -0.004744 0.018403 -0.012669 0.008526 -0.004312
# 4 0.000551 -0.005224 -0.012669 0.050969 -0.000538 0.015417
# 5 -0.005720 -0.000561 0.008526 -0.000538 0.034846 -0.001840
# 6 0.003718 -0.000622 -0.004312 0.015417 -0.001840 0.029656
#
#
# Mechanical properties :
#
#
# Convention : Reuss Voigt Hill
#
# Bulk Modulus (GPa) = 38.93958 54.93552 46.93755
# Shear Modulus (GPa) = 25.09654 33.19354 29.14504
#
# Velocity S-wave (km/s) = 3.45994 3.97914 3.72859
# Velocity P-wave (km/s) = 5.87674 6.87866 6.39735
#
# Compressibility (1/GPa) = 0.02568081
#
# Stress axis : x y z
#
# Youngs Moduli (GPa) = 63.59479 61.30316 54.33813
#
# Poissons Ratio (x) = 0.11831 0.31003
# Poissons Ratio (y) = 0.12273 0.25779
# Poissons Ratio (z) = 0.36285 0.29083
#
# Static dielectric constant tensor:
#      x y z
#    x 3.922180 -0.069130 -0.322640 
#    y -0.069130 3.746360 0.186870 
#    z -0.322640 0.186870 3.902630 
# 
# 
# High freq. dielectric constant tensor:
#      x y z
#    x 1.826140 0.002610 -0.024940 
#    y 0.002610 1.816750 0.012850 
#    z -0.024940 0.012850 1.819060 
# 
# From -- ./inp_files/238309.got.cif
#   From: 2010.06.25/outbox.cif.g09.slc.cpg/sg2_120_cif.got.tgz:238309.got - 2010.06.27 13:26:56.
