data_PCOD8044334
_publ_section_title
;
Structure prediction by ZEFSAII (Michael W. Deem and Ramdas Pophale) SiO2 
 PCOD8044334
Probable space group: P -1
;
_chemical_formula_sum "Si O2"
_cell_formula_units_Z 16
_cell_length_a 5.184652
_cell_length_b 14.789104
_cell_length_c 18.707621
_cell_angle_alpha 142.987383
_cell_angle_beta 65.513315
_cell_angle_gamma 99.884451
_cell_volume 751.891778
_symmetry_space_group_name_H-M "P -1"
_symmetry_group_IT_number 2
_symmetry_cell_setting 'triclinic'
loop_
_space_group_symop_operation_xyz
x,y,z
-x,-y,-z
loop_
_atom_site_type_symbol
_atom_site_label
_atom_site_fract_x
_atom_site_fract_y
_atom_site_fract_z
Si Si1 0.325879 0.915704 0.263806
Si Si2 0.254932 0.252170 0.418898
Si Si3 0.177226 0.893832 0.014750
Si Si4 0.439353 0.899949 0.840796
Si Si5 0.418963 0.664760 0.437717
Si Si6 0.411689 0.423149 0.031815
Si Si7 0.238581 0.566303 0.864197
Si Si8 0.348068 0.999949 0.592278
O O1 0.516626 0.904170 0.306401
O O2 0.998310 0.912981 0.321166
O O3 0.315409 0.070310 0.318177
O O4 0.477100 0.765081 0.103437
O O5 0.393009 0.248819 0.321566
O O6 0.413430 0.342853 0.511248
O O7 0.909539 0.345311 0.515898
O O8 0.342368 0.995611 0.104568
O O9 0.350119 0.832800 0.882506
O O10 0.160070 0.751268 0.976177
O O11 0.846719 0.997612 0.103233
O O12 0.591888 0.518868 0.278326
O O13 0.410861 0.821476 0.495696
O O14 0.555402 0.482640 0.121041
O O15 0.058449 0.482970 0.119873
O O16 0.500000 0.500000 0.000000
O O17 0.500000 0.000000 0.500000
#
# Coordination Sequence:
#
# PCOD8044334 Si02
#       8
#     2   2   2   2   2   2   2   2
#     4  10  21  36  55  82 106 141 197 233 292 342
#     4  10  19  38  57  85 115 152 197 244 285 342
#     4  10  21  37  63  96 119 161 188 246 310 348
#     4  10  20  37  65  94 124 146 205 246 290 361
#     4  10  23  36  57  84 113 162 195 234 298 354
#     4  12  27  40  62  87 117 161 199 253 299 356
#     4  12  24  43  60  84 128 157 196 246 306 362
#     4  10  21  35  58  76 107 147 191 246 280 335
#
# _framework density 21.279658999999999
#
# number of rings (size 3 to 8) (size 9 to 14) (size 15 to 20)
#    0.000    1.500    0.000    5.250    3.500    2.000 
#    0.000    1.250    0.000    0.000    0.000    0.000 
#    0.000    0.000    0.000    0.000    0.000    0.000 
#
# Total GULP energy -198497.808652 kJ/mol
# GULP energy per Si atom -12406.113041 kJ/mol
# Density = 2.123123 g / cm^3
# Si number density = 21.279659 Si / 1000 Ang^3
#
#
#
# Elastic Constant Matrix: (Units=GPa)
#
#
# Indices 1 2 3 4 5 6 
#
# 1 161.7241 30.0335 28.0491 -9.3243 6.4483 4.9269
# 2 30.0335 53.8204 5.8645 -18.2046 0.7173 -1.3663
# 3 28.0491 5.8645 95.0333 -19.9409 3.1956 3.3282
# 4 -9.3243 -18.2046 -19.9409 32.8166 -1.5796 -1.9946
# 5 6.4483 0.7173 3.1956 -1.5796 30.8678 -14.1436
# 6 4.9269 -1.3663 3.3282 -1.9946 -14.1436 17.8546
#
#
#
# Elastic Compliance Matrix: (Units=1/GPa)
#
#
# Indices 1 2 3 4 5 6 
#
# 1 0.007650 -0.004924 -0.002131 -0.002368 -0.003867 -0.005418
# 2 -0.004924 0.026482 0.002644 0.015643 0.004813 0.008453
# 3 -0.002131 0.002644 0.012879 0.008523 -0.001279 -0.001671
# 4 -0.002368 0.015643 0.008523 0.044569 0.006171 0.010129
# 5 -0.003867 0.004813 -0.001279 0.006171 0.054351 0.045417
# 6 -0.005418 0.008453 -0.001671 0.010129 0.045417 0.095571
#
#
# Mechanical properties :
#
#
# Convention : Reuss Voigt Hill
#
# Bulk Modulus (GPa) = 26.18668 48.71910 37.45289
# Shear Modulus (GPa) = 19.00759 32.74982 25.87871
#
# Velocity S-wave (km/s) = 2.99193 3.92729 3.49108
# Velocity P-wave (km/s) = 4.92628 6.59615 5.82140
#
# Compressibility (1/GPa) = 0.03818736
#
# Stress axis : x y z
#
# Youngs Moduli (GPa) = 130.71694 37.76203 77.64859
#
# Poissons Ratio (x) = 0.18593 0.16549
# Poissons Ratio (y) = 0.64363 -0.20527
# Poissons Ratio (z) = 0.27859 -0.09983
#
# Static dielectric constant tensor:
#      x y z
#    x 4.015230 0.065060 -0.021900 
#    y 0.065060 3.580660 -0.205600 
#    z -0.021900 -0.205600 3.795970 
# 
# 
# High freq. dielectric constant tensor:
#      x y z
#    x 1.857200 0.000210 -0.000280 
#    y 0.000210 1.817950 -0.021110 
#    z -0.000280 -0.021110 1.838130 
# 
# From -- ./inp_files/80997.got.cif
#   From: 2010.06.25/outbox.cif.g09.slc.cpg/sg2_41_cif.got.tgz:80997.got - 2010.06.27 13:26:56.
