data_PCOD8044409
_publ_section_title
;
Structure prediction by ZEFSAII (Michael W. Deem and Ramdas Pophale) SiO2 
 PCOD8044409
Probable space group: P -1
;
_chemical_formula_sum "Si O2"
_cell_formula_units_Z 16
_cell_length_a 15.578378
_cell_length_b 8.965126
_cell_length_c 8.952693
_cell_angle_alpha 81.093800
_cell_angle_beta 102.250098
_cell_angle_gamma 45.261301
_cell_volume 780.172451
_symmetry_space_group_name_H-M "P -1"
_symmetry_group_IT_number 2
_symmetry_cell_setting 'triclinic'
loop_
_space_group_symop_operation_xyz
x,y,z
-x,-y,-z
loop_
_atom_site_type_symbol
_atom_site_label
_atom_site_fract_x
_atom_site_fract_y
_atom_site_fract_z
Si Si1 0.668008 0.549539 0.866863
Si Si2 0.002871 0.906148 0.172609
Si Si3 0.747116 0.113013 0.938143
Si Si4 0.325408 0.288647 0.734189
Si Si5 0.746538 0.638882 0.633799
Si Si6 0.549492 0.152126 0.008309
Si Si7 0.902031 0.312398 0.217437
Si Si8 0.894573 0.720939 0.820062
O O1 0.702709 0.340820 0.840688
O O2 0.637958 0.713206 0.701301
O O3 0.536936 0.701887 0.898054
O O4 0.795562 0.452674 0.018678
O O5 0.140702 0.638666 0.292433
O O6 0.980088 0.049802 0.281072
O O7 0.000000 0.000000 0.000000
O O8 0.880583 0.945335 0.118112
O O9 0.783635 0.967294 0.828610
O O10 0.627477 0.198360 0.978589
O O11 0.327499 0.241938 0.569327
O O12 0.181943 0.556049 0.680965
O O13 0.340944 0.121468 0.871886
O O14 0.452218 0.231891 0.823112
O O15 0.808745 0.716955 0.691170
O O16 0.014834 0.294491 0.251941
O O17 0.000000 0.500000 0.000000
#
# Coordination Sequence:
#
# PCOD8044409 Si02
#       8
#     2   2   2   2   2   2   2   2
#     4  10  20  39  66  87 116 159 208 246 295 359
#     4  11  18  37  65  93 121 157 191 242 306 369
#     4  11  20  37  66  92 116 158 206 240 295 374
#     4  10  25  41  60  88 124 159 205 254 297 350
#     4  12  23  37  63  96 121 154 203 255 298 352
#     4  10  23  43  63  82 118 170 205 245 302 354
#     4  10  19  38  60  88 123 163 193 233 309 366
#     4  12  19  32  61  93 120 158 193 242 299 365
#
# _framework density 20.508286999999999
#
# number of rings (size 3 to 8) (size 9 to 14) (size 15 to 20)
#    0.000    1.250    6.250    1.125    3.500    1.500 
#    0.000    0.625    8.250    0.000    0.000    0.000 
#    0.000    0.000    0.000    0.000    0.000    0.000 
#
# Total GULP energy -198378.276114 kJ/mol
# GULP energy per Si atom -12398.642257 kJ/mol
# Density = 2.046161 g / cm^3
# Si number density = 20.508287 Si / 1000 Ang^3
#
#
#
# Elastic Constant Matrix: (Units=GPa)
#
#
# Indices 1 2 3 4 5 6 
#
# 1 156.5562 32.8566 48.6529 11.7472 6.3642 -6.9262
# 2 32.8566 98.4292 24.1846 17.3051 9.8604 1.6644
# 3 48.6529 24.1846 85.7291 21.2786 5.5897 -1.7308
# 4 11.7472 17.3051 21.2786 23.6088 -0.1818 1.3272
# 5 6.3642 9.8604 5.5897 -0.1818 11.9379 3.2814
# 6 -6.9262 1.6644 -1.7308 1.3272 3.2814 30.5265
#
#
#
# Elastic Compliance Matrix: (Units=1/GPa)
#
#
# Indices 1 2 3 4 5 6 
#
# 1 0.008132 -0.001726 -0.004227 0.000915 -0.001415 0.001812
# 2 -0.001726 0.013346 0.000186 -0.009195 -0.010444 0.000414
# 3 -0.004227 0.000186 0.018087 -0.014469 -0.006984 0.001436
# 4 0.000915 -0.009195 -0.014469 0.062062 0.016074 -0.004537
# 5 -0.001415 -0.010444 -0.006984 0.016074 0.099845 -0.011579
# 6 0.001812 0.000414 0.001436 -0.004537 -0.011579 0.034670
#
#
# Mechanical properties :
#
#
# Convention : Reuss Voigt Hill
#
# Bulk Modulus (GPa) = 35.67366 61.34472 48.50919
# Shear Modulus (GPa) = 19.45382 28.88267 24.16824
#
# Velocity S-wave (km/s) = 3.08325 3.75686 3.43660
# Velocity P-wave (km/s) = 5.48705 6.98540 6.28106
#
# Compressibility (1/GPa) = 0.02803188
#
# Stress axis : x y z
#
# Youngs Moduli (GPa) = 122.96779 74.92959 55.28948
#
# Poissons Ratio (x) = 0.12932 0.23369
# Poissons Ratio (y) = 0.21223 -0.01030
# Poissons Ratio (z) = 0.51974 -0.01395
#
# Static dielectric constant tensor:
#      x y z
#    x 3.828140 0.003810 0.082440 
#    y 0.003810 4.071930 0.146900 
#    z 0.082440 0.146900 3.370230 
# 
# 
# High freq. dielectric constant tensor:
#      x y z
#    x 1.808540 -0.003190 0.007630 
#    y -0.003190 1.821490 0.013000 
#    z 0.007630 0.013000 1.755590 
# 
# From -- ./inp_files/244681.got.cif
#   From: 2010.06.25/outbox.cif.g09.slc.cpg/sg2_123_cif.got.tgz:244681.got - 2010.06.27 13:26:56.
