data_PCOD8044732
_publ_section_title
;
Structure prediction by ZEFSAII (Michael W. Deem and Ramdas Pophale) SiO2 
 PCOD8044732
Probable space group: P -1
;
_chemical_formula_sum "Si O2"
_cell_formula_units_Z 14
_cell_length_a 11.239561
_cell_length_b 17.583418
_cell_length_c 9.047180
_cell_angle_alpha 40.267724
_cell_angle_beta 40.663648
_cell_angle_gamma 49.531296
_cell_volume 742.521090
_symmetry_space_group_name_H-M "P -1"
_symmetry_group_IT_number 2
_symmetry_cell_setting 'triclinic'
loop_
_space_group_symop_operation_xyz
x,y,z
-x,-y,-z
loop_
_atom_site_type_symbol
_atom_site_label
_atom_site_fract_x
_atom_site_fract_y
_atom_site_fract_z
Si Si1 0.255356 0.432942 0.962651
Si Si2 0.564013 0.417819 0.924483
Si Si3 0.272194 0.031397 0.797073
Si Si4 0.632092 0.137465 0.304473
Si Si5 0.861729 0.436578 0.401961
Si Si6 0.896594 0.790711 0.553681
Si Si7 0.965993 0.999349 0.360027
O O1 0.263240 0.289927 0.146512
O O2 0.056375 0.487961 0.146079
O O3 0.420077 0.459342 0.868702
O O4 0.272923 0.494523 0.697133
O O5 0.761131 0.447684 0.638919
O O6 0.500000 0.500000 0.000000
O O7 0.572022 0.279283 0.158851
O O8 0.460750 0.073283 0.610880
O O9 0.150141 0.131742 0.663913
O O10 0.311146 0.909072 0.845945
O O11 0.156435 0.011257 0.080589
O O12 0.800326 0.103605 0.311685
O O13 0.906291 0.295408 0.528914
O O14 0.907224 0.872782 0.563865
O O15 0.000000 0.000000 0.500000
#
# Coordination Sequence:
#
# PCOD8044732 Si02
#       7
#     2   2   2   2   2   2   2
#     4   9  20  38  58  83 110 149 198 218 273 337
#     4  12  23  36  57  88 117 147 187 235 281 326
#     4  10  19  38  66  80 108 150 195 227 267 348
#     4  10  21  39  59  83 109 154 191 225 276 335
#     4   9  19  38  60  80 112 152 190 226 270 331
#     4   9  17  39  61  81 108 150 193 224 268 344
#     4  11  23  36  56  91 115 138 183 240 295 327
#
# _framework density 18.854683000000001
#
# number of rings (size 3 to 8) (size 9 to 14) (size 15 to 20)
#    0.857    1.143    1.429    3.857    0.000    2.286 
#    2.571    1.429    0.000    0.000    0.000    0.000 
#    0.000    0.000    0.000    0.000    0.000    0.000 
#
# Total GULP energy -173525.947043 kJ/mol
# GULP energy per Si atom -12394.710503 kJ/mol
# Density = 1.881177 g / cm^3
# Si number density = 18.854683 Si / 1000 Ang^3
#
#
#
# Elastic Constant Matrix: (Units=GPa)
#
#
# Indices 1 2 3 4 5 6 
#
# 1 76.8633 32.0535 37.3599 13.1066 5.5436 3.0329
# 2 32.0535 107.1877 46.7286 -2.8090 13.7503 6.1804
# 3 37.3599 46.7286 78.6629 12.8823 1.4515 7.9370
# 4 13.1066 -2.8090 12.8823 25.8608 -2.9000 2.9261
# 5 5.5436 13.7503 1.4515 -2.9000 23.1584 3.0655
# 6 3.0329 6.1804 7.9370 2.9261 3.0655 21.7007
#
#
#
# Elastic Compliance Matrix: (Units=1/GPa)
#
#
# Indices 1 2 3 4 5 6 
#
# 1 0.018544 -0.002708 -0.006137 -0.007257 -0.003609 0.001912
# 2 -0.002708 0.014893 -0.008432 0.006512 -0.006758 -0.000703
# 3 -0.006137 -0.008432 0.022293 -0.007876 0.004687 -0.004494
# 4 -0.007257 0.006512 -0.007876 0.048131 0.005075 -0.005166
# 5 -0.003609 -0.006758 0.004687 0.005075 0.049317 -0.006936
# 6 0.001912 -0.000703 -0.004494 -0.005166 -0.006936 0.049335
#
#
# Mechanical properties :
#
#
# Convention : Reuss Voigt Hill
#
# Bulk Modulus (GPa) = 47.22024 54.99978 51.11001
# Shear Modulus (GPa) = 20.48133 23.91545 22.19839
#
# Velocity S-wave (km/s) = 3.29944 3.56534 3.43496
# Velocity P-wave (km/s) = 6.29395 6.79577 6.54967
#
# Compressibility (1/GPa) = 0.02117736
#
# Stress axis : x y z
#
# Youngs Moduli (GPa) = 53.92489 67.14529 44.85729
#
# Poissons Ratio (x) = 0.18180 0.27529
# Poissons Ratio (y) = 0.14601 0.37823
# Poissons Ratio (z) = 0.33093 0.56616
#
# Static dielectric constant tensor:
#      x y z
#    x 3.350500 -0.209360 -0.160070 
#    y -0.209360 3.403640 -0.055050 
#    z -0.160070 -0.055050 3.396650 
# 
# 
# High freq. dielectric constant tensor:
#      x y z
#    x 1.719100 -0.023560 -0.008050 
#    y -0.023560 1.722380 -0.006030 
#    z -0.008050 -0.006030 1.734270 
# 
# From -- ./inp_files/276047.got.cif
#   From: 2010.06.25/outbox.cif.g09.slc.cpg/sg2_139_cif.got.tgz:276047.got - 2010.06.27 13:26:56.
