data_PCOD8044353
_publ_section_title
;
Structure prediction by ZEFSAII (Michael W. Deem and Ramdas Pophale) SiO2 
 PCOD8044353
Probable space group: P -1
;
_chemical_formula_sum "Si O2"
_cell_formula_units_Z 16
_cell_length_a 11.854915
_cell_length_b 15.935910
_cell_length_c 16.158993
_cell_angle_alpha 26.774901
_cell_angle_beta 146.298031
_cell_angle_gamma 135.822085
_cell_volume 759.071698
_symmetry_space_group_name_H-M "P -1"
_symmetry_group_IT_number 2
_symmetry_cell_setting 'triclinic'
loop_
_space_group_symop_operation_xyz
x,y,z
-x,-y,-z
loop_
_atom_site_type_symbol
_atom_site_label
_atom_site_fract_x
_atom_site_fract_y
_atom_site_fract_z
Si Si1 0.732749 0.673455 0.210256
Si Si2 0.020207 0.409495 0.727827
Si Si3 0.161127 0.941545 0.080684
Si Si4 0.415401 0.190763 0.561966
Si Si5 0.768920 0.415756 0.864329
Si Si6 0.455098 0.206813 0.757363
Si Si7 0.992298 0.608639 0.697700
Si Si8 0.735377 0.197811 0.188038
O O1 0.825289 0.513658 0.469101
O O2 0.797778 0.632143 0.190667
O O3 0.489091 0.689470 0.050845
O O4 0.809157 0.868970 0.118775
O O5 0.939018 0.223685 0.882800
O O6 0.096499 0.520944 0.754752
O O7 0.384578 0.864138 0.324942
O O8 0.000000 0.000000 0.000000
O O9 0.291490 0.390353 0.291910
O O10 0.521905 0.203541 0.705781
O O11 0.263850 0.026852 0.612156
O O12 0.574788 0.353516 0.751545
O O13 0.947147 0.450007 0.877487
O O14 0.847648 0.259864 0.117828
O O15 0.215287 0.269993 0.561667
O O16 0.500000 0.000000 0.000000
O O17 0.146840 0.744974 0.709351
#
# Coordination Sequence:
#
# PCOD8044353 Si02
#       8
#     2   2   2   2   2   2   2   2
#     4   9  20  35  63  83 109 152 182 236 285 328
#     4  10  19  38  58  86 113 141 196 235 273 333
#     4   9  17  31  55  85 107 136 184 231 279 323
#     4  10  20  35  59  80 114 150 183 237 277 333
#     4  11  22  40  59  81 112 153 192 230 285 332
#     4  11  21  37  59  82 106 145 190 239 277 324
#     4  11  24  37  57  85 118 151 188 236 279 341
#     4  11  22  39  55  85 119 152 190 223 288 343
#
# _framework density 21.078377
#
# number of rings (size 3 to 8) (size 9 to 14) (size 15 to 20)
#    0.000    1.750    1.250    4.875    1.750    2.500 
#    2.250    0.000    0.000    0.000    0.000   13.125 
#    0.000    0.000    0.000    0.000    0.000    0.000 
#
# Total GULP energy -198275.197065 kJ/mol
# GULP energy per Si atom -12392.199817 kJ/mol
# Density = 2.103040 g / cm^3
# Si number density = 21.078377 Si / 1000 Ang^3
#
#
#
# Elastic Constant Matrix: (Units=GPa)
#
#
# Indices 1 2 3 4 5 6 
#
# 1 74.5292 29.3311 14.6906 -9.4062 -3.4132 -8.5458
# 2 29.3311 152.4921 37.3730 -13.2606 -11.3749 -10.6427
# 3 14.6906 37.3730 37.7046 -16.2850 -5.6024 1.5117
# 4 -9.4062 -13.2606 -16.2850 29.5804 0.0102 -3.8046
# 5 -3.4132 -11.3749 -5.6024 0.0102 18.7185 -2.9598
# 6 -8.5458 -10.6427 1.5117 -3.8046 -2.9598 26.4664
#
#
#
# Elastic Compliance Matrix: (Units=1/GPa)
#
#
# Indices 1 2 3 4 5 6 
#
# 1 0.015734 -0.001435 -0.003231 0.003270 0.001876 0.005368
# 2 -0.001435 0.009476 -0.008661 -0.000441 0.003565 0.004177
# 3 -0.003231 -0.008661 0.046310 0.020139 0.007452 -0.003443
# 4 0.003270 -0.000441 0.020139 0.046669 0.007481 0.007274
# 5 0.001876 0.003565 0.007452 0.007481 0.059638 0.009359
# 6 0.005368 0.004177 -0.003443 0.007274 0.009359 0.043485
#
#
# Mechanical properties :
#
#
# Convention : Reuss Voigt Hill
#
# Bulk Modulus (GPa) = 22.29000 47.50168 34.89584
# Shear Modulus (GPa) = 19.01713 27.17515 23.09614
#
# Velocity S-wave (km/s) = 3.00694 3.59450 3.31377
# Velocity P-wave (km/s) = 4.75955 6.30967 5.58862
#
# Compressibility (1/GPa) = 0.04486317
#
# Stress axis : x y z
#
# Youngs Moduli (GPa) = 63.55852 105.53442 21.59368
#
# Poissons Ratio (x) = 0.15148 0.06978
# Poissons Ratio (y) = 0.09123 0.18703
# Poissons Ratio (z) = 0.20538 0.91406
#
# Static dielectric constant tensor:
#      x y z
#    x 4.083280 0.139480 0.018720 
#    y 0.139480 4.271500 -0.546140 
#    z 0.018720 -0.546140 3.888570 
# 
# 
# High freq. dielectric constant tensor:
#      x y z
#    x 1.822790 0.008540 0.007280 
#    y 0.008540 1.824840 -0.029860 
#    z 0.007280 -0.029860 1.814490 
# 
# From -- ./inp_files/189213.got.cif
#   From: 2010.06.25/outbox.cif.g09.slc.cpg/sg2_95_cif.got.tgz:189213.got - 2010.06.27 13:26:56.
