data_PCOD8044900
_publ_section_title
;
Structure prediction by ZEFSAII (Michael W. Deem and Ramdas Pophale) SiO2 
 PCOD8044900
Probable space group: P 2
;
_chemical_formula_sum "Si O2"
_cell_formula_units_Z 13
_cell_length_a 9.473574
_cell_length_b 5.343974
_cell_length_c 20.537783
_cell_angle_alpha 90.000000
_cell_angle_beta 148.144608
_cell_angle_gamma 90.000000
_cell_volume 548.759909
_symmetry_space_group_name_H-M "P 2"
_symmetry_group_IT_number 3
_symmetry_cell_setting 'monoclinic'
loop_
_space_group_symop_operation_xyz
x,y,z
-x,y,-z
loop_
_atom_site_type_symbol
_atom_site_label
_atom_site_fract_x
_atom_site_fract_y
_atom_site_fract_z
Si Si1 0.000000 0.690521 0.000000
Si Si2 0.538319 0.364124 0.829383
Si Si3 0.320996 0.073599 0.632304
Si Si4 0.129777 0.990771 0.798272
Si Si5 0.261087 0.569642 0.555949
Si Si6 0.983567 0.510675 0.316770
Si Si7 0.266413 0.017550 0.994537
O O1 0.244419 0.525093 0.124833
O O2 0.098518 0.850428 0.977869
O O3 0.431786 0.113069 0.749541
O O4 0.289623 0.542141 0.749129
O O5 0.689958 0.287931 0.955418
O O6 0.431916 0.321197 0.639223
O O7 0.000000 0.065779 0.500000
O O8 0.429236 0.819823 0.640965
O O9 0.973461 0.735968 0.717826
O O10 0.015767 0.233754 0.715249
O O11 0.435779 0.918130 0.902581
O O12 0.097535 0.046713 0.862153
O O13 0.000000 0.564227 0.500000
O O14 0.213897 0.552019 0.460359
#
# Coordination Sequence:
#
# PCOD8044900 Si02
#       7
#     1   2   2   2   2   2   2
#     4  12  24  40  64  84 142 176 222 254 316 384
#     4  11  23  38  59  91 134 170 211 261 323 384
#     4  10  20  32  57  86 127 160 195 263 327 370
#     4  10  23  38  63  87 131 170 211 262 320 379
#     4  10  19  31  54  91 124 156 196 259 332 367
#     4  11  20  37  62  91 129 165 204 268 324 385
#     4  10  24  39  58  90 127 176 217 261 313 381
#
# _framework density 23.689776999999999
#
# number of rings (size 3 to 8) (size 9 to 14) (size 15 to 20)
#    0.000    1.538    4.615    1.385   10.769    1.231 
#    0.000    0.000    0.000    0.000    0.000    1.077 
#    0.000    0.000    0.000    0.000    0.000    0.000 
#
# Total GULP energy -161050.041259 kJ/mol
# GULP energy per Si atom -12388.464712 kJ/mol
# Density = 2.363586 g / cm^3
# Si number density = 23.689777 Si / 1000 Ang^3
#
#
#
# Elastic Constant Matrix: (Units=GPa)
#
#
# Indices 1 2 3 4 5 6 
#
# 1 71.3767 25.8646 37.0864 0.0000 -27.2230 0.0000
# 2 25.8646 169.5365 43.9146 0.0000 -27.1249 0.0000
# 3 37.0864 43.9146 85.7355 0.0000 -48.4635 0.0000
# 4 0.0000 0.0000 0.0000 51.9979 0.0000 -5.7145
# 5 -27.2230 -27.1249 -48.4635 0.0000 41.9577 0.0000
# 6 0.0000 0.0000 0.0000 -5.7145 0.0000 22.1502
#
#
#
# Elastic Compliance Matrix: (Units=1/GPa)
#
#
# Indices 1 2 3 4 5 6 
#
# 1 0.019081 -0.000765 -0.003294 0.000000 0.008080 0.000000
# 2 -0.000765 0.006848 -0.002751 0.000000 0.000754 0.000000
# 3 -0.003294 -0.002751 0.035393 0.000000 0.036965 0.000000
# 4 0.000000 0.000000 0.000000 0.019793 0.000000 0.005106
# 5 0.008080 0.000754 0.036965 0.000000 0.072260 0.000000
# 6 0.000000 0.000000 0.000000 0.005106 0.000000 0.046464
#
#
# Mechanical properties :
#
#
# Convention : Reuss Voigt Hill
#
# Bulk Modulus (GPa) = 20.96359 60.04221 40.50290
# Shear Modulus (GPa) = 21.79977 37.87334 29.83656
#
# Velocity S-wave (km/s) = 3.03680 4.00274 3.55275
# Velocity P-wave (km/s) = 4.60050 6.83833 5.82784
#
# Compressibility (1/GPa) = 0.04770175
#
# Stress axis : x y z
#
# Youngs Moduli (GPa) = 52.40827 146.02273 28.25408
#
# Poissons Ratio (x) = 0.11168 0.09308
# Poissons Ratio (y) = 0.04008 0.07773
# Poissons Ratio (z) = 0.17266 0.40170
#
# Static dielectric constant tensor:
#      x y z
#    x 3.910000 0.000000 -0.362570 
#    y 0.000000 5.398320 0.000000 
#    z -0.362570 0.000000 4.355950 
# 
# 
# High freq. dielectric constant tensor:
#      x y z
#    x 1.888430 0.000000 -0.029430 
#    y 0.000000 1.953390 0.000000 
#    z -0.029430 0.000000 1.936100 
# 
# From -- ./inp_files/14895.got.cif
#   From: 2010.03.12/outbox.cif.g09.slc.cpg/sg3_8_cif.got.tgz:14895.got - 2010.03.31 09:20:49.
