data_PCOD8044523
_publ_section_title
;
Structure prediction by ZEFSAII (Michael W. Deem and Ramdas Pophale) SiO2 
 PCOD8044523
Probable space group: P -1
;
_chemical_formula_sum "Si O2"
_cell_formula_units_Z 14
_cell_length_a 12.164404
_cell_length_b 11.190660
_cell_length_c 11.211843
_cell_angle_alpha 55.052435
_cell_angle_beta 99.665676
_cell_angle_gamma 52.814112
_cell_volume 614.523763
_symmetry_space_group_name_H-M "P -1"
_symmetry_group_IT_number 2
_symmetry_cell_setting 'triclinic'
loop_
_space_group_symop_operation_xyz
x,y,z
-x,-y,-z
loop_
_atom_site_type_symbol
_atom_site_label
_atom_site_fract_x
_atom_site_fract_y
_atom_site_fract_z
Si Si1 0.623849 0.044296 0.380378
Si Si2 0.038427 0.808316 0.229907
Si Si3 0.009466 0.321394 0.069800
Si Si4 0.980928 0.830523 0.469025
Si Si5 0.738805 0.157668 0.762912
Si Si6 0.371824 0.287119 0.416274
Si Si7 0.775866 0.368620 0.158593
O O1 0.588085 0.105826 0.484258
O O2 0.873098 0.810473 0.524328
O O3 0.575455 0.932458 0.396609
O O4 0.466457 0.322307 0.111934
O O5 0.066570 0.948832 0.181871
O O6 0.269010 0.503794 0.377190
O O7 0.030879 0.731482 0.397487
O O8 0.807344 0.042629 0.979202
O O9 0.971123 0.253406 0.209749
O O10 0.237784 0.015627 0.214533
O O11 0.000000 0.500000 0.000000
O O12 0.807347 0.526395 0.826351
O O13 0.207191 0.620779 0.701141
O O14 0.813478 0.157300 0.256350
O O15 0.500000 0.500000 0.500000
#
# Coordination Sequence:
#
# PCOD8044523 Si02
#       7
#     2   2   2   2   2   2   2
#     4  10  21  39  62  91 115 164 207 252 303 364
#     4  10  22  42  59  88 130 157 199 259 307 361
#     4  10  19  38  62  90 121 161 205 260 307 359
#     4  11  22  39  60  87 126 166 194 256 306 365
#     4  10  22  38  62  89 122 164 206 249 310 369
#     4   9  21  40  63  89 123 157 208 258 302 363
#     4  10  22  38  57  88 126 156 208 245 307 364
#
# _framework density 22.781869
#
# number of rings (size 3 to 8) (size 9 to 14) (size 15 to 20)
#    0.000    2.000    1.429    1.286    2.000    6.286 
#    0.000    0.714    0.000    0.000    0.000    0.000 
#    0.000    0.000    0.000    0.000    0.000    0.000 
#
# Total GULP energy -173491.173785 kJ/mol
# GULP energy per Si atom -12392.226699 kJ/mol
# Density = 2.273002 g / cm^3
# Si number density = 22.781869 Si / 1000 Ang^3
#
#
#
# Elastic Constant Matrix: (Units=GPa)
#
#
# Indices 1 2 3 4 5 6 
#
# 1 81.9988 44.2797 -5.5348 -0.3433 -17.9609 -4.2286
# 2 44.2797 144.4504 34.2357 10.6120 -0.1339 4.0487
# 3 -5.5348 34.2357 58.0791 2.3456 -11.5078 5.7954
# 4 -0.3433 10.6120 2.3456 36.9719 1.0432 -6.0764
# 5 -17.9609 -0.1339 -11.5078 1.0432 21.8559 -3.4596
# 6 -4.2286 4.0487 5.7954 -6.0764 -3.4596 34.2324
#
#
#
# Elastic Compliance Matrix: (Units=1/GPa)
#
#
# Indices 1 2 3 4 5 6 
#
# 1 0.026797 -0.012135 0.015090 0.002862 0.030674 0.005799
# 2 -0.012135 0.013850 -0.012147 -0.003401 -0.016654 -0.003367
# 3 0.015090 -0.012147 0.031412 0.000995 0.028991 0.001089
# 4 0.002862 -0.003401 0.000995 0.028899 0.002419 0.005962
# 5 0.030674 -0.016654 0.028991 0.002419 0.087613 0.010134
# 6 0.005799 -0.003367 0.001089 0.005962 0.010134 0.032225
#
#
# Mechanical properties :
#
#
# Convention : Reuss Voigt Hill
#
# Bulk Modulus (GPa) = 18.63071 47.83215 33.23143
# Shear Modulus (GPa) = 19.44993 32.71525 26.08259
#
# Velocity S-wave (km/s) = 2.92506 3.79360 3.38728
# Velocity P-wave (km/s) = 4.42760 6.34270 5.46962
#
# Compressibility (1/GPa) = 0.05367482
#
# Stress axis : x y z
#
# Youngs Moduli (GPa) = 37.31819 72.19981 31.83513
#
# Poissons Ratio (x) = 0.87615 -0.48040
# Poissons Ratio (y) = 0.45286 0.38671
# Poissons Ratio (z) = -0.56315 0.87704
#
# Static dielectric constant tensor:
#      x y z
#    x 7.138510 2.017550 -1.111320 
#    y 2.017550 5.592770 -0.618240 
#    z -1.111320 -0.618240 4.623590 
# 
# 
# High freq. dielectric constant tensor:
#      x y z
#    x 1.886770 0.014880 -0.000110 
#    y 0.014880 1.884120 0.014120 
#    z -0.000110 0.014120 1.912410 
# 
# From -- ./inp_files/425280.got.cif
#   From: 2010.06.25/outbox.cif.g09.slc.cpg/sg2_213_cif.got.tgz:425280.got - 2010.06.27 13:26:56.
