data_PCOD8044122
_publ_section_title
;
Structure prediction by ZEFSAII (Michael W. Deem and Ramdas Pophale) SiO2 
 PCOD8044122
Probable space group: P -1
;
_chemical_formula_sum "Si O2"
_cell_formula_units_Z 16
_cell_length_a 16.163113
_cell_length_b 6.771751
_cell_length_c 22.678346
_cell_angle_alpha 63.459298
_cell_angle_beta 22.461847
_cell_angle_gamma 74.022276
_cell_volume 776.566024
_symmetry_space_group_name_H-M "P -1"
_symmetry_group_IT_number 2
_symmetry_cell_setting 'triclinic'
loop_
_space_group_symop_operation_xyz
x,y,z
-x,-y,-z
loop_
_atom_site_type_symbol
_atom_site_label
_atom_site_fract_x
_atom_site_fract_y
_atom_site_fract_z
Si Si1 0.073806 0.318488 0.536479
Si Si2 0.336995 0.826208 0.251583
Si Si3 0.406191 0.186563 0.252709
Si Si4 0.763884 0.689068 0.975819
Si Si5 0.969692 0.456449 0.958238
Si Si6 0.226765 0.100363 0.572618
Si Si7 0.465903 0.523015 0.588369
Si Si8 0.435754 0.022118 0.718389
O O1 0.177329 0.606951 0.428234
O O2 0.192315 0.234186 0.415645
O O3 0.128544 0.247647 0.574107
O O4 0.791741 0.202676 0.723699
O O5 0.347133 0.070210 0.242572
O O6 0.601649 0.839129 0.068669
O O7 0.453495 0.996575 0.289267
O O8 0.629671 0.441154 0.061375
O O9 0.817357 0.602799 0.015925
O O10 0.009557 0.848489 0.761830
O O11 0.222638 0.557317 0.746856
O O12 0.000000 0.500000 0.000000
O O13 0.835030 0.169999 0.075322
O O14 0.324730 0.249140 0.548971
O O15 0.433393 0.046745 0.412722
O O16 0.500000 0.500000 0.500000
O O17 0.445771 0.287086 0.668625
#
# Coordination Sequence:
#
# PCOD8044122 Si02
#       8
#     2   2   2   2   2   2   2   2
#     4   9  20  37  62  91 112 158 195 247 305 349
#     4  10  19  37  64  87 118 150 204 246 292 362
#     4   9  19  37  60  87 117 150 200 247 291 353
#     4  10  24  37  57  87 120 160 192 245 309 349
#     4  11  23  41  64  85 119 159 204 251 294 352
#     4  11  23  42  57  85 132 153 196 254 304 356
#     4  12  26  39  62  92 119 161 204 248 307 357
#     4  10  22  39  61  86 115 160 203 245 294 360
#
# _framework density 20.603528000000001
#
# number of rings (size 3 to 8) (size 9 to 14) (size 15 to 20)
#    0.000    1.750    1.250    3.000    3.500    4.500 
#    0.000    0.625    0.000    0.000    0.000    0.000 
#    0.000    0.000    0.000    0.000    0.000    0.000 
#
# Total GULP energy -198377.560553 kJ/mol
# GULP energy per Si atom -12398.597535 kJ/mol
# Density = 2.055663 g / cm^3
# Si number density = 20.603528 Si / 1000 Ang^3
#
#
#
# Elastic Constant Matrix: (Units=GPa)
#
#
# Indices 1 2 3 4 5 6 
#
# 1 81.4736 26.1993 38.7741 0.9975 -18.4223 11.2640
# 2 26.1993 73.0171 26.0024 -5.2666 -12.9517 6.5592
# 3 38.7741 26.0024 106.0061 -4.8641 -11.2268 5.2006
# 4 0.9975 -5.2666 -4.8641 29.0085 -2.2464 0.9481
# 5 -18.4223 -12.9517 -11.2268 -2.2464 27.2373 2.9126
# 6 11.2640 6.5592 5.2006 0.9481 2.9126 33.6452
#
#
#
# Elastic Compliance Matrix: (Units=1/GPa)
#
#
# Indices 1 2 3 4 5 6 
#
# 1 0.018443 -0.002740 -0.004811 -0.000999 0.009717 -0.005710
# 2 -0.002740 0.017003 -0.002265 0.003342 0.005857 -0.002649
# 3 -0.004811 -0.002265 0.011902 0.001802 0.000713 0.000100
# 4 -0.000999 0.003342 0.001802 0.035856 0.004829 -0.002024
# 5 0.009717 0.005857 0.000713 0.004829 0.047701 -0.008771
# 6 -0.005710 -0.002649 0.000100 -0.002024 -0.008771 0.032951
#
#
# Mechanical properties :
#
#
# Convention : Reuss Voigt Hill
#
# Bulk Modulus (GPa) = 36.07905 49.16094 42.61999
# Shear Modulus (GPa) = 25.94357 29.27961 27.61159
#
# Velocity S-wave (km/s) = 3.55234 3.77383 3.66476
# Velocity P-wave (km/s) = 5.86299 6.54991 6.21595
#
# Compressibility (1/GPa) = 0.02771692
#
# Stress axis : x y z
#
# Youngs Moduli (GPa) = 54.22085 58.81307 84.02075
#
# Poissons Ratio (x) = 0.16115 0.40418
# Poissons Ratio (y) = 0.14857 0.19030
# Poissons Ratio (z) = 0.26083 0.13320
#
# Static dielectric constant tensor:
#      x y z
#    x 3.636380 -0.287360 -0.401910 
#    y -0.287360 3.338430 -0.501010 
#    z -0.401910 -0.501010 3.219400 
# 
# 
# High freq. dielectric constant tensor:
#      x y z
#    x 1.807120 -0.008670 -0.020620 
#    y -0.008670 1.802620 -0.007740 
#    z -0.020620 -0.007740 1.801130 
# 
# From -- ./inp_files/46811.got.cif
#   From: 2010.06.25/outbox.cif.g09.slc.cpg/sg2_24_cif.got.tgz:46811.got - 2010.06.27 13:26:56.
