data_PCOD8044302
_publ_section_title
;
Structure prediction by ZEFSAII (Michael W. Deem and Ramdas Pophale) SiO2 
 PCOD8044302
Probable space group: P -1
;
_chemical_formula_sum "Si O2"
_cell_formula_units_Z 14
_cell_length_a 9.602132
_cell_length_b 12.163881
_cell_length_c 8.801963
_cell_angle_alpha 73.965660
_cell_angle_beta 74.485069
_cell_angle_gamma 126.823205
_cell_volume 653.748122
_symmetry_space_group_name_H-M "P -1"
_symmetry_group_IT_number 2
_symmetry_cell_setting 'triclinic'
loop_
_space_group_symop_operation_xyz
x,y,z
-x,-y,-z
loop_
_atom_site_type_symbol
_atom_site_label
_atom_site_fract_x
_atom_site_fract_y
_atom_site_fract_z
Si Si1 0.940414 0.835153 0.086034
Si Si2 0.134864 0.555317 0.089186
Si Si3 0.268407 0.282849 0.522731
Si Si4 0.476575 0.369417 0.147925
Si Si5 0.037041 0.737610 0.544268
Si Si6 0.746124 0.156546 0.862763
Si Si7 0.021445 0.105574 0.277246
O O1 0.723949 0.690240 0.306134
O O2 0.135786 0.886086 0.090711
O O3 0.914763 0.784817 0.936562
O O4 0.000000 0.000000 0.000000
O O5 0.176695 0.693920 0.116253
O O6 0.003808 0.399009 0.296519
O O7 0.357543 0.628242 0.952685
O O8 0.000000 0.500000 0.000000
O O9 0.485737 0.387241 0.325435
O O10 0.172281 0.340926 0.451159
O O11 0.114463 0.084611 0.635721
O O12 0.238622 0.187882 0.258708
O O13 0.500000 0.500000 0.000000
O O14 0.211203 0.804661 0.344045
O O15 0.106726 0.879363 0.584740
O O16 0.500000 0.000000 0.000000
#
# Coordination Sequence:
#
# PCOD8044302 Si02
#       7
#     2   2   2   2   2   2   2
#     4   9  20  40  63  92 130 156 207 273 321 359
#     4  12  26  44  63  92 139 173 209 267 325 385
#     4   9  19  36  66  95 124 162 217 271 314 368
#     4  11  21  38  66  91 121 170 224 252 318 392
#     4  10  20  42  62  87 128 175 207 262 323 383
#     4  11  26  42  67  96 128 173 219 260 327 387
#     4  10  19  37  70  92 125 162 222 272 314 367
#
# _framework density 21.414975999999999
#
# number of rings (size 3 to 8) (size 9 to 14) (size 15 to 20)
#    0.000    1.714    2.857    3.000    8.000    0.000 
#    5.143    3.571    0.000    0.000    0.000    0.000 
#    0.000    0.000    0.000    0.000    0.000    0.000 
#
# Total GULP energy -173439.385732 kJ/mol
# GULP energy per Si atom -12388.527552 kJ/mol
# Density = 2.136623 g / cm^3
# Si number density = 21.414976 Si / 1000 Ang^3
#
#
#
# Elastic Constant Matrix: (Units=GPa)
#
#
# Indices 1 2 3 4 5 6 
#
# 1 96.4999 39.2856 62.7327 8.7468 6.1460 -19.1178
# 2 39.2856 92.2671 40.7635 22.9070 3.1047 -11.3717
# 3 62.7327 40.7635 200.3442 43.8522 6.9384 -7.8593
# 4 8.7468 22.9070 43.8522 37.3135 -3.4598 4.5912
# 5 6.1460 3.1047 6.9384 -3.4598 43.8613 2.7136
# 6 -19.1178 -11.3717 -7.8593 4.5912 2.7136 26.2383
#
#
#
# Elastic Compliance Matrix: (Units=1/GPa)
#
#
# Indices 1 2 3 4 5 6 
#
# 1 0.016782 -0.004848 -0.004609 0.003292 -0.001535 0.008329
# 2 -0.004848 0.015874 0.000863 -0.010477 -0.001755 0.005620
# 3 -0.004609 0.000863 0.008513 -0.009783 -0.001623 0.001445
# 4 0.003292 -0.010477 -0.009783 0.046244 0.006331 -0.013819
# 5 -0.001535 -0.001755 -0.001623 0.006331 0.024265 -0.005982
# 6 0.008329 0.005620 0.001445 -0.013819 -0.005982 0.050086
#
#
# Mechanical properties :
#
#
# Convention : Reuss Voigt Hill
#
# Bulk Modulus (GPa) = 41.70147 74.96387 58.33267
# Shear Modulus (GPa) = 26.74544 37.90458 32.32501
#
# Velocity S-wave (km/s) = 3.53783 4.21171 3.88939
# Velocity P-wave (km/s) = 6.01695 7.66372 6.88971
#
# Compressibility (1/GPa) = 0.02397997
#
# Stress axis : x y z
#
# Youngs Moduli (GPa) = 59.58685 62.99553 117.46334
#
# Poissons Ratio (x) = 0.30543 0.54141
# Poissons Ratio (y) = 0.28891 -0.10135
# Poissons Ratio (z) = 0.27465 -0.05435
#
# Static dielectric constant tensor:
#      x y z
#    x 3.514270 -0.622050 0.042660 
#    y -0.622050 3.413770 0.567490 
#    z 0.042660 0.567490 4.982720 
# 
# 
# High freq. dielectric constant tensor:
#      x y z
#    x 1.816820 -0.019700 0.014500 
#    y -0.019700 1.833030 0.022850 
#    z 0.014500 0.022850 1.877460 
# 
# From -- ./inp_files/185822.got.cif
#   From: 2010.06.25/outbox.cif.g09.slc.cpg/sg2_93_cif.got.tgz:185822.got - 2010.06.27 13:26:56.
