data_PCOD8044316
_publ_section_title
;
Structure prediction by ZEFSAII (Michael W. Deem and Ramdas Pophale) SiO2 
 PCOD8044316
Probable space group: P -1
;
_chemical_formula_sum "Si O2"
_cell_formula_units_Z 16
_cell_length_a 21.136789
_cell_length_b 10.068612
_cell_length_c 9.428280
_cell_angle_alpha 55.695791
_cell_angle_beta 142.216985
_cell_angle_gamma 135.377529
_cell_volume 863.520788
_symmetry_space_group_name_H-M "P -1"
_symmetry_group_IT_number 2
_symmetry_cell_setting 'triclinic'
loop_
_space_group_symop_operation_xyz
x,y,z
-x,-y,-z
loop_
_atom_site_type_symbol
_atom_site_label
_atom_site_fract_x
_atom_site_fract_y
_atom_site_fract_z
Si Si1 0.735454 0.384382 0.117601
Si Si2 0.156902 0.103061 0.338415
Si Si3 0.658264 0.790609 0.159250
Si Si4 0.944497 0.720420 0.130899
Si Si5 0.347441 0.800824 0.488503
Si Si6 0.609499 0.460754 0.087695
Si Si7 0.618784 0.115961 0.817861
Si Si8 0.189182 0.824171 0.412515
O O1 0.868599 0.552478 0.207195
O O2 0.667643 0.468740 0.033868
O O3 0.746894 0.237913 0.322929
O O4 0.656202 0.274267 0.907340
O O5 0.227234 0.174533 0.567573
O O6 0.226691 0.037198 0.394599
O O7 0.146495 0.269829 0.148349
O O8 0.020403 0.919306 0.232921
O O9 0.649195 0.673154 0.073217
O O10 0.535774 0.670451 0.106701
O O11 0.677622 0.989804 0.025856
O O12 0.041762 0.686604 0.239908
O O13 0.343808 0.620064 0.657016
O O14 0.329472 0.774239 0.304590
O O15 0.238629 0.820723 0.346899
O O16 0.473682 0.990749 0.635663
#
# Coordination Sequence:
#
# PCOD8044316 Si02
#       8
#     2   2   2   2   2   2   2   2
#     4  11  20  34  58  85 106 141 181 229 269 318
#     4   9  19  35  58  75 106 152 176 223 267 321
#     4  10  19  38  56  79 112 148 178 216 277 322
#     4   9  20  35  54  80 111 140 187 226 260 320
#     4   9  20  35  55  82 111 141 178 226 271 320
#     4   9  22  35  57  82 115 138 179 224 271 327
#     4  10  20  34  57  83 113 138 179 223 274 325
#     4   9  18  35  58  76 105 144 180 221 266 315
#
# _framework density 18.528794000000001
#
# number of rings (size 3 to 8) (size 9 to 14) (size 15 to 20)
#    0.750    1.750    1.250    0.375    3.500    2.500 
#    0.000    1.875    2.750    0.000    0.000    0.000 
#    0.000    0.000    0.000    0.000    0.000    0.000 
#
# Total GULP energy -198353.414526 kJ/mol
# GULP energy per Si atom -12397.088408 kJ/mol
# Density = 1.848662 g / cm^3
# Si number density = 18.528794 Si / 1000 Ang^3
#
#
#
# Elastic Constant Matrix: (Units=GPa)
#
#
# Indices 1 2 3 4 5 6 
#
# 1 137.3057 35.4247 37.6035 6.0791 -2.3102 -8.4835
# 2 35.4247 50.9754 13.5350 8.1448 -4.5587 -5.7780
# 3 37.6035 13.5350 89.7242 10.6926 -4.1973 -4.4723
# 4 6.0791 8.1448 10.6926 15.4839 -1.1195 -0.7733
# 5 -2.3102 -4.5587 -4.1973 -1.1195 23.9735 -1.3830
# 6 -8.4835 -5.7780 -4.4723 -0.7733 -1.3830 23.4449
#
#
#
# Elastic Compliance Matrix: (Units=1/GPa)
#
#
# Indices 1 2 3 4 5 6 
#
# 1 0.009764 -0.006065 -0.003337 0.001686 -0.000636 0.001420
# 2 -0.006065 0.026399 0.000303 -0.011197 0.004211 0.004248
# 3 -0.003337 0.000303 0.013608 -0.008049 0.001818 0.001304
# 4 0.001686 -0.011197 -0.008049 0.075315 0.000072 -0.001196
# 5 -0.000636 0.004211 0.001818 0.000072 0.042987 0.003692
# 6 0.001420 0.004248 0.001304 -0.001196 0.003692 0.044641
#
#
# Mechanical properties :
#
#
# Convention : Reuss Voigt Hill
#
# Bulk Modulus (GPa) = 31.67387 50.12576 40.89981
# Shear Modulus (GPa) = 20.70946 25.34326 23.02636
#
# Velocity S-wave (km/s) = 3.34681 3.70236 3.52907
# Velocity P-wave (km/s) = 5.66272 6.73708 6.22313
#
# Compressibility (1/GPa) = 0.03157177
#
# Stress axis : x y z
#
# Youngs Moduli (GPa) = 102.41696 37.88067 73.48873
#
# Poissons Ratio (x) = 0.22973 0.24524
# Poissons Ratio (y) = 0.62112 -0.02223
# Poissons Ratio (z) = 0.34178 -0.01146
#
# Static dielectric constant tensor:
#      x y z
#    x 3.373240 -0.036560 0.111000 
#    y -0.036560 3.217480 -0.086740 
#    z 0.111000 -0.086740 3.293090 
# 
# 
# High freq. dielectric constant tensor:
#      x y z
#    x 1.705020 -0.004240 0.008150 
#    y -0.004240 1.707110 -0.006610 
#    z 0.008150 -0.006610 1.715130 
# 
# From -- ./inp_files/343456.got.cif
#   From: 2010.06.25/outbox.cif.g09.slc.cpg/sg2_172_cif.got.tgz:343456.got - 2010.06.27 13:26:56.
