data_PCOD8044346
_publ_section_title
;
Structure prediction by ZEFSAII (Michael W. Deem and Ramdas Pophale) SiO2 
 PCOD8044346
Probable space group: P -1
;
_chemical_formula_sum "Si O2"
_cell_formula_units_Z 16
_cell_length_a 8.536325
_cell_length_b 8.304139
_cell_length_c 17.271180
_cell_angle_alpha 126.336411
_cell_angle_beta 100.764486
_cell_angle_gamma 51.180927
_cell_volume 734.394876
_symmetry_space_group_name_H-M "P -1"
_symmetry_group_IT_number 2
_symmetry_cell_setting 'triclinic'
loop_
_space_group_symop_operation_xyz
x,y,z
-x,-y,-z
loop_
_atom_site_type_symbol
_atom_site_label
_atom_site_fract_x
_atom_site_fract_y
_atom_site_fract_z
Si Si1 0.215074 0.673853 0.370419
Si Si2 0.379631 0.306598 0.995973
Si Si3 0.286176 0.641756 0.954189
Si Si4 0.753063 0.958469 0.449150
Si Si5 0.273147 0.310840 0.151688
Si Si6 0.061099 0.591525 0.625460
Si Si7 0.314334 0.360475 0.441701
Si Si8 0.007754 0.790040 0.837985
O O1 0.281548 0.852675 0.430236
O O2 0.315256 0.482054 0.250513
O O3 0.318926 0.500066 0.408373
O O4 0.962164 0.857002 0.393540
O O5 0.270799 0.441406 0.941759
O O6 0.226263 0.395550 0.080667
O O7 0.492362 0.429102 0.055263
O O8 0.522021 0.995496 0.910741
O O9 0.224293 0.645640 0.861792
O O10 0.140454 0.910965 0.065032
O O11 0.551854 0.109515 0.416564
O O12 0.792437 0.712961 0.421190
O O13 0.080480 0.354843 0.186826
O O14 0.187523 0.580593 0.561400
O O15 0.045162 0.765952 0.742589
O O16 0.824072 0.722578 0.616776
#
# Coordination Sequence:
#
# PCOD8044346 Si02
#       8
#     2   2   2   2   2   2   2   2
#     4  10  21  38  56  84 121 153 191 243 280 342
#     4   9  20  38  60  85 111 146 196 239 290 359
#     4   9  20  38  58  85 112 145 190 243 290 348
#     4  10  20  37  56  81 117 155 192 237 283 338
#     4  10  19  38  58  81 118 150 186 242 293 337
#     4  10  21  38  56  87 117 153 194 241 281 342
#     4  10  20  37  58  81 117 155 194 236 283 339
#     4  10  19  38  58  78 122 149 183 243 295 335
#
# _framework density 21.786643000000002
#
# number of rings (size 3 to 8) (size 9 to 14) (size 15 to 20)
#    0.000    2.250    2.500    0.750    0.000    2.500 
#   11.250    0.000    0.000    0.000    0.000    0.000 
#    0.000    0.000    0.000    0.000    0.000    0.000 
#
# Total GULP energy -198259.807206 kJ/mol
# GULP energy per Si atom -12391.237950 kJ/mol
# Density = 2.173706 g / cm^3
# Si number density = 21.786643 Si / 1000 Ang^3
#
#
#
# Elastic Constant Matrix: (Units=GPa)
#
#
# Indices 1 2 3 4 5 6 
#
# 1 28.8629 26.5070 14.9539 -3.8290 -3.8808 -9.4014
# 2 26.5070 76.5330 10.8508 -9.1388 8.4334 -25.0761
# 3 14.9539 10.8508 122.0697 -15.4097 4.2861 -5.7619
# 4 -3.8290 -9.1388 -15.4097 25.6694 8.3865 7.2000
# 5 -3.8808 8.4334 4.2861 8.3865 22.3604 -7.1160
# 6 -9.4014 -25.0761 -5.7619 7.2000 -7.1160 28.4829
#
#
#
# Elastic Compliance Matrix: (Units=1/GPa)
#
#
# Indices 1 2 3 4 5 6 
#
# 1 0.067150 -0.023769 -0.008972 -0.018042 0.032997 0.012228
# 2 -0.023769 0.027147 0.002774 0.009916 -0.015345 0.010276
# 3 -0.008972 0.002774 0.010470 0.009900 -0.009355 -0.003241
# 4 -0.018042 0.009916 0.009900 0.064857 -0.039969 -0.021603
# 5 0.032997 -0.015345 -0.009355 -0.039969 0.081261 0.025895
# 6 0.012228 0.010276 -0.003241 -0.021603 0.025895 0.059466
#
#
# Mechanical properties :
#
#
# Convention : Reuss Voigt Hill
#
# Bulk Modulus (GPa) = 22.30529 36.89877 29.60203
# Shear Modulus (GPa) = 12.97926 26.97945 19.97936
#
# Velocity S-wave (km/s) = 2.44343 3.52284 3.03156
# Velocity P-wave (km/s) = 4.26858 5.78968 5.08631
#
# Compressibility (1/GPa) = 0.04483241
#
# Stress axis : x y z
#
# Youngs Moduli (GPa) = 14.89198 36.83635 95.51281
#
# Poissons Ratio (x) = 0.87558 0.85697
# Poissons Ratio (y) = 0.35397 -0.26498
# Poissons Ratio (z) = 0.13362 -0.10219
#
# Static dielectric constant tensor:
#      x y z
#    x 3.853450 0.035620 0.074170 
#    y 0.035620 4.007030 -0.161930 
#    z 0.074170 -0.161930 3.940970 
# 
# 
# High freq. dielectric constant tensor:
#      x y z
#    x 1.832570 0.001350 0.002070 
#    y 0.001350 1.853950 -0.008510 
#    z 0.002070 -0.008510 1.852210 
# 
# From -- ./inp_files/556574.got.cif
#   From: 2010.06.25/outbox.cif.g09.slc.cpg/sg2_279_cif.got.tgz:556574.got - 2010.06.27 13:26:56.
