data_PCOD8044084
_publ_section_title
;
Structure prediction by ZEFSAII (Michael W. Deem and Ramdas Pophale) SiO2 
 PCOD8044084
Probable space group: P -1
;
_chemical_formula_sum "Si O2"
_cell_formula_units_Z 14
_cell_length_a 12.941352
_cell_length_b 16.131236
_cell_length_c 7.374666
_cell_angle_alpha 91.901246
_cell_angle_beta 122.055740
_cell_angle_gamma 39.836509
_cell_volume 605.371218
_symmetry_space_group_name_H-M "P -1"
_symmetry_group_IT_number 2
_symmetry_cell_setting 'triclinic'
loop_
_space_group_symop_operation_xyz
x,y,z
-x,-y,-z
loop_
_atom_site_type_symbol
_atom_site_label
_atom_site_fract_x
_atom_site_fract_y
_atom_site_fract_z
Si Si1 0.304244 0.604007 0.160197
Si Si2 0.097939 0.551544 0.926869
Si Si3 0.814338 0.301280 0.428136
Si Si4 0.347281 0.298253 0.432715
Si Si5 0.263993 0.467110 0.676944
Si Si6 0.045770 0.063706 0.965188
Si Si7 0.879528 0.122009 0.230754
O O1 0.500000 0.500000 0.500000
O O2 0.494401 0.479027 0.153986
O O3 0.126838 0.796831 0.010178
O O4 0.121827 0.633670 0.011992
O O5 0.149717 0.504127 0.761323
O O6 0.805675 0.697404 0.719283
O O7 0.319506 0.365201 0.224398
O O8 0.876137 0.361275 0.488771
O O9 0.916151 0.198063 0.325854
O O10 0.958352 0.174933 0.726319
O O11 0.195224 0.442502 0.456035
O O12 0.651160 0.098794 0.735615
O O13 0.575675 0.284423 0.955162
O O14 0.986822 0.001671 0.839651
O O15 0.000000 0.000000 0.500000
#
# Coordination Sequence:
#
# PCOD8044084 Si02
#       7
#     2   2   2   2   2   2   2
#     4  10  20  37  60  93 124 165 200 251 318 381
#     4  11  23  41  67  88 125 170 214 253 315 379
#     4  10  19  37  63  91 127 165 205 248 321 386
#     4  10  23  43  62  93 122 166 218 265 302 363
#     4  11  21  40  66  90 125 168 208 254 315 378
#     4   9  20  38  60  89 131 161 207 266 306 360
#     4   9  18  34  57  89 127 162 198 255 305 370
#
# _framework density 23.126306
#
# number of rings (size 3 to 8) (size 9 to 14) (size 15 to 20)
#    0.000    2.000    1.429    2.571    0.000    0.571 
#    2.571    6.429    0.000    0.000    0.000    0.000 
#    0.000    0.000    0.000    0.000    0.000    0.000 
#
# Total GULP energy -173576.661332 kJ/mol
# GULP energy per Si atom -12398.332952 kJ/mol
# Density = 2.307367 g / cm^3
# Si number density = 23.126306 Si / 1000 Ang^3
#
#
#
# Elastic Constant Matrix: (Units=GPa)
#
#
# Indices 1 2 3 4 5 6 
#
# 1 116.5418 75.8359 51.0968 -1.7341 -10.9873 12.7199
# 2 75.8359 175.8221 72.2785 2.2359 -15.2257 0.1725
# 3 51.0968 72.2785 110.0944 -11.9754 -3.7726 8.6110
# 4 -1.7341 2.2359 -11.9754 36.4346 2.0776 -5.5793
# 5 -10.9873 -15.2257 -3.7726 2.0776 35.7437 7.7779
# 6 12.7199 0.1725 8.6110 -5.5793 7.7779 46.4250
#
#
#
# Elastic Compliance Matrix: (Units=1/GPa)
#
#
# Indices 1 2 3 4 5 6 
#
# 1 0.013345 -0.004204 -0.003146 -0.000858 0.002820 -0.003633
# 2 -0.004204 0.009622 -0.004640 -0.002232 0.002153 0.001348
# 3 -0.003146 -0.004640 0.014123 0.004724 -0.001528 -0.000916
# 4 -0.000858 -0.002232 0.004724 0.029812 -0.003208 0.003487
# 5 0.002820 0.002153 -0.001528 -0.003208 0.031112 -0.006095
# 6 -0.003633 0.001348 -0.000916 0.003487 -0.006095 0.024141
#
#
# Mechanical properties :
#
#
# Convention : Reuss Voigt Hill
#
# Bulk Modulus (GPa) = 76.28385 88.98675 82.63530
# Shear Modulus (GPa) = 33.22126 37.27046 35.24586
#
# Velocity S-wave (km/s) = 3.79425 4.01883 3.90816
# Velocity P-wave (km/s) = 7.22859 7.75221 7.49497
#
# Compressibility (1/GPa) = 0.01310893
#
# Stress axis : x y z
#
# Youngs Moduli (GPa) = 74.93254 103.92965 70.80714
#
# Poissons Ratio (x) = 0.43692 0.22279
# Poissons Ratio (y) = 0.31502 0.32856
# Poissons Ratio (z) = 0.23577 0.48225
#
# Static dielectric constant tensor:
#      x y z
#    x 4.243730 -0.230800 -0.489140 
#    y -0.230800 5.943840 0.332800 
#    z -0.489140 0.332800 4.515900 
# 
# 
# High freq. dielectric constant tensor:
#      x y z
#    x 1.917460 0.001800 -0.053150 
#    y 0.001800 1.946430 0.011680 
#    z -0.053150 0.011680 1.923750 
# 
# From -- ./inp_files/315493.got.cif
#   From: 2010.06.25/outbox.cif.g09.slc.cpg/sg2_158_cif.got.tgz:315493.got - 2010.06.27 13:26:56.
