data_PCOD8044928
_publ_section_title
;
Structure prediction by ZEFSAII (Michael W. Deem and Ramdas Pophale) SiO2 
 PCOD8044928
Probable space group: P 2
;
_chemical_formula_sum "Si O2"
_cell_formula_units_Z 16
_cell_length_a 8.967479
_cell_length_b 18.518408
_cell_length_c 8.326954
_cell_angle_alpha 90.000000
_cell_angle_beta 33.784647
_cell_angle_gamma 90.000000
_cell_volume 768.939077
_symmetry_space_group_name_H-M "P 2"
_symmetry_group_IT_number 3
_symmetry_cell_setting 'monoclinic'
loop_
_space_group_symop_operation_xyz
x,y,z
-x,y,-z
loop_
_atom_site_type_symbol
_atom_site_label
_atom_site_fract_x
_atom_site_fract_y
_atom_site_fract_z
Si Si1 0.076450 0.541770 0.112141
Si Si2 0.409809 0.998197 0.897858
Si Si3 0.278577 0.773070 0.326767
Si Si4 0.711697 0.133022 0.180636
Si Si5 0.092692 0.919749 0.598587
Si Si6 0.218181 0.403107 0.175785
Si Si7 0.286175 0.296822 0.823835
Si Si8 0.576567 0.635672 0.611124
O O1 0.074025 0.470810 0.221920
O O2 0.865187 0.599144 0.367523
O O3 0.365045 0.578577 0.868219
O O4 0.000000 0.518369 0.000000
O O5 0.316524 0.079821 0.945381
O O6 0.667104 0.973330 0.564209
O O7 0.500000 0.994012 0.000000
O O8 0.169805 0.942110 0.064762
O O9 0.196510 0.837242 0.523678
O O10 0.426430 0.708492 0.284806
O O11 0.000000 0.744805 0.500000
O O12 0.500000 0.802426 0.000000
O O13 0.500000 0.106389 0.500000
O O14 0.648336 0.214778 0.182171
O O15 0.000000 0.127585 0.000000
O O16 0.000000 0.931946 0.500000
O O17 0.000000 0.373073 0.500000
O O18 0.500000 0.427221 0.000000
O O19 0.294976 0.342680 0.977606
O O20 0.500000 0.324830 0.500000
O O21 0.000000 0.303860 0.000000
O O22 0.500000 0.657794 0.500000
#
# Coordination Sequence:
#
# PCOD8044928 Si02
#       8
#     2   2   2   2   2   2   2   2
#     4  10  22  40  60  80 113 159 193 224 286 362
#     4  10  19  34  57  80 109 147 186 229 278 333
#     4  11  21  35  58  82 109 147 189 235 284 339
#     4  10  21  38  59  85 115 148 191 237 280 337
#     4   9  18  33  53  80 109 144 187 225 275 343
#     4  12  25  39  61  94 124 147 192 257 293 327
#     4  10  22  42  64  84 118 166 199 226 288 369
#     4  10  22  39  58  83 113 148 192 237 283 342
#
# _framework density 20.807891000000001
#
# number of rings (size 3 to 8) (size 9 to 14) (size 15 to 20)
#    0.000    1.750    0.000    5.250    0.000    5.000 
#    0.000    3.750    0.000    0.000    0.000    0.000 
#    0.000    0.000    0.000    0.000    0.000    0.000 
#
# Total GULP energy -198369.379185 kJ/mol
# GULP energy per Si atom -12398.086199 kJ/mol
# Density = 2.076053 g / cm^3
# Si number density = 20.807891 Si / 1000 Ang^3
#
#
#
# Elastic Constant Matrix: (Units=GPa)
#
#
# Indices 1 2 3 4 5 6 
#
# 1 58.2434 47.5943 31.0996 0.0000 -4.7775 0.0000
# 2 47.5943 97.0852 13.8538 0.0000 18.3365 0.0000
# 3 31.0996 13.8538 119.3930 0.0000 2.5155 0.0000
# 4 0.0000 0.0000 0.0000 13.5251 0.0000 9.8152
# 5 -4.7775 18.3365 2.5155 0.0000 20.2800 0.0000
# 6 0.0000 0.0000 0.0000 9.8152 0.0000 28.3023
#
#
#
# Elastic Compliance Matrix: (Units=1/GPa)
#
#
# Indices 1 2 3 4 5 6 
#
# 1 0.053639 -0.032997 -0.011067 0.000000 0.043844 0.000000
# 2 -0.032997 0.032896 0.005583 0.000000 -0.038210 0.000000
# 3 -0.011067 0.005583 0.010800 0.000000 -0.008995 0.000000
# 4 0.000000 0.000000 0.000000 0.098803 0.000000 -0.034265
# 5 0.043844 -0.038210 -0.008995 0.000000 0.095302 0.000000
# 6 0.000000 0.000000 0.000000 -0.034265 0.000000 0.047216
#
#
# Mechanical properties :
#
#
# Convention : Reuss Voigt Hill
#
# Bulk Modulus (GPa) = 49.08303 51.09076 50.08689
# Shear Modulus (GPa) = 11.83690 24.56641 18.20165
#
# Velocity S-wave (km/s) = 2.38768 3.43976 2.96082
# Velocity P-wave (km/s) = 5.58938 6.35474 5.98431
#
# Compressibility (1/GPa) = 0.02037364
#
# Stress axis : x y z
#
# Youngs Moduli (GPa) = 18.64324 30.39844 92.59200
#
# Poissons Ratio (x) = 1.00306 1.02470
# Poissons Ratio (y) = 0.61517 -0.51694
# Poissons Ratio (z) = 0.20632 -0.16971
#
# Static dielectric constant tensor:
#      x y z
#    x 3.580980 0.000000 -0.215160 
#    y 0.000000 3.738460 0.000000 
#    z -0.215160 0.000000 4.110970 
# 
# 
# High freq. dielectric constant tensor:
#      x y z
#    x 1.795300 0.000000 -0.023120 
#    y 0.000000 1.816070 0.000000 
#    z -0.023120 0.000000 1.832210 
# 
# From -- ./inp_files/6188.got.cif
#   From: 2010.03.12/outbox.cif.g09.slc.cpg/sg3_4_cif.got.tgz:6188.got - 2010.03.31 09:20:49.
