data_PCOD8044226
_publ_section_title
;
Structure prediction by ZEFSAII (Michael W. Deem and Ramdas Pophale) SiO2 
 PCOD8044226
Probable space group: P -1
;
_chemical_formula_sum "Si O2"
_cell_formula_units_Z 16
_cell_length_a 9.783934
_cell_length_b 12.358735
_cell_length_c 14.004266
_cell_angle_alpha 76.094630
_cell_angle_beta 66.471745
_cell_angle_gamma 133.193438
_cell_volume 724.521763
_symmetry_space_group_name_H-M "P -1"
_symmetry_group_IT_number 2
_symmetry_cell_setting 'triclinic'
loop_
_space_group_symop_operation_xyz
x,y,z
-x,-y,-z
loop_
_atom_site_type_symbol
_atom_site_label
_atom_site_fract_x
_atom_site_fract_y
_atom_site_fract_z
Si Si1 0.560532 0.948160 0.388007
Si Si2 0.910243 0.455204 0.642152
Si Si3 0.245057 0.285319 0.464489
Si Si4 0.669945 0.236859 0.180965
Si Si5 0.164270 0.848664 0.252169
Si Si6 0.286039 0.098362 0.818703
Si Si7 0.931446 0.799264 0.147003
Si Si8 0.211158 0.015022 0.501493
O O1 0.630335 0.892219 0.310120
O O2 0.715489 0.030371 0.430262
O O3 0.186421 0.706734 0.561858
O O4 0.702725 0.151415 0.258436
O O5 0.875358 0.308182 0.725965
O O6 0.586569 0.311521 0.759770
O O7 0.000000 0.500000 0.500000
O O8 0.613099 0.525669 0.306321
O O9 0.152753 0.096068 0.550519
O O10 0.128339 0.292133 0.578224
O O11 0.098183 0.227245 0.416526
O O12 0.483152 0.204131 0.304558
O O13 0.480363 0.079468 0.172269
O O14 0.000000 0.500000 0.000000
O O15 0.178790 0.917492 0.130666
O O16 0.112938 0.098958 0.846520
O O17 0.063384 0.867344 0.988627
#
# Coordination Sequence:
#
# PCOD8044226 Si02
#       8
#     2   2   2   2   2   2   2   2
#     4  11  21  42  65  88 121 164 209 248 305 362
#     4  10  19  37  66  88 116 154 202 260 302 351
#     4  10  21  39  62  88 127 153 211 251 294 368
#     4  11  25  41  60  91 131 157 205 258 298 360
#     4  11  21  40  65  93 118 163 205 252 308 364
#     4  10  23  39  59  93 127 154 197 263 309 359
#     4  11  23  38  62  92 126 159 197 253 319 361
#     4  10  23  39  63  90 117 172 209 238 299 371
#
# _framework density 22.083532999999999
#
# number of rings (size 3 to 8) (size 9 to 14) (size 15 to 20)
#    0.000    1.500    2.500    3.750    3.500    1.500 
#    4.500    0.625    0.000    0.000    0.000    0.000 
#    0.000    0.000    0.000    0.000    0.000    0.000 
#
# Total GULP energy -198333.118717 kJ/mol
# GULP energy per Si atom -12395.819920 kJ/mol
# Density = 2.203327 g / cm^3
# Si number density = 22.083533 Si / 1000 Ang^3
#
#
#
# Elastic Constant Matrix: (Units=GPa)
#
#
# Indices 1 2 3 4 5 6 
#
# 1 127.0943 23.5566 24.2130 -7.9374 23.8360 27.3383
# 2 23.5566 61.6151 24.3229 -3.1674 14.8101 17.3134
# 3 24.2130 24.3229 85.1865 -14.6181 7.3535 11.5835
# 4 -7.9374 -3.1674 -14.6181 26.5779 -1.9428 1.4809
# 5 23.8360 14.8101 7.3535 -1.9428 29.6622 2.0756
# 6 27.3383 17.3134 11.5835 1.4809 2.0756 32.7017
#
#
#
# Elastic Compliance Matrix: (Units=1/GPa)
#
#
# Indices 1 2 3 4 5 6 
#
# 1 0.011783 0.000832 -0.001033 0.002938 -0.008770 -0.009501
# 2 0.000832 0.023202 -0.004429 0.000419 -0.010374 -0.010771
# 3 -0.001033 -0.004429 0.014912 0.007500 0.000005 -0.002413
# 4 0.002938 0.000419 0.007500 0.042998 -0.001109 -0.007212
# 5 -0.008770 -0.010374 0.000005 -0.001109 0.045166 0.010006
# 6 -0.009501 -0.010771 -0.002413 -0.007212 0.010006 0.044771
#
#
# Mechanical properties :
#
#
# Convention : Reuss Voigt Hill
#
# Bulk Modulus (GPa) = 24.60892 46.45343 35.53118
# Shear Modulus (GPa) = 24.31445 31.24193 27.77819
#
# Velocity S-wave (km/s) = 3.32176 3.76535 3.55049
# Velocity P-wave (km/s) = 5.08723 6.32336 5.73867
#
# Compressibility (1/GPa) = 0.04063566
#
# Stress axis : x y z
#
# Youngs Moduli (GPa) = 84.86843 43.10021 67.05988
#
# Poissons Ratio (x) = -0.03586 0.06931
# Poissons Ratio (y) = -0.07062 0.29701
# Poissons Ratio (z) = 0.08771 0.19090
#
# Static dielectric constant tensor:
#      x y z
#    x 4.327480 0.270510 -0.340090 
#    y 0.270510 3.824410 0.031090 
#    z -0.340090 0.031090 4.121430 
# 
# 
# High freq. dielectric constant tensor:
#      x y z
#    x 1.887610 0.003780 -0.004570 
#    y 0.003780 1.857690 0.003010 
#    z -0.004570 0.003010 1.851870 
# 
# From -- ./inp_files/381920.got.cif
#   From: 2010.06.25/outbox.cif.g09.slc.cpg/sg2_191_cif.got.tgz:381920.got - 2010.06.27 13:26:56.
