data_PCOD8044657
_publ_section_title
;
Structure prediction by ZEFSAII (Michael W. Deem and Ramdas Pophale) SiO2 
 PCOD8044657
Probable space group: P -1
;
_chemical_formula_sum "Si O2"
_cell_formula_units_Z 14
_cell_length_a 13.122996
_cell_length_b 8.644552
_cell_length_c 12.263675
_cell_angle_alpha 122.233575
_cell_angle_beta 62.649093
_cell_angle_gamma 149.315211
_cell_volume 600.540959
_symmetry_space_group_name_H-M "P -1"
_symmetry_group_IT_number 2
_symmetry_cell_setting 'triclinic'
loop_
_space_group_symop_operation_xyz
x,y,z
-x,-y,-z
loop_
_atom_site_type_symbol
_atom_site_label
_atom_site_fract_x
_atom_site_fract_y
_atom_site_fract_z
Si Si1 0.599075 0.696398 0.287520
Si Si2 0.932480 0.696338 0.166644
Si Si3 0.342741 0.898938 0.467399
Si Si4 0.409426 0.544396 0.992516
Si Si5 0.267933 0.844742 0.078746
Si Si6 0.221491 0.387268 0.238990
Si Si7 0.536584 0.279622 0.299402
O O1 0.404116 0.528699 0.264271
O O2 0.526886 0.478694 0.342705
O O3 0.744466 0.049343 0.393694
O O4 0.704479 0.697436 0.147512
O O5 0.763944 0.501794 0.268272
O O6 0.097357 0.771732 0.159003
O O7 0.830112 0.478577 0.025552
O O8 0.022107 0.011516 0.214220
O O9 0.185268 0.545626 0.365048
O O10 0.500000 0.000000 0.500000
O O11 0.459693 0.156331 0.411808
O O12 0.263845 0.462259 0.116216
O O13 0.500000 0.500000 0.000000
O O14 0.591025 0.907072 0.997091
O O15 0.397476 0.979861 0.173366
#
# Coordination Sequence:
#
# PCOD8044657 Si02
#       7
#     2   2   2   2   2   2   2
#     4   9  19  38  62  89 124 167 206 249 305 374
#     4  11  21  36  64  96 128 161 206 258 310 369
#     4  10  22  40  67  89 122 173 207 253 322 370
#     4   9  15  33  63  85 122 160 196 250 307 355
#     4  10  21  38  59  94 132 162 207 250 314 372
#     4  10  19  38  64  94 126 163 207 255 309 366
#     4  11  21  40  65  89 121 167 214 251 310 373
#
# _framework density 23.312315999999999
#
# number of rings (size 3 to 8) (size 9 to 14) (size 15 to 20)
#    0.000    2.000    4.286    1.714    0.000    1.143 
#    0.000   10.000    0.000    0.000    0.000    0.000 
#    0.000    0.000    0.000    0.000    0.000    0.000 
#
# Total GULP energy -173460.942004 kJ/mol
# GULP energy per Si atom -12390.067286 kJ/mol
# Density = 2.325926 g / cm^3
# Si number density = 23.312316 Si / 1000 Ang^3
#
#
#
# Elastic Constant Matrix: (Units=GPa)
#
#
# Indices 1 2 3 4 5 6 
#
# 1 47.2297 30.7751 41.1931 1.3077 2.4001 -6.5425
# 2 30.7751 100.9844 80.4809 28.3598 -12.4837 -6.3041
# 3 41.1931 80.4809 133.8857 41.0906 -5.6426 -22.1379
# 4 1.3077 28.3598 41.0906 42.5502 -21.1631 -11.9086
# 5 2.4001 -12.4837 -5.6426 -21.1631 31.5510 -3.1104
# 6 -6.5425 -6.3041 -22.1379 -11.9086 -3.1104 39.7963
#
#
#
# Elastic Compliance Matrix: (Units=1/GPa)
#
#
# Indices 1 2 3 4 5 6 
#
# 1 0.035052 -0.004791 -0.012635 0.018327 0.005857 0.003917
# 2 -0.004791 0.021072 -0.011092 -0.001582 0.005294 -0.003680
# 3 -0.012635 -0.011092 0.024618 -0.022214 -0.013714 0.002141
# 4 0.018327 -0.001582 -0.022214 0.071165 0.043228 0.015079
# 5 0.005857 0.005294 -0.013714 0.043228 0.061058 0.011881
# 6 0.003917 -0.003680 0.002141 0.015079 0.011881 0.031821
#
#
# Mechanical properties :
#
#
# Convention : Reuss Voigt Hill
#
# Bulk Modulus (GPa) = 42.18389 65.22197 53.70293
# Shear Modulus (GPa) = 16.14339 31.42289 23.78314
#
# Velocity S-wave (km/s) = 2.63436 3.67537 3.19752
# Velocity P-wave (km/s) = 5.23331 6.78597 6.05957
#
# Compressibility (1/GPa) = 0.02370573
#
# Stress axis : x y z
#
# Youngs Moduli (GPa) = 28.52869 47.45686 40.62085
#
# Poissons Ratio (x) = 0.22736 0.51324
# Poissons Ratio (y) = 0.13668 0.45058
# Poissons Ratio (z) = 0.36046 0.52641
#
# Static dielectric constant tensor:
#      x y z
#    x 4.152710 -0.260300 -0.179790 
#    y -0.260300 4.319120 0.254460 
#    z -0.179790 0.254460 5.272980 
# 
# 
# High freq. dielectric constant tensor:
#      x y z
#    x 1.923490 -0.023310 -0.007010 
#    y -0.023310 1.903730 0.023520 
#    z -0.007010 0.023520 1.923940 
# 
# From -- ./inp_files/446309.got.cif
#   From: 2010.06.25/outbox.cif.g09.slc.cpg/sg2_224_cif.got.tgz:446309.got - 2010.06.27 13:26:56.
