data_PCOD8044826
_publ_section_title
;
Structure prediction by ZEFSAII (Michael W. Deem and Ramdas Pophale) SiO2 
 PCOD8044826
Probable space group: P -1
;
_chemical_formula_sum "Si O2"
_cell_formula_units_Z 16
_cell_length_a 12.584316
_cell_length_b 12.105411
_cell_length_c 11.763000
_cell_angle_alpha 36.754343
_cell_angle_beta 43.233769
_cell_angle_gamma 48.115099
_cell_volume 718.933225
_symmetry_space_group_name_H-M "P -1"
_symmetry_group_IT_number 2
_symmetry_cell_setting 'triclinic'
loop_
_space_group_symop_operation_xyz
x,y,z
-x,-y,-z
loop_
_atom_site_type_symbol
_atom_site_label
_atom_site_fract_x
_atom_site_fract_y
_atom_site_fract_z
Si Si1 0.050993 0.967062 0.857657
Si Si2 0.294733 0.225731 0.405030
Si Si3 0.774837 0.022954 0.861477
Si Si4 0.530697 0.995174 0.733656
Si Si5 0.197227 0.545420 0.050520
Si Si6 0.557532 0.357894 0.673373
Si Si7 0.482428 0.361624 0.341156
Si Si8 0.749908 0.756441 0.920149
O O1 0.202333 0.057904 0.640882
O O2 0.913316 0.066139 0.797645
O O3 0.076534 0.742862 0.997725
O O4 0.000000 0.000000 0.000000
O O5 0.454657 0.136683 0.282506
O O6 0.349353 0.300498 0.418612
O O7 0.183483 0.402586 0.282182
O O8 0.715121 0.191903 0.676173
O O9 0.843899 0.836769 0.882853
O O10 0.629404 0.003964 0.073447
O O11 0.696678 0.914182 0.734976
O O12 0.544340 0.204650 0.517168
O O13 0.373358 0.587631 0.883944
O O14 0.164138 0.442277 0.041597
O O15 0.500000 0.500000 0.500000
O O16 0.598816 0.455614 0.676133
O O17 0.412797 0.257002 0.882800
#
# Coordination Sequence:
#
# PCOD8044826 Si02
#       8
#     2   2   2   2   2   2   2   2
#     4  12  28  45  65  95 141 179 215 268 334 402
#     4  11  24  43  67  95 134 175 222 275 321 397
#     4  11  23  41  65 100 135 174 216 272 334 386
#     4  10  19  38  69  95 126 166 221 275 324 378
#     4  10  24  43  66  96 132 173 224 273 326 396
#     4  10  20  36  63 101 128 164 223 279 325 382
#     4  11  20  36  70  95 127 174 222 274 328 382
#     4   9  20  40  66  94 128 167 222 279 317 387
#
# _framework density 22.255195000000001
#
# number of rings (size 3 to 8) (size 9 to 14) (size 15 to 20)
#    0.000    1.500    1.250    5.250    3.500    1.000 
#    4.500    2.500    0.000    0.000    0.000    0.000 
#    0.000    0.000    0.000    0.000    0.000    0.000 
#
# Total GULP energy -198235.953442 kJ/mol
# GULP energy per Si atom -12389.747090 kJ/mol
# Density = 2.220454 g / cm^3
# Si number density = 22.255195 Si / 1000 Ang^3
#
#
#
# Elastic Constant Matrix: (Units=GPa)
#
#
# Indices 1 2 3 4 5 6 
#
# 1 103.7198 44.9313 25.4343 -2.3605 1.6775 24.0671
# 2 44.9313 105.4528 24.3932 -6.2266 -4.2802 4.3970
# 3 25.4343 24.3932 85.5806 -10.7404 15.9895 0.1571
# 4 -2.3605 -6.2266 -10.7404 27.6046 -1.6161 5.7934
# 5 1.6775 -4.2802 15.9895 -1.6161 24.5568 -15.0362
# 6 24.0671 4.3970 0.1571 5.7934 -15.0362 27.3173
#
#
#
# Elastic Compliance Matrix: (Units=1/GPa)
#
#
# Indices 1 2 3 4 5 6 
#
# 1 0.020080 -0.008101 0.000904 0.005088 -0.020718 -0.028875
# 2 -0.008101 0.013856 -0.004162 -0.001020 0.013218 0.012423
# 3 0.000904 -0.004162 0.017049 0.007213 -0.018836 -0.012122
# 4 0.005088 -0.001020 0.007213 0.042980 -0.016056 -0.022313
# 5 -0.020718 0.013218 -0.018836 -0.016056 0.102076 0.075824
# 6 -0.028875 0.012423 -0.012122 -0.022313 0.075824 0.106585
#
#
# Mechanical properties :
#
#
# Convention : Reuss Voigt Hill
#
# Bulk Modulus (GPa) = 35.37807 53.80788 44.59297
# Shear Modulus (GPa) = 14.93571 29.22870 22.08221
#
# Velocity S-wave (km/s) = 2.59339 3.62794 3.15338
# Velocity P-wave (km/s) = 4.98985 6.46370 5.77400
#
# Compressibility (1/GPa) = 0.02826610
#
# Stress axis : x y z
#
# Youngs Moduli (GPa) = 49.80021 72.17226 58.65308
#
# Poissons Ratio (x) = 0.58469 -0.05301
# Poissons Ratio (y) = 0.40345 0.24412
# Poissons Ratio (z) = -0.04501 0.30039
#
# Static dielectric constant tensor:
#      x y z
#    x 2.920150 0.329310 -0.524530 
#    y 0.329310 4.219810 -0.187340 
#    z -0.524530 -0.187340 3.293950 
# 
# 
# High freq. dielectric constant tensor:
#      x y z
#    x 1.859880 0.025300 0.021030 
#    y 0.025300 1.883960 -0.022020 
#    z 0.021030 -0.022020 1.870670 
# 
# From -- ./inp_files/427353.got.cif
#   From: 2010.06.25/outbox.cif.g09.slc.cpg/sg2_214_cif.got.tgz:427353.got - 2010.06.27 13:26:56.
