data_PCOD8044651
_publ_section_title
;
Structure prediction by ZEFSAII (Michael W. Deem and Ramdas Pophale) SiO2 
 PCOD8044651
Probable space group: P -1
;
_chemical_formula_sum "Si O2"
_cell_formula_units_Z 16
_cell_length_a 8.809010
_cell_length_b 14.973322
_cell_length_c 5.926923
_cell_angle_alpha 88.168926
_cell_angle_beta 71.345737
_cell_angle_gamma 76.189792
_cell_volume 718.442760
_symmetry_space_group_name_H-M "P -1"
_symmetry_group_IT_number 2
_symmetry_cell_setting 'triclinic'
loop_
_space_group_symop_operation_xyz
x,y,z
-x,-y,-z
loop_
_atom_site_type_symbol
_atom_site_label
_atom_site_fract_x
_atom_site_fract_y
_atom_site_fract_z
Si Si1 0.100484 0.570436 0.531370
Si Si2 0.171309 0.292843 0.105275
Si Si3 0.632927 0.362318 0.814667
Si Si4 0.877613 0.048473 0.743368
Si Si5 0.708995 0.185419 0.493470
Si Si6 0.967642 0.869453 0.952201
Si Si7 0.466074 0.285299 0.277848
Si Si8 0.309568 0.422622 0.723412
O O1 0.216867 0.587092 0.266114
O O2 0.213169 0.525687 0.694329
O O3 0.000000 0.500000 0.500000
O O4 0.978569 0.665958 0.657070
O O5 0.137631 0.207114 0.987654
O O6 0.341892 0.255369 0.163524
O O7 0.188413 0.371548 0.915859
O O8 0.678937 0.285121 0.607904
O O9 0.460999 0.431647 0.811847
O O10 0.609548 0.320809 0.073439
O O11 0.711253 0.108302 0.694305
O O12 0.846051 0.968640 0.931248
O O13 0.000000 0.000000 0.500000
O O14 0.960051 0.120020 0.835287
O O15 0.558157 0.194642 0.385653
O O16 0.884745 0.159824 0.292146
O O17 0.365704 0.367560 0.471352
#
# Coordination Sequence:
#
# PCOD8044651 Si02
#       8
#     2   2   2   2   2   2   2   2
#     4  12  23  41  62  94 126 166 220 273 314 363
#     4  11  23  42  63  94 132 167 211 266 325 373
#     4  10  22  40  63  87 126 172 217 258 316 383
#     4   9  20  36  63  98 129 158 208 262 314 385
#     4  10  19  38  64  93 124 167 213 255 316 382
#     4  10  20  38  66  97 127 163 209 263 319 377
#     4  10  22  41  61  91 128 177 210 259 316 384
#     4  10  23  41  59  86 131 172 213 265 315 378
#
# _framework density 22.270389999999999
#
# number of rings (size 3 to 8) (size 9 to 14) (size 15 to 20)
#    0.000    1.750    2.500    1.500    0.000    4.500 
#    4.500    0.625    0.000   19.500    0.000    0.000 
#    0.000    0.000    0.000    0.000    0.000    0.000 
#
# Total GULP energy -198366.791905 kJ/mol
# GULP energy per Si atom -12397.924494 kJ/mol
# Density = 2.221970 g / cm^3
# Si number density = 22.270390 Si / 1000 Ang^3
#
#
#
# Elastic Constant Matrix: (Units=GPa)
#
#
# Indices 1 2 3 4 5 6 
#
# 1 99.1938 59.8521 39.4856 -14.8633 -0.6547 -11.4014
# 2 59.8521 85.4530 13.1690 -16.0822 8.1870 -13.3563
# 3 39.4856 13.1690 83.3958 -12.7875 3.5355 -2.2356
# 4 -14.8633 -16.0822 -12.7875 24.8323 -1.5468 12.5283
# 5 -0.6547 8.1870 3.5355 -1.5468 35.4980 -10.4036
# 6 -11.4014 -13.3563 -2.2356 12.5283 -10.4036 43.8795
#
#
#
# Elastic Compliance Matrix: (Units=1/GPa)
#
#
# Indices 1 2 3 4 5 6 
#
# 1 0.022711 -0.014965 -0.008800 -0.001630 0.005454 0.002656
# 2 -0.014965 0.023566 0.004932 0.008646 -0.005924 -0.000337
# 3 -0.008800 0.004932 0.016641 0.007787 -0.003494 -0.002989
# 4 -0.001630 0.008646 0.007787 0.055906 -0.004598 -0.014447
# 5 0.005454 -0.005924 -0.003494 -0.004598 0.032245 0.008394
# 6 0.002656 -0.000337 -0.002989 -0.014447 0.008394 0.029340
#
#
# Mechanical properties :
#
#
# Convention : Reuss Voigt Hill
#
# Bulk Modulus (GPa) = 39.60109 54.78398 47.19254
# Shear Modulus (GPa) = 22.07591 31.21102 26.64346
#
# Velocity S-wave (km/s) = 3.15186 3.74767 3.46260
# Velocity P-wave (km/s) = 5.57370 6.58632 6.10105
#
# Compressibility (1/GPa) = 0.02525183
#
# Stress axis : x y z
#
# Youngs Moduli (GPa) = 44.03183 42.43428 60.09386
#
# Poissons Ratio (x) = 0.63503 0.52882
# Poissons Ratio (y) = 0.65893 -0.29638
# Poissons Ratio (z) = 0.38747 -0.20929
#
# Static dielectric constant tensor:
#      x y z
#    x 4.158280 -0.447400 0.137690 
#    y -0.447400 4.282480 -0.151130 
#    z 0.137690 -0.151130 4.141350 
# 
# 
# High freq. dielectric constant tensor:
#      x y z
#    x 1.863930 -0.023170 0.012040 
#    y -0.023170 1.866700 0.001700 
#    z 0.012040 0.001700 1.882200 
# 
# From -- ./inp_files/38468.got.cif
#   From: 2010.06.25/outbox.cif.g09.slc.cpg/sg2_20_cif.got.tgz:38468.got - 2010.06.27 13:26:56.
