data_PCOD8044627
_publ_section_title
;
Structure prediction by ZEFSAII (Michael W. Deem and Ramdas Pophale) SiO2 
 PCOD8044627
Probable space group: P -1
;
_chemical_formula_sum "Si O2"
_cell_formula_units_Z 16
_cell_length_a 8.755462
_cell_length_b 25.925073
_cell_length_c 6.046695
_cell_angle_alpha 121.620527
_cell_angle_beta 128.914234
_cell_angle_gamma 42.428806
_cell_volume 715.685362
_symmetry_space_group_name_H-M "P -1"
_symmetry_group_IT_number 2
_symmetry_cell_setting 'triclinic'
loop_
_space_group_symop_operation_xyz
x,y,z
-x,-y,-z
loop_
_atom_site_type_symbol
_atom_site_label
_atom_site_fract_x
_atom_site_fract_y
_atom_site_fract_z
Si Si1 0.310712 0.170592 0.272797
Si Si2 0.018258 0.815521 0.341835
Si Si3 0.859322 0.584248 0.812417
Si Si4 0.339522 0.855756 0.848453
Si Si5 0.521002 0.335300 0.732497
Si Si6 0.623749 0.730950 0.188735
Si Si7 0.622772 0.534507 0.809611
Si Si8 0.529530 0.924398 0.403155
O O1 0.462399 0.177134 0.239704
O O2 0.222388 0.240802 0.514030
O O3 0.479680 0.088922 0.374709
O O4 0.080998 0.176928 0.979619
O O5 0.090265 0.873074 0.560201
O O6 0.252963 0.723436 0.367266
O O7 0.795198 0.846549 0.382559
O O8 0.740437 0.610359 0.517985
O O9 0.735713 0.551227 0.749270
O O10 0.821278 0.652911 0.066692
O O11 0.159270 0.522984 0.944339
O O12 0.416960 0.793938 0.970999
O O13 0.307465 0.929362 0.088958
O O14 0.511805 0.280285 0.765739
O O15 0.565501 0.388388 0.037708
O O16 0.500000 0.500000 0.500000
O O17 0.500000 0.000000 0.500000
#
# Coordination Sequence:
#
# PCOD8044627 Si02
#       8
#     2   2   2   2   2   2   2   2
#     4  10  22  39  64  92 127 163 207 268 312 371
#     4  11  23  38  65  98 121 163 217 259 317 379
#     4  10  21  41  59  86 129 162 210 261 314 370
#     4  10  21  42  64  95 126 162 214 259 315 380
#     4  11  22  40  65  92 128 164 210 269 316 370
#     4  10  19  38  64  89 127 162 205 264 317 365
#     4  10  24  41  60  90 123 174 213 252 314 380
#     4  10  25  44  63  93 133 169 208 260 317 381
#
# _framework density 22.356195
#
# number of rings (size 3 to 8) (size 9 to 14) (size 15 to 20)
#    0.000    1.750    2.500    0.375    3.500    3.000 
#    6.750    1.250    0.000    0.000    0.000    0.000 
#    0.000    0.000    0.000    0.000    0.000    0.000 
#
# Total GULP energy -198218.220264 kJ/mol
# GULP energy per Si atom -12388.638766 kJ/mol
# Density = 2.230531 g / cm^3
# Si number density = 22.356195 Si / 1000 Ang^3
#
#
#
# Elastic Constant Matrix: (Units=GPa)
#
#
# Indices 1 2 3 4 5 6 
#
# 1 58.0102 26.4094 39.4991 -2.6984 -1.2963 12.3591
# 2 26.4094 75.9262 44.0297 6.4865 -5.6616 25.6759
# 3 39.4991 44.0297 177.8093 9.8665 21.5977 23.6301
# 4 -2.6984 6.4865 9.8665 27.3171 6.6723 3.5233
# 5 -1.2963 -5.6616 21.5977 6.6723 33.6601 1.9704
# 6 12.3591 25.6759 23.6301 3.5233 1.9704 33.7137
#
#
#
# Elastic Compliance Matrix: (Units=1/GPa)
#
#
# Indices 1 2 3 4 5 6 
#
# 1 0.023100 -0.005210 -0.004020 0.004834 0.001768 -0.002291
# 2 -0.005210 0.022059 -0.003260 -0.004735 0.007274 -0.012536
# 3 -0.004020 -0.003260 0.008261 -0.001031 -0.005718 -0.001392
# 4 0.004834 -0.004735 -0.001031 0.040679 -0.007941 -0.001231
# 5 0.001768 0.007274 -0.005718 -0.007941 0.036447 -0.003480
# 6 -0.002291 -0.012536 -0.001392 -0.001231 -0.003480 0.041356
#
#
# Mechanical properties :
#
#
# Convention : Reuss Voigt Hill
#
# Bulk Modulus (GPa) = 35.16106 59.06912 47.11509
# Shear Modulus (GPa) = 24.22924 32.39204 28.31064
#
# Velocity S-wave (km/s) = 3.29566 3.81058 3.56243
# Velocity P-wave (km/s) = 5.49942 6.77051 6.16780
#
# Compressibility (1/GPa) = 0.02844055
#
# Stress axis : x y z
#
# Youngs Moduli (GPa) = 43.29015 45.33236 121.05201
#
# Poissons Ratio (x) = 0.23618 0.48662
# Poissons Ratio (y) = 0.22554 0.39462
# Poissons Ratio (z) = 0.17402 0.14778
#
# Static dielectric constant tensor:
#      x y z
#    x 3.798320 0.138110 -0.032560 
#    y 0.138110 3.893560 0.134830 
#    z -0.032560 0.134830 4.582480 
# 
# 
# High freq. dielectric constant tensor:
#      x y z
#    x 1.855010 0.015370 -0.006390 
#    y 0.015370 1.863730 0.015220 
#    z -0.006390 0.015220 1.909090 
# 
# From -- ./inp_files/55665.got.cif
#   From: 2010.06.25/outbox.cif.g09.slc.cpg/sg2_28_cif.got.tgz:55665.got - 2010.06.27 13:26:56.
