data_PCOD8044533
_publ_section_title
;
Structure prediction by ZEFSAII (Michael W. Deem and Ramdas Pophale) SiO2 
 PCOD8044533
Probable space group: P -1
;
_chemical_formula_sum "Si O2"
_cell_formula_units_Z 16
_cell_length_a 16.071322
_cell_length_b 10.741844
_cell_length_c 8.020490
_cell_angle_alpha 91.261816
_cell_angle_beta 79.890202
_cell_angle_gamma 144.981638
_cell_volume 763.836084
_symmetry_space_group_name_H-M "P -1"
_symmetry_group_IT_number 2
_symmetry_cell_setting 'triclinic'
loop_
_space_group_symop_operation_xyz
x,y,z
-x,-y,-z
loop_
_atom_site_type_symbol
_atom_site_label
_atom_site_fract_x
_atom_site_fract_y
_atom_site_fract_z
Si Si1 0.484185 0.501697 0.814568
Si Si2 0.219862 0.362968 0.861314
Si Si3 0.271809 0.033706 0.885183
Si Si4 0.756826 0.986376 0.719487
Si Si5 0.686409 0.358621 0.435400
Si Si6 0.335420 0.956337 0.551844
Si Si7 0.967867 0.089941 0.176557
Si Si8 0.028652 0.181500 0.509871
O O1 0.378730 0.490940 0.823921
O O2 0.647249 0.738443 0.691927
O O3 0.411976 0.285623 0.765400
O O4 0.500000 0.500000 0.000000
O O5 0.252816 0.535417 0.767994
O O6 0.104078 0.136992 0.785144
O O7 0.141545 0.289442 0.063973
O O8 0.124875 0.942203 0.925132
O O9 0.261678 0.907390 0.754636
O O10 0.286372 0.014940 0.077230
O O11 0.736575 0.067629 0.588123
O O12 0.924264 0.131371 0.675005
O O13 0.514801 0.194695 0.510467
O O14 0.794685 0.570753 0.525432
O O15 0.705293 0.237128 0.462473
O O16 0.971566 0.165779 0.351894
O O17 0.000000 0.000000 0.500000
#
# Coordination Sequence:
#
# PCOD8044533 Si02
#       8
#     2   2   2   2   2   2   2   2
#     4   9  20  33  64  95 124 165 211 272 322 382
#     4  10  19  38  62  91 133 166 208 270 331 381
#     4  10  22  41  65  96 129 171 215 269 324 387
#     4  11  23  43  67  97 132 168 221 270 320 389
#     4  11  25  45  64  94 132 174 219 273 312 390
#     4  11  25  47  67  91 133 179 225 258 318 388
#     4  10  21  37  63  98 129 165 210 270 338 386
#     4  12  25  39  66  99 133 168 213 274 335 382
#
# _framework density 20.946902999999999
#
# number of rings (size 3 to 8) (size 9 to 14) (size 15 to 20)
#    0.000    1.500    3.750    0.750    7.000    2.000 
#    2.250    2.500    0.000    0.000    0.000    0.000 
#    0.000    0.000    0.000    0.000    0.000    0.000 
#
# Total GULP energy -198227.088376 kJ/mol
# GULP energy per Si atom -12389.193024 kJ/mol
# Density = 2.089923 g / cm^3
# Si number density = 20.946903 Si / 1000 Ang^3
#
#
#
# Elastic Constant Matrix: (Units=GPa)
#
#
# Indices 1 2 3 4 5 6 
#
# 1 82.3091 42.8669 30.1491 -4.7856 9.3184 -10.2645
# 2 42.8669 90.8665 32.2170 -6.9818 4.8292 4.2942
# 3 30.1491 32.2170 104.3662 3.8505 7.2048 -9.7766
# 4 -4.7856 -6.9818 3.8505 28.8944 0.3033 0.6896
# 5 9.3184 4.8292 7.2048 0.3033 33.2981 -2.0005
# 6 -10.2645 4.2942 -9.7766 0.6896 -2.0005 27.1739
#
#
#
# Elastic Compliance Matrix: (Units=1/GPa)
#
#
# Indices 1 2 3 4 5 6 
#
# 1 0.018402 -0.008063 -0.001977 0.001223 -0.003128 0.007253
# 2 -0.008063 0.016671 -0.003612 0.003341 0.000166 -0.007052
# 3 -0.001977 -0.003612 0.011838 -0.002862 -0.001214 0.004066
# 4 0.001223 0.003341 -0.002862 0.036056 -0.000660 -0.002059
# 5 -0.003128 0.000166 -0.001214 -0.000660 0.031192 0.000668
# 6 0.007253 -0.007052 0.004066 -0.002059 0.000668 0.042219
#
#
# Mechanical properties :
#
#
# Convention : Reuss Voigt Hill
#
# Bulk Modulus (GPa) = 51.00207 54.22308 52.61257
# Shear Modulus (GPa) = 26.28563 29.36054 27.82308
#
# Velocity S-wave (km/s) = 3.54626 3.74794 3.64849
# Velocity P-wave (km/s) = 6.41631 6.68368 6.55136
#
# Compressibility (1/GPa) = 0.01960705
#
# Stress axis : x y z
#
# Youngs Moduli (GPa) = 54.34056 59.98479 84.47307
#
# Poissons Ratio (x) = 0.48367 0.16698
# Poissons Ratio (y) = 0.43816 0.30514
# Poissons Ratio (z) = 0.10742 0.21668
#
# Static dielectric constant tensor:
#      x y z
#    x 3.664050 -0.062070 0.214960 
#    y -0.062070 6.219770 -0.667080 
#    z 0.214960 -0.667080 3.869690 
# 
# 
# High freq. dielectric constant tensor:
#      x y z
#    x 1.822800 0.019580 0.012710 
#    y 0.019580 1.804390 -0.006810 
#    z 0.012710 -0.006810 1.818390 
# 
# From -- ./inp_files/298538.got.cif
#   From: 2010.06.25/outbox.cif.g09.slc.cpg/sg2_150_cif.got.tgz:298538.got - 2010.06.27 13:26:56.
