data_PCOD8044227
_publ_section_title
;
Structure prediction by ZEFSAII (Michael W. Deem and Ramdas Pophale) SiO2 
 PCOD8044227
Probable space group: P -1
;
_chemical_formula_sum "Si O2"
_cell_formula_units_Z 16
_cell_length_a 9.128006
_cell_length_b 8.471335
_cell_length_c 11.761388
_cell_angle_alpha 91.794883
_cell_angle_beta 94.332408
_cell_angle_gamma 56.139629
_cell_volume 752.996735
_symmetry_space_group_name_H-M "P -1"
_symmetry_group_IT_number 2
_symmetry_cell_setting 'triclinic'
loop_
_space_group_symop_operation_xyz
x,y,z
-x,-y,-z
loop_
_atom_site_type_symbol
_atom_site_label
_atom_site_fract_x
_atom_site_fract_y
_atom_site_fract_z
Si Si1 0.811948 0.194677 0.483975
Si Si2 0.691688 0.452411 0.025103
Si Si3 0.475007 0.859737 0.423042
Si Si4 0.107003 0.809680 0.755960
Si Si5 0.000902 0.865523 0.090819
Si Si6 0.813428 0.546879 0.530963
Si Si7 0.236575 0.186268 0.268160
Si Si8 0.812282 0.696325 0.988039
O O1 0.659141 0.180484 0.526583
O O2 0.771136 0.244651 0.348888
O O3 0.821405 0.356213 0.553114
O O4 0.000000 0.000000 0.500000
O O5 0.774810 0.331088 0.140352
O O6 0.500000 0.500000 0.000000
O O7 0.676871 0.653062 0.036960
O O8 0.811982 0.337531 0.918307
O O9 0.668515 0.663037 0.423887
O O10 0.500000 0.000000 0.500000
O O11 0.393514 0.965823 0.299968
O O12 0.950600 0.783097 0.717610
O O13 0.023738 0.032005 0.787872
O O14 0.833616 0.847341 0.061862
O O15 0.000000 0.000000 0.000000
O O16 0.752038 0.667885 0.646447
O O17 0.000000 0.500000 0.500000
O O18 0.254970 0.226926 0.140581
O O19 0.000000 0.500000 0.000000
#
# Coordination Sequence:
#
# PCOD8044227 Si02
#       8
#     2   2   2   2   2   2   2   2
#     4  12  23  41  66  96 129 166 210 266 319 383
#     4  10  22  40  60  93 128 156 213 268 304 372
#     4  10  23  43  63  95 129 164 216 267 313 383
#     4  11  21  41  63  88 127 167 207 254 322 372
#     4   9  18  37  63  84 118 163 206 249 312 375
#     4  11  23  42  66  94 128 169 212 263 321 379
#     4  11  20  41  67  90 127 168 213 264 316 377
#     4  10  19  37  66  88 119 165 207 253 314 375
#
# _framework density 21.248432000000001
#
# number of rings (size 3 to 8) (size 9 to 14) (size 15 to 20)
#    0.000    1.500    6.250    1.125    0.000    4.000 
#    2.250    2.500    2.750    0.000    0.000    0.000 
#    0.000    0.000    0.000    0.000    0.000    0.000 
#
# Total GULP energy -198303.147629 kJ/mol
# GULP energy per Si atom -12393.946727 kJ/mol
# Density = 2.120007 g / cm^3
# Si number density = 21.248432 Si / 1000 Ang^3
#
#
#
# Elastic Constant Matrix: (Units=GPa)
#
#
# Indices 1 2 3 4 5 6 
#
# 1 166.9772 67.7295 31.0630 -10.6737 7.7496 16.3081
# 2 67.7295 115.3803 39.0821 -11.9335 11.3283 13.0257
# 3 31.0630 39.0821 90.9929 -12.0120 8.0685 3.0256
# 4 -10.6737 -11.9335 -12.0120 41.4064 1.6904 13.4784
# 5 7.7496 11.3283 8.0685 1.6904 26.9413 -3.2203
# 6 16.3081 13.0257 3.0256 13.4784 -3.2203 49.6770
#
#
#
# Elastic Compliance Matrix: (Units=1/GPa)
#
#
# Indices 1 2 3 4 5 6 
#
# 1 0.008085 -0.004074 -0.000699 0.001376 -0.000724 -0.001964
# 2 -0.004074 0.013250 -0.003476 0.002883 -0.003893 -0.002960
# 3 -0.000699 -0.003476 0.013374 0.003020 -0.002611 -0.000662
# 4 0.001376 0.002883 0.003020 0.029625 -0.005541 -0.009788
# 5 -0.000724 -0.003893 -0.002611 -0.005541 0.040758 0.005563
# 6 -0.001964 -0.002960 -0.000662 -0.009788 0.005563 0.024607
#
#
# Mechanical properties :
#
#
# Convention : Reuss Voigt Hill
#
# Bulk Modulus (GPa) = 54.91339 72.12218 63.51778
# Shear Modulus (GPa) = 32.83694 39.30332 36.07013
#
# Velocity S-wave (km/s) = 3.93540 4.30548 4.12459
# Velocity P-wave (km/s) = 6.82271 7.66370 7.25540
#
# Compressibility (1/GPa) = 0.01821049
#
# Stress axis : x y z
#
# Youngs Moduli (GPa) = 123.69042 75.46911 74.77324
#
# Poissons Ratio (x) = 0.30746 0.05227
# Poissons Ratio (y) = 0.50391 0.25993
# Poissons Ratio (z) = 0.08646 0.26235
#
# Static dielectric constant tensor:
#      x y z
#    x 4.146480 0.187420 0.194860 
#    y 0.187420 4.151640 0.103080 
#    z 0.194860 0.103080 4.028000 
# 
# 
# High freq. dielectric constant tensor:
#      x y z
#    x 1.838270 0.020980 0.015620 
#    y 0.020980 1.841400 -0.012780 
#    z 0.015620 -0.012780 1.813310 
# 
# From -- ./inp_files/224213.got.cif
#   From: 2010.06.25/outbox.cif.g09.slc.cpg/sg2_113_cif.got.tgz:224213.got - 2010.06.27 13:26:56.
