data_PCOD8044284
_publ_section_title
;
Structure prediction by ZEFSAII (Michael W. Deem and Ramdas Pophale) SiO2 
 PCOD8044284
Probable space group: P -1
;
_chemical_formula_sum "Si O2"
_cell_formula_units_Z 16
_cell_length_a 5.390975
_cell_length_b 17.830309
_cell_length_c 20.400572
_cell_angle_alpha 159.739986
_cell_angle_beta 96.703375
_cell_angle_gamma 84.894255
_cell_volume 673.200120
_symmetry_space_group_name_H-M "P -1"
_symmetry_group_IT_number 2
_symmetry_cell_setting 'triclinic'
loop_
_space_group_symop_operation_xyz
x,y,z
-x,-y,-z
loop_
_atom_site_type_symbol
_atom_site_label
_atom_site_fract_x
_atom_site_fract_y
_atom_site_fract_z
Si Si1 0.808595 0.124402 0.747092
Si Si2 0.001226 0.757383 0.778649
Si Si3 0.239549 0.861740 0.383025
Si Si4 0.542848 0.307205 0.626775
Si Si5 0.842162 0.846143 0.701673
Si Si6 0.500201 0.472836 0.401377
Si Si7 0.376596 0.761612 0.029394
Si Si8 0.793268 0.099410 0.353281
O O1 0.804897 0.257113 0.786953
O O2 0.704717 0.266377 0.919764
O O3 0.649719 0.898677 0.545474
O O4 0.083347 0.054404 0.715072
O O5 0.955114 0.751359 0.693652
O O6 0.777426 0.628579 0.707558
O O7 0.273123 0.673426 0.734219
O O8 0.000000 0.000000 0.000000
O O9 0.264102 0.691909 0.304375
O O10 0.500000 0.000000 0.500000
O O11 0.000000 0.000000 0.500000
O O12 0.680545 0.295283 0.551408
O O13 0.404683 0.531180 0.807945
O O14 0.568504 0.715340 0.572539
O O15 0.016592 0.780723 0.593464
O O16 0.823878 0.107311 0.912167
O O17 0.500000 0.500000 0.500000
O O18 0.617052 0.925781 0.166191
#
# Coordination Sequence:
#
# PCOD8044284 Si02
#       8
#     2   2   2   2   2   2   2   2
#     4   9  20  40  61  88 131 168 220 275 331 377
#     4  11  24  45  70 101 130 158 219 278 313 385
#     4  10  19  37  68  92 127 174 223 272 333 384
#     4  10  21  40  64  91 128 172 221 271 328 383
#     4  10  23  42  62  89 129 174 210 257 334 389
#     4  10  22  43  72  91 129 171 208 258 330 382
#     4  10  23  40  60  94 132 168 223 270 317 402
#     4  10  21  40  61  87 132 169 216 266 325 388
#
# _framework density 23.767075999999999
#
# number of rings (size 3 to 8) (size 9 to 14) (size 15 to 20)
#    0.000    2.000    1.250    1.875    5.250    2.500 
#    9.000    0.625    0.000    0.000    0.000    0.000 
#    0.000    0.000    0.000    0.000    0.000    0.000 
#
# Total GULP energy -198219.946914 kJ/mol
# GULP energy per Si atom -12388.746682 kJ/mol
# Density = 2.371298 g / cm^3
# Si number density = 23.767076 Si / 1000 Ang^3
#
#
#
# Elastic Constant Matrix: (Units=GPa)
#
#
# Indices 1 2 3 4 5 6 
#
# 1 111.0752 5.9865 26.3356 -2.9908 -20.3837 11.0074
# 2 5.9865 72.4218 5.5023 0.5464 -6.6678 5.2713
# 3 26.3356 5.5023 113.7736 -0.3177 -29.0875 9.7987
# 4 -2.9908 0.5464 -0.3177 24.1057 -4.2803 -7.5875
# 5 -20.3837 -6.6678 -29.0875 -4.2803 31.6541 2.6222
# 6 11.0074 5.2713 9.7987 -7.5875 2.6222 33.8744
#
#
#
# Elastic Compliance Matrix: (Units=1/GPa)
#
#
# Indices 1 2 3 4 5 6 
#
# 1 0.010793 0.000045 -0.000362 0.001454 0.007125 -0.003635
# 2 0.000045 0.014309 0.000462 -0.000543 0.003624 -0.002777
# 3 -0.000362 0.000462 0.012149 0.000831 0.011486 -0.004172
# 4 0.001454 -0.000543 0.000831 0.045795 0.007026 0.009085
# 5 0.007125 0.003624 0.011486 0.007026 0.049147 -0.008432
# 6 -0.003635 -0.002777 -0.004172 0.009085 -0.008432 0.035029
#
#
# Mechanical properties :
#
#
# Convention : Reuss Voigt Hill
#
# Bulk Modulus (GPa) = 26.63738 41.43549 34.03644
# Shear Modulus (GPa) = 27.86363 35.22323 31.54343
#
# Velocity S-wave (km/s) = 3.42769 3.85388 3.64701
# Velocity P-wave (km/s) = 5.18628 6.10532 5.66447
#
# Compressibility (1/GPa) = 0.03754122
#
# Stress axis : x y z
#
# Youngs Moduli (GPa) = 92.65063 69.88562 82.31155
#
# Poissons Ratio (x) = -0.00314 0.02977
# Poissons Ratio (y) = -0.00416 -0.03801
# Poissons Ratio (z) = 0.03351 -0.03227
#
# Static dielectric constant tensor:
#      x y z
#    x 4.889750 -0.161590 0.048510 
#    y -0.161590 5.602820 0.030440 
#    z 0.048510 0.030440 3.948090 
# 
# 
# High freq. dielectric constant tensor:
#      x y z
#    x 1.953770 -0.000470 -0.012310 
#    y -0.000470 1.953610 -0.001490 
#    z -0.012310 -0.001490 1.910290 
# 
# From -- ./inp_files/55396.got.cif
#   From: 2010.06.25/outbox.cif.g09.slc.cpg/sg2_28_cif.got.tgz:55396.got - 2010.06.27 13:26:56.
