data_PCOD8044146
_publ_section_title
;
Structure prediction by ZEFSAII (Michael W. Deem and Ramdas Pophale) SiO2 
 PCOD8044146
Probable space group: P -1
;
_chemical_formula_sum "Si O2"
_cell_formula_units_Z 12
_cell_length_a 24.303946
_cell_length_b 26.963146
_cell_length_c 6.822537
_cell_angle_alpha 48.332057
_cell_angle_beta 46.594951
_cell_angle_gamma 9.672381
_cell_volume 542.835155
_symmetry_space_group_name_H-M "P -1"
_symmetry_group_IT_number 2
_symmetry_cell_setting 'triclinic'
loop_
_space_group_symop_operation_xyz
x,y,z
-x,-y,-z
loop_
_atom_site_type_symbol
_atom_site_label
_atom_site_fract_x
_atom_site_fract_y
_atom_site_fract_z
Si Si1 0.776940 0.552972 0.680631
Si Si2 0.602083 0.341921 0.587966
Si Si3 0.664370 0.019085 0.007242
Si Si4 0.866718 0.292154 0.576095
Si Si5 0.779781 0.713584 0.653265
Si Si6 0.536216 0.288844 0.208151
O O1 0.583687 0.682588 0.635218
O O2 0.966223 0.458578 0.381624
O O3 0.522061 0.785350 0.871351
O O4 0.050401 0.269266 0.839115
O O5 0.500000 0.500000 0.500000
O O6 0.430486 0.479613 0.435418
O O7 0.478056 0.389778 0.908988
O O8 0.000000 0.000000 0.500000
O O9 0.408111 0.191411 0.049421
O O10 0.827892 0.933741 0.692418
O O11 0.692784 0.490730 0.631517
O O12 0.061807 0.062326 0.801266
O O13 0.000000 0.500000 0.500000
O O14 0.500000 0.000000 0.500000
#
# Coordination Sequence:
#
# PCOD8044146 Si02
#       6
#     2   2   2   2   2   2
#     4  10  19  37  64  91 132 174 216 262 315 375
#     4  12  28  48  72  95 130 169 212 270 334 392
#     4  10  19  37  64  91 132 174 216 262 315 375
#     4  12  26  43  69 101 132 168 218 267 324 390
#     4   8  16  30  56  92 122 171 219 256 306 367
#     4  12  26  43  69 101 132 168 218 267 324 390
#
# _framework density 22.106159000000002
#
# number of rings (size 3 to 8) (size 9 to 14) (size 15 to 20)
#    0.000    1.333    1.667    4.000    2.333    4.000 
#    0.000    1.667    0.000    0.000    0.000    0.000 
#    0.000    0.000    0.000    0.000    0.000    0.000 
#
# Total GULP energy -148693.193676 kJ/mol
# GULP energy per Si atom -12391.099473 kJ/mol
# Density = 2.205584 g / cm^3
# Si number density = 22.106159 Si / 1000 Ang^3
#
#
#
# Elastic Constant Matrix: (Units=GPa)
#
#
# Indices 1 2 3 4 5 6 
#
# 1 168.9277 72.2658 43.0046 7.7550 2.4127 2.0241
# 2 72.2658 152.4221 23.9428 -1.4849 7.5344 18.5332
# 3 43.0046 23.9428 26.9230 -1.6365 1.0005 -9.6636
# 4 7.7550 -1.4849 -1.6365 36.4128 -1.4599 -0.8766
# 5 2.4127 7.5344 1.0005 -1.4599 30.3931 4.4211
# 6 2.0241 18.5332 -9.6636 -0.8766 4.4211 52.4385
#
#
#
# Elastic Compliance Matrix: (Units=1/GPa)
#
#
# Indices 1 2 3 4 5 6 
#
# 1 0.011673 -0.002443 -0.017764 -0.003434 0.000530 -0.002963
# 2 -0.002443 0.009166 -0.005631 0.000492 -0.001278 -0.004067
# 3 -0.017764 -0.005631 0.077212 0.007362 -0.001882 0.017187
# 4 -0.003434 0.000492 0.007362 0.028628 0.001035 0.001707
# 5 0.000530 -0.001278 -0.001882 0.001035 0.033687 -0.002739
# 6 -0.002963 -0.004067 0.017187 0.001707 -0.002739 0.024048
#
#
# Mechanical properties :
#
#
# Convention : Reuss Voigt Hill
#
# Bulk Modulus (GPa) = 21.56395 69.63323 45.59859
# Shear Modulus (GPa) = 19.87676 37.78618 28.83147
#
# Velocity S-wave (km/s) = 3.00184 4.13886 3.61533
# Velocity P-wave (km/s) = 4.66804 7.37618 6.17247
#
# Compressibility (1/GPa) = 0.04637370
#
# Stress axis : x y z
#
# Youngs Moduli (GPa) = 85.66956 109.09704 12.95128
#
# Poissons Ratio (x) = 0.26654 0.23007
# Poissons Ratio (y) = 0.20931 0.07293
# Poissons Ratio (z) = 1.52185 0.61437
#
# Static dielectric constant tensor:
#      x y z
#    x 4.502820 -0.269910 -0.466010 
#    y -0.269910 4.295620 0.123540 
#    z -0.466010 0.123540 3.998510 
# 
# 
# High freq. dielectric constant tensor:
#      x y z
#    x 1.885570 0.004690 -0.021130 
#    y 0.004690 1.899890 0.004620 
#    z -0.021130 0.004620 1.842560 
# 
# From -- ./inp_files/6899.got.cif
#   From: 2010.06.25/outbox.cif.g09.slc.cpg/sg2_4_cif.got.tgz:6899.got - 2010.06.27 13:26:56.
