data_PCOD8044427
_publ_section_title
;
Structure prediction by ZEFSAII (Michael W. Deem and Ramdas Pophale) SiO2 
 PCOD8044427
Probable space group: P -1
;
_chemical_formula_sum "Si O2"
_cell_formula_units_Z 16
_cell_length_a 18.620789
_cell_length_b 10.622867
_cell_length_c 14.698991
_cell_angle_alpha 124.914669
_cell_angle_beta 29.318892
_cell_angle_gamma 143.908152
_cell_volume 745.417363
_symmetry_space_group_name_H-M "P -1"
_symmetry_group_IT_number 2
_symmetry_cell_setting 'triclinic'
loop_
_space_group_symop_operation_xyz
x,y,z
-x,-y,-z
loop_
_atom_site_type_symbol
_atom_site_label
_atom_site_fract_x
_atom_site_fract_y
_atom_site_fract_z
Si Si1 0.088578 0.188566 0.107641
Si Si2 0.502749 0.431624 0.326798
Si Si3 0.617926 0.464634 0.915059
Si Si4 0.616231 0.329821 0.680310
Si Si5 0.140763 0.887882 0.946053
Si Si6 0.294997 0.913126 0.591790
Si Si7 0.345888 0.598247 0.678241
Si Si8 0.253041 0.230618 0.349488
O O1 0.163655 0.297775 0.171864
O O2 0.864113 0.102896 0.296992
O O3 0.284131 0.377539 0.896815
O O4 0.021564 0.954941 0.080116
O O5 0.450114 0.546865 0.482119
O O6 0.561987 0.344598 0.296181
O O7 0.281475 0.211306 0.416940
O O8 0.689197 0.392444 0.732759
O O9 0.500000 0.500000 0.000000
O O10 0.421545 0.253091 0.115728
O O11 0.755123 0.303605 0.468582
O O12 0.673193 0.532160 0.647572
O O13 0.341269 0.080042 0.876800
O O14 0.259133 0.904003 0.734812
O O15 0.932314 0.618240 0.105208
O O16 0.557340 0.166552 0.376119
O O17 0.000000 0.000000 0.500000
#
# Coordination Sequence:
#
# PCOD8044427 Si02
#       8
#     2   2   2   2   2   2   2   2
#     4  11  19  39  68  87 128 164 208 266 299 373
#     4  10  19  38  60  98 117 157 221 257 302 357
#     4   9  19  39  62  89 113 161 211 249 307 363
#     4  11  24  42  62  92 130 165 203 261 320 373
#     4  12  22  41  66  90 129 172 210 257 303 369
#     4  12  25  41  59  97 135 163 205 254 327 368
#     4  11  23  34  63  94 123 165 210 255 303 374
#     4  10  21  39  67  91 117 160 213 263 305 370
#
# _framework density 21.464483999999999
#
# number of rings (size 3 to 8) (size 9 to 14) (size 15 to 20)
#    0.000    1.250    6.250    2.250    1.750    3.000 
#    2.250    0.000    0.000    3.000    0.000    0.000 
#    0.000    0.000    0.000    0.000    0.000    0.000 
#
# Total GULP energy -198357.641909 kJ/mol
# GULP energy per Si atom -12397.352619 kJ/mol
# Density = 2.141563 g / cm^3
# Si number density = 21.464484 Si / 1000 Ang^3
#
#
#
# Elastic Constant Matrix: (Units=GPa)
#
#
# Indices 1 2 3 4 5 6 
#
# 1 68.7221 29.0388 17.2167 1.2922 20.8764 24.2856
# 2 29.0388 91.9752 53.3342 3.4004 12.1851 16.4693
# 3 17.2167 53.3342 86.1109 -6.5729 14.4783 4.8410
# 4 1.2922 3.4004 -6.5729 44.2043 7.8933 -2.4381
# 5 20.8764 12.1851 14.4783 7.8933 23.9114 6.1452
# 6 24.2856 16.4693 4.8410 -2.4381 6.1452 33.8571
#
#
#
# Elastic Compliance Matrix: (Units=1/GPa)
#
#
# Indices 1 2 3 4 5 6 
#
# 1 0.026608 -0.004486 0.001656 0.002522 -0.019323 -0.013452
# 2 -0.004486 0.020012 -0.012165 -0.004248 0.003978 -0.005806
# 3 0.001656 -0.012165 0.020908 0.006197 -0.011028 0.004188
# 4 0.002522 -0.004248 0.006197 0.026405 -0.013461 0.003716
# 5 -0.019323 0.003978 -0.011028 -0.013461 0.067724 0.000241
# 6 -0.013452 -0.005806 0.004188 0.003716 0.000241 0.041634
#
#
# Mechanical properties :
#
#
# Convention : Reuss Voigt Hill
#
# Bulk Modulus (GPa) = 26.63850 49.55420 38.09635
# Shear Modulus (GPa) = 20.34223 30.20914 25.27568
#
# Velocity S-wave (km/s) = 3.08184 3.75560 3.43528
# Velocity P-wave (km/s) = 5.01010 6.47633 5.78981
#
# Compressibility (1/GPa) = 0.03753966
#
# Stress axis : x y z
#
# Youngs Moduli (GPa) = 37.58235 49.96887 47.82823
#
# Poissons Ratio (x) = 0.22414 -0.07920
# Poissons Ratio (y) = 0.16858 0.58183
# Poissons Ratio (z) = -0.06223 0.60787
#
# Static dielectric constant tensor:
#      x y z
#    x 4.248690 0.441310 0.275790 
#    y 0.441310 4.060850 0.161980 
#    z 0.275790 0.161980 4.117690 
# 
# 
# High freq. dielectric constant tensor:
#      x y z
#    x 1.844060 0.024820 0.007580 
#    y 0.024820 1.822400 -0.000490 
#    z 0.007580 -0.000490 1.845480 
# 
# From -- ./inp_files/452641.got.cif
#   From: 2010.06.25/outbox.cif.g09.slc.cpg/sg2_227_cif.got.tgz:452641.got - 2010.06.27 13:26:56.
