data_PCOD8044521
_publ_section_title
;
Structure prediction by ZEFSAII (Michael W. Deem and Ramdas Pophale) SiO2 
 PCOD8044521
Probable space group: P -1
;
_chemical_formula_sum "Si O2"
_cell_formula_units_Z 12
_cell_length_a 6.548751
_cell_length_b 14.010518
_cell_length_c 18.644238
_cell_angle_alpha 29.647628
_cell_angle_beta 139.637700
_cell_angle_gamma 131.512829
_cell_volume 548.007742
_symmetry_space_group_name_H-M "P -1"
_symmetry_group_IT_number 2
_symmetry_cell_setting 'triclinic'
loop_
_space_group_symop_operation_xyz
x,y,z
-x,-y,-z
loop_
_atom_site_type_symbol
_atom_site_label
_atom_site_fract_x
_atom_site_fract_y
_atom_site_fract_z
Si Si1 0.532721 0.103760 0.638773
Si Si2 0.762969 0.137859 0.164685
Si Si3 0.431881 0.523730 0.381623
Si Si4 0.760729 0.891709 0.184284
Si Si5 0.625618 0.763935 0.799222
Si Si6 0.240182 0.405054 0.899726
O O1 0.443884 0.327576 0.466324
O O2 0.896388 0.089338 0.773815
O O3 0.279276 0.993094 0.691519
O O4 0.513792 0.988282 0.632916
O O5 0.103549 0.244066 0.184070
O O6 0.747172 0.989833 0.193030
O O7 0.495167 0.301338 0.984826
O O8 0.500000 0.500000 0.500000
O O9 0.687794 0.665680 0.322566
O O10 0.087326 0.613672 0.217734
O O11 0.500000 0.000000 0.000000
O O12 0.334837 0.630258 0.785865
O O13 0.775067 0.692850 0.961885
#
# Coordination Sequence:
#
# PCOD8044521 Si02
#       6
#     2   2   2   2   2   2
#     4  10  22  39  61  85 126 158 197 258 301 360
#     4  10  19  38  62  90 117 157 205 257 297 351
#     4  12  24  40  59  93 130 162 195 245 316 365
#     4  11  23  39  63  88 118 168 210 242 295 361
#     4   9  20  42  65  91 115 158 218 249 296 353
#     4  10  22  39  64  90 122 162 203 255 297 360
#
# _framework density 21.897500999999998
#
# number of rings (size 3 to 8) (size 9 to 14) (size 15 to 20)
#    0.000    1.667    1.667    4.000    2.333    2.000 
#    3.000    0.833    0.000    0.000    0.000    0.000 
#    0.000    0.000    0.000    0.000    0.000    0.000 
#
# Total GULP energy -148728.764241 kJ/mol
# GULP energy per Si atom -12394.063687 kJ/mol
# Density = 2.184766 g / cm^3
# Si number density = 21.897501 Si / 1000 Ang^3
#
#
#
# Elastic Constant Matrix: (Units=GPa)
#
#
# Indices 1 2 3 4 5 6 
#
# 1 114.1241 21.8178 13.1849 -8.2424 5.6105 21.6212
# 2 21.8178 97.2723 15.1227 -25.9143 -1.2612 10.6769
# 3 13.1849 15.1227 45.7083 -14.5487 -1.8227 -3.2278
# 4 -8.2424 -25.9143 -14.5487 46.0439 -5.1009 5.3888
# 5 5.6105 -1.2612 -1.8227 -5.1009 25.2442 -14.0759
# 6 21.6212 10.6769 -3.2278 5.3888 -14.0759 34.8259
#
#
#
# Elastic Compliance Matrix: (Units=1/GPa)
#
#
# Indices 1 2 3 4 5 6 
#
# 1 0.012085 -0.000708 -0.004198 0.000759 -0.009315 -0.011557
# 2 -0.000708 0.013271 -0.002324 0.007132 -0.000859 -0.005295
# 3 -0.004198 -0.002324 0.026832 0.006407 0.008692 0.008327
# 4 0.000759 0.007132 0.006407 0.028891 0.003672 -0.005050
# 5 -0.009315 -0.000859 0.008692 0.003672 0.060046 0.030553
# 6 -0.011557 -0.005295 0.008327 -0.005050 0.030553 0.051415
#
#
# Mechanical properties :
#
#
# Convention : Reuss Voigt Hill
#
# Bulk Modulus (GPa) = 26.50601 39.70617 33.10609
# Shear Modulus (GPa) = 22.77116 35.02141 28.89628
#
# Velocity S-wave (km/s) = 3.22824 4.00351 3.63659
# Velocity P-wave (km/s) = 5.10159 6.28831 5.72578
#
# Compressibility (1/GPa) = 0.03772729
#
# Stress axis : x y z
#
# Youngs Moduli (GPa) = 82.74685 75.35327 37.26931
#
# Poissons Ratio (x) = 0.05335 0.15645
# Poissons Ratio (y) = 0.05858 0.08663
# Poissons Ratio (z) = 0.34735 0.17515
#
# Static dielectric constant tensor:
#      x y z
#    x 4.160480 0.228640 0.231090 
#    y 0.228640 4.179100 -0.351120 
#    z 0.231090 -0.351120 3.713290 
# 
# 
# High freq. dielectric constant tensor:
#      x y z
#    x 1.864720 0.013800 0.016970 
#    y 0.013800 1.877800 -0.028090 
#    z 0.016970 -0.028090 1.833000 
# 
# From -- ./inp_files/19195.got.cif
#   From: 2010.06.25/outbox.cif.g09.slc.cpg/sg2_10_cif.got.tgz:19195.got - 2010.06.27 13:26:56.
