data_PCOD8044233
_publ_section_title
;
Structure prediction by ZEFSAII (Michael W. Deem and Ramdas Pophale) SiO2 
 PCOD8044233
Probable space group: P -1
;
_chemical_formula_sum "Si O2"
_cell_formula_units_Z 16
_cell_length_a 18.910893
_cell_length_b 9.039763
_cell_length_c 21.182535
_cell_angle_alpha 143.930514
_cell_angle_beta 20.671777
_cell_angle_gamma 142.473578
_cell_volume 740.733164
_symmetry_space_group_name_H-M "P -1"
_symmetry_group_IT_number 2
_symmetry_cell_setting 'triclinic'
loop_
_space_group_symop_operation_xyz
x,y,z
-x,-y,-z
loop_
_atom_site_type_symbol
_atom_site_label
_atom_site_fract_x
_atom_site_fract_y
_atom_site_fract_z
Si Si1 0.451969 0.005451 0.233161
Si Si2 0.208898 0.658041 0.728799
Si Si3 0.393479 0.083981 0.802309
Si Si4 0.402702 0.387762 0.675271
Si Si5 0.783911 0.837149 0.366931
Si Si6 0.015773 0.799716 0.583823
Si Si7 0.369375 0.000060 0.047318
Si Si8 0.236513 0.418945 0.955384
O O1 0.592918 0.876021 0.119757
O O2 0.529683 0.307458 0.278711
O O3 0.487728 0.899131 0.097040
O O4 0.211845 0.925510 0.422006
O O5 0.211060 0.867448 0.854816
O O6 0.397184 0.733477 0.549096
O O7 0.230365 0.389819 0.649173
O O8 0.004718 0.666519 0.863117
O O9 0.597637 0.986654 0.578811
O O10 0.363098 0.349247 0.886255
O O11 0.220109 0.283824 0.741558
O O12 0.317170 0.291394 0.781815
O O13 0.975081 0.054350 0.304489
O O14 0.000000 0.500000 0.500000
O O15 0.806878 0.834844 0.736421
O O16 0.263468 0.715691 0.022836
O O17 0.500000 0.000000 0.000000
#
# Coordination Sequence:
#
# PCOD8044233 Si02
#       8
#     2   2   2   2   2   2   2   2
#     4  10  21  43  71  90 123 167 210 253 321 376
#     4  11  18  38  62  91 130 167 200 248 313 383
#     4  10  20  37  64  95 128 163 199 260 312 373
#     4  10  19  38  67  92 125 169 198 253 322 375
#     4  10  19  37  66  91 125 167 210 246 311 378
#     4  11  24  43  67  94 124 166 221 260 296 372
#     4  11  26  44  66  91 124 167 211 262 315 368
#     4  11  24  37  61  97 131 157 205 260 316 370
#
# _framework density 21.600223
#
# number of rings (size 3 to 8) (size 9 to 14) (size 15 to 20)
#    0.000    1.500    5.000    1.125    3.500    4.500 
#    0.000    2.500    0.000    0.000    0.000    0.000 
#    0.000    0.000    0.000    0.000    0.000    0.000 
#
# Total GULP energy -198237.966694 kJ/mol
# GULP energy per Si atom -12389.872918 kJ/mol
# Density = 2.155106 g / cm^3
# Si number density = 21.600223 Si / 1000 Ang^3
#
#
#
# Elastic Constant Matrix: (Units=GPa)
#
#
# Indices 1 2 3 4 5 6 
#
# 1 146.2879 13.3303 67.2380 -4.0145 -2.8161 -5.2961
# 2 13.3303 56.8511 29.8258 9.9776 -2.2391 4.2804
# 3 67.2380 29.8258 112.1220 -2.8189 -14.3783 -10.7410
# 4 -4.0145 9.9776 -2.8189 26.4825 -3.3858 -10.5948
# 5 -2.8161 -2.2391 -14.3783 -3.3858 36.9302 5.6555
# 6 -5.2961 4.2804 -10.7410 -10.5948 5.6555 31.1311
#
#
#
# Elastic Compliance Matrix: (Units=1/GPa)
#
#
# Indices 1 2 3 4 5 6 
#
# 1 0.009571 0.000974 -0.006232 0.000082 -0.001577 -0.000341
# 2 0.000974 0.025575 -0.009058 -0.015198 -0.001554 -0.011366
# 3 -0.006232 -0.009058 0.016648 0.007974 0.005004 0.007734
# 4 0.000082 -0.015198 0.007974 0.053821 0.003678 0.022504
# 5 -0.001577 -0.001554 0.005004 0.003678 0.029523 -0.002440
# 6 -0.000341 -0.011366 0.007734 0.022504 -0.002440 0.044397
#
#
# Mechanical properties :
#
#
# Convention : Reuss Voigt Hill
#
# Bulk Modulus (GPa) = 43.17005 59.56102 51.36553
# Shear Modulus (GPa) = 23.16022 32.56654 27.86338
#
# Velocity S-wave (km/s) = 3.27803 3.88712 3.59549
# Velocity P-wave (km/s) = 5.86145 6.91233 6.40847
#
# Compressibility (1/GPa) = 0.02316421
#
# Stress axis : x y z
#
# Youngs Moduli (GPa) = 104.48472 39.10032 60.06575
#
# Poissons Ratio (x) = -0.03809 0.37430
# Poissons Ratio (y) = -0.10179 0.54407
# Poissons Ratio (z) = 0.65110 0.35416
#
# Static dielectric constant tensor:
#      x y z
#    x 4.161410 0.212490 -0.042870 
#    y 0.212490 3.963800 0.017660 
#    z -0.042870 0.017660 3.914140 
# 
# 
# High freq. dielectric constant tensor:
#      x y z
#    x 1.842530 0.007480 -0.013710 
#    y 0.007480 1.840170 0.008070 
#    z -0.013710 0.008070 1.839930 
# 
# From -- ./inp_files/187864.got.cif
#   From: 2010.06.25/outbox.cif.g09.slc.cpg/sg2_94_cif.got.tgz:187864.got - 2010.06.27 13:26:56.
