data_PCOD8044174
_publ_section_title
;
Structure prediction by ZEFSAII (Michael W. Deem and Ramdas Pophale) SiO2 
 PCOD8044174
Probable space group: P -1
;
_chemical_formula_sum "Si O2"
_cell_formula_units_Z 16
_cell_length_a 10.080488
_cell_length_b 15.822032
_cell_length_c 14.711533
_cell_angle_alpha 30.980130
_cell_angle_beta 90.530180
_cell_angle_gamma 67.317704
_cell_volume 778.390813
_symmetry_space_group_name_H-M "P -1"
_symmetry_group_IT_number 2
_symmetry_cell_setting 'triclinic'
loop_
_space_group_symop_operation_xyz
x,y,z
-x,-y,-z
loop_
_atom_site_type_symbol
_atom_site_label
_atom_site_fract_x
_atom_site_fract_y
_atom_site_fract_z
Si Si1 0.994032 0.080388 0.551003
Si Si2 0.282783 0.636358 0.402781
Si Si3 0.062228 0.787672 0.081568
Si Si4 0.707084 0.526123 0.261354
Si Si5 0.083954 0.350485 0.916590
Si Si6 0.698486 0.073665 0.541568
Si Si7 0.638013 0.358388 0.930227
Si Si8 0.109029 0.283757 0.272104
O O1 0.890083 0.229580 0.508375
O O2 0.872889 0.041534 0.544504
O O3 0.973612 0.250288 0.324201
O O4 0.231080 0.814698 0.820533
O O5 0.500000 0.500000 0.500000
O O6 0.167600 0.656538 0.300395
O O7 0.321376 0.463831 0.639940
O O8 0.149376 0.913545 0.184247
O O9 0.218905 0.738046 0.065118
O O10 0.013513 0.656631 0.160117
O O11 0.504375 0.660312 0.081072
O O12 0.760577 0.661812 0.111274
O O13 0.221401 0.103927 0.208089
O O14 0.886946 0.616079 0.725974
O O15 0.485563 0.360649 0.300966
O O16 0.681081 0.976062 0.539112
O O17 0.000000 0.500000 0.000000
#
# Coordination Sequence:
#
# PCOD8044174 Si02
#       8
#     2   2   2   2   2   2   2   2
#     4  10  19  37  65  85 121 163 207 243 292 357
#     4  11  22  39  67  88 116 156 206 250 292 364
#     4  11  22  39  64  90 117 156 204 246 300 361
#     4  10  21  39  60  90 123 160 197 248 309 351
#     4  10  21  41  60  85 129 161 193 251 308 352
#     4  10  20  37  62  88 119 165 204 248 290 355
#     4  11  20  37  64  90 118 162 208 242 293 360
#     4   9  20  38  60  89 125 163 196 248 303 345
#
# _framework density 20.555226000000001
#
# number of rings (size 3 to 8) (size 9 to 14) (size 15 to 20)
#    0.000    1.750    3.750    1.125    0.000    1.000 
#    4.500    1.250    0.000    0.000    0.000    0.000 
#    0.000    0.000    0.000    0.000    0.000    0.000 
#
# Total GULP energy -198269.998897 kJ/mol
# GULP energy per Si atom -12391.874931 kJ/mol
# Density = 2.050844 g / cm^3
# Si number density = 20.555226 Si / 1000 Ang^3
#
#
#
# Elastic Constant Matrix: (Units=GPa)
#
#
# Indices 1 2 3 4 5 6 
#
# 1 101.7771 50.7266 48.2441 -10.1670 -9.7705 5.8958
# 2 50.7266 128.5596 44.9545 -17.6560 -5.1969 4.3808
# 3 48.2441 44.9545 96.7179 -5.5186 -1.4921 -1.2511
# 4 -10.1670 -17.6560 -5.5186 26.4439 -7.0349 -4.9714
# 5 -9.7705 -5.1969 -1.4921 -7.0349 32.2578 1.2142
# 6 5.8958 4.3808 -1.2511 -4.9714 1.2142 29.7479
#
#
#
# Elastic Compliance Matrix: (Units=1/GPa)
#
#
# Indices 1 2 3 4 5 6 
#
# 1 0.015076 -0.003212 -0.005805 0.003203 0.004570 -0.002410
# 2 -0.003212 0.011062 -0.003171 0.005975 0.001974 -0.000208
# 3 -0.005805 -0.003171 0.014623 -0.001435 -0.001984 0.002074
# 4 0.003203 0.005975 -0.001435 0.046991 0.011896 0.005792
# 5 0.004570 0.001974 -0.001984 0.011896 0.035232 -0.000730
# 6 -0.002410 -0.000208 0.002074 0.005792 -0.000730 0.035209
#
#
# Mechanical properties :
#
#
# Convention : Reuss Voigt Hill
#
# Bulk Modulus (GPa) = 61.02954 68.32280 64.67617
# Shear Modulus (GPa) = 26.59120 29.89853 28.24487
#
# Velocity S-wave (km/s) = 3.60063 3.81799 3.71090
# Velocity P-wave (km/s) = 6.85865 7.26270 7.06357
#
# Compressibility (1/GPa) = 0.01638551
#
# Stress axis : x y z
#
# Youngs Moduli (GPa) = 66.32899 90.39849 68.38457
#
# Poissons Ratio (x) = 0.29037 0.39699
# Poissons Ratio (y) = 0.21305 0.21683
# Poissons Ratio (z) = 0.38506 0.28663
#
# Static dielectric constant tensor:
#      x y z
#    x 3.617910 -0.027780 -0.095820 
#    y -0.027780 4.134890 -0.167830 
#    z -0.095820 -0.167830 3.689930 
# 
# 
# High freq. dielectric constant tensor:
#      x y z
#    x 1.790980 -0.008300 -0.012300 
#    y -0.008300 1.823380 -0.005040 
#    z -0.012300 -0.005040 1.793340 
# 
# From -- ./inp_files/52221.got.cif
#   From: 2010.06.25/outbox.cif.g09.slc.cpg/sg2_27_cif.got.tgz:52221.got - 2010.06.27 13:26:56.
