data_PCOD8044905
_publ_section_title
;
Structure prediction by ZEFSAII (Michael W. Deem and Ramdas Pophale) SiO2 
 PCOD8044905
Probable space group: P 2
;
_chemical_formula_sum "Si O2"
_cell_formula_units_Z 16
_cell_length_a 9.153696
_cell_length_b 9.137886
_cell_length_c 21.819727
_cell_angle_alpha 90.000000
_cell_angle_beta 27.380595
_cell_angle_gamma 90.000000
_cell_volume 839.371205
_symmetry_space_group_name_H-M "P 2"
_symmetry_group_IT_number 3
_symmetry_cell_setting 'monoclinic'
loop_
_space_group_symop_operation_xyz
x,y,z
-x,y,-z
loop_
_atom_site_type_symbol
_atom_site_label
_atom_site_fract_x
_atom_site_fract_y
_atom_site_fract_z
Si Si1 0.311143 0.112190 0.284989
Si Si2 0.311141 0.772846 0.284990
Si Si3 0.425635 0.773198 0.459139
Si Si4 0.745098 0.603528 0.041247
Si Si5 0.692232 0.615503 0.247735
Si Si6 0.574366 0.111840 0.540860
Si Si7 0.692234 0.269534 0.247734
Si Si8 0.745097 0.281509 0.041247
O O1 0.439713 0.196627 0.296054
O O2 0.939284 0.141078 0.420244
O O3 0.394035 0.942518 0.261601
O O4 0.468959 0.168571 0.162611
O O5 0.468961 0.716465 0.162611
O O6 0.439705 0.688409 0.296058
O O7 0.939282 0.743959 0.420244
O O8 0.500000 0.721472 0.500000
O O9 0.644869 0.676956 0.333231
O O10 0.515460 0.942519 0.416588
O O11 0.592948 0.442518 0.087769
O O12 0.000000 0.594772 0.000000
O O13 0.943394 0.653738 0.907309
O O14 0.634348 0.442519 0.267304
O O15 0.500000 0.163566 0.500000
O O16 0.355134 0.208082 0.666768
O O17 0.056609 0.231300 0.092690
O O18 0.000000 0.290262 0.000000
#
# Coordination Sequence:
#
# PCOD8044905 Si02
#       8
#     2   2   2   2   2   2   2   2
#     4  10  19  32  54  80 102 131 170 208 251 300
#     4  10  19  32  54  80 102 131 170 208 251 300
#     4  10  22  38  52  71 103 138 172 211 251 295
#     4   8  16  31  50  75 105 131 161 206 253 297
#     4  10  20  34  54  79 104 132 167 207 253 303
#     4  10  22  38  52  71 103 138 172 211 251 295
#     4  10  20  34  54  79 104 132 167 207 253 303
#     4   8  16  31  50  75 105 131 161 206 253 297
#
# _framework density 19.061888
#
# number of rings (size 3 to 8) (size 9 to 14) (size 15 to 20)
#    0.000    2.500    0.000    3.750    0.000   11.000 
#    0.000    1.250    0.000    7.500    0.000    0.000 
#    0.000    0.000    0.000    0.000    0.000    0.000 
#
# Total GULP energy -198376.536005 kJ/mol
# GULP energy per Si atom -12398.533500 kJ/mol
# Density = 1.901850 g / cm^3
# Si number density = 19.061888 Si / 1000 Ang^3
#
#
#
# Elastic Constant Matrix: (Units=GPa)
#
#
# Indices 1 2 3 4 5 6 
#
# 1 62.3003 34.6490 32.7535 0.0000 29.7726 0.0000
# 2 34.6490 93.2190 59.2845 0.0000 23.8969 0.0000
# 3 32.7535 59.2845 114.2567 0.0000 44.7812 0.0000
# 4 0.0000 0.0000 0.0000 35.5200 0.0000 13.7239
# 5 29.7726 23.8969 44.7812 0.0000 24.9735 0.0000
# 6 0.0000 0.0000 0.0000 13.7239 0.0000 8.4099
#
#
#
# Elastic Compliance Matrix: (Units=1/GPa)
#
#
# Indices 1 2 3 4 5 6 
#
# 1 0.099090 -0.025639 0.072618 0.000000 -0.223813 0.000000
# 2 -0.025639 0.022660 -0.026545 0.000000 0.056482 0.000000
# 3 0.072618 -0.026545 0.086419 0.000000 -0.216134 0.000000
# 4 0.000000 0.000000 0.000000 0.076194 0.000000 -0.124340
# 5 -0.223813 0.056482 -0.216134 0.000000 0.640377 0.000000
# 6 0.000000 0.000000 0.000000 -0.124340 0.000000 0.321815
#
#
# Mechanical properties :
#
#
# Convention : Reuss Voigt Hill
#
# Bulk Modulus (GPa) = 4.01548 58.12777 31.07162
# Shear Modulus (GPa) = 3.87988 23.31995 13.59991
#
# Velocity S-wave (km/s) = 1.42823 3.50148 2.67397
# Velocity P-wave (km/s) = 2.19793 6.84891 5.08618
#
# Compressibility (1/GPa) = 0.24903622
#
# Stress axis : x y z
#
# Youngs Moduli (GPa) = 10.09179 44.13097 11.57149
#
# Poissons Ratio (x) = 1.13148 -0.84029
# Poissons Ratio (y) = 0.25874 0.30717
# Poissons Ratio (z) = -0.73284 1.17146
#
# Static dielectric constant tensor:
#      x y z
#    x 3.185240 0.000000 0.313430 
#    y 0.000000 3.561750 0.000000 
#    z 0.313430 0.000000 4.004020 
# 
# 
# High freq. dielectric constant tensor:
#      x y z
#    x 1.704750 0.000000 0.016700 
#    y 0.000000 1.745240 0.000000 
#    z 0.016700 0.000000 1.755500 
# 
# From -- ./inp_files/9436.got.cif
#   From: 2010.03.12/outbox.cif.g09.slc.cpg/sg3_5_cif.got.tgz:9436.got - 2010.03.31 09:20:49.
