data_PCOD8044922
_publ_section_title
;
Structure prediction by ZEFSAII (Michael W. Deem and Ramdas Pophale) SiO2 
 PCOD8044922
Probable space group: P 2
;
_chemical_formula_sum "Si O2"
_cell_formula_units_Z 13
_cell_length_a 9.587539
_cell_length_b 9.785095
_cell_length_c 7.702219
_cell_angle_alpha 90.000000
_cell_angle_beta 53.649164
_cell_angle_gamma 90.000000
_cell_volume 581.970717
_symmetry_space_group_name_H-M "P 2"
_symmetry_group_IT_number 3
_symmetry_cell_setting 'monoclinic'
loop_
_space_group_symop_operation_xyz
x,y,z
-x,y,-z
loop_
_atom_site_type_symbol
_atom_site_label
_atom_site_fract_x
_atom_site_fract_y
_atom_site_fract_z
Si Si1 0.358279 0.600320 0.952581
Si Si2 0.154116 0.872917 0.121388
Si Si3 0.293743 0.132222 0.154226
Si Si4 0.500000 0.710753 0.500000
Si Si5 0.229075 0.925347 0.672086
Si Si6 0.686119 0.222618 0.505027
Si Si7 0.703527 0.318403 0.142743
O O1 0.442618 0.618355 0.701987
O O2 0.261267 0.456581 0.991766
O O3 0.500000 0.587732 0.000000
O O4 0.219163 0.717539 0.103728
O O5 0.949246 0.889848 0.294379
O O6 0.241866 0.972525 0.199065
O O7 0.211134 0.924488 0.891767
O O8 0.218417 0.214115 0.378555
O O9 0.500000 0.144510 0.000000
O O10 0.213452 0.201290 0.041022
O O11 0.351781 0.802788 0.524115
O O12 0.321727 0.065675 0.552271
O O13 0.786218 0.309786 0.278351
O O14 0.498163 0.286722 0.675215
#
# Coordination Sequence:
#
# PCOD8044922 Si02
#       7
#     2   2   2   1   2   2   2
#     4  11  23  39  63  94 130 172 212 256 319 391
#     4  10  22  39  60  93 134 164 209 263 328 383
#     4  10  20  34  61  94 123 159 208 261 318 372
#     4  10  22  38  62  88 122 162 216 256 314 376
#     4  10  21  38  63  93 124 165 209 271 321 371
#     4  10  19  33  63  89 121 160 210 263 308 363
#     4  10  20  37  60  93 124 159 212 260 305 380
#
# _framework density 22.337893999999999
#
# number of rings (size 3 to 8) (size 9 to 14) (size 15 to 20)
#    0.000    1.846    1.538    3.692    8.615    0.615 
#    0.000    0.000   16.923    0.000    4.000    0.000 
#    0.000    0.000    0.000    0.000    0.000    0.000 
#
# Total GULP energy -161049.995381 kJ/mol
# GULP energy per Si atom -12388.461183 kJ/mol
# Density = 2.228705 g / cm^3
# Si number density = 22.337894 Si / 1000 Ang^3
#
#
#
# Elastic Constant Matrix: (Units=GPa)
#
#
# Indices 1 2 3 4 5 6 
#
# 1 74.8630 36.0455 28.3399 0.0000 19.5067 0.0000
# 2 36.0455 138.2820 29.1122 0.0000 10.6193 0.0000
# 3 28.3399 29.1122 47.7648 0.0000 19.6412 0.0000
# 4 0.0000 0.0000 0.0000 23.1568 0.0000 11.4314
# 5 19.5067 10.6193 19.6412 0.0000 33.7747 0.0000
# 6 0.0000 0.0000 0.0000 11.4314 0.0000 25.2167
#
#
#
# Elastic Compliance Matrix: (Units=1/GPa)
#
#
# Indices 1 2 3 4 5 6 
#
# 1 0.019014 -0.003028 -0.006981 0.000000 -0.005970 0.000000
# 2 -0.003028 0.008783 -0.004127 0.000000 0.001387 0.000000
# 3 -0.006981 -0.004127 0.033385 0.000000 -0.014085 0.000000
# 4 0.000000 0.000000 0.000000 0.055634 0.000000 -0.025220
# 5 -0.005970 0.001387 -0.014085 0.000000 0.040811 0.000000
# 6 0.000000 0.000000 0.000000 -0.025220 0.000000 0.051089
#
#
# Mechanical properties :
#
#
# Convention : Reuss Voigt Hill
#
# Bulk Modulus (GPa) = 30.38592 49.76722 40.07657
# Shear Modulus (GPa) = 20.16462 27.59044 23.87753
#
# Velocity S-wave (km/s) = 3.00777 3.51827 3.27299
# Velocity P-wave (km/s) = 5.06899 6.23153 5.68008
#
# Compressibility (1/GPa) = 0.03290998
#
# Stress axis : x y z
#
# Youngs Moduli (GPa) = 52.59289 113.85267 29.95327
#
# Poissons Ratio (x) = 0.34477 0.20910
# Poissons Ratio (y) = 0.15926 0.12362
# Poissons Ratio (z) = 0.36715 0.46989
#
# Static dielectric constant tensor:
#      x y z
#    x 4.315810 0.000000 0.467500 
#    y 0.000000 4.006850 0.000000 
#    z 0.467500 0.000000 4.331280 
# 
# 
# High freq. dielectric constant tensor:
#      x y z
#    x 1.858090 0.000000 0.031780 
#    y 0.000000 1.876930 0.000000 
#    z 0.031780 0.000000 1.878400 
# 
# From -- ./inp_files/5490.got.cif
#   From: 2010.03.12/outbox.cif.g09.slc.cpg/sg3_3_cif.got.tgz:5490.got - 2010.03.31 09:20:49.
