data_PCOD8044741
_publ_section_title
;
Structure prediction by ZEFSAII (Michael W. Deem and Ramdas Pophale) SiO2 
 PCOD8044741
Probable space group: P -1
;
_chemical_formula_sum "Si O2"
_cell_formula_units_Z 16
_cell_length_a 8.835794
_cell_length_b 20.906714
_cell_length_c 15.179116
_cell_angle_alpha 150.734278
_cell_angle_beta 142.723749
_cell_angle_gamma 38.969598
_cell_volume 796.665023
_symmetry_space_group_name_H-M "P -1"
_symmetry_group_IT_number 2
_symmetry_cell_setting 'triclinic'
loop_
_space_group_symop_operation_xyz
x,y,z
-x,-y,-z
loop_
_atom_site_type_symbol
_atom_site_label
_atom_site_fract_x
_atom_site_fract_y
_atom_site_fract_z
Si Si1 0.591883 0.192824 0.001256
Si Si2 0.411267 0.432069 0.962351
Si Si3 0.950829 0.421359 0.257831
Si Si4 0.064070 0.913611 0.314307
Si Si5 0.076489 0.348943 0.029530
Si Si6 0.434883 0.938587 0.661147
Si Si7 0.917383 0.707992 0.657817
Si Si8 0.570126 0.138097 0.720987
O O1 0.556573 0.170812 0.855737
O O2 0.580760 0.055768 0.881525
O O3 0.361799 0.322098 0.086082
O O4 0.868365 0.216108 0.178047
O O5 0.393762 0.275991 0.755168
O O6 0.122873 0.526530 0.966436
O O7 0.500000 0.500000 0.000000
O O8 0.643397 0.428115 0.134369
O O9 0.992286 0.567192 0.471029
O O10 0.078969 0.377065 0.168973
O O11 0.097217 0.314139 0.270646
O O12 0.309994 0.947262 0.516057
O O13 0.137572 0.883365 0.209174
O O14 0.801986 0.038162 0.350025
O O15 0.018655 0.784872 0.190024
O O16 0.634515 0.793622 0.597502
O O17 0.500000 0.000000 0.500000
#
# Coordination Sequence:
#
# PCOD8044741 Si02
#       8
#     2   2   2   2   2   2   2   2
#     4  11  23  39  57  89 128 153 194 257 301 354
#     4  10  19  38  66  89 112 163 201 245 301 362
#     4  10  21  38  62  83 118 159 206 251 281 365
#     4  10  19  39  62  89 116 151 206 250 295 361
#     4  10  21  38  64  89 117 158 204 248 302 350
#     4  10  22  37  62  87 118 163 196 245 304 367
#     4  11  22  39  58  87 118 163 205 238 301 357
#     4  12  22  38  62  94 127 149 192 262 309 342
#
# _framework density 20.083722999999999
#
# number of rings (size 3 to 8) (size 9 to 14) (size 15 to 20)
#    0.000    1.500    5.000    1.125    1.750    1.000 
#    0.000    8.125    0.000    0.000    0.000    0.000 
#    0.000    0.000    0.000    0.000    0.000    0.000 
#
# Total GULP energy -198296.254792 kJ/mol
# GULP energy per Si atom -12393.515925 kJ/mol
# Density = 2.003801 g / cm^3
# Si number density = 20.083723 Si / 1000 Ang^3
#
#
#
# Elastic Constant Matrix: (Units=GPa)
#
#
# Indices 1 2 3 4 5 6 
#
# 1 107.6313 44.1557 27.0675 -5.5889 -16.6034 -19.8750
# 2 44.1557 87.2932 26.5739 -0.2389 8.8149 -12.4928
# 3 27.0675 26.5739 91.0980 3.9945 6.7299 -2.9850
# 4 -5.5889 -0.2389 3.9945 25.3893 4.3892 3.4867
# 5 -16.6034 8.8149 6.7299 4.3892 34.2533 4.9461
# 6 -19.8750 -12.4928 -2.9850 3.4867 4.9461 26.3602
#
#
#
# Elastic Compliance Matrix: (Units=1/GPa)
#
#
# Indices 1 2 3 4 5 6 
#
# 1 0.015472 -0.006877 -0.003101 0.001455 0.008795 0.006212
# 2 -0.006877 0.016980 -0.002186 -0.000220 -0.007840 0.004114
# 3 -0.003101 -0.002186 0.012815 -0.002045 -0.003040 -0.001082
# 4 0.001455 -0.000220 -0.002045 0.041190 -0.003533 -0.004024
# 5 0.008795 -0.007840 -0.003040 -0.003533 0.037091 -0.003921
# 6 0.006212 0.004114 -0.001082 -0.004024 -0.003921 0.045715
#
#
# Mechanical properties :
#
#
# Convention : Reuss Voigt Hill
#
# Bulk Modulus (GPa) = 47.75998 53.51298 50.63648
# Shear Modulus (GPa) = 24.92893 29.74891 27.33892
#
# Velocity S-wave (km/s) = 3.52696 3.85287 3.69351
# Velocity P-wave (km/s) = 6.35752 6.81877 6.59218
#
# Compressibility (1/GPa) = 0.02093803
#
# Stress axis : x y z
#
# Youngs Moduli (GPa) = 64.63480 58.89379 78.03330
#
# Poissons Ratio (x) = 0.40502 0.24197
# Poissons Ratio (y) = 0.44450 0.17059
# Poissons Ratio (z) = 0.20042 0.12875
#
# Static dielectric constant tensor:
#      x y z
#    x 3.749990 -0.132290 0.041300 
#    y -0.132290 3.805350 0.202420 
#    z 0.041300 0.202420 3.799680 
# 
# 
# High freq. dielectric constant tensor:
#      x y z
#    x 1.778420 -0.005660 0.000150 
#    y -0.005660 1.770950 0.020180 
#    z 0.000150 0.020180 1.787500 
# 
# From -- ./inp_files/446912.got.cif
#   From: 2010.06.25/outbox.cif.g09.slc.cpg/sg2_224_cif.got.tgz:446912.got - 2010.06.27 13:26:56.
