data_PCOD8044406
_publ_section_title
;
Structure prediction by ZEFSAII (Michael W. Deem and Ramdas Pophale) SiO2 
 PCOD8044406
Probable space group: P -1
;
_chemical_formula_sum "Si O2"
_cell_formula_units_Z 14
_cell_length_a 12.694842
_cell_length_b 9.227275
_cell_length_c 8.855238
_cell_angle_alpha 108.222740
_cell_angle_beta 126.120604
_cell_angle_gamma 99.892830
_cell_volume 704.945009
_symmetry_space_group_name_H-M "P -1"
_symmetry_group_IT_number 2
_symmetry_cell_setting 'triclinic'
loop_
_space_group_symop_operation_xyz
x,y,z
-x,-y,-z
loop_
_atom_site_type_symbol
_atom_site_label
_atom_site_fract_x
_atom_site_fract_y
_atom_site_fract_z
Si Si1 0.786691 0.307444 0.848785
Si Si2 0.865033 0.794497 0.588957
Si Si3 0.344657 0.285988 0.882156
Si Si4 0.884873 0.630860 0.843323
Si Si5 0.822180 0.910297 0.045444
Si Si6 0.561763 0.341519 0.842388
Si Si7 0.682437 0.932870 0.637233
O O1 0.789139 0.438104 0.763195
O O2 0.720853 0.346323 0.961399
O O3 0.679356 0.109791 0.646198
O O4 0.947061 0.328369 0.021906
O O5 0.776396 0.708348 0.333579
O O6 0.827062 0.644047 0.632285
O O7 0.815159 0.930923 0.654459
O O8 0.039038 0.904432 0.746088
O O9 0.469197 0.253854 0.888306
O O10 0.265189 0.136544 0.886575
O O11 0.422966 0.467909 0.093558
O O12 0.871206 0.767310 0.989163
O O13 0.715063 0.931630 0.841656
O O14 0.470170 0.233659 0.584414
#
# Coordination Sequence:
#
# PCOD8044406 Si02
#       7
#     2   2   2   2   2   2   2
#     4  11  19  37  60  87 115 141 185 243 282 325
#     4  10  19  38  60  88 110 145 189 239 274 332
#     4  10  22  38  58  80 118 154 189 220 278 344
#     4  10  20  34  64  87 110 141 192 238 285 319
#     4  11  18  38  61  89 107 145 194 238 273 326
#     4  10  22  39  55  81 117 157 184 224 279 337
#     4  10  20  35  64  84 113 141 195 237 274 325
#
# _framework density 19.859705999999999
#
# number of rings (size 3 to 8) (size 9 to 14) (size 15 to 20)
#    0.000    1.714    4.286    1.714    0.000    0.571 
#    5.143    1.429    6.286    0.000    0.000    0.000 
#    0.000    0.000    0.000    0.000    0.000    0.000 
#
# Total GULP energy -173534.624847 kJ/mol
# GULP energy per Si atom -12395.330346 kJ/mol
# Density = 1.981450 g / cm^3
# Si number density = 19.859706 Si / 1000 Ang^3
#
#
#
# Elastic Constant Matrix: (Units=GPa)
#
#
# Indices 1 2 3 4 5 6 
#
# 1 127.9011 44.6427 22.3792 -3.2846 -2.3507 15.4774
# 2 44.6427 126.7184 47.5083 6.1945 -6.8967 12.1349
# 3 22.3792 47.5083 86.2612 7.5201 -4.5681 14.3625
# 4 -3.2846 6.1945 7.5201 17.1680 1.1495 -4.4366
# 5 -2.3507 -6.8967 -4.5681 1.1495 12.4974 -0.2917
# 6 15.4774 12.1349 14.3625 -4.4366 -0.2917 29.9362
#
#
#
# Elastic Compliance Matrix: (Units=1/GPa)
#
#
# Indices 1 2 3 4 5 6 
#
# 1 0.009359 -0.002941 -0.000518 0.002311 -0.000336 -0.003059
# 2 -0.002941 0.011184 -0.004709 -0.003118 0.004157 -0.001175
# 3 -0.000518 -0.004709 0.016297 -0.007530 0.003796 -0.006721
# 4 0.002311 -0.003118 -0.007530 0.067280 -0.009910 0.013556
# 5 -0.000336 0.004157 0.003796 -0.009910 0.084454 -0.003979
# 6 -0.003059 -0.001175 -0.006721 0.013556 -0.003979 0.040657
#
#
# Mechanical properties :
#
#
# Convention : Reuss Voigt Hill
#
# Bulk Modulus (GPa) = 48.77191 63.32678 56.04934
# Shear Modulus (GPa) = 19.80961 27.01037 23.40999
#
# Velocity S-wave (km/s) = 3.16171 3.69190 3.43704
# Velocity P-wave (km/s) = 6.15955 7.08024 6.63588
#
# Compressibility (1/GPa) = 0.02050361
#
# Stress axis : x y z
#
# Youngs Moduli (GPa) = 106.84735 89.40997 61.36016
#
# Poissons Ratio (x) = 0.26298 0.03179
# Poissons Ratio (y) = 0.31427 0.28895
# Poissons Ratio (z) = 0.05536 0.42104
#
# Static dielectric constant tensor:
#      x y z
#    x 3.807410 0.095370 0.111290 
#    y 0.095370 3.598300 0.100280 
#    z 0.111290 0.100280 3.510880 
# 
# 
# High freq. dielectric constant tensor:
#      x y z
#    x 1.782360 0.010630 0.010440 
#    y 0.010630 1.763650 0.013940 
#    z 0.010440 0.013940 1.754930 
# 
# From -- ./inp_files/153725.got.cif
#   From: 2010.06.25/outbox.cif.g09.slc.cpg/sg2_77_cif.got.tgz:153725.got - 2010.06.27 13:26:56.
