data_PCOD8044977
_publ_section_title
;
Structure prediction by ZEFSAII (Michael W. Deem and Ramdas Pophale) SiO2 
 PCOD8044977
Probable space group: P 2
;
_chemical_formula_sum "Si O2"
_cell_formula_units_Z 14
_cell_length_a 11.080520
_cell_length_b 7.536222
_cell_length_c 12.159680
_cell_angle_alpha 90.000000
_cell_angle_beta 143.829891
_cell_angle_gamma 90.000000
_cell_volume 599.271803
_symmetry_space_group_name_H-M "P 2"
_symmetry_group_IT_number 3
_symmetry_cell_setting 'monoclinic'
loop_
_space_group_symop_operation_xyz
x,y,z
-x,y,-z
loop_
_atom_site_type_symbol
_atom_site_label
_atom_site_fract_x
_atom_site_fract_y
_atom_site_fract_z
Si Si1 0.284130 0.474350 0.173322
Si Si2 0.923877 0.433706 0.762531
Si Si3 0.686493 0.667192 0.215472
Si Si4 0.194210 0.881232 0.077171
Si Si5 0.993646 0.803299 0.718999
Si Si6 0.619441 0.973913 0.334532
Si Si7 0.705621 0.359933 0.394169
O O1 0.230754 0.385920 0.251559
O O2 0.225542 0.680148 0.138436
O O3 0.519571 0.448572 0.322999
O O4 0.152787 0.390582 0.975265
O O5 0.879969 0.329875 0.616172
O O6 0.896226 0.640596 0.713390
O O7 0.885546 0.736769 0.299334
O O8 0.597576 0.822743 0.226446
O O9 0.764918 0.495731 0.341217
O O10 0.500000 0.606952 0.000000
O O11 0.409736 0.984233 0.252651
O O12 0.147579 0.904636 0.913201
O O13 0.000000 0.964860 0.000000
O O14 0.810470 0.933131 0.552775
O O15 0.655282 0.167372 0.306251
#
# Coordination Sequence:
#
# PCOD8044977 Si02
#       7
#     2   2   2   2   2   2   2
#     4  10  19  42  72 101 137 185 231 286 351 411
#     4  10  20  41  70 101 137 184 233 287 345 416
#     4  12  24  49  77  96 141 191 237 294 349 412
#     4  11  21  45  76 103 136 186 233 287 355 416
#     4  11  22  45  73 101 136 186 235 286 350 414
#     4  12  27  45  69 106 144 179 232 293 353 419
#     4  12  26  44  70 106 139 185 235 285 355 425
#
# _framework density 23.361685000000001
#
# number of rings (size 3 to 8) (size 9 to 14) (size 15 to 20)
#    0.000    0.857    7.143    1.714    0.000    2.286 
#   12.857    0.000    0.000    0.000    0.000    0.000 
#    0.000    0.000    0.000    0.000    0.000    0.000 
#
# Total GULP energy -173564.168419 kJ/mol
# GULP energy per Si atom -12397.440601 kJ/mol
# Density = 2.330851 g / cm^3
# Si number density = 23.361685 Si / 1000 Ang^3
#
#
#
# Elastic Constant Matrix: (Units=GPa)
#
#
# Indices 1 2 3 4 5 6 
#
# 1 103.1372 35.0269 35.0888 0.0000 7.7793 0.0000
# 2 35.0269 92.2741 32.6675 0.0000 -4.1464 0.0000
# 3 35.0888 32.6675 116.8998 0.0000 -6.9439 0.0000
# 4 0.0000 0.0000 0.0000 16.7941 0.0000 6.5106
# 5 7.7793 -4.1464 -6.9439 0.0000 42.2681 0.0000
# 6 0.0000 0.0000 0.0000 6.5106 0.0000 9.4587
#
#
#
# Elastic Compliance Matrix: (Units=1/GPa)
#
#
# Indices 1 2 3 4 5 6 
#
# 1 0.012151 -0.003767 -0.002776 0.000000 -0.003062 0.000000
# 2 -0.003767 0.013212 -0.002467 0.000000 0.001584 0.000000
# 3 -0.002776 -0.002467 0.010193 0.000000 0.001943 0.000000
# 4 0.000000 0.000000 0.000000 0.081217 0.000000 -0.055904
# 5 -0.003062 0.001584 0.001943 0.000000 0.024697 0.000000
# 6 0.000000 0.000000 0.000000 -0.055904 0.000000 0.144203
#
#
# Mechanical properties :
#
#
# Convention : Reuss Voigt Hill
#
# Bulk Modulus (GPa) = 57.03238 57.54196 57.28717
# Shear Modulus (GPa) = 16.15308 27.67269 21.91288
#
# Velocity S-wave (km/s) = 2.63237 3.44544 3.06597
# Velocity P-wave (km/s) = 5.80559 6.36494 6.09169
#
# Compressibility (1/GPa) = 0.01753390
#
# Stress axis : x y z
#
# Youngs Moduli (GPa) = 82.29999 75.68951 98.11052
#
# Poissons Ratio (x) = 0.28513 0.27239
# Poissons Ratio (y) = 0.31003 0.24206
# Poissons Ratio (z) = 0.22849 0.18674
#
# Static dielectric constant tensor:
#      x y z
#    x 4.151130 0.000000 0.009460 
#    y 0.000000 3.842730 0.000000 
#    z 0.009460 0.000000 4.607190 
# 
# 
# High freq. dielectric constant tensor:
#      x y z
#    x 1.919340 0.000000 0.006110 
#    y 0.000000 1.894630 0.000000 
#    z 0.006110 0.000000 1.939390 
# 
# From -- ./inp_files/11604.got.cif
#   From: 2010.03.12/outbox.cif.g09.slc.cpg/sg3_6_cif.got.tgz:11604.got - 2010.03.31 09:20:49.
