data_PCOD8044699
_publ_section_title
;
Structure prediction by ZEFSAII (Michael W. Deem and Ramdas Pophale) SiO2 
 PCOD8044699
Probable space group: P -1
;
_chemical_formula_sum "Si O2"
_cell_formula_units_Z 14
_cell_length_a 9.093415
_cell_length_b 9.908390
_cell_length_c 8.778429
_cell_angle_alpha 60.053461
_cell_angle_beta 83.814467
_cell_angle_gamma 70.677254
_cell_volume 645.145172
_symmetry_space_group_name_H-M "P -1"
_symmetry_group_IT_number 2
_symmetry_cell_setting 'triclinic'
loop_
_space_group_symop_operation_xyz
x,y,z
-x,-y,-z
loop_
_atom_site_type_symbol
_atom_site_label
_atom_site_fract_x
_atom_site_fract_y
_atom_site_fract_z
Si Si1 0.841888 0.513121 0.921562
Si Si2 0.167454 0.412563 0.466366
Si Si3 0.450052 0.193410 0.197258
Si Si4 0.873612 0.905328 0.365270
Si Si5 0.633115 0.103976 0.522263
Si Si6 0.237804 0.799908 0.985975
Si Si7 0.218924 0.715922 0.380864
O O1 0.854988 0.572044 0.718827
O O2 0.696835 0.656614 0.928872
O O3 0.803170 0.342868 0.022806
O O4 0.000000 0.500000 0.000000
O O5 0.223850 0.217402 0.608431
O O6 0.272767 0.516243 0.467470
O O7 0.000000 0.500000 0.500000
O O8 0.496734 0.204415 0.364419
O O9 0.416503 0.020050 0.290156
O O10 0.587530 0.200663 0.066922
O O11 0.051393 0.793537 0.439935
O O12 0.790536 0.004110 0.468653
O O13 0.877779 0.027685 0.159435
O O14 0.655911 0.244325 0.548574
O O15 0.211526 0.793952 0.170966
#
# Coordination Sequence:
#
# PCOD8044699 Si02
#       7
#     2   2   2   2   2   2   2
#     4  11  23  41  66  93 124 163 212 257 308 370
#     4   9  20  39  58  91 128 156 201 260 311 354
#     4  10  22  42  62  90 130 166 207 251 311 379
#     4  10  19  38  65  90 127 166 211 258 298 372
#     4  10  21  38  68  89 121 170 212 252 303 373
#     4  10  23  39  62  93 132 164 199 262 319 362
#     4  10  21  37  62  97 126 158 211 261 314 354
#
# _framework density 21.700541999999999
#
# number of rings (size 3 to 8) (size 9 to 14) (size 15 to 20)
#    0.000    2.000    1.429    1.286    2.000    5.143 
#    0.000    4.286    0.000    0.000    0.000    0.000 
#    0.000    0.000    0.000    0.000    0.000    0.000 
#
# Total GULP energy -173491.503701 kJ/mol
# GULP energy per Si atom -12392.250264 kJ/mol
# Density = 2.165115 g / cm^3
# Si number density = 21.700542 Si / 1000 Ang^3
#
#
#
# Elastic Constant Matrix: (Units=GPa)
#
#
# Indices 1 2 3 4 5 6 
#
# 1 92.2326 34.6828 18.8707 -2.3383 0.8882 11.3195
# 2 34.6828 108.4511 36.6172 -13.6357 5.1286 33.8818
# 3 18.8707 36.6172 53.8383 -25.0800 -14.8806 15.2208
# 4 -2.3383 -13.6357 -25.0800 35.4501 -2.2403 -3.0706
# 5 0.8882 5.1286 -14.8806 -2.2403 37.7492 -1.8183
# 6 11.3195 33.8818 15.2208 -3.0706 -1.8183 42.7619
#
#
#
# Elastic Compliance Matrix: (Units=1/GPa)
#
#
# Indices 1 2 3 4 5 6 
#
# 1 0.012845 -0.002902 -0.005037 -0.003939 -0.002112 0.000320
# 2 -0.002902 0.016697 -0.011108 -0.002863 -0.007183 -0.009018
# 3 -0.005037 -0.011108 0.050705 0.032343 0.023313 -0.004600
# 4 -0.003939 -0.002863 0.032343 0.050405 0.016034 -0.003900
# 5 -0.002112 -0.007183 0.023313 0.016034 0.037692 0.000706
# 6 0.000320 -0.009018 -0.004600 -0.003900 0.000706 0.031833
#
#
# Mechanical properties :
#
#
# Convention : Reuss Voigt Hill
#
# Bulk Modulus (GPa) = 23.72385 48.31815 36.02100
# Shear Modulus (GPa) = 19.81587 34.14899 26.98243
#
# Velocity S-wave (km/s) = 3.02512 3.97123 3.53001
# Velocity P-wave (km/s) = 4.81226 6.58344 5.76626
#
# Compressibility (1/GPa) = 0.04215167
#
# Stress axis : x y z
#
# Youngs Moduli (GPa) = 77.84865 59.89248 19.72188
#
# Poissons Ratio (x) = 0.17383 0.09934
# Poissons Ratio (y) = 0.22595 0.21907
# Poissons Ratio (z) = 0.39214 0.66529
#
# Static dielectric constant tensor:
#      x y z
#    x 3.884640 0.255890 -0.368020 
#    y 0.255890 4.597920 -0.451480 
#    z -0.368020 -0.451480 3.883540 
# 
# 
# High freq. dielectric constant tensor:
#      x y z
#    x 1.850760 -0.000620 -0.028170 
#    y -0.000620 1.858840 -0.016740 
#    z -0.028170 -0.016740 1.840840 
# 
# From -- ./inp_files/156610.got.cif
#   From: 2010.06.25/outbox.cif.g09.slc.cpg/sg2_79_cif.got.tgz:156610.got - 2010.06.27 13:26:56.
