data_PCOD8044895
_publ_section_title
;
Structure prediction by ZEFSAII (Michael W. Deem and Ramdas Pophale) SiO2 
 PCOD8044895
Probable space group: P 2
;
_chemical_formula_sum "Si O2"
_cell_formula_units_Z 14
_cell_length_a 13.014534
_cell_length_b 5.223410
_cell_length_c 24.391691
_cell_angle_alpha 90.000000
_cell_angle_beta 150.409587
_cell_angle_gamma 90.000000
_cell_volume 818.790024
_symmetry_space_group_name_H-M "P 2"
_symmetry_group_IT_number 3
_symmetry_cell_setting 'monoclinic'
loop_
_space_group_symop_operation_xyz
x,y,z
-x,y,-z
loop_
_atom_site_type_symbol
_atom_site_label
_atom_site_fract_x
_atom_site_fract_y
_atom_site_fract_z
Si Si1 0.020600 0.748110 0.775566
Si Si2 0.047634 0.016566 0.681524
Si Si3 0.190857 0.863030 0.631303
Si Si4 0.260815 0.230612 0.876152
Si Si5 0.639807 0.275106 0.457960
Si Si6 0.250460 0.361110 0.613926
Si Si7 0.560852 0.782606 0.589304
O O1 0.138390 0.481794 0.838725
O O2 0.807793 0.744197 0.711001
O O3 0.965202 0.798240 0.685406
O O4 0.166435 0.983526 0.864574
O O5 0.115794 0.866963 0.658923
O O6 0.232254 0.177081 0.797304
O O7 0.869942 0.222541 0.586836
O O8 0.331810 0.111543 0.684269
O O9 0.000000 0.859085 0.500000
O O10 0.328475 0.610621 0.683509
O O11 0.500000 0.270605 0.000000
O O12 0.653529 0.362084 0.401592
O O13 0.544563 0.510803 0.446930
O O14 0.507122 0.013147 0.401911
O O15 0.000000 0.356267 0.500000
O O16 0.500000 0.869311 0.500000
#
# Coordination Sequence:
#
# PCOD8044895 Si02
#       7
#     2   2   2   2   2   2   2
#     4  10  22  36  53  77 110 143 181 225 270 314
#     4  10  22  33  55  77 108 150 174 218 268 321
#     4  10  19  30  49  70 104 141 171 208 266 312
#     4  10  21  37  57  77 107 141 182 233 280 318
#     4  12  22  33  50  75 113 151 183 207 260 320
#     4  10  20  31  47  68 103 145 170 215 255 299
#     4  12  22  33  49  75 108 151 189 209 246 329
#
# _framework density 17.098400000000002
#
# number of rings (size 3 to 8) (size 9 to 14) (size 15 to 20)
#    0.857    0.571    4.286    3.429    4.000    0.000 
#    0.000    0.000    0.000    0.000    0.000    0.000 
#    0.000   17.143    0.000    0.000    0.000    0.000 
#
# Total GULP energy -173479.030688 kJ/mol
# GULP energy per Si atom -12391.359335 kJ/mol
# Density = 1.705948 g / cm^3
# Si number density = 17.098400 Si / 1000 Ang^3
#
#
#
# Elastic Constant Matrix: (Units=GPa)
#
#
# Indices 1 2 3 4 5 6 
#
# 1 91.0038 41.6857 36.5532 0.0000 6.8048 0.0000
# 2 41.6857 156.9351 31.2591 0.0000 8.1508 0.0000
# 3 36.5532 31.2591 69.9167 0.0000 11.5068 0.0000
# 4 0.0000 0.0000 0.0000 15.1880 0.0000 7.7078
# 5 6.8048 8.1508 11.5068 0.0000 12.3680 0.0000
# 6 0.0000 0.0000 0.0000 7.7078 0.0000 42.3186
#
#
#
# Elastic Compliance Matrix: (Units=1/GPa)
#
#
# Indices 1 2 3 4 5 6 
#
# 1 0.014838 -0.002623 -0.006525 0.000000 -0.000365 0.000000
# 2 -0.002623 0.007501 -0.001661 0.000000 -0.001955 0.000000
# 3 -0.006525 -0.001661 0.020883 0.000000 -0.014745 0.000000
# 4 0.000000 0.000000 0.000000 0.072547 0.000000 -0.013214
# 5 -0.000365 -0.001955 -0.014745 0.000000 0.096061 0.000000
# 6 0.000000 0.000000 0.000000 -0.013214 0.000000 0.026037
#
#
# Mechanical properties :
#
#
# Convention : Reuss Voigt Hill
#
# Bulk Modulus (GPa) = 46.28392 59.65018 52.96705
# Shear Modulus (GPa) = 18.74862 27.86542 23.30702
#
# Velocity S-wave (km/s) = 3.31496 4.04135 3.69604
# Velocity P-wave (km/s) = 6.46373 7.53251 7.01850
#
# Compressibility (1/GPa) = 0.02160578
#
# Stress axis : x y z
#
# Youngs Moduli (GPa) = 67.39436 133.31463 47.88552
#
# Poissons Ratio (x) = 0.34965 0.31245
# Poissons Ratio (y) = 0.17676 0.07952
# Poissons Ratio (z) = 0.43974 0.22139
#
# Static dielectric constant tensor:
#      x y z
#    x 3.148970 0.000000 0.057160 
#    y 0.000000 6.805320 0.000000 
#    z 0.057160 0.000000 2.713370 
# 
# 
# High freq. dielectric constant tensor:
#      x y z
#    x 1.650410 0.000000 0.006710 
#    y 0.000000 1.693290 0.000000 
#    z 0.006710 0.000000 1.595050 
# 
# From -- ./inp_files/16279.got.cif
#   From: 2010.03.12/outbox.cif.g09.slc.cpg/sg3_9_cif.got.tgz:16279.got - 2010.03.31 09:20:49.
