data_PCOD8044148
_publ_section_title
;
Structure prediction by ZEFSAII (Michael W. Deem and Ramdas Pophale) SiO2 
 PCOD8044148
Probable space group: P -1
;
_chemical_formula_sum "Si O2"
_cell_formula_units_Z 14
_cell_length_a 19.185585
_cell_length_b 7.065810
_cell_length_c 13.902261
_cell_angle_alpha 119.065716
_cell_angle_beta 148.832041
_cell_angle_gamma 44.251631
_cell_volume 637.104069
_symmetry_space_group_name_H-M "P -1"
_symmetry_group_IT_number 2
_symmetry_cell_setting 'triclinic'
loop_
_space_group_symop_operation_xyz
x,y,z
-x,-y,-z
loop_
_atom_site_type_symbol
_atom_site_label
_atom_site_fract_x
_atom_site_fract_y
_atom_site_fract_z
Si Si1 0.823974 0.329263 0.881609
Si Si2 0.052324 0.318266 0.857496
Si Si3 0.348908 0.712805 0.155745
Si Si4 0.528092 0.853335 0.898416
Si Si5 0.269323 0.553661 0.414566
Si Si6 0.845385 0.896013 0.488009
Si Si7 0.138877 0.255348 0.741732
O O1 0.688116 0.370790 0.808413
O O2 0.720015 0.440293 0.685620
O O3 0.882567 0.505990 0.024752
O O4 0.000000 0.000000 0.000000
O O5 0.049061 0.231868 0.721473
O O6 0.849488 0.528134 0.714022
O O7 0.181188 0.034714 0.005531
O O8 0.394205 0.473144 0.074305
O O9 0.525242 0.678598 0.363643
O O10 0.330520 0.045611 0.663438
O O11 0.672812 0.853865 0.017214
O O12 0.500000 0.000000 0.000000
O O13 0.154633 0.869625 0.406164
O O14 0.836403 0.924782 0.367022
O O15 0.025341 0.585305 0.655905
#
# Coordination Sequence:
#
# PCOD8044148 Si02
#       7
#     2   2   2   2   2   2   2
#     4  12  24  46  70  91 130 178 213 264 326 379
#     4  12  25  42  66 100 128 168 219 266 325 380
#     4  11  24  44  66  97 132 170 215 267 320 380
#     4   9  18  38  65  91 124 170 211 254 316 383
#     4  11  24  42  63  97 131 166 216 267 316 385
#     4   9  20  38  63  91 126 168 215 258 320 380
#     4  10  19  37  64  92 126 169 210 266 317 379
#
# _framework density 21.974429000000001
#
# number of rings (size 3 to 8) (size 9 to 14) (size 15 to 20)
#    0.000    1.429    2.857    2.571    0.000    2.286 
#    2.571    6.429    0.000    0.000    0.000    0.000 
#    0.000    0.000    0.000    0.000    0.000    0.000 
#
# Total GULP energy -173504.322073 kJ/mol
# GULP energy per Si atom -12393.165862 kJ/mol
# Density = 2.192441 g / cm^3
# Si number density = 21.974429 Si / 1000 Ang^3
#
#
#
# Elastic Constant Matrix: (Units=GPa)
#
#
# Indices 1 2 3 4 5 6 
#
# 1 134.7585 30.0119 52.2305 1.4350 0.4924 4.6829
# 2 30.0119 54.9571 15.9668 9.6030 5.6387 -12.2638
# 3 52.2305 15.9668 102.1473 -1.5071 13.6401 -2.0081
# 4 1.4350 9.6030 -1.5071 21.3407 -7.7409 -0.3409
# 5 0.4924 5.6387 13.6401 -7.7409 33.7800 -0.2446
# 6 4.6829 -12.2638 -2.0081 -0.3409 -0.2446 24.5161
#
#
#
# Elastic Compliance Matrix: (Units=1/GPa)
#
#
# Indices 1 2 3 4 5 6 
#
# 1 0.011104 -0.006820 -0.005183 0.003229 0.003767 -0.005875
# 2 -0.006820 0.028813 0.000150 -0.015204 -0.008143 0.015436
# 3 -0.005183 0.000150 0.013170 -0.000721 -0.005418 0.002080
# 4 0.003229 -0.015204 -0.000721 0.059229 0.016302 -0.007295
# 5 0.003767 -0.008143 -0.005418 0.016302 0.036797 -0.004643
# 6 -0.005875 0.015436 0.002080 -0.007295 -0.004643 0.049656
#
#
# Mechanical properties :
#
#
# Convention : Reuss Voigt Hill
#
# Bulk Modulus (GPa) = 34.03416 54.25349 44.14382
# Shear Modulus (GPa) = 21.52677 28.83759 25.18218
#
# Velocity S-wave (km/s) = 3.13330 3.62653 3.38890
# Velocity P-wave (km/s) = 5.34900 6.50220 5.95359
#
# Compressibility (1/GPa) = 0.02938224
#
# Stress axis : x y z
#
# Youngs Moduli (GPa) = 90.05569 34.70612 75.92964
#
# Poissons Ratio (x) = 0.23669 0.39352
# Poissons Ratio (y) = 0.61416 -0.01137
# Poissons Ratio (z) = 0.46673 -0.00520
#
# Static dielectric constant tensor:
#      x y z
#    x 3.711810 0.068740 0.174340 
#    y 0.068740 3.740690 0.669860 
#    z 0.174340 0.669860 5.305330 
# 
# 
# High freq. dielectric constant tensor:
#      x y z
#    x 1.864170 -0.032080 0.011670 
#    y -0.032080 1.846040 0.006020 
#    z 0.011670 0.006020 1.879100 
# 
# From -- ./inp_files/53415.got.cif
#   From: 2010.06.25/outbox.cif.g09.slc.cpg/sg2_27_cif.got.tgz:53415.got - 2010.06.27 13:26:56.
