data_PCOD8044242
_publ_section_title
;
Structure prediction by ZEFSAII (Michael W. Deem and Ramdas Pophale) SiO2 
 PCOD8044242
Probable space group: P -1
;
_chemical_formula_sum "Si O2"
_cell_formula_units_Z 16
_cell_length_a 11.269170
_cell_length_b 20.085437
_cell_length_c 20.273029
_cell_angle_alpha 18.961075
_cell_angle_beta 30.967078
_cell_angle_gamma 40.867722
_cell_volume 724.938365
_symmetry_space_group_name_H-M "P -1"
_symmetry_group_IT_number 2
_symmetry_cell_setting 'triclinic'
loop_
_space_group_symop_operation_xyz
x,y,z
-x,-y,-z
loop_
_atom_site_type_symbol
_atom_site_label
_atom_site_fract_x
_atom_site_fract_y
_atom_site_fract_z
Si Si1 0.142119 0.830439 0.886914
Si Si2 0.279526 0.827513 0.020590
Si Si3 0.151858 0.630526 0.504440
Si Si4 0.470753 0.296087 0.108682
Si Si5 0.013289 0.951977 0.363751
Si Si6 0.246727 0.289137 0.464176
Si Si7 0.277474 0.288082 0.600041
Si Si8 0.499473 0.289744 0.846323
O O1 0.378446 0.752316 0.855094
O O2 0.183313 0.030322 0.731503
O O3 0.115277 0.924512 0.740066
O O4 0.902109 0.620310 0.211978
O O5 0.444617 0.785120 0.923315
O O6 0.363282 0.081791 0.756101
O O7 0.319806 0.735672 0.158452
O O8 0.995349 0.747366 0.209451
O O9 0.123785 0.784216 0.432832
O O10 0.417234 0.731761 0.248929
O O11 0.972524 0.632465 0.528660
O O12 0.185060 0.178722 0.366147
O O13 0.522018 0.557852 0.832720
O O14 0.226540 0.127728 0.137414
O O15 0.292182 0.369644 0.441514
O O16 0.479370 0.459349 0.388905
#
# Coordination Sequence:
#
# PCOD8044242 Si02
#       8
#     2   2   2   2   2   2   2   2
#     4  10  22  41  66  93 119 161 210 266 300 357
#     4  11  23  38  67  96 126 157 203 266 311 364
#     4  10  23  41  65  91 121 163 210 260 307 358
#     4  11  22  41  64  93 125 165 208 254 308 362
#     4  11  27  42  60  90 130 174 207 242 305 381
#     4  10  19  37  66  94 120 152 207 263 307 356
#     4  11  21  38  65  99 118 157 209 256 314 360
#     4  12  24  41  63  93 131 164 200 256 315 370
#
# _framework density 22.07084
#
# number of rings (size 3 to 8) (size 9 to 14) (size 15 to 20)
#    0.000    1.250    3.750    2.625    1.750    7.500 
#    0.000    0.625    0.000    0.000    0.000    0.000 
#    0.000    0.000    0.000    0.000    0.000    0.000 
#
# Total GULP energy -198297.813494 kJ/mol
# GULP energy per Si atom -12393.613343 kJ/mol
# Density = 2.202061 g / cm^3
# Si number density = 22.070840 Si / 1000 Ang^3
#
#
#
# Elastic Constant Matrix: (Units=GPa)
#
#
# Indices 1 2 3 4 5 6 
#
# 1 38.0569 21.8424 29.8265 -5.1641 -7.0784 15.4164
# 2 21.8424 65.4083 48.7430 -13.6382 -2.7890 16.8726
# 3 29.8265 48.7430 158.8568 -9.3842 -10.6357 6.7938
# 4 -5.1641 -13.6382 -9.3842 37.6347 1.5411 -0.2758
# 5 -7.0784 -2.7890 -10.6357 1.5411 33.9496 -3.6227
# 6 15.4164 16.8726 6.7938 -0.2758 -3.6227 21.0132
#
#
#
# Elastic Compliance Matrix: (Units=1/GPa)
#
#
# Indices 1 2 3 4 5 6 
#
# 1 0.045165 -0.002279 -0.006077 0.003478 0.004118 -0.028585
# 2 -0.002279 0.027551 -0.006947 0.007915 -0.002729 -0.018571
# 3 -0.006077 -0.006947 0.009319 -0.001052 0.001913 0.007339
# 4 0.003478 0.007915 -0.001052 0.029642 -0.001194 -0.008384
# 5 0.004118 -0.002729 0.001913 -0.001194 0.031160 0.003908
# 6 -0.028585 -0.018571 0.007339 -0.008384 0.003908 0.081663
#
#
# Mechanical properties :
#
#
# Convention : Reuss Voigt Hill
#
# Bulk Modulus (GPa) = 19.44413 51.46063 35.45238
# Shear Modulus (GPa) = 18.36560 29.31350 23.83955
#
# Velocity S-wave (km/s) = 2.88778 3.64834 3.29011
# Velocity P-wave (km/s) = 4.46632 6.41201 5.52548
#
# Compressibility (1/GPa) = 0.05142941
#
# Stress axis : x y z
#
# Youngs Moduli (GPa) = 22.14125 36.29682 107.30196
#
# Poissons Ratio (x) = 0.08272 0.65208
# Poissons Ratio (y) = 0.05046 0.74538
# Poissons Ratio (z) = 0.13455 0.25214
#
# Static dielectric constant tensor:
#      x y z
#    x 3.689240 0.043640 0.208750 
#    y 0.043640 3.739850 -0.337130 
#    z 0.208750 -0.337130 4.382600 
# 
# 
# High freq. dielectric constant tensor:
#      x y z
#    x 1.844760 0.015940 0.016930 
#    y 0.015940 1.850760 -0.023630 
#    z 0.016930 -0.023630 1.890360 
# 
# From -- ./inp_files/457622.got.cif
#   From: 2010.06.25/outbox.cif.g09.slc.cpg/sg2_229_cif.got.tgz:457622.got - 2010.06.27 13:26:56.
