data_PCOD8044659
_publ_section_title
;
Structure prediction by ZEFSAII (Michael W. Deem and Ramdas Pophale) SiO2 
 PCOD8044659
Probable space group: P -1
;
_chemical_formula_sum "Si O2"
_cell_formula_units_Z 14
_cell_length_a 14.198688
_cell_length_b 7.217460
_cell_length_c 15.750178
_cell_angle_alpha 49.604221
_cell_angle_beta 27.329578
_cell_angle_gamma 62.873105
_cell_volume 530.215899
_symmetry_space_group_name_H-M "P -1"
_symmetry_group_IT_number 2
_symmetry_cell_setting 'triclinic'
loop_
_space_group_symop_operation_xyz
x,y,z
-x,-y,-z
loop_
_atom_site_type_symbol
_atom_site_label
_atom_site_fract_x
_atom_site_fract_y
_atom_site_fract_z
Si Si1 0.794896 0.836178 0.321001
Si Si2 0.576204 0.299790 0.697324
Si Si3 0.817098 0.689351 0.888379
Si Si4 0.722680 0.999487 0.515980
Si Si5 0.264214 0.896836 0.879136
Si Si6 0.770036 0.481821 0.657301
Si Si7 0.387469 0.215396 0.136607
O O1 0.650606 0.535551 0.499388
O O2 0.718810 0.932869 0.439655
O O3 0.751555 0.012278 0.229968
O O4 0.055611 0.890761 0.102863
O O5 0.758737 0.464038 0.570999
O O6 0.648742 0.042478 0.697505
O O7 0.328449 0.219960 0.953153
O O8 0.812380 0.807106 0.761791
O O9 0.707736 0.382126 0.062441
O O10 0.062511 0.757927 0.705475
O O11 0.494230 0.068185 0.691440
O O12 0.733459 0.750886 0.637182
O O13 0.000000 0.500000 0.500000
O O14 0.588875 0.217103 0.913404
O O15 0.500000 0.500000 0.000000
#
# Coordination Sequence:
#
# PCOD8044659 Si02
#       7
#     2   2   2   2   2   2   2
#     4  10  24  45  72 101 142 183 228 297 338 411
#     4  10  21  42  65  98 135 185 228 275 350 414
#     4  11  23  43  71 101 137 185 233 282 344 422
#     4  11  22  43  73  97 143 187 225 286 348 411
#     4  11  23  47  69 105 145 173 242 285 341 414
#     4  10  19  38  64  94 134 179 226 276 339 415
#     4  11  23  40  67  99 140 176 228 291 343 414
#
# _framework density 26.404337999999999
#
# number of rings (size 3 to 8) (size 9 to 14) (size 15 to 20)
#    0.000    1.429    4.286    3.857    0.000    5.143 
#    2.571    3.571    0.000    0.000    0.000    0.000 
#    0.000    0.000    0.000    0.000    0.000    0.000 
#
# Total GULP energy -173467.099863 kJ/mol
# GULP energy per Si atom -12390.507133 kJ/mol
# Density = 2.634424 g / cm^3
# Si number density = 26.404338 Si / 1000 Ang^3
#
#
#
# Elastic Constant Matrix: (Units=GPa)
#
#
# Indices 1 2 3 4 5 6 
#
# 1 79.9209 18.6227 43.3584 3.1303 -16.8802 -24.9117
# 2 18.6227 106.9855 20.2937 4.6863 -4.6729 -7.6918
# 3 43.3584 20.2937 126.3086 14.8105 -21.5746 -16.9582
# 4 3.1303 4.6863 14.8105 46.2756 -12.7025 -6.8291
# 5 -16.8802 -4.6729 -21.5746 -12.7025 57.7323 -0.6391
# 6 -24.9117 -7.6918 -16.9582 -6.8291 -0.6391 35.1326
#
#
#
# Elastic Compliance Matrix: (Units=1/GPa)
#
#
# Indices 1 2 3 4 5 6 
#
# 1 0.020181 -0.001688 -0.004533 0.003469 0.004972 0.012517
# 2 -0.001688 0.009861 -0.000909 -0.000576 -0.000157 0.000408
# 3 -0.004533 -0.000909 0.010382 -0.002194 0.002011 0.001208
# 4 0.003469 -0.000576 -0.002194 0.024588 0.005626 0.006156
# 5 0.004972 -0.000157 0.002011 0.005626 0.020817 0.005934
# 6 0.012517 0.000408 0.001208 0.006156 0.005934 0.039316
#
#
# Mechanical properties :
#
#
# Convention : Reuss Voigt Hill
#
# Bulk Modulus (GPa) = 38.22198 53.08497 45.65347
# Shear Modulus (GPa) = 33.75452 43.22411 38.48931
#
# Velocity S-wave (km/s) = 3.57931 4.05038 3.82211
# Velocity P-wave (km/s) = 5.62041 6.48247 6.06677
#
# Compressibility (1/GPa) = 0.02616296
#
# Stress axis : x y z
#
# Youngs Moduli (GPa) = 49.55204 101.40868 96.31653
#
# Poissons Ratio (x) = 0.17116 0.43664
# Poissons Ratio (y) = 0.08363 0.08760
# Poissons Ratio (z) = 0.22464 0.09223
#
# Static dielectric constant tensor:
#      x y z
#    x 4.375440 -0.160060 0.171780 
#    y -0.160060 4.992690 -0.223280 
#    z 0.171780 -0.223280 5.485690 
# 
# 
# High freq. dielectric constant tensor:
#      x y z
#    x 2.073660 0.008050 0.009480 
#    y 0.008050 2.066670 0.005400 
#    z 0.009480 0.005400 2.076080 
# 
# From -- ./inp_files/599353.got.cif
#   From: 2010.06.25/outbox.cif.g09.slc.cpg/sg2_300_cif.got.tgz:599353.got - 2010.06.27 13:26:56.
