data_PCOD8044151
_publ_section_title
;
Structure prediction by ZEFSAII (Michael W. Deem and Ramdas Pophale) SiO2 
 PCOD8044151
Probable space group: P -1
;
_chemical_formula_sum "Si O2"
_cell_formula_units_Z 14
_cell_length_a 14.636085
_cell_length_b 8.029569
_cell_length_c 6.864072
_cell_angle_alpha 78.763347
_cell_angle_beta 54.233279
_cell_angle_gamma 98.167103
_cell_volume 607.884328
_symmetry_space_group_name_H-M "P -1"
_symmetry_group_IT_number 2
_symmetry_cell_setting 'triclinic'
loop_
_space_group_symop_operation_xyz
x,y,z
-x,-y,-z
loop_
_atom_site_type_symbol
_atom_site_label
_atom_site_fract_x
_atom_site_fract_y
_atom_site_fract_z
Si Si1 0.439088 0.709585 0.179998
Si Si2 0.714964 0.164483 0.902637
Si Si3 0.906226 0.648923 0.038204
Si Si4 0.661094 0.609672 0.896108
Si Si5 0.135258 0.101280 0.251864
Si Si6 0.924409 0.460520 0.410600
Si Si7 0.321824 0.646164 0.741802
O O1 0.406936 0.867255 0.062225
O O2 0.365336 0.507123 0.241659
O O3 0.413226 0.724919 0.436245
O O4 0.579270 0.739150 0.975869
O O5 0.791875 0.355204 0.668446
O O6 0.783082 0.023306 0.825443
O O7 0.691478 0.186800 0.154645
O O8 0.928683 0.642690 0.244772
O O9 0.807474 0.459840 0.155939
O O10 0.865015 0.816407 0.984348
O O11 0.025806 0.662117 0.766383
O O12 0.800337 0.735644 0.714775
O O13 0.626651 0.476082 0.154892
O O14 0.000000 0.000000 0.500000
O O15 0.000000 0.500000 0.500000
#
# Coordination Sequence:
#
# PCOD8044151 Si02
#       7
#     2   2   2   2   2   2   2
#     4  10  20  41  67  95 120 166 225 262 310 373
#     4  11  22  36  62  94 132 166 205 265 325 373
#     4  10  21  36  62  87 119 170 218 256 311 370
#     4   9  22  40  67  93 123 169 215 269 310 372
#     4  11  23  42  62  95 141 168 205 265 326 386
#     4  11  20  36  62  87 120 166 223 264 298 374
#     4  10  19  37  64  93 122 162 216 267 310 376
#
# _framework density 23.030698999999998
#
# number of rings (size 3 to 8) (size 9 to 14) (size 15 to 20)
#    0.000    1.714    4.286    0.429    0.000    0.571 
#    0.000    5.714    0.000    0.000    0.000    0.000 
#    0.000    0.000    0.000    0.000    0.000    0.000 
#
# Total GULP energy -173505.625817 kJ/mol
# GULP energy per Si atom -12393.258987 kJ/mol
# Density = 2.297828 g / cm^3
# Si number density = 23.030699 Si / 1000 Ang^3
#
#
#
# Elastic Constant Matrix: (Units=GPa)
#
#
# Indices 1 2 3 4 5 6 
#
# 1 141.9929 33.0763 35.2334 -2.1630 13.2510 -14.2267
# 2 33.0763 46.4687 19.5650 1.6598 9.6191 -8.8241
# 3 35.2334 19.5650 100.2924 18.5886 23.3110 4.4773
# 4 -2.1630 1.6598 18.5886 26.2279 -1.0479 -2.7903
# 5 13.2510 9.6191 23.3110 -1.0479 44.1831 -1.2556
# 6 -14.2267 -8.8241 4.4773 -2.7903 -1.2556 43.7911
#
#
#
# Elastic Compliance Matrix: (Units=1/GPa)
#
#
# Indices 1 2 3 4 5 6 
#
# 1 0.009262 -0.004956 -0.003074 0.003530 0.000079 0.002552
# 2 -0.004956 0.027810 -0.003363 0.000566 -0.002658 0.004297
# 3 -0.003074 -0.003363 0.015750 -0.011937 -0.007060 -0.004249
# 4 0.003530 0.000566 -0.011937 0.047706 0.006410 0.005705
# 5 0.000079 -0.002658 -0.007060 0.006410 0.027104 0.001397
# 6 0.002552 0.004297 -0.004249 0.005705 0.001397 0.025369
#
#
# Mechanical properties :
#
#
# Convention : Reuss Voigt Hill
#
# Bulk Modulus (GPa) = 33.29345 51.61149 42.45247
# Shear Modulus (GPa) = 26.91102 36.23237 31.57169
#
# Velocity S-wave (km/s) = 3.42202 3.97069 3.70652
# Velocity P-wave (km/s) = 5.48645 6.59396 6.06554
#
# Compressibility (1/GPa) = 0.03003594
#
# Stress axis : x y z
#
# Youngs Moduli (GPa) = 107.96941 35.95860 63.49366
#
# Poissons Ratio (x) = 0.17823 0.19515
# Poissons Ratio (y) = 0.53515 0.21351
# Poissons Ratio (z) = 0.33185 0.12092
#
# Static dielectric constant tensor:
#      x y z
#    x 4.870060 0.228360 -0.425530 
#    y 0.228360 4.212000 -0.505530 
#    z -0.425530 -0.505530 4.992250 
# 
# 
# High freq. dielectric constant tensor:
#      x y z
#    x 1.943990 -0.009310 -0.000380 
#    y -0.009310 1.873010 0.009010 
#    z -0.000380 0.009010 1.894440 
# 
# From -- ./inp_files/90276.got.cif
#   From: 2010.06.25/outbox.cif.g09.slc.cpg/sg2_46_cif.got.tgz:90276.got - 2010.06.27 13:26:56.
