data_PCOD8044951
_publ_section_title
;
Structure prediction by ZEFSAII (Michael W. Deem and Ramdas Pophale) SiO2 
 PCOD8044951
Probable space group: P 2
;
_chemical_formula_sum "Si O2"
_cell_formula_units_Z 14
_cell_length_a 10.375690
_cell_length_b 5.174100
_cell_length_c 30.799743
_cell_angle_alpha 90.000000
_cell_angle_beta 25.692316
_cell_angle_gamma 90.000000
_cell_volume 716.846724
_symmetry_space_group_name_H-M "P 2"
_symmetry_group_IT_number 3
_symmetry_cell_setting 'monoclinic'
loop_
_space_group_symop_operation_xyz
x,y,z
-x,y,-z
loop_
_atom_site_type_symbol
_atom_site_label
_atom_site_fract_x
_atom_site_fract_y
_atom_site_fract_z
Si Si1 0.397267 0.036190 0.697452
Si Si2 0.234140 0.348320 0.550601
Si Si3 0.291212 0.015202 0.104010
Si Si4 0.664147 0.073697 0.710167
Si Si5 0.434634 0.540002 0.632240
Si Si6 0.675339 0.566390 0.755042
Si Si7 0.254830 0.519777 0.168720
O O1 0.550602 0.012059 0.697072
O O2 0.486032 0.310400 0.650659
O O3 0.045244 0.009637 0.810777
O O4 0.519388 0.809428 0.629361
O O5 0.500000 0.240766 0.500000
O O6 0.351158 0.501895 0.473438
O O7 0.024774 0.107383 0.599630
O O8 0.033355 0.546392 0.639765
O O9 0.342964 0.244280 0.122432
O O10 0.377593 0.746260 0.100620
O O11 0.500000 0.063091 0.000000
O O12 0.519313 0.335018 0.774623
O O13 0.563422 0.840324 0.771658
O O14 0.097393 0.545240 0.718246
O O15 0.591908 0.542496 0.830871
#
# Coordination Sequence:
#
# PCOD8044951 Si02
#       7
#     2   2   2   2   2   2   2
#     4  10  22  38  56  79 114 149 183 227 287 334
#     4  10  22  36  55  80 111 148 197 232 255 314
#     4  10  21  37  63  88 109 139 183 236 286 338
#     4  10  22  37  53  79 110 158 181 226 274 323
#     4  10  20  35  55  79 111 149 188 229 271 319
#     4  10  21  36  55  79 111 149 189 224 271 319
#     4  10  19  36  59  86 111 143 182 233 282 330
#
# _framework density 19.529976999999999
#
# number of rings (size 3 to 8) (size 9 to 14) (size 15 to 20)
#    0.857    1.143    1.429    2.143    2.000    2.286 
#    0.000    0.000    0.000    5.143    0.000    0.000 
#    0.000    0.000    0.000    0.000    0.000    0.000 
#
# Total GULP energy -173571.997924 kJ/mol
# GULP energy per Si atom -12397.999852 kJ/mol
# Density = 1.948553 g / cm^3
# Si number density = 19.529977 Si / 1000 Ang^3
#
#
#
# Elastic Constant Matrix: (Units=GPa)
#
#
# Indices 1 2 3 4 5 6 
#
# 1 122.9525 32.0987 27.4792 -0.0121 14.7617 -0.0076
# 2 32.0987 114.9468 10.4309 0.0125 -1.0433 0.0096
# 3 27.4792 10.4309 55.9834 0.0348 14.9664 0.0256
# 4 -0.0121 0.0125 0.0348 14.4355 0.0219 4.2181
# 5 14.7617 -1.0433 14.9664 0.0219 17.9051 0.0171
# 6 -0.0076 0.0096 0.0256 4.2181 0.0171 23.4774
#
#
#
# Elastic Compliance Matrix: (Units=1/GPa)
#
#
# Indices 1 2 3 4 5 6 
#
# 1 0.010206 -0.002646 -0.002866 0.000025 -0.006172 0.000008
# 2 -0.002646 0.009619 -0.001579 -0.000012 0.004062 -0.000004
# 3 -0.002866 -0.001579 0.024411 -0.000030 -0.018134 -0.000008
# 4 0.000025 -0.000012 -0.000030 0.073112 -0.000073 -0.013136
# 5 -0.006172 0.004062 -0.018134 -0.000073 0.076333 -0.000026
# 6 0.000008 -0.000004 -0.000008 -0.013136 -0.000026 0.044954
#
#
# Mechanical properties :
#
#
# Convention : Reuss Voigt Hill
#
# Bulk Modulus (GPa) = 33.27497 48.21115 40.74306
# Shear Modulus (GPa) = 19.02332 26.08855 22.55594
#
# Velocity S-wave (km/s) = 3.12438 3.65885 3.40213
# Velocity P-wave (km/s) = 5.48548 6.52602 6.02824
#
# Compressibility (1/GPa) = 0.03005262
#
# Stress axis : x y z
#
# Youngs Moduli (GPa) = 97.98525 103.96409 40.96444
#
# Poissons Ratio (x) = 0.27507 0.11742
# Poissons Ratio (y) = 0.25925 0.06470
# Poissons Ratio (z) = 0.28086 0.16420
#
# Static dielectric constant tensor:
#      x y z
#    x 3.424230 0.000010 0.096590 
#    y 0.000010 3.639800 -0.000010 
#    z 0.096590 -0.000010 3.244480 
# 
# 
# High freq. dielectric constant tensor:
#      x y z
#    x 1.760650 0.000000 0.021100 
#    y 0.000000 1.771700 0.000000 
#    z 0.021100 0.000000 1.726760 
# 
# From -- ./inp_files/8329.got.cif
#   From: 2010.03.12/outbox.cif.g09.slc.cpg/sg3_5_cif.got.tgz:8329.got - 2010.03.31 09:20:49.
