data_PCOD8044012
_publ_section_title
;
Structure prediction by ZEFSAII (Michael W. Deem and Ramdas Pophale) SiO2 
 PCOD8044012
Probable space group: P -1
;
_chemical_formula_sum "Si O2"
_cell_formula_units_Z 16
_cell_length_a 11.196554
_cell_length_b 21.803897
_cell_length_c 9.733727
_cell_angle_alpha 142.134251
_cell_angle_beta 52.381755
_cell_angle_gamma 150.109954
_cell_volume 705.254171
_symmetry_space_group_name_H-M "P -1"
_symmetry_group_IT_number 2
_symmetry_cell_setting 'triclinic'
loop_
_space_group_symop_operation_xyz
x,y,z
-x,-y,-z
loop_
_atom_site_type_symbol
_atom_site_label
_atom_site_fract_x
_atom_site_fract_y
_atom_site_fract_z
Si Si1 0.924428 0.133928 0.640567
Si Si2 0.871676 0.723808 0.543094
Si Si3 0.366510 0.694489 0.648773
Si Si4 0.649828 0.807291 0.170844
Si Si5 0.116032 0.929972 0.988761
Si Si6 0.774004 0.172398 0.069256
Si Si7 0.426415 0.346225 0.780618
Si Si8 0.604841 0.399600 0.273546
O O1 0.028734 0.237045 0.610828
O O2 0.140710 0.183732 0.650920
O O3 0.687882 0.938895 0.434323
O O4 0.828785 0.171415 0.871919
O O5 0.805484 0.581270 0.396938
O O6 0.631082 0.667977 0.614669
O O7 0.089585 0.884447 0.767706
O O8 0.182015 0.683923 0.699861
O O9 0.396802 0.622261 0.390019
O O10 0.267926 0.597621 0.689988
O O11 0.619412 0.885369 0.841390
O O12 0.529228 0.673157 0.133052
O O13 0.474870 0.714867 0.997286
O O14 0.920208 0.912649 0.125718
O O15 0.052493 0.799706 0.899320
O O16 0.500000 0.000000 0.000000
O O17 0.500000 0.500000 0.000000
#
# Coordination Sequence:
#
# PCOD8044012 Si02
#       8
#     2   2   2   2   2   2   2   2
#     4  12  21  40  64  94 119 160 212 252 300 357
#     4  10  21  36  62  92 123 158 202 256 303 359
#     4  11  22  41  60  89 124 162 200 249 308 364
#     4  11  20  35  64  93 119 155 206 258 298 356
#     4  10  19  37  62  91 118 159 206 249 305 355
#     4  10  23  40  62  90 126 160 202 255 306 360
#     4  12  24  37  61  94 124 154 205 255 303 359
#     4  10  21  37  59  92 129 157 196 252 315 355
#
# _framework density 22.686857
#
# number of rings (size 3 to 8) (size 9 to 14) (size 15 to 20)
#    0.000    1.250    3.750    3.375    3.500    2.000 
#    0.000   10.000    0.000    0.000    0.000    0.000 
#    0.000    0.000    0.000    0.000    0.000    0.000 
#
# Total GULP energy -198425.781402 kJ/mol
# GULP energy per Si atom -12401.611338 kJ/mol
# Density = 2.263522 g / cm^3
# Si number density = 22.686857 Si / 1000 Ang^3
#
#
#
# Elastic Constant Matrix: (Units=GPa)
#
#
# Indices 1 2 3 4 5 6 
#
# 1 57.3029 12.3041 19.3192 -12.5298 -8.5267 -25.2102
# 2 12.3041 76.9178 28.4038 -18.4440 1.6873 -34.9054
# 3 19.3192 28.4038 118.9001 -20.1053 -14.5863 -9.7682
# 4 -12.5298 -18.4440 -20.1053 40.4146 -11.4408 4.0242
# 5 -8.5267 1.6873 -14.5863 -11.4408 34.1340 2.2111
# 6 -25.2102 -34.9054 -9.7682 4.0242 2.2111 36.6149
#
#
#
# Elastic Compliance Matrix: (Units=1/GPa)
#
#
# Indices 1 2 3 4 5 6 
#
# 1 0.036099 0.015348 -0.002544 0.016206 0.010245 0.036408
# 2 0.015348 0.033686 -0.004474 0.014689 0.002608 0.039715
# 3 -0.002544 -0.004474 0.011160 0.004884 0.006248 -0.003954
# 4 0.016206 0.014689 0.004884 0.041967 0.018130 0.020757
# 5 0.010245 0.002608 0.006248 0.018130 0.040033 0.006797
# 6 0.036408 0.039715 -0.003954 0.020757 0.006797 0.086493
#
#
# Mechanical properties :
#
#
# Convention : Reuss Voigt Hill
#
# Bulk Modulus (GPa) = 10.24546 41.46389 25.85468
# Shear Modulus (GPa) = 18.84573 35.10562 26.97567
#
# Velocity S-wave (km/s) = 2.88529 3.93797 3.45199
# Velocity P-wave (km/s) = 3.95294 6.24444 5.22584
#
# Compressibility (1/GPa) = 0.09760419
#
# Stress axis : x y z
#
# Youngs Moduli (GPa) = 27.70182 29.68608 89.60562
#
# Poissons Ratio (x) = -0.45562 0.22793
# Poissons Ratio (y) = -0.42516 0.40093
# Poissons Ratio (z) = 0.07046 0.13283
#
# Static dielectric constant tensor:
#      x y z
#    x 4.430050 -0.300060 -0.015360 
#    y -0.300060 3.922210 0.015640 
#    z -0.015360 0.015640 4.213920 
# 
# 
# High freq. dielectric constant tensor:
#      x y z
#    x 1.881050 -0.028150 0.008610 
#    y -0.028150 1.885970 0.003520 
#    z 0.008610 0.003520 1.901780 
# 
# From -- ./inp_files/158729.got.cif
#   From: 2010.06.25/outbox.cif.g09.slc.cpg/sg2_80_cif.got.tgz:158729.got - 2010.06.27 13:26:56.
