data_PCOD8044239
_publ_section_title
;
Structure prediction by ZEFSAII (Michael W. Deem and Ramdas Pophale) SiO2 
 PCOD8044239
Probable space group: P -1
;
_chemical_formula_sum "Si O2"
_cell_formula_units_Z 12
_cell_length_a 13.618026
_cell_length_b 11.475262
_cell_length_c 8.744913
_cell_angle_alpha 69.945407
_cell_angle_beta 89.691849
_cell_angle_gamma 30.557905
_cell_volume 518.642141
_symmetry_space_group_name_H-M "P -1"
_symmetry_group_IT_number 2
_symmetry_cell_setting 'triclinic'
loop_
_space_group_symop_operation_xyz
x,y,z
-x,-y,-z
loop_
_atom_site_type_symbol
_atom_site_label
_atom_site_fract_x
_atom_site_fract_y
_atom_site_fract_z
Si Si1 0.217673 0.325832 0.389898
Si Si2 0.987816 0.346386 0.450207
Si Si3 0.916138 0.269380 0.907286
Si Si4 0.097158 0.887356 0.300752
Si Si5 0.454606 0.695995 0.889416
Si Si6 0.711215 0.442917 0.276297
O O1 0.101588 0.325549 0.356273
O O2 0.083035 0.583002 0.168695
O O3 0.189485 0.389943 0.540422
O O4 0.500000 0.000000 0.500000
O O5 0.834585 0.434346 0.301223
O O6 0.196664 0.023782 0.671955
O O7 0.963356 0.159314 0.787653
O O8 0.656976 0.520220 0.855586
O O9 0.128686 0.973988 0.154884
O O10 0.324039 0.587178 0.545122
O O11 0.871421 0.168359 0.289418
O O12 0.500000 0.500000 0.000000
O O13 0.465863 0.743364 0.041836
#
# Coordination Sequence:
#
# PCOD8044239 Si02
#       6
#     2   2   2   2   2   2
#     4  11  23  43  67  92 129 181 226 263 320 393
#     4  11  23  43  72  91 130 183 212 268 336 378
#     4  10  19  37  66  93 132 167 219 266 317 390
#     4   9  18  34  64  93 128 167 198 275 327 370
#     4  11  23  39  68 102 132 172 213 266 340 392
#     4  10  20  40  65 100 134 161 219 270 329 399
#
# _framework density 23.137342
#
# number of rings (size 3 to 8) (size 9 to 14) (size 15 to 20)
#    0.000    1.667    3.333    3.000    2.333    0.000 
#    0.000   11.667    0.000    0.000    0.000    0.000 
#    0.000    0.000    0.000    0.000    0.000    0.000 
#
# Total GULP energy -148666.637844 kJ/mol
# GULP energy per Si atom -12388.886487 kJ/mol
# Density = 2.308468 g / cm^3
# Si number density = 23.137342 Si / 1000 Ang^3
#
#
#
# Elastic Constant Matrix: (Units=GPa)
#
#
# Indices 1 2 3 4 5 6 
#
# 1 156.0770 25.6433 72.1664 1.1747 -28.7989 15.4599
# 2 25.6433 73.5036 4.7176 9.7675 -8.8970 2.0415
# 3 72.1664 4.7176 104.2347 22.5277 -20.2892 25.2775
# 4 1.1747 9.7675 22.5277 33.7887 5.7599 -3.1116
# 5 -28.7989 -8.8970 -20.2892 5.7599 48.6989 5.9072
# 6 15.4599 2.0415 25.2775 -3.1116 5.9072 30.2543
#
#
#
# Elastic Compliance Matrix: (Units=1/GPa)
#
#
# Indices 1 2 3 4 5 6 
#
# 1 0.011619 -0.004575 -0.010589 0.008325 0.000148 0.004046
# 2 -0.004575 0.017277 0.008218 -0.012142 0.006303 -0.008174
# 3 -0.010589 0.008218 0.033021 -0.029407 0.015978 -0.028878
# 4 0.008325 -0.012142 -0.029407 0.058745 -0.020271 0.031134
# 5 0.000148 0.006303 0.015978 -0.020271 0.033556 -0.022488
# 6 0.004046 -0.008174 -0.028878 0.031134 -0.022488 0.063257
#
#
# Mechanical properties :
#
#
# Convention : Reuss Voigt Hill
#
# Bulk Modulus (GPa) = 20.82154 59.87445 40.34800
# Shear Modulus (GPa) = 20.21235 37.96758 29.08996
#
# Velocity S-wave (km/s) = 2.95885 4.05528 3.54965
# Velocity P-wave (km/s) = 4.54881 6.91817 5.85460
#
# Compressibility (1/GPa) = 0.04802719
#
# Stress axis : x y z
#
# Youngs Moduli (GPa) = 86.06919 57.88179 30.28331
#
# Poissons Ratio (x) = 0.26478 0.32066
# Poissons Ratio (y) = 0.39373 -0.24888
# Poissons Ratio (z) = 0.91136 -0.47570
#
# Static dielectric constant tensor:
#      x y z
#    x 4.265000 0.065910 -0.139850 
#    y 0.065910 4.227260 0.164050 
#    z -0.139850 0.164050 4.985370 
# 
# 
# High freq. dielectric constant tensor:
#      x y z
#    x 1.911080 -0.002100 -0.023560 
#    y -0.002100 1.905730 0.010610 
#    z -0.023560 0.010610 1.911980 
# 
# From -- ./inp_files/178329.got.cif
#   From: 2010.06.25/outbox.cif.g09.slc.cpg/sg2_90_cif.got.tgz:178329.got - 2010.06.27 13:26:56.
