data_PCOD8044388
_publ_section_title
;
Structure prediction by ZEFSAII (Michael W. Deem and Ramdas Pophale) SiO2 
 PCOD8044388
Probable space group: P -1
;
_chemical_formula_sum "Si O2"
_cell_formula_units_Z 14
_cell_length_a 17.528546
_cell_length_b 8.128665
_cell_length_c 14.704649
_cell_angle_alpha 57.768204
_cell_angle_beta 23.145738
_cell_angle_gamma 55.321440
_cell_volume 676.918451
_symmetry_space_group_name_H-M "P -1"
_symmetry_group_IT_number 2
_symmetry_cell_setting 'triclinic'
loop_
_space_group_symop_operation_xyz
x,y,z
-x,-y,-z
loop_
_atom_site_type_symbol
_atom_site_label
_atom_site_fract_x
_atom_site_fract_y
_atom_site_fract_z
Si Si1 0.461265 0.612440 0.293701
Si Si2 0.739986 0.408957 0.659652
Si Si3 0.903590 0.844189 0.201358
Si Si4 0.400845 0.230675 0.564134
Si Si5 0.865897 0.450748 0.824147
Si Si6 0.640517 0.245201 0.993026
Si Si7 0.531515 0.092834 0.646264
O O1 0.286446 0.655251 0.396550
O O2 0.504149 0.388994 0.355282
O O3 0.395018 0.781069 0.392442
O O4 0.671060 0.623103 0.014158
O O5 0.579445 0.614512 0.794666
O O6 0.959566 0.443121 0.426532
O O7 0.704822 0.239345 0.818291
O O8 0.822777 0.723034 0.245001
O O9 0.071949 0.691907 0.115810
O O10 0.726959 0.946463 0.433379
O O11 0.000000 0.000000 0.000000
O O12 0.411839 0.248456 0.655955
O O13 0.500000 0.000000 0.500000
O O14 0.808657 0.321665 0.842273
O O15 0.625148 0.026811 0.107079
#
# Coordination Sequence:
#
# PCOD8044388 Si02
#       7
#     2   2   2   2   2   2   2
#     4  11  23  39  60  88 128 154 186 246 302 353
#     4  10  20  40  62  88 115 160 204 238 288 347
#     4  11  20  36  62  89 112 154 206 241 283 354
#     4  10  19  38  60  81 118 155 197 236 287 349
#     4  11  19  39  61  89 113 155 208 240 283 345
#     4  10  21  38  64  87 117 156 203 246 282 347
#     4  11  22  40  57  89 127 154 187 247 308 342
#
# _framework density 20.681958000000002
#
# number of rings (size 3 to 8) (size 9 to 14) (size 15 to 20)
#    0.000    1.429    2.857    6.000    0.000    0.571 
#    5.143    2.143    0.000    0.000    0.000    0.000 
#    0.000    0.000    0.000    0.000    0.000    0.000 
#
# Total GULP energy -173562.611172 kJ/mol
# GULP energy per Si atom -12397.329369 kJ/mol
# Density = 2.063488 g / cm^3
# Si number density = 20.681958 Si / 1000 Ang^3
#
#
#
# Elastic Constant Matrix: (Units=GPa)
#
#
# Indices 1 2 3 4 5 6 
#
# 1 131.1510 25.6527 42.2405 -18.6683 5.0761 3.6383
# 2 25.6527 27.5366 25.2114 -13.4349 1.8173 7.1233
# 3 42.2405 25.2114 110.5889 -32.0441 -7.5626 0.5902
# 4 -18.6683 -13.4349 -32.0441 21.9980 -8.9490 0.0061
# 5 5.0761 1.8173 -7.5626 -8.9490 35.7458 -5.5722
# 6 3.6383 7.1233 0.5902 0.0061 -5.5722 33.5227
#
#
#
# Elastic Compliance Matrix: (Units=1/GPa)
#
#
# Indices 1 2 3 4 5 6 
#
# 1 0.009768 -0.006917 -0.002125 0.000423 -0.001344 0.000224
# 2 -0.006917 0.062633 -0.002954 0.029133 0.002583 -0.012082
# 3 -0.002125 -0.002954 0.020638 0.031828 0.013205 0.002684
# 4 0.000423 0.029133 0.031828 0.124741 0.036299 -0.000786
# 5 -0.001344 0.002583 0.013205 0.036299 0.040875 0.006152
# 6 0.000224 -0.012082 0.002684 -0.000786 0.006152 0.033349
#
#
# Mechanical properties :
#
#
# Convention : Reuss Voigt Hill
#
# Bulk Modulus (GPa) = 14.48262 50.60952 32.54607
# Shear Modulus (GPa) = 14.74873 29.99807 22.37340
#
# Velocity S-wave (km/s) = 2.67333 3.81260 3.29262
# Velocity P-wave (km/s) = 4.06776 6.62607 5.49779
#
# Compressibility (1/GPa) = 0.06904827
#
# Stress axis : x y z
#
# Youngs Moduli (GPa) = 102.37356 15.96608 48.45318
#
# Poissons Ratio (x) = 0.11044 0.10294
# Poissons Ratio (y) = 0.70816 0.14311
# Poissons Ratio (z) = 0.21749 0.04716
#
# Static dielectric constant tensor:
#      x y z
#    x 4.336820 -0.155340 -0.032010 
#    y -0.155340 3.342290 -0.216510 
#    z -0.032010 -0.216510 3.767090 
# 
# 
# High freq. dielectric constant tensor:
#      x y z
#    x 1.831360 -0.011230 -0.003270 
#    y -0.011230 1.769530 -0.026010 
#    z -0.003270 -0.026010 1.809050 
# 
# From -- ./inp_files/201028.got.cif
#   From: 2010.06.25/outbox.cif.g09.slc.cpg/sg2_101_cif.got.tgz:201028.got - 2010.06.27 13:26:56.
