data_PCOD8044552
_publ_section_title
;
Structure prediction by ZEFSAII (Michael W. Deem and Ramdas Pophale) SiO2 
 PCOD8044552
Probable space group: P -1
;
_chemical_formula_sum "Si O2"
_cell_formula_units_Z 16
_cell_length_a 9.570644
_cell_length_b 10.063711
_cell_length_c 7.129377
_cell_angle_alpha 103.773579
_cell_angle_beta 123.263639
_cell_angle_gamma 76.671622
_cell_volume 553.417016
_symmetry_space_group_name_H-M "P -1"
_symmetry_group_IT_number 2
_symmetry_cell_setting 'triclinic'
loop_
_space_group_symop_operation_xyz
x,y,z
-x,-y,-z
loop_
_atom_site_type_symbol
_atom_site_label
_atom_site_fract_x
_atom_site_fract_y
_atom_site_fract_z
Si Si1 0.270764 0.678760 0.233425
Si Si2 0.210000 0.454924 0.771777
Si Si3 0.064011 0.945623 0.245813
Si Si4 0.131923 0.161830 0.620169
Si Si5 0.599468 0.770316 0.577626
Si Si6 0.475668 0.723358 0.078875
Si Si7 0.307267 0.013678 0.020536
Si Si8 0.869605 0.532941 0.689459
O O1 0.186523 0.834291 0.183355
O O2 0.438007 0.690542 0.486615
O O3 0.334680 0.634363 0.046681
O O4 0.152648 0.579110 0.205120
O O5 0.105294 0.323653 0.619974
O O6 0.392704 0.387118 0.974269
O O7 0.218470 0.512947 0.584992
O O8 0.071577 0.548241 0.831518
O O9 0.034212 0.873583 0.402269
O O10 0.146871 0.083947 0.402764
O O11 0.880998 0.985685 0.023232
O O12 0.295560 0.107666 0.854524
O O13 0.590449 0.784101 0.347882
O O14 0.583512 0.917655 0.720114
O O15 0.772173 0.678201 0.738248
O O16 0.383332 0.859490 0.956081
#
# Coordination Sequence:
#
# PCOD8044552 Si02
#       8
#     2   2   2   2   2   2   2   2
#     4  10  20  38  59  89 123 155 201 249 294 349
#     4  10  20  36  62  89 116 157 208 243 289 356
#     4   9  20  38  62  87 122 157 195 245 304 367
#     4   9  20  38  59  91 117 155 199 244 300 357
#     4   9  21  34  61  91 121 159 198 245 293 355
#     4   9  22  34  58  93 126 151 193 250 299 354
#     4  10  19  39  59  94 124 158 190 245 311 357
#     4  10  19  38  63  85 115 170 204 239 293 348
#
# _framework density 28.911292
#
# number of rings (size 3 to 8) (size 9 to 14) (size 15 to 20)
#    1.500    1.000    1.250    0.750    1.750    2.000 
#    0.000    2.500    0.000    3.750    0.000    0.000 
#    0.000    0.000    0.000    0.000    0.000    0.000 
#
# Total GULP energy -198221.222538 kJ/mol
# GULP energy per Si atom -12388.826409 kJ/mol
# Density = 2.884549 g / cm^3
# Si number density = 28.911292 Si / 1000 Ang^3
#
#
#
# Elastic Constant Matrix: (Units=GPa)
#
#
# Indices 1 2 3 4 5 6 
#
# 1 85.9679 29.0859 14.2368 -10.9800 23.6287 -30.9825
# 2 29.0859 118.9415 4.9549 -24.7601 -6.6698 -27.4054
# 3 14.2368 4.9549 64.4577 -12.7867 -10.1848 -6.4192
# 4 -10.9800 -24.7601 -12.7867 37.0170 -4.5968 10.9340
# 5 23.6287 -6.6698 -10.1848 -4.5968 39.0787 -13.2477
# 6 -30.9825 -27.4054 -6.4192 10.9340 -13.2477 44.4498
#
#
#
# Elastic Compliance Matrix: (Units=1/GPa)
#
#
# Indices 1 2 3 4 5 6 
#
# 1 0.019486 -0.003987 -0.005593 -0.002468 -0.011689 0.007440
# 2 -0.003987 0.012758 0.003395 0.007746 0.008487 0.006201
# 3 -0.005593 0.003395 0.020083 0.008219 0.010955 0.002338
# 4 -0.002468 0.007746 0.008219 0.035970 0.008483 -0.002077
# 5 -0.011689 0.008487 0.010955 0.008483 0.040935 0.008780
# 6 0.007440 0.006201 0.002338 -0.002077 0.008780 0.034972
#
#
# Mechanical properties :
#
#
# Convention : Reuss Voigt Hill
#
# Bulk Modulus (GPa) = 25.02709 40.65804 32.84256
# Shear Modulus (GPa) = 26.33070 38.84841 32.58955
#
# Velocity S-wave (km/s) = 3.02112 3.66964 3.36106
# Velocity P-wave (km/s) = 4.56562 5.66115 5.14264
#
# Compressibility (1/GPa) = 0.03995671
#
# Stress axis : x y z
#
# Youngs Moduli (GPa) = 51.31838 78.38048 49.79451
#
# Poissons Ratio (x) = 0.31252 0.27850
# Poissons Ratio (y) = 0.20462 -0.16905
# Poissons Ratio (z) = 0.28702 -0.26610
#
# Static dielectric constant tensor:
#      x y z
#    x 5.495810 -0.123740 0.301830 
#    y -0.123740 5.244390 0.118590 
#    z 0.301830 0.118590 4.741320 
# 
# 
# High freq. dielectric constant tensor:
#      x y z
#    x 2.191450 -0.003410 0.015000 
#    y -0.003410 2.178110 -0.001790 
#    z 0.015000 -0.001790 2.155330 
# 
# From -- ./inp_files/423966.got.cif
#   From: 2010.06.25/outbox.cif.g09.slc.cpg/sg2_212_cif.got.tgz:423966.got - 2010.06.27 13:26:56.
