data_PCOD8044464
_publ_section_title
;
Structure prediction by ZEFSAII (Michael W. Deem and Ramdas Pophale) SiO2 
 PCOD8044464
Probable space group: P -1
;
_chemical_formula_sum "Si O2"
_cell_formula_units_Z 16
_cell_length_a 8.948430
_cell_length_b 14.641788
_cell_length_c 8.829270
_cell_angle_alpha 49.061338
_cell_angle_beta 88.508764
_cell_angle_gamma 70.156037
_cell_volume 789.959333
_symmetry_space_group_name_H-M "P -1"
_symmetry_group_IT_number 2
_symmetry_cell_setting 'triclinic'
loop_
_space_group_symop_operation_xyz
x,y,z
-x,-y,-z
loop_
_atom_site_type_symbol
_atom_site_label
_atom_site_fract_x
_atom_site_fract_y
_atom_site_fract_z
Si Si1 0.784463 0.295019 0.151156
Si Si2 0.167501 0.483019 0.926966
Si Si3 0.878200 0.873650 0.546015
Si Si4 0.636293 0.504157 0.686716
Si Si5 0.738915 0.408763 0.457862
Si Si6 0.324096 0.902984 0.474015
Si Si7 0.319793 0.275251 0.364072
Si Si8 0.923127 0.093744 0.756048
O O1 0.759061 0.415171 0.132186
O O2 0.680079 0.222770 0.302253
O O3 0.978751 0.194861 0.257694
O O4 0.718248 0.357148 0.921539
O O5 0.164950 0.512314 0.715758
O O6 0.304180 0.335224 0.128136
O O7 0.000000 0.500000 0.000000
O O8 0.830457 0.768363 0.570817
O O9 0.937426 0.945187 0.336249
O O10 0.726981 0.976601 0.536124
O O11 0.705104 0.477931 0.545366
O O12 0.438216 0.566256 0.637181
O O13 0.701442 0.607426 0.644768
O O14 0.853316 0.249728 0.633310
O O15 0.513470 0.858054 0.471456
O O16 0.220393 0.938176 0.281979
O O17 0.000000 0.000000 0.000000
#
# Coordination Sequence:
#
# PCOD8044464 Si02
#       8
#     2   2   2   2   2   2   2   2
#     4  10  19  38  61  90 115 160 201 252 296 360
#     4  11  19  37  64  88 125 156 192 254 309 354
#     4  11  23  40  62  88 124 157 208 254 296 359
#     4  10  23  36  65  90 129 154 202 249 313 367
#     4  11  21  40  60  97 120 163 199 250 307 367
#     4  11  22  39  64  88 118 161 216 246 292 363
#     4  11  21  41  61  93 121 160 195 258 307 353
#     4  11  23  41  62  86 122 164 202 252 298 358
#
# _framework density 20.254207999999998
#
# number of rings (size 3 to 8) (size 9 to 14) (size 15 to 20)
#    0.000    1.250    5.000    2.625    3.500    2.000 
#    0.000    7.500    0.000    0.000    0.000    0.000 
#    0.000    0.000    0.000    0.000    0.000    0.000 
#
# Total GULP energy -198246.253070 kJ/mol
# GULP energy per Si atom -12390.390817 kJ/mol
# Density = 2.020811 g / cm^3
# Si number density = 20.254208 Si / 1000 Ang^3
#
#
#
# Elastic Constant Matrix: (Units=GPa)
#
#
# Indices 1 2 3 4 5 6 
#
# 1 65.9991 20.4084 47.8658 7.4105 1.1539 -0.7516
# 2 20.4084 76.2631 36.6005 6.5676 3.6377 -7.0282
# 3 47.8658 36.6005 149.2219 10.0466 14.0364 -6.6427
# 4 7.4105 6.5676 10.0466 24.2762 -2.6561 -2.7530
# 5 1.1539 3.6377 14.0364 -2.6561 21.6136 -1.6162
# 6 -0.7516 -7.0282 -6.6427 -2.7530 -1.6162 30.9010
#
#
#
# Elastic Compliance Matrix: (Units=1/GPa)
#
#
# Indices 1 2 3 4 5 6 
#
# 1 0.020664 -0.002614 -0.006125 -0.002927 0.002841 -0.001521
# 2 -0.002614 0.015544 -0.002636 -0.002103 -0.000823 0.002675
# 3 -0.006125 -0.002636 0.010057 -0.002127 -0.005953 0.000912
# 4 -0.002927 -0.002103 -0.002127 0.044755 0.007644 0.003380
# 5 0.002841 -0.000823 -0.005953 0.007644 0.051206 0.001961
# 6 -0.001521 0.002675 0.000912 0.003380 0.001961 0.033533
#
#
# Mechanical properties :
#
#
# Convention : Reuss Voigt Hill
#
# Bulk Modulus (GPa) = 42.52678 55.69260 49.10969
# Shear Modulus (GPa) = 24.23108 27.79878 26.01493
#
# Velocity S-wave (km/s) = 3.46258 3.70874 3.58777
# Velocity P-wave (km/s) = 6.08507 6.77467 6.43911
#
# Compressibility (1/GPa) = 0.02351459
#
# Stress axis : x y z
#
# Youngs Moduli (GPa) = 48.39367 64.33379 99.43777
#
# Poissons Ratio (x) = 0.16815 0.60906
# Poissons Ratio (y) = 0.12649 0.26212
# Poissons Ratio (z) = 0.29642 0.16959
#
# Static dielectric constant tensor:
#      x y z
#    x 3.691860 0.022720 0.058450 
#    y 0.022720 3.567220 -0.057820 
#    z 0.058450 -0.057820 4.060380 
# 
# 
# High freq. dielectric constant tensor:
#      x y z
#    x 1.789270 -0.002060 0.011130 
#    y -0.002060 1.783340 -0.010700 
#    z 0.011130 -0.010700 1.787410 
# 
# From -- ./inp_files/180201.got.cif
#   From: 2010.06.25/outbox.cif.g09.slc.cpg/sg2_91_cif.got.tgz:180201.got - 2010.06.27 13:26:56.
