data_PCOD8044917
_publ_section_title
;
Structure prediction by ZEFSAII (Michael W. Deem and Ramdas Pophale) SiO2 
 PCOD8044917
Probable space group: P 2
;
_chemical_formula_sum "Si O2"
_cell_formula_units_Z 16
_cell_length_a 8.759433
_cell_length_b 12.068434
_cell_length_c 8.923685
_cell_angle_alpha 90.000000
_cell_angle_beta 122.173674
_cell_angle_gamma 90.000000
_cell_volume 798.484073
_symmetry_space_group_name_H-M "P 2"
_symmetry_group_IT_number 3
_symmetry_cell_setting 'monoclinic'
loop_
_space_group_symop_operation_xyz
x,y,z
-x,y,-z
loop_
_atom_site_type_symbol
_atom_site_label
_atom_site_fract_x
_atom_site_fract_y
_atom_site_fract_z
Si Si1 0.967941 0.525530 0.157338
Si Si2 0.469965 0.054112 0.660449
Si Si3 0.800456 0.508101 0.463453
Si Si4 0.335595 0.283849 0.519397
Si Si5 0.308712 0.673955 0.824134
Si Si6 0.971863 0.282080 0.158492
Si Si7 0.818549 0.915261 0.315232
Si Si8 0.835414 0.057238 0.029689
O O1 0.819913 0.615555 0.122565
O O2 0.897503 0.402077 0.173765
O O3 0.162897 0.541921 0.342995
O O4 0.000000 0.537471 0.000000
O O5 0.500000 0.030262 0.500000
O O6 0.388644 0.176783 0.644758
O O7 0.340704 0.965162 0.668351
O O8 0.657803 0.043844 0.841130
O O9 0.708339 0.387789 0.397076
O O10 0.672336 0.596066 0.312977
O O11 0.000000 0.508622 0.500000
O O12 0.500000 0.319681 0.500000
O O13 0.161932 0.250554 0.331923
O O14 0.217761 0.786288 0.723506
O O15 0.500000 0.696770 0.000000
O O16 0.838835 0.177956 0.113986
O O17 0.000000 0.298705 0.000000
O O18 0.000000 0.935691 0.500000
O O19 0.837393 0.966151 0.160009
O O20 0.000000 0.042006 0.000000
#
# Coordination Sequence:
#
# PCOD8044917 Si02
#       8
#     2   2   2   2   2   2   2   2
#     4   9  19  37  61  85 115 155 195 232 283 352
#     4  11  23  40  61  91 124 156 199 244 294 356
#     4   9  20  38  57  82 119 156 191 234 290 348
#     4  10  19  33  57  88 120 152 193 240 287 345
#     4  11  24  41  59  84 116 148 194 248 294 346
#     4   9  17  32  55  86 122 156 190 233 291 349
#     4  12  25  44  65  84 115 158 202 250 301 349
#     4  11  22  39  63  92 124 157 196 243 298 355
#
# _framework density 20.037970000000001
#
# number of rings (size 3 to 8) (size 9 to 14) (size 15 to 20)
#    0.000    1.750    0.000    6.750    0.000    8.000 
#    0.000    4.375    0.000    0.000    0.000    0.000 
#    0.000    0.000    0.000    0.000    0.000    0.000 
#
# Total GULP energy -198327.113516 kJ/mol
# GULP energy per Si atom -12395.444595 kJ/mol
# Density = 1.999236 g / cm^3
# Si number density = 20.037970 Si / 1000 Ang^3
#
#
#
# Elastic Constant Matrix: (Units=GPa)
#
#
# Indices 1 2 3 4 5 6 
#
# 1 82.4013 48.7265 46.3176 0.0000 5.7515 0.0000
# 2 48.7265 121.2554 47.5292 0.0000 -3.9685 0.0000
# 3 46.3176 47.5292 156.2964 0.0000 4.6479 0.0000
# 4 0.0000 0.0000 0.0000 37.4350 0.0000 -0.0593
# 5 5.7515 -3.9685 4.6479 0.0000 37.9632 0.0000
# 6 0.0000 0.0000 0.0000 -0.0593 0.0000 6.0827
#
#
#
# Elastic Compliance Matrix: (Units=1/GPa)
#
#
# Indices 1 2 3 4 5 6 
#
# 1 0.017717 -0.005892 -0.003373 0.000000 -0.002887 0.000000
# 2 -0.005892 0.011390 -0.001786 0.000000 0.002302 0.000000
# 3 -0.003373 -0.001786 0.007960 0.000000 -0.000650 0.000000
# 4 0.000000 0.000000 0.000000 0.026713 0.000000 0.000260
# 5 -0.002887 0.002302 -0.000650 0.000000 0.027099 0.000000
# 6 0.000000 0.000000 0.000000 0.000260 0.000000 0.164402
#
#
# Mechanical properties :
#
#
# Convention : Reuss Voigt Hill
#
# Bulk Modulus (GPa) = 66.81987 71.67775 69.24881
# Shear Modulus (GPa) = 17.70711 30.78817 24.24764
#
# Velocity S-wave (km/s) = 2.97590 3.92406 3.48240
# Velocity P-wave (km/s) = 6.72510 7.50864 7.12764
#
# Compressibility (1/GPa) = 0.01496561
#
# Stress axis : x y z
#
# Youngs Moduli (GPa) = 56.44206 87.79428 125.62676
#
# Poissons Ratio (x) = 0.51730 0.42371
# Poissons Ratio (y) = 0.33256 0.22438
# Poissons Ratio (z) = 0.19037 0.15681
#
# Static dielectric constant tensor:
#      x y z
#    x 3.406680 0.000000 -0.069520 
#    y 0.000000 3.942440 0.000000 
#    z -0.069520 0.000000 4.075380 
# 
# 
# High freq. dielectric constant tensor:
#      x y z
#    x 1.762580 0.000000 -0.001240 
#    y 0.000000 1.787500 0.000000 
#    z -0.001240 0.000000 1.804310 
# 
# From -- ./inp_files/6084.got.cif
#   From: 2010.03.12/outbox.cif.g09.slc.cpg/sg3_4_cif.got.tgz:6084.got - 2010.03.31 09:20:49.
