data_PCOD8044945
_publ_section_title
;
Structure prediction by ZEFSAII (Michael W. Deem and Ramdas Pophale) SiO2 
 PCOD8044945
Probable space group: P 2
;
_chemical_formula_sum "Si O2"
_cell_formula_units_Z 16
_cell_length_a 9.433963
_cell_length_b 5.115136
_cell_length_c 20.487383
_cell_angle_alpha 90.000000
_cell_angle_beta 53.865348
_cell_angle_gamma 90.000000
_cell_volume 798.458059
_symmetry_space_group_name_H-M "P 2"
_symmetry_group_IT_number 3
_symmetry_cell_setting 'monoclinic'
loop_
_space_group_symop_operation_xyz
x,y,z
-x,y,-z
loop_
_atom_site_type_symbol
_atom_site_label
_atom_site_fract_x
_atom_site_fract_y
_atom_site_fract_z
Si Si1 0.694951 0.084450 0.977290
Si Si2 0.290474 0.507513 0.207513
Si Si3 0.633286 0.538885 0.667927
Si Si4 0.912881 0.994155 0.723473
Si Si5 0.851862 0.022775 0.592729
Si Si6 0.054542 0.031435 0.812423
Si Si7 0.659250 0.578296 0.067250
Si Si8 0.250811 0.529700 0.805433
O O1 0.745200 0.349993 0.001348
O O2 0.718176 0.855714 0.023831
O O3 0.500000 0.083100 0.000000
O O4 0.844861 0.056669 0.881797
O O5 0.352883 0.611012 0.260401
O O6 0.241364 0.204441 0.223554
O O7 0.449447 0.542368 0.114055
O O8 0.134406 0.708127 0.233613
O O9 0.740770 0.767078 0.601604
O O10 0.424495 0.542242 0.711902
O O11 0.715996 0.260757 0.628254
O O12 0.075270 0.069563 0.727355
O O13 0.953059 0.989689 0.635106
O O14 0.000000 0.078566 0.500000
O O15 0.166282 0.246789 0.819250
O O16 0.118198 0.750553 0.818607
O O17 0.712403 0.558119 0.128041
#
# Coordination Sequence:
#
# PCOD8044945 Si02
#       8
#     2   2   2   2   2   2   2   2
#     4  12  25  38  57  83 111 144 188 249 305 328
#     4   9  17  33  56  78 104 144 183 229 284 326
#     4   9  19  35  57  85 114 143 181 225 268 332
#     4  10  20  35  55  82 114 143 183 230 278 331
#     4  10  19  35  64  94 115 138 175 231 288 330
#     4  12  24  38  56  79 112 153 195 232 275 339
#     4  11  22  38  57  79 111 145 191 240 281 332
#     4  11  24  40  59  80 110 160 199 222 266 330
#
# _framework density 20.038622
#
# number of rings (size 3 to 8) (size 9 to 14) (size 15 to 20)
#    0.000    1.500    0.000    6.000    0.000    7.000 
#    0.000    0.000    0.000    4.500    0.000    0.000 
#    0.000    0.000    0.000    0.000    0.000    0.000 
#
# Total GULP energy -198321.817783 kJ/mol
# GULP energy per Si atom -12395.113611 kJ/mol
# Density = 1.999301 g / cm^3
# Si number density = 20.038622 Si / 1000 Ang^3
#
#
#
# Elastic Constant Matrix: (Units=GPa)
#
#
# Indices 1 2 3 4 5 6 
#
# 1 86.1023 16.3682 38.6392 0.0000 3.7162 0.0000
# 2 16.3682 94.2074 17.7119 0.0000 3.8334 0.0000
# 3 38.6392 17.7119 87.0306 0.0000 0.1562 0.0000
# 4 0.0000 0.0000 0.0000 26.0410 0.0000 -1.4025
# 5 3.7162 3.8334 0.1562 0.0000 26.4407 0.0000
# 6 0.0000 0.0000 0.0000 -1.4025 0.0000 18.4929
#
#
#
# Elastic Compliance Matrix: (Units=1/GPa)
#
#
# Indices 1 2 3 4 5 6 
#
# 1 0.014763 -0.001308 -0.006285 0.000000 -0.001848 0.000000
# 2 -0.001308 0.011220 -0.001700 0.000000 -0.001433 0.000000
# 3 -0.006285 -0.001700 0.014625 0.000000 0.001043 0.000000
# 4 0.000000 0.000000 0.000000 0.038558 0.000000 0.002924
# 5 -0.001848 -0.001433 0.001043 0.000000 0.038282 0.000000
# 6 0.000000 0.000000 0.000000 0.002924 0.000000 0.054297
#
#
# Mechanical properties :
#
#
# Convention : Reuss Voigt Hill
#
# Bulk Modulus (GPa) = 45.41015 45.86433 45.63724
# Shear Modulus (GPa) = 25.29456 27.16966 26.23211
#
# Velocity S-wave (km/s) = 3.55673 3.68620 3.62204
# Velocity P-wave (km/s) = 6.29107 6.40743 6.34951
#
# Compressibility (1/GPa) = 0.02202151
#
# Stress axis : x y z
#
# Youngs Moduli (GPa) = 67.73741 89.12570 68.37802
#
# Poissons Ratio (x) = 0.11659 0.42974
# Poissons Ratio (y) = 0.08861 0.11625
# Poissons Ratio (z) = 0.42571 0.15152
#
# Static dielectric constant tensor:
#      x y z
#    x 3.624850 0.000000 -0.003570 
#    y 0.000000 3.813380 0.000000 
#    z -0.003570 0.000000 3.546760 
# 
# 
# High freq. dielectric constant tensor:
#      x y z
#    x 1.770250 0.000000 0.005230 
#    y 0.000000 1.806040 0.000000 
#    z 0.005230 0.000000 1.759070 
# 
# From -- ./inp_files/15723.got.cif
#   From: 2010.03.12/outbox.cif.g09.slc.cpg/sg3_8_cif.got.tgz:15723.got - 2010.03.31 09:20:49.
