data_PCOD8044831
_publ_section_title
;
Structure prediction by ZEFSAII (Michael W. Deem and Ramdas Pophale) SiO2 
 PCOD8044831
Probable space group: P 2
;
_chemical_formula_sum "Si O2"
_cell_formula_units_Z 16
_cell_length_a 20.130987
_cell_length_b 5.181307
_cell_length_c 8.669074
_cell_angle_alpha 90.000000
_cell_angle_beta 107.655407
_cell_angle_gamma 90.000000
_cell_volume 861.635210
_symmetry_space_group_name_H-M "P 2"
_symmetry_group_IT_number 3
_symmetry_cell_setting 'monoclinic'
loop_
_space_group_symop_operation_xyz
x,y,z
-x,y,-z
loop_
_atom_site_type_symbol
_atom_site_label
_atom_site_fract_x
_atom_site_fract_y
_atom_site_fract_z
Si Si1 0.035955 0.126300 0.855260
Si Si2 0.178446 0.692391 0.250227
Si Si3 0.328164 0.606208 0.386191
Si Si4 0.184750 0.192589 0.064303
Si Si5 0.519350 0.172658 0.840716
Si Si6 0.024381 0.626363 0.197012
Si Si7 0.665045 0.106064 0.812637
Si Si8 0.465911 0.677255 0.639142
O O1 0.005587 0.371527 0.742504
O O2 0.119830 0.134595 0.908116
O O3 0.011754 0.871427 0.747790
O O4 0.000000 0.119083 0.000000
O O5 0.249137 0.636652 0.397904
O O6 0.106934 0.635398 0.288347
O O7 0.180316 0.492583 0.108214
O O8 0.177651 0.992489 0.201763
O O9 0.339527 0.320912 0.324975
O O10 0.382497 0.647265 0.563163
O O11 0.340507 0.820424 0.262683
O O12 0.261152 0.139689 0.043735
O O13 0.602594 0.137406 0.889370
O O14 0.497419 0.407519 0.716341
O O15 0.480423 0.909101 0.767057
O O16 0.500000 0.246052 0.000000
O O17 0.000000 0.619192 0.000000
O O18 0.500000 0.751873 0.500000
#
# Coordination Sequence:
#
# PCOD8044831 Si02
#       8
#     2   2   2   2   2   2   2   2
#     4  10  14  20  30  50  74 119 154 179 226 287
#     4  10  16  24  34  58  83 118 158 194 229 288
#     4  10  20  30  50  70  96 129 171 202 249 300
#     4  10  16  23  36  53  85 117 161 188 231 294
#     4  12  24  38  57  81 106 135 175 224 269 307
#     4  10  14  20  32  47  80 115 156 178 230 283
#     4  10  19  32  46  71  96 130 166 206 253 302
#     4  12  21  38  59  79 104 138 175 217 259 324
#
# _framework density 18.569343
#
# number of rings (size 3 to 8) (size 9 to 14) (size 15 to 20)
#    0.000    1.500    7.500    1.500    0.000    0.000 
#    0.000    0.000    0.000    0.000    0.000    0.000 
#    0.000    0.000    0.000    6.750    0.000    0.000 
#
# Total GULP energy -198239.585341 kJ/mol
# GULP energy per Si atom -12389.974084 kJ/mol
# Density = 1.852708 g / cm^3
# Si number density = 18.569343 Si / 1000 Ang^3
#
#
#
# Elastic Constant Matrix: (Units=GPa)
#
#
# Indices 1 2 3 4 5 6 
#
# 1 95.6668 10.0801 43.0235 0.0000 41.8320 0.0000
# 2 10.0801 114.5849 4.0199 0.0000 6.6563 0.0000
# 3 43.0235 4.0199 35.8146 0.0000 20.2516 0.0000
# 4 0.0000 0.0000 0.0000 17.1298 0.0000 10.7675
# 5 41.8320 6.6563 20.2516 0.0000 32.3371 0.0000
# 6 0.0000 0.0000 0.0000 10.7675 0.0000 23.0721
#
#
#
# Elastic Compliance Matrix: (Units=1/GPa)
#
#
# Indices 1 2 3 4 5 6 
#
# 1 0.034140 -0.000476 -0.024836 0.000000 -0.028512 0.000000
# 2 -0.000476 0.008839 0.000403 0.000000 -0.001456 0.000000
# 3 -0.024836 0.000403 0.061298 0.000000 -0.006344 0.000000
# 4 0.000000 0.000000 0.000000 0.082612 0.000000 -0.038554
# 5 -0.028512 -0.001456 -0.006344 0.000000 0.072081 0.000000
# 6 0.000000 0.000000 0.000000 -0.038554 0.000000 0.061335
#
#
# Mechanical properties :
#
#
# Convention : Reuss Voigt Hill
#
# Bulk Modulus (GPa) = 18.36194 40.03481 29.19837
# Shear Modulus (GPa) = 12.87742 27.10399 19.99070
#
# Velocity S-wave (km/s) = 2.63625 3.82463 3.28463
# Velocity P-wave (km/s) = 4.37906 6.41172 5.49028
#
# Compressibility (1/GPa) = 0.05446048
#
# Stress axis : x y z
#
# Youngs Moduli (GPa) = 29.29139 113.12895 16.31372
#
# Poissons Ratio (x) = 0.05382 0.40516
# Poissons Ratio (y) = 0.01393 -0.00657
# Poissons Ratio (z) = 0.72747 -0.04557
#
# Static dielectric constant tensor:
#      x y z
#    x 3.527860 0.000000 0.736020 
#    y 0.000000 5.012380 0.000000 
#    z 0.736020 0.000000 2.962580 
# 
# 
# High freq. dielectric constant tensor:
#      x y z
#    x 1.706620 0.000000 0.070680 
#    y 0.000000 1.760190 0.000000 
#    z 0.070680 0.000000 1.648280 
# 
# From -- ./inp_files/9353.got.cif
#   From: 2010.03.12/outbox.cif.g09.slc.cpg/sg3_5_cif.got.tgz:9353.got - 2010.03.31 09:20:49.
