data_PCOD8044661
_publ_section_title
;
Structure prediction by ZEFSAII (Michael W. Deem and Ramdas Pophale) SiO2 
 PCOD8044661
Probable space group: P -1
;
_chemical_formula_sum "Si O2"
_cell_formula_units_Z 16
_cell_length_a 8.234234
_cell_length_b 9.834502
_cell_length_c 16.375903
_cell_angle_alpha 50.799312
_cell_angle_beta 122.090623
_cell_angle_gamma 133.207450
_cell_volume 737.549798
_symmetry_space_group_name_H-M "P -1"
_symmetry_group_IT_number 2
_symmetry_cell_setting 'triclinic'
loop_
_space_group_symop_operation_xyz
x,y,z
-x,-y,-z
loop_
_atom_site_type_symbol
_atom_site_label
_atom_site_fract_x
_atom_site_fract_y
_atom_site_fract_z
Si Si1 0.202443 0.939300 0.990331
Si Si2 0.822866 0.150186 0.707578
Si Si3 0.855023 0.706534 0.115814
Si Si4 0.641086 0.024587 0.154206
Si Si5 0.644414 0.239886 0.228069
Si Si6 0.811362 0.755633 0.361380
Si Si7 0.607696 0.289763 0.477848
Si Si8 0.818202 0.139173 0.460783
O O1 0.388468 0.907685 0.094968
O O2 0.956689 0.785759 0.022269
O O3 0.268157 0.176885 0.929850
O O4 0.185703 0.886727 0.909540
O O5 0.736658 0.292144 0.593758
O O6 0.937046 0.244056 0.788680
O O7 0.995550 0.142005 0.694848
O O8 0.611010 0.918052 0.751014
O O9 0.675521 0.463273 0.158923
O O10 0.664151 0.859814 0.277042
O O11 0.687273 0.208598 0.157339
O O12 0.820429 0.213969 0.340699
O O13 0.636843 0.511770 0.392530
O O14 0.932392 0.798477 0.466334
O O15 0.726603 0.255692 0.445961
O O16 0.344369 0.109700 0.479289
#
# Coordination Sequence:
#
# PCOD8044661 Si02
#       8
#     2   2   2   2   2   2   2   2
#     4  10  24  45  65  89 120 159 215 261 299 371
#     4  10  19  38  64  95 123 157 213 250 290 371
#     4  11  21  43  72  87 113 166 216 250 307 358
#     4  11  24  43  59  92 133 156 198 264 314 361
#     4  11  23  39  66  95 125 157 201 262 303 362
#     4  11  20  37  64  88 128 171 193 244 316 358
#     4   9  18  34  61  93 125 160 205 251 289 354
#     4   9  19  35  58  97 125 152 213 246 283 377
#
# _framework density 21.693451
#
# number of rings (size 3 to 8) (size 9 to 14) (size 15 to 20)
#    0.000    1.750    2.500    3.750    0.000    1.500 
#    2.250    3.750    0.000    0.000    0.000    0.000 
#    0.000    0.000    0.000    0.000    0.000    0.000 
#
# Total GULP energy -198414.527522 kJ/mol
# GULP energy per Si atom -12400.907970 kJ/mol
# Density = 2.164408 g / cm^3
# Si number density = 21.693451 Si / 1000 Ang^3
#
#
#
# Elastic Constant Matrix: (Units=GPa)
#
#
# Indices 1 2 3 4 5 6 
#
# 1 50.6391 22.8679 25.4412 -8.5976 -11.4429 -5.9252
# 2 22.8679 103.2750 48.8591 -18.6104 0.0708 3.5314
# 3 25.4412 48.8591 91.2747 -2.1728 2.3839 -4.4776
# 4 -8.5976 -18.6104 -2.1728 37.8486 -3.1858 -4.7459
# 5 -11.4429 0.0708 2.3839 -3.1858 37.3223 4.9429
# 6 -5.9252 3.5314 -4.4776 -4.7459 4.9429 15.0886
#
#
#
# Elastic Compliance Matrix: (Units=1/GPa)
#
#
# Indices 1 2 3 4 5 6 
#
# 1 0.027997 -0.002420 -0.006121 0.006663 0.008342 0.009107
# 2 -0.002420 0.014982 -0.007482 0.005818 0.000884 -0.005137
# 3 -0.006121 -0.007482 0.016892 -0.003872 -0.003855 0.004405
# 4 0.006663 0.005818 -0.003872 0.032014 0.003830 0.008921
# 5 0.008342 0.000884 -0.003855 0.003830 0.030847 -0.006976
# 6 0.009107 -0.005137 0.004405 0.008921 -0.006976 0.077452
#
#
# Mechanical properties :
#
#
# Convention : Reuss Voigt Hill
#
# Bulk Modulus (GPa) = 35.93836 48.83612 42.38724
# Shear Modulus (GPa) = 20.70362 27.91993 24.31178
#
# Velocity S-wave (km/s) = 3.09264 3.59140 3.35131
# Velocity P-wave (km/s) = 5.41803 6.30542 5.87849
#
# Compressibility (1/GPa) = 0.02782542
#
# Stress axis : x y z
#
# Youngs Moduli (GPa) = 35.71757 66.74779 59.20113
#
# Poissons Ratio (x) = 0.16154 0.36236
# Poissons Ratio (y) = 0.08644 0.44293
# Poissons Ratio (z) = 0.21862 0.49939
#
# Static dielectric constant tensor:
#      x y z
#    x 3.650890 -0.056310 -0.111960 
#    y -0.056310 3.806870 0.234170 
#    z -0.111960 0.234170 4.207520 
# 
# 
# High freq. dielectric constant tensor:
#      x y z
#    x 1.828070 -0.005470 -0.006370 
#    y -0.005470 1.839040 0.010850 
#    z -0.006370 0.010850 1.865450 
# 
# From -- ./inp_files/218490.got.cif
#   From: 2010.06.25/outbox.cif.g09.slc.cpg/sg2_110_cif.got.tgz:218490.got - 2010.06.27 13:26:56.
