data_PCOD8044789
_publ_section_title
;
Structure prediction by ZEFSAII (Michael W. Deem and Ramdas Pophale) SiO2 
 PCOD8044789
Probable space group: P -1
;
_chemical_formula_sum "Si O2"
_cell_formula_units_Z 16
_cell_length_a 8.840404
_cell_length_b 14.406472
_cell_length_c 14.051002
_cell_angle_alpha 136.033665
_cell_angle_beta 86.167466
_cell_angle_gamma 61.140579
_cell_volume 796.472980
_symmetry_space_group_name_H-M "P -1"
_symmetry_group_IT_number 2
_symmetry_cell_setting 'triclinic'
loop_
_space_group_symop_operation_xyz
x,y,z
-x,-y,-z
loop_
_atom_site_type_symbol
_atom_site_label
_atom_site_fract_x
_atom_site_fract_y
_atom_site_fract_z
Si Si1 0.987383 0.646162 0.861799
Si Si2 0.342581 0.048199 0.426730
Si Si3 0.568038 0.434792 0.558089
Si Si4 0.395201 0.264114 0.457150
Si Si5 0.901444 0.908611 0.705827
Si Si6 0.474452 0.009912 0.119043
Si Si7 0.188195 0.352957 0.801279
Si Si8 0.121199 0.847406 0.971748
O O1 0.119606 0.489087 0.650102
O O2 0.142666 0.506376 0.844837
O O3 0.974903 0.812654 0.971335
O O4 0.716450 0.779722 0.980543
O O5 0.459325 0.095668 0.400103
O O6 0.201305 0.042816 0.359896
O O7 0.170175 0.225245 0.647217
O O8 0.548505 0.818931 0.294366
O O9 0.500000 0.500000 0.500000
O O10 0.557426 0.285522 0.480297
O O11 0.393791 0.636084 0.780824
O O12 0.826959 0.319937 0.478269
O O13 0.433074 0.187214 0.291656
O O14 0.754280 0.921219 0.795999
O O15 0.889854 0.065756 0.864020
O O16 0.500000 0.000000 0.000000
O O17 0.000000 0.500000 0.000000
O O18 0.000000 0.000000 0.000000
#
# Coordination Sequence:
#
# PCOD8044789 Si02
#       8
#     2   2   2   2   2   2   2   2
#     4  10  22  40  61  87 113 160 203 240 297 359
#     4   9  21  40  61  89 116 151 193 258 304 346
#     4  11  23  37  60  82 119 166 201 234 286 349
#     4   9  21  40  57  82 120 154 203 236 295 356
#     4  11  23  38  57  91 124 153 201 250 294 354
#     4  11  23  35  56  86 122 154 196 251 295 346
#     4  10  19  38  67  87 114 150 201 248 311 355
#     4  11  22  40  62  84 123 168 203 233 290 361
#
# _framework density 20.088564999999999
#
# number of rings (size 3 to 8) (size 9 to 14) (size 15 to 20)
#    0.000    1.750    1.250    3.000    3.500    4.500 
#    0.000    0.625    0.000   17.250    0.000    0.000 
#    0.000    0.000    0.000    0.000    0.000    0.000 
#
# Total GULP energy -198305.629692 kJ/mol
# GULP energy per Si atom -12394.101856 kJ/mol
# Density = 2.004284 g / cm^3
# Si number density = 20.088565 Si / 1000 Ang^3
#
#
#
# Elastic Constant Matrix: (Units=GPa)
#
#
# Indices 1 2 3 4 5 6 
#
# 1 79.8518 44.7562 49.0752 13.4049 -18.7780 -11.3576
# 2 44.7562 112.1480 57.0662 3.3054 8.2729 -17.1151
# 3 49.0752 57.0662 155.1136 -14.5406 -5.6085 -15.1014
# 4 13.4049 3.3054 -14.5406 41.5318 -3.1876 6.5816
# 5 -18.7780 8.2729 -5.6085 -3.1876 35.9545 -2.6989
# 6 -11.3576 -17.1151 -15.1014 6.5816 -2.6989 31.7040
#
#
#
# Elastic Compliance Matrix: (Units=1/GPa)
#
#
# Indices 1 2 3 4 5 6 
#
# 1 0.025463 -0.007411 -0.005138 -0.009283 0.013813 0.005777
# 2 -0.007411 0.014497 -0.003027 -0.000918 -0.007514 0.003280
# 3 -0.005138 -0.003027 0.009685 0.005283 -0.000005 0.000042
# 4 -0.009283 -0.000918 0.005283 0.030084 -0.001723 -0.007696
# 5 0.013813 -0.007514 -0.000005 -0.001723 0.036932 0.004392
# 6 0.005777 0.003280 0.000042 -0.007696 0.004392 0.037373
#
#
# Mechanical properties :
#
#
# Convention : Reuss Voigt Hill
#
# Bulk Modulus (GPa) = 54.07510 72.10096 63.08803
# Shear Modulus (GPa) = 26.13017 34.91912 30.52465
#
# Velocity S-wave (km/s) = 3.61050 4.17377 3.90231
# Velocity P-wave (km/s) = 6.66016 7.69393 7.19563
#
# Compressibility (1/GPa) = 0.01849280
#
# Stress axis : x y z
#
# Youngs Moduli (GPa) = 39.27296 68.98194 103.25143
#
# Poissons Ratio (x) = 0.51124 0.53048
# Poissons Ratio (y) = 0.29106 0.31253
# Poissons Ratio (z) = 0.20178 0.20880
#
# Static dielectric constant tensor:
#      x y z
#    x 3.620710 -0.041740 -0.065370 
#    y -0.041740 3.686810 -0.108420 
#    z -0.065370 -0.108420 4.227370 
# 
# 
# High freq. dielectric constant tensor:
#      x y z
#    x 1.759440 -0.002720 -0.006010 
#    y -0.002720 1.769070 -0.007160 
#    z -0.006010 -0.007160 1.816670 
# 
# From -- ./inp_files/273065.got.cif
#   From: 2010.06.25/outbox.cif.g09.slc.cpg/sg2_137_cif.got.tgz:273065.got - 2010.06.27 13:26:56.
