data_PCOD8044990
_publ_section_title
;
Structure prediction by ZEFSAII (Michael W. Deem and Ramdas Pophale) SiO2 
 PCOD8044990
Probable space group: P 2
;
_chemical_formula_sum "Si O2"
_cell_formula_units_Z 13
_cell_length_a 13.868719
_cell_length_b 8.175806
_cell_length_c 13.935782
_cell_angle_alpha 90.000000
_cell_angle_beta 20.582867
_cell_angle_gamma 90.000000
_cell_volume 555.520203
_symmetry_space_group_name_H-M "P 2"
_symmetry_group_IT_number 3
_symmetry_cell_setting 'monoclinic'
loop_
_space_group_symop_operation_xyz
x,y,z
-x,y,-z
loop_
_atom_site_type_symbol
_atom_site_label
_atom_site_fract_x
_atom_site_fract_y
_atom_site_fract_z
Si Si1 0.512271 0.980300 0.701725
Si Si2 0.000000 0.538716 0.000000
Si Si3 0.698504 0.916526 0.735109
Si Si4 0.099540 0.468162 0.640995
Si Si5 0.028041 0.780386 0.803111
Si Si6 0.289280 0.551732 0.271945
Si Si7 0.642796 0.336642 0.195312
O O1 0.645611 0.010405 0.683111
O O2 0.760463 0.930722 0.399177
O O3 0.367340 0.141146 0.794754
O O4 0.284597 0.838931 0.906845
O O5 0.895368 0.661284 0.180043
O O6 0.775844 0.415105 0.165766
O O7 0.594989 0.730856 0.808288
O O8 0.000000 0.938220 0.500000
O O9 0.500000 0.994521 0.000000
O O10 0.070116 0.665783 0.670144
O O11 0.219180 0.426380 0.423911
O O12 0.332623 0.400353 0.493762
O O13 0.807125 0.391289 0.944796
O O14 0.000000 0.597619 0.500000
O O15 0.500000 0.466691 0.000000
#
# Coordination Sequence:
#
# PCOD8044990 Si02
#       7
#     2   1   2   2   2   2   2
#     4  12  24  44  70 107 133 185 223 289 335 414
#     4  10  26  48  68 102 130 188 218 294 352 410
#     4  10  21  36  63 100 137 173 224 282 327 384
#     4  11  22  43  66  98 133 186 219 284 341 410
#     4  11  24  42  73  96 134 169 245 278 333 410
#     4  10  20  33  61  99 129 170 231 285 317 382
#     4  11  26  44  69  96 147 175 221 278 367 409
#
# _framework density 23.401489999999999
#
# number of rings (size 3 to 8) (size 9 to 14) (size 15 to 20)
#    0.000    1.231    1.538    4.615    4.308    6.154 
#    0.000    6.154    0.000    0.000    0.000    0.000 
#    0.000    0.000    0.000    0.000    0.000    0.000 
#
# Total GULP energy -161074.230196 kJ/mol
# GULP energy per Si atom -12390.325400 kJ/mol
# Density = 2.334823 g / cm^3
# Si number density = 23.401490 Si / 1000 Ang^3
#
#
#
# Elastic Constant Matrix: (Units=GPa)
#
#
# Indices 1 2 3 4 5 6 
#
# 1 114.1956 42.1407 26.9929 0.0000 6.0292 0.0000
# 2 42.1407 94.5606 25.8318 0.0000 -5.0511 0.0000
# 3 26.9929 25.8318 129.3449 0.0000 -4.3184 0.0000
# 4 0.0000 0.0000 0.0000 35.5902 0.0000 -3.3328
# 5 6.0292 -5.0511 -4.3184 0.0000 23.1770 0.0000
# 6 0.0000 0.0000 0.0000 -3.3328 0.0000 20.3410
#
#
#
# Elastic Compliance Matrix: (Units=1/GPa)
#
#
# Indices 1 2 3 4 5 6 
#
# 1 0.011089 -0.004755 -0.001505 0.000000 -0.004201 0.000000
# 2 -0.004755 0.013321 -0.001539 0.000000 0.003853 0.000000
# 3 -0.001505 -0.001539 0.008407 0.000000 0.001622 0.000000
# 4 0.000000 0.000000 0.000000 0.028535 0.000000 0.004675
# 5 -0.004201 0.003853 0.001622 0.000000 0.045381 0.000000
# 6 0.000000 0.000000 0.000000 0.004675 0.000000 0.049928
#
#
# Mechanical properties :
#
#
# Convention : Reuss Voigt Hill
#
# Bulk Modulus (GPa) = 58.07820 58.67020 58.37420
# Shear Modulus (GPa) = 28.09000 32.03069 30.06034
#
# Velocity S-wave (km/s) = 3.46837 3.70367 3.58795
# Velocity P-wave (km/s) = 6.39621 6.58902 6.49333
#
# Compressibility (1/GPa) = 0.01721816
#
# Stress axis : x y z
#
# Youngs Moduli (GPa) = 90.17778 75.07108 118.95009
#
# Poissons Ratio (x) = 0.35698 0.17899
# Poissons Ratio (y) = 0.42882 0.18310
# Poissons Ratio (z) = 0.13570 0.11556
#
# Static dielectric constant tensor:
#      x y z
#    x 4.170560 0.000000 0.132740 
#    y 0.000000 3.885580 0.000000 
#    z 0.132740 0.000000 4.323880 
# 
# 
# High freq. dielectric constant tensor:
#      x y z
#    x 1.918360 0.000000 0.000930 
#    y 0.000000 1.898480 0.000000 
#    z 0.000930 0.000000 1.946160 
# 
# From -- ./inp_files/13973.got.cif
#   From: 2010.03.12/outbox.cif.g09.slc.cpg/sg3_7_cif.got.tgz:13973.got - 2010.03.31 09:20:49.
