data_PCOD8044553
_publ_section_title
;
Structure prediction by ZEFSAII (Michael W. Deem and Ramdas Pophale) SiO2 
 PCOD8044553
Probable space group: P -1
;
_chemical_formula_sum "Si O2"
_cell_formula_units_Z 14
_cell_length_a 10.760993
_cell_length_b 11.503574
_cell_length_c 13.712027
_cell_angle_alpha 93.358907
_cell_angle_beta 148.150142
_cell_angle_gamma 66.464923
_cell_volume 668.975240
_symmetry_space_group_name_H-M "P -1"
_symmetry_group_IT_number 2
_symmetry_cell_setting 'triclinic'
loop_
_space_group_symop_operation_xyz
x,y,z
-x,-y,-z
loop_
_atom_site_type_symbol
_atom_site_label
_atom_site_fract_x
_atom_site_fract_y
_atom_site_fract_z
Si Si1 0.259681 0.771167 0.692959
Si Si2 0.197240 0.158203 0.758115
Si Si3 0.326647 0.818737 0.958980
Si Si4 0.646064 0.439689 0.988721
Si Si5 0.194178 0.285731 0.048813
Si Si6 0.788105 0.627552 0.723885
Si Si7 0.916165 0.170713 0.756109
O O1 0.199866 0.822132 0.768039
O O2 0.475443 0.798744 0.788900
O O3 0.925133 0.872787 0.419413
O O4 0.425003 0.589703 0.777695
O O5 0.928785 0.241226 0.666429
O O6 0.314675 0.249238 0.812701
O O7 0.500000 0.000000 0.000000
O O8 0.343050 0.701422 0.035982
O O9 0.085951 0.990260 0.852081
O O10 0.996064 0.378523 0.212606
O O11 0.500000 0.500000 0.000000
O O12 0.234366 0.285592 0.190744
O O13 0.922610 0.457472 0.832978
O O14 0.092494 0.185924 0.957956
O O15 0.446442 0.727325 0.452414
#
# Coordination Sequence:
#
# PCOD8044553 Si02
#       7
#     2   2   2   2   2   2   2
#     4  10  19  38  63  85 122 160 196 246 291 346
#     4  10  21  34  56  93 121 150 193 243 300 347
#     4  10  22  38  57  88 126 158 200 236 289 358
#     4   9  21  42  62  84 116 163 203 236 290 359
#     4  10  20  36  59  90 118 148 200 246 301 348
#     4  10  21  38  60  85 118 155 196 246 295 352
#     4  11  21  35  58  91 121 152 191 252 297 344
#
# _framework density 20.927531999999999
#
# number of rings (size 3 to 8) (size 9 to 14) (size 15 to 20)
#    0.000    2.000    2.857    0.429    0.000    5.714 
#    0.000    3.571    0.000    0.000    0.000    0.000 
#    0.000    0.000    0.000    0.000    0.000    0.000 
#
# Total GULP energy -173557.363356 kJ/mol
# GULP energy per Si atom -12396.954525 kJ/mol
# Density = 2.087990 g / cm^3
# Si number density = 20.927532 Si / 1000 Ang^3
#
#
#
# Elastic Constant Matrix: (Units=GPa)
#
#
# Indices 1 2 3 4 5 6 
#
# 1 80.0044 24.7938 30.2175 1.5175 22.8220 10.6724
# 2 24.7938 118.7204 56.0183 12.4684 0.0958 14.4496
# 3 30.2175 56.0183 119.8917 17.8137 16.0279 10.0956
# 4 1.5175 12.4684 17.8137 31.5687 -3.4983 -4.7717
# 5 22.8220 0.0958 16.0279 -3.4983 26.6318 10.6081
# 6 10.6724 14.4496 10.0956 -4.7717 10.6081 29.9162
#
#
#
# Elastic Compliance Matrix: (Units=1/GPa)
#
#
# Indices 1 2 3 4 5 6 
#
# 1 0.018205 -0.003395 -0.000918 -0.000602 -0.015448 0.000837
# 2 -0.003395 0.012613 -0.005351 -0.001829 0.008367 -0.006334
# 3 -0.000918 -0.005351 0.012995 -0.005998 -0.007959 0.000392
# 4 -0.000602 -0.001829 -0.005998 0.037552 0.006329 0.006868
# 5 -0.015448 0.008367 -0.007959 0.006329 0.063255 -0.017265
# 6 0.000837 -0.006334 0.000392 0.006868 -0.017265 0.043273
#
#
# Mechanical properties :
#
#
# Convention : Reuss Voigt Hill
#
# Bulk Modulus (GPa) = 40.84246 60.07508 50.45877
# Shear Modulus (GPa) = 23.21449 31.46246 27.33847
#
# Velocity S-wave (km/s) = 3.33420 3.88158 3.61825
# Velocity P-wave (km/s) = 5.86353 6.98981 6.45130
#
# Compressibility (1/GPa) = 0.02448432
#
# Stress axis : x y z
#
# Youngs Moduli (GPa) = 54.93118 79.28030 76.95468
#
# Poissons Ratio (x) = 0.26916 0.07064
# Poissons Ratio (y) = 0.18649 0.41181
# Poissons Ratio (z) = 0.05042 0.42425
#
# Static dielectric constant tensor:
#      x y z
#    x 4.013570 0.356880 0.276700 
#    y 0.356880 4.095820 0.029420 
#    z 0.276700 0.029420 3.696590 
# 
# 
# High freq. dielectric constant tensor:
#      x y z
#    x 1.799450 0.003130 0.021190 
#    y 0.003130 1.823720 0.003580 
#    z 0.021190 0.003580 1.807070 
# 
# From -- ./inp_files/67089.got.cif
#   From: 2010.06.25/outbox.cif.g09.slc.cpg/sg2_34_cif.got.tgz:67089.got - 2010.06.27 13:26:56.
