data_PCOD8044079
_publ_section_title
;
Structure prediction by ZEFSAII (Michael W. Deem and Ramdas Pophale) SiO2 
 PCOD8044079
Probable space group: P -1
;
_chemical_formula_sum "Si O2"
_cell_formula_units_Z 16
_cell_length_a 10.505104
_cell_length_b 11.308198
_cell_length_c 9.298012
_cell_angle_alpha 123.716248
_cell_angle_beta 115.050382
_cell_angle_gamma 54.898807
_cell_volume 742.801440
_symmetry_space_group_name_H-M "P -1"
_symmetry_group_IT_number 2
_symmetry_cell_setting 'triclinic'
loop_
_space_group_symop_operation_xyz
x,y,z
-x,-y,-z
loop_
_atom_site_type_symbol
_atom_site_label
_atom_site_fract_x
_atom_site_fract_y
_atom_site_fract_z
Si Si1 0.684424 0.101309 0.511944
Si Si2 0.818032 0.594964 0.812103
Si Si3 0.665560 0.743497 0.572060
Si Si4 0.116746 0.726681 0.252002
Si Si5 0.836226 0.558021 0.264174
Si Si6 0.782752 0.810084 0.194835
Si Si7 0.873517 0.233960 0.047084
Si Si8 0.804489 0.966483 0.779250
O O1 0.504109 0.212951 0.549040
O O2 0.765666 0.212263 0.579507
O O3 0.671527 0.996512 0.300331
O O4 0.784314 0.984361 0.608952
O O5 0.684466 0.642822 0.658683
O O6 0.808389 0.465642 0.828200
O O7 0.983608 0.532678 0.765060
O O8 0.785488 0.753945 0.994516
O O9 0.808339 0.641313 0.462431
O O10 0.683289 0.901943 0.731758
O O11 0.954919 0.794584 0.309478
O O12 0.073795 0.785149 0.107330
O O13 0.736906 0.697800 0.198561
O O14 0.773583 0.423219 0.156446
O O15 0.018761 0.159370 0.177055
O O16 0.767751 0.138580 0.948982
#
# Coordination Sequence:
#
# PCOD8044079 Si02
#       8
#     2   2   2   2   2   2   2   2
#     4  11  25  39  59  89 128 165 197 245 304 368
#     4  11  22  39  67  90 118 157 206 257 294 356
#     4  12  24  40  60  90 129 164 198 242 306 367
#     4  10  20  40  62  92 118 153 207 257 299 349
#     4  11  20  38  63  95 117 154 207 250 301 352
#     4  11  20  39  67  89 117 158 206 254 297 355
#     4  10  19  37  63  91 119 147 204 256 298 344
#     4  10  21  37  60  88 124 156 194 251 299 358
#
# _framework density 21.540077
#
# number of rings (size 3 to 8) (size 9 to 14) (size 15 to 20)
#    0.000    1.250    5.000    1.875    0.000    1.000 
#    0.000    5.000    0.000    0.000    0.000    0.000 
#    0.000    0.000    0.000    0.000    0.000    0.000 
#
# Total GULP energy -198241.323475 kJ/mol
# GULP energy per Si atom -12390.082717 kJ/mol
# Density = 2.149105 g / cm^3
# Si number density = 21.540077 Si / 1000 Ang^3
#
#
#
# Elastic Constant Matrix: (Units=GPa)
#
#
# Indices 1 2 3 4 5 6 
#
# 1 57.9101 30.6681 36.7486 6.1834 9.8135 5.8904
# 2 30.6681 68.1597 50.2696 7.9305 3.3058 9.3251
# 3 36.7486 50.2696 110.0398 5.5459 -1.9795 -4.6933
# 4 6.1834 7.9305 5.5459 36.8393 9.7426 4.1747
# 5 9.8135 3.3058 -1.9795 9.7426 25.6418 5.2350
# 6 5.8904 9.3251 -4.6933 4.1747 5.2350 22.1587
#
#
#
# Elastic Compliance Matrix: (Units=1/GPa)
#
#
# Indices 1 2 3 4 5 6 
#
# 1 0.026540 -0.006457 -0.006274 0.000764 -0.009365 -0.003598
# 2 -0.006457 0.027271 -0.010675 -0.002198 0.001404 -0.011938
# 3 -0.006274 -0.010675 0.016567 -0.001129 0.003643 0.009021
# 4 0.000764 -0.002198 -0.001129 0.030954 -0.011311 -0.002677
# 5 -0.009365 0.001404 0.003643 -0.011311 0.048332 -0.006617
# 6 -0.003598 -0.011938 0.009021 -0.002677 -0.006617 0.055088
#
#
# Mechanical properties :
#
#
# Convention : Reuss Voigt Hill
#
# Bulk Modulus (GPa) = 42.43390 52.38692 47.41041
# Shear Modulus (GPa) = 19.27387 24.82286 22.04836
#
# Velocity S-wave (km/s) = 2.99455 3.39839 3.20284
# Velocity P-wave (km/s) = 5.63020 6.30652 5.97793
#
# Compressibility (1/GPa) = 0.02356607
#
# Stress axis : x y z
#
# Youngs Moduli (GPa) = 37.67848 36.66945 60.36186
#
# Poissons Ratio (x) = 0.23676 0.37872
# Poissons Ratio (y) = 0.24328 0.64436
# Poissons Ratio (z) = 0.23640 0.39145
#
# Static dielectric constant tensor:
#      x y z
#    x 3.623320 0.428880 0.221900 
#    y 0.428880 4.040800 0.202320 
#    z 0.221900 0.202320 3.871420 
# 
# 
# High freq. dielectric constant tensor:
#      x y z
#    x 1.809340 0.031920 0.009720 
#    y 0.031920 1.843740 0.007730 
#    z 0.009720 0.007730 1.845130 
# 
# From -- ./inp_files/190257.got.cif
#   From: 2010.06.25/outbox.cif.g09.slc.cpg/sg2_96_cif.got.tgz:190257.got - 2010.06.27 13:26:56.
