data_PCOD8044890
_publ_section_title
;
Structure prediction by ZEFSAII (Michael W. Deem and Ramdas Pophale) SiO2 
 PCOD8044890
Probable space group: P 2
;
_chemical_formula_sum "Si O2"
_cell_formula_units_Z 14
_cell_length_a 9.464861
_cell_length_b 6.273520
_cell_length_c 17.817289
_cell_angle_alpha 90.000000
_cell_angle_beta 35.064859
_cell_angle_gamma 90.000000
_cell_volume 607.798632
_symmetry_space_group_name_H-M "P 2"
_symmetry_group_IT_number 3
_symmetry_cell_setting 'monoclinic'
loop_
_space_group_symop_operation_xyz
x,y,z
-x,y,-z
loop_
_atom_site_type_symbol
_atom_site_label
_atom_site_fract_x
_atom_site_fract_y
_atom_site_fract_z
Si Si1 0.817072 0.434310 0.303048
Si Si2 0.590935 0.702205 0.831718
Si Si3 0.589498 0.146425 0.579179
Si Si4 0.224742 0.331085 0.021431
Si Si5 0.080331 0.337407 0.335655
Si Si6 0.541364 0.085895 0.196852
Si Si7 0.500000 0.000743 0.000000
Si Si8 0.500000 0.800950 0.500000
O O1 0.567788 0.304063 0.403021
O O2 0.730643 0.668111 0.366602
O O3 0.994807 0.319886 0.286144
O O4 0.962473 0.430106 0.160229
O O5 0.416531 0.521901 0.941247
O O6 0.830736 0.583763 0.691395
O O7 0.452338 0.835191 0.826690
O O8 0.654765 0.854949 0.874070
O O9 0.455091 0.100157 0.715696
O O10 0.846315 0.266064 0.487441
O O11 0.619200 0.933197 0.517100
O O12 0.226606 0.219844 0.937574
O O13 0.299321 0.142705 0.045452
O O14 0.299348 0.177001 0.259990
#
# Coordination Sequence:
#
# PCOD8044890 Si02
#       8
#     2   2   2   2   2   2   1   1
#     4  12  24  45  71  99 134 180 234 283 337 412
#     4  10  21  39  66 106 133 175 230 272 355 406
#     4  12  26  49  63 101 141 182 233 283 343 406
#     4  10  22  41  66 100 136 177 221 289 338 407
#     4  11  22  44  70  99 135 177 228 291 339 399
#     4  10  25  44  71  98 140 181 221 285 353 411
#     4  10  18  38  66 104 138 170 220 286 346 408
#     4  12  26  44  70 100 136 192 238 278 340 414
#
# _framework density 23.033943000000001
#
# number of rings (size 3 to 8) (size 9 to 14) (size 15 to 20)
#    0.000    1.143    2.857    4.286    2.000    6.286 
#    5.143    0.000    0.000    0.000    0.000    0.000 
#    0.000    0.000    0.000    0.000    0.000    0.000 
#
# Total GULP energy -173508.727478 kJ/mol
# GULP energy per Si atom -12393.480534 kJ/mol
# Density = 2.298152 g / cm^3
# Si number density = 23.033943 Si / 1000 Ang^3
#
#
#
# Elastic Constant Matrix: (Units=GPa)
#
#
# Indices 1 2 3 4 5 6 
#
# 1 56.6496 35.3936 18.1821 0.0000 13.0943 0.0000
# 2 35.3936 137.7812 56.4856 0.0000 15.7881 0.0000
# 3 18.1821 56.4856 129.2149 0.0000 22.2565 0.0000
# 4 0.0000 0.0000 0.0000 37.0342 0.0000 0.3780
# 5 13.0943 15.7881 22.2565 0.0000 41.8155 0.0000
# 6 0.0000 0.0000 0.0000 0.3780 0.0000 14.0921
#
#
#
# Elastic Compliance Matrix: (Units=1/GPa)
#
#
# Indices 1 2 3 4 5 6 
#
# 1 0.021971 -0.005067 -0.000023 0.000000 -0.004955 0.000000
# 2 -0.005067 0.010087 -0.003648 0.000000 -0.000280 0.000000
# 3 -0.000023 -0.003648 0.010017 0.000000 -0.003947 0.000000
# 4 0.000000 0.000000 0.000000 0.027009 0.000000 -0.000725
# 5 -0.004955 -0.000280 -0.003947 0.000000 0.027673 0.000000
# 6 0.000000 0.000000 0.000000 -0.000725 0.000000 0.070981
#
#
# Mechanical properties :
#
#
# Convention : Reuss Voigt Hill
#
# Bulk Modulus (GPa) = 40.65326 60.41872 50.53599
# Shear Modulus (GPa) = 25.85130 32.82732 29.33931
#
# Velocity S-wave (km/s) = 3.35373 3.77924 3.57282
# Velocity P-wave (km/s) = 5.71701 6.73281 6.24560
#
# Compressibility (1/GPa) = 0.02459827
#
# Stress axis : x y z
#
# Youngs Moduli (GPa) = 45.51545 99.13543 99.83008
#
# Poissons Ratio (x) = 0.50228 0.00233
# Poissons Ratio (y) = 0.23061 0.36422
# Poissons Ratio (z) = 0.00106 0.36169
#
# Static dielectric constant tensor:
#      x y z
#    x 3.776620 0.000000 0.085790 
#    y 0.000000 4.391670 0.000000 
#    z 0.085790 0.000000 4.488930 
# 
# 
# High freq. dielectric constant tensor:
#      x y z
#    x 1.884440 0.000000 0.012360 
#    y 0.000000 1.917760 0.000000 
#    z 0.012360 0.000000 1.916000 
# 
# From -- ./inp_files/14835.got.cif
#   From: 2010.03.12/outbox.cif.g09.slc.cpg/sg3_8_cif.got.tgz:14835.got - 2010.03.31 09:20:49.
