data_PCOD8044880
_publ_section_title
;
Structure prediction by ZEFSAII (Michael W. Deem and Ramdas Pophale) SiO2 
 PCOD8044880
Probable space group: P 2
;
_chemical_formula_sum "Si O2"
_cell_formula_units_Z 9
_cell_length_a 11.213259
_cell_length_b 7.280709
_cell_length_c 8.756197
_cell_angle_alpha 90.000000
_cell_angle_beta 140.857884
_cell_angle_gamma 90.000000
_cell_volume 451.252629
_symmetry_space_group_name_H-M "P 2"
_symmetry_group_IT_number 3
_symmetry_cell_setting 'monoclinic'
loop_
_space_group_symop_operation_xyz
x,y,z
-x,y,-z
loop_
_atom_site_type_symbol
_atom_site_label
_atom_site_fract_x
_atom_site_fract_y
_atom_site_fract_z
Si Si1 0.500000 0.013300 0.000000
Si Si2 0.313667 0.338536 0.962294
Si Si3 0.969486 0.186161 0.794201
Si Si4 0.705134 0.462359 0.396377
Si Si5 0.140692 0.835221 0.503728
O O1 0.589722 0.139251 0.957155
O O2 0.657521 0.887223 0.229391
O O3 0.243752 0.409048 0.727916
O O4 0.137563 0.316586 0.899415
O O5 0.476425 0.475353 0.190400
O O6 0.778724 0.301793 0.580930
O O7 0.955470 0.992139 0.693725
O O8 0.000000 0.140008 0.000000
O O9 0.812752 0.651216 0.546819
O O10 0.000000 0.785736 0.500000
#
# Coordination Sequence:
#
# PCOD8044880 Si02
#       5
#     1   2   2   2   2
#     4  10  18  34  66  88 114 148 202 258 302 336
#     4  10  19  41  63  88 118 156 200 257 302 349
#     4  12  24  39  60  87 129 168 196 238 306 373
#     4  10  22  39  65  89 117 154 208 254 309 342
#     4  12  21  38  66  95 118 153 207 263 299 354
#
# _framework density 19.944483000000002
#
# number of rings (size 3 to 8) (size 9 to 14) (size 15 to 20)
#    0.000    1.333    6.667    3.333    0.000    1.778 
#    0.000    0.000    4.889    0.000    0.000    0.000 
#    0.000    0.000    0.000    0.000    0.000    0.000 
#
# Total GULP energy -111577.307302 kJ/mol
# GULP energy per Si atom -12397.478589 kJ/mol
# Density = 1.989909 g / cm^3
# Si number density = 19.944483 Si / 1000 Ang^3
#
#
#
# Elastic Constant Matrix: (Units=GPa)
#
#
# Indices 1 2 3 4 5 6 
#
# 1 54.2052 9.6173 37.5622 0.0000 7.4956 0.0000
# 2 9.6173 105.6593 33.2993 0.0000 3.9951 0.0000
# 3 37.5622 33.2993 98.1681 0.0000 2.5475 0.0000
# 4 0.0000 0.0000 0.0000 21.2604 0.0000 16.5204
# 5 7.4956 3.9951 2.5475 0.0000 21.2846 0.0000
# 6 0.0000 0.0000 0.0000 16.5204 0.0000 21.9793
#
#
#
# Elastic Compliance Matrix: (Units=1/GPa)
#
#
# Indices 1 2 3 4 5 6 
#
# 1 0.026560 0.001156 -0.010338 0.000000 -0.008333 0.000000
# 2 0.001156 0.010700 -0.004021 0.000000 -0.001934 0.000000
# 3 -0.010338 -0.004021 0.015440 0.000000 0.002548 0.000000
# 4 0.000000 0.000000 0.000000 0.113083 0.000000 -0.084997
# 5 -0.008333 -0.001934 0.002548 0.000000 0.049975 0.000000
# 6 0.000000 0.000000 0.000000 -0.084997 0.000000 0.109384
#
#
# Mechanical properties :
#
#
# Convention : Reuss Voigt Hill
#
# Bulk Modulus (GPa) = 38.03483 46.55446 42.29464
# Shear Modulus (GPa) = 13.87679 24.74178 19.30929
#
# Velocity S-wave (km/s) = 2.64061 3.52594 3.11489
# Velocity P-wave (km/s) = 5.32999 6.32211 5.84713
#
# Compressibility (1/GPa) = 0.02629169
#
# Stress axis : x y z
#
# Youngs Moduli (GPa) = 37.65094 93.46056 64.76519
#
# Poissons Ratio (x) = -0.10802 0.66957
# Poissons Ratio (y) = -0.04352 0.26045
# Poissons Ratio (z) = 0.38925 0.37585
#
# Static dielectric constant tensor:
#      x y z
#    x 3.383440 0.000000 0.365050 
#    y 0.000000 3.716150 0.000000 
#    z 0.365050 0.000000 3.720070 
# 
# 
# High freq. dielectric constant tensor:
#      x y z
#    x 1.744580 0.000000 0.036250 
#    y 0.000000 1.783180 0.000000 
#    z 0.036250 0.000000 1.777420 
# 
# From -- ./inp_files/6884.got.cif
#   From: 2010.03.12/outbox.cif.g09.slc.cpg/sg3_4_cif.got.tgz:6884.got - 2010.03.31 09:20:49.
