data_PCOD8044272
_publ_section_title
;
Structure prediction by ZEFSAII (Michael W. Deem and Ramdas Pophale) SiO2 
 PCOD8044272
Probable space group: P -1
;
_chemical_formula_sum "Si O2"
_cell_formula_units_Z 16
_cell_length_a 9.720078
_cell_length_b 8.584584
_cell_length_c 16.520186
_cell_angle_alpha 95.326718
_cell_angle_beta 145.716353
_cell_angle_gamma 83.578337
_cell_volume 771.618387
_symmetry_space_group_name_H-M "P -1"
_symmetry_group_IT_number 2
_symmetry_cell_setting 'triclinic'
loop_
_space_group_symop_operation_xyz
x,y,z
-x,-y,-z
loop_
_atom_site_type_symbol
_atom_site_label
_atom_site_fract_x
_atom_site_fract_y
_atom_site_fract_z
Si Si1 0.973480 0.796266 0.352238
Si Si2 0.778326 0.087071 0.944190
Si Si3 0.447810 0.745790 0.656003
Si Si4 0.667858 0.890716 0.361442
Si Si5 0.486929 0.204820 0.133429
Si Si6 0.928437 0.703099 0.789708
Si Si7 0.261843 0.411088 0.898165
Si Si8 0.968710 0.874299 0.657090
O O1 0.205618 0.684546 0.491963
O O2 0.849202 0.885032 0.372995
O O3 0.789535 0.691144 0.210825
O O4 0.056704 0.936322 0.341673
O O5 0.590099 0.179756 0.793756
O O6 0.623938 0.962393 0.911750
O O7 0.870076 0.214141 0.055929
O O8 0.000000 0.000000 0.000000
O O9 0.480287 0.695866 0.763263
O O10 0.684589 0.681061 0.720053
O O11 0.409071 0.932559 0.642583
O O12 0.805801 0.807691 0.500939
O O13 0.747589 0.183920 0.215144
O O14 0.298037 0.301805 0.988769
O O15 0.030537 0.530561 0.806705
O O16 0.861062 0.807814 0.683601
O O17 0.500000 0.500000 0.000000
#
# Coordination Sequence:
#
# PCOD8044272 Si02
#       8
#     2   2   2   2   2   2   2   2
#     4  11  21  41  68  93 123 167 213 260 317 383
#     4  11  21  40  67  97 126 159 209 264 316 369
#     4  10  21  42  66  91 127 160 212 268 319 367
#     4  10  19  37  67  96 121 160 211 262 313 372
#     4  11  21  43  67  93 123 170 213 258 320 371
#     4  12  25  42  61  95 136 164 207 269 313 375
#     4  12  27  41  61  94 134 171 213 257 313 382
#     4  11  21  39  70  96 121 163 218 267 314 363
#
# _framework density 20.735638000000002
#
# number of rings (size 3 to 8) (size 9 to 14) (size 15 to 20)
#    0.000    1.000    7.500    2.250    0.000    4.000 
#    2.250    3.750    0.000    0.000    0.000    0.000 
#    0.000    0.000    0.000    0.000    0.000    0.000 
#
# Total GULP energy -198378.010054 kJ/mol
# GULP energy per Si atom -12398.625628 kJ/mol
# Density = 2.068844 g / cm^3
# Si number density = 20.735638 Si / 1000 Ang^3
#
#
#
# Elastic Constant Matrix: (Units=GPa)
#
#
# Indices 1 2 3 4 5 6 
#
# 1 58.7703 7.8539 23.6310 4.5964 2.8717 -15.0137
# 2 7.8539 56.7134 29.9630 3.5479 -4.9873 -13.3278
# 3 23.6310 29.9630 150.4734 1.9441 -10.1294 4.4088
# 4 4.5964 3.5479 1.9441 15.8969 -11.2638 6.1321
# 5 2.8717 -4.9873 -10.1294 -11.2638 33.9685 -3.0836
# 6 -15.0137 -13.3278 4.4088 6.1321 -3.0836 22.8637
#
#
#
# Elastic Compliance Matrix: (Units=1/GPa)
#
#
# Indices 1 2 3 4 5 6 
#
# 1 0.030263 0.008601 -0.007754 -0.029905 -0.010530 0.032982
# 2 0.008601 0.028440 -0.007814 -0.021461 -0.003362 0.029036
# 3 -0.007754 -0.007814 0.010025 0.011827 0.005143 -0.014058
# 4 -0.029905 -0.021461 0.011827 0.127149 0.039326 -0.063226
# 5 -0.010530 -0.003362 0.005143 0.039326 0.043084 -0.014603
# 6 0.032982 0.029036 -0.014058 -0.063226 -0.014603 0.100019
#
#
# Mechanical properties :
#
#
# Convention : Reuss Voigt Hill
#
# Bulk Modulus (GPa) = 18.24997 43.20587 30.72792
# Shear Modulus (GPa) = 13.47066 28.17978 20.82522
#
# Velocity S-wave (km/s) = 2.55156 3.69046 3.17254
# Velocity P-wave (km/s) = 4.18342 6.24829 5.31705
#
# Compressibility (1/GPa) = 0.05479462
#
# Stress axis : x y z
#
# Youngs Moduli (GPa) = 33.04366 35.16200 99.75407
#
# Poissons Ratio (x) = -0.30245 0.77352
# Poissons Ratio (y) = -0.28422 0.77944
# Poissons Ratio (z) = 0.25623 0.27474
#
# Static dielectric constant tensor:
#      x y z
#    x 3.625970 -0.102250 -0.044040 
#    y -0.102250 3.481230 -0.155710 
#    z -0.044040 -0.155710 4.674980 
# 
# 
# High freq. dielectric constant tensor:
#      x y z
#    x 1.800980 -0.018300 -0.003560 
#    y -0.018300 1.776060 -0.009300 
#    z -0.003560 -0.009300 1.842400 
# 
# From -- ./inp_files/313631.got.cif
#   From: 2010.06.25/outbox.cif.g09.slc.cpg/sg2_157_cif.got.tgz:313631.got - 2010.06.27 13:26:56.
