data_PCOD8044958
_publ_section_title
;
Structure prediction by ZEFSAII (Michael W. Deem and Ramdas Pophale) SiO2 
 PCOD8044958
Probable space group: P 2
;
_chemical_formula_sum "Si O2"
_cell_formula_units_Z 14
_cell_length_a 7.405206
_cell_length_b 5.304177
_cell_length_c 16.907966
_cell_angle_alpha 90.000000
_cell_angle_beta 124.047463
_cell_angle_gamma 90.000000
_cell_volume 550.272553
_symmetry_space_group_name_H-M "P 2"
_symmetry_group_IT_number 3
_symmetry_cell_setting 'monoclinic'
loop_
_space_group_symop_operation_xyz
x,y,z
-x,y,-z
loop_
_atom_site_type_symbol
_atom_site_label
_atom_site_fract_x
_atom_site_fract_y
_atom_site_fract_z
Si Si1 0.942868 0.858250 0.900816
Si Si2 0.655908 0.686664 0.244324
Si Si3 0.739953 0.799158 0.437724
Si Si4 0.321012 0.016584 0.891831
Si Si5 0.016599 0.377937 0.276273
Si Si6 0.192961 0.291335 0.484195
Si Si7 0.716614 0.364780 0.804086
O O1 0.154794 0.833323 0.897315
O O2 0.845459 0.578628 0.885769
O O3 0.773987 0.071672 0.828623
O O4 0.000000 0.964786 0.000000
O O5 0.642979 0.821039 0.325795
O O6 0.558458 0.862584 0.149903
O O7 0.907027 0.634983 0.282181
O O8 0.530982 0.417861 0.228226
O O9 0.667982 0.550140 0.469964
O O10 0.000000 0.818980 0.500000
O O11 0.651401 0.052981 0.458318
O O12 0.176133 0.241693 0.820493
O O13 0.500000 0.116162 0.000000
O O14 0.099769 0.234088 0.374218
O O15 0.225468 0.437370 0.272727
O O16 0.000000 0.317749 0.500000
#
# Coordination Sequence:
#
# PCOD8044958 Si02
#       7
#     2   2   2   2   2   2   2
#     4  11  24  47  65  99 143 183 235 305 343 413
#     4  12  24  43  73  99 141 186 236 292 353 426
#     4  10  20  36  65 101 126 176 224 280 344 410
#     4  11  25  42  72 102 138 191 243 283 358 428
#     4  11  24  45  68 101 143 185 231 300 351 418
#     4  10  19  36  67  94 132 173 223 277 350 404
#     4  11  27  43  69 101 139 185 234 287 363 412
#
# _framework density 25.441934
#
# number of rings (size 3 to 8) (size 9 to 14) (size 15 to 20)
#    0.000    1.143    4.286    3.000    4.000    0.571 
#    0.000    0.714    0.000    3.429    0.000    0.000 
#    0.000    0.000    0.000    0.000    0.000    0.000 
#
# Total GULP energy -173446.732591 kJ/mol
# GULP energy per Si atom -12389.052328 kJ/mol
# Density = 2.538403 g / cm^3
# Si number density = 25.441934 Si / 1000 Ang^3
#
#
#
# Elastic Constant Matrix: (Units=GPa)
#
#
# Indices 1 2 3 4 5 6 
#
# 1 74.0337 2.6652 23.3080 0.0000 -17.7178 0.0000
# 2 2.6652 130.6452 40.0191 0.0000 -6.7148 0.0000
# 3 23.3080 40.0191 176.3423 0.0000 -23.8073 0.0000
# 4 0.0000 0.0000 0.0000 26.2854 0.0000 3.8172
# 5 -17.7178 -6.7148 -23.8073 0.0000 22.2863 0.0000
# 6 0.0000 0.0000 0.0000 3.8172 0.0000 15.7990
#
#
#
# Elastic Compliance Matrix: (Units=1/GPa)
#
#
# Indices 1 2 3 4 5 6 
#
# 1 0.016747 0.000500 -0.000595 0.000000 0.012829 0.000000
# 2 0.000500 0.008247 -0.001810 0.000000 0.000949 0.000000
# 3 -0.000595 -0.001810 0.007038 0.000000 0.006500 0.000000
# 4 0.000000 0.000000 0.000000 0.039427 0.000000 -0.009526
# 5 0.012829 0.000949 0.006500 0.000000 0.062299 0.000000
# 6 0.000000 0.000000 0.000000 -0.009526 0.000000 0.065597
#
#
# Mechanical properties :
#
#
# Convention : Reuss Voigt Hill
#
# Bulk Modulus (GPa) = 35.43260 57.00065 46.21663
# Shear Modulus (GPa) = 23.52150 33.87607 28.69878
#
# Velocity S-wave (km/s) = 3.04389 3.65294 3.36223
# Velocity P-wave (km/s) = 5.12940 6.34388 5.76869
#
# Compressibility (1/GPa) = 0.02822260
#
# Stress axis : x y z
#
# Youngs Moduli (GPa) = 59.71248 121.25313 142.09419
#
# Poissons Ratio (x) = -0.06063 0.08455
# Poissons Ratio (y) = -0.02986 0.25713
# Poissons Ratio (z) = 0.03553 0.21941
#
# Static dielectric constant tensor:
#      x y z
#    x 4.567130 0.000000 -0.259690 
#    y 0.000000 6.264430 0.000000 
#    z -0.259690 0.000000 4.647190 
# 
# 
# High freq. dielectric constant tensor:
#      x y z
#    x 2.000890 0.000000 -0.019860 
#    y 0.000000 2.013470 0.000000 
#    z -0.019860 0.000000 2.017480 
# 
# From -- ./inp_files/13265.got.cif
#   From: 2010.03.12/outbox.cif.g09.slc.cpg/sg3_7_cif.got.tgz:13265.got - 2010.03.31 09:20:49.
