data_PCOD8044342
_publ_section_title
;
Structure prediction by ZEFSAII (Michael W. Deem and Ramdas Pophale) SiO2 
 PCOD8044342
Probable space group: P -1
;
_chemical_formula_sum "Si O2"
_cell_formula_units_Z 14
_cell_length_a 11.478879
_cell_length_b 14.776393
_cell_length_c 10.761047
_cell_angle_alpha 106.715579
_cell_angle_beta 35.578115
_cell_angle_gamma 79.654873
_cell_volume 681.763116
_symmetry_space_group_name_H-M "P -1"
_symmetry_group_IT_number 2
_symmetry_cell_setting 'triclinic'
loop_
_space_group_symop_operation_xyz
x,y,z
-x,-y,-z
loop_
_atom_site_type_symbol
_atom_site_label
_atom_site_fract_x
_atom_site_fract_y
_atom_site_fract_z
Si Si1 0.624923 0.836603 0.618804
Si Si2 0.623318 0.216284 0.612568
Si Si3 0.865269 0.309291 0.727832
Si Si4 0.343426 0.007972 0.523967
Si Si5 0.277746 0.461402 0.201249
Si Si6 0.882556 0.965927 0.688654
Si Si7 0.227399 0.847708 0.804903
O O1 0.584532 0.955637 0.645052
O O2 0.509616 0.796238 0.609087
O O3 0.980625 0.696253 0.286688
O O4 0.451979 0.890758 0.922519
O O5 0.649514 0.250606 0.463045
O O6 0.939334 0.095582 0.360046
O O7 0.508526 0.147705 0.681885
O O8 0.408811 0.362428 0.928475
O O9 0.836934 0.394164 0.674615
O O10 0.099362 0.144748 0.426847
O O11 0.531051 0.381018 0.059148
O O12 0.500000 0.000000 0.500000
O O13 0.980393 0.138026 0.913352
O O14 0.000000 0.500000 0.500000
O O15 0.000000 0.000000 0.500000
O O16 0.000000 0.000000 0.000000
#
# Coordination Sequence:
#
# PCOD8044342 Si02
#       7
#     2   2   2   2   2   2   2
#     4  12  22  36  64  94 131 153 201 262 313 380
#     4  10  20  39  63  88 124 161 208 246 310 368
#     4  10  25  40  59  92 120 165 215 244 309 365
#     4  11  19  34  61  94 124 157 198 245 321 367
#     4  10  24  45  63  82 125 174 211 256 292 363
#     4  11  22  37  61  95 132 159 194 260 323 371
#     4  10  19  38  57  93 124 159 192 258 314 364
#
# _framework density 20.534991999999999
#
# number of rings (size 3 to 8) (size 9 to 14) (size 15 to 20)
#    0.000    1.429    5.714    1.286    6.000    0.000 
#    2.571    0.714    0.000    1.714    0.000    0.000 
#    0.000    0.000    0.000    0.000    0.000    0.000 
#
# Total GULP energy -173441.277030 kJ/mol
# GULP energy per Si atom -12388.662645 kJ/mol
# Density = 2.048825 g / cm^3
# Si number density = 20.534992 Si / 1000 Ang^3
#
#
#
# Elastic Constant Matrix: (Units=GPa)
#
#
# Indices 1 2 3 4 5 6 
#
# 1 135.7871 22.4894 55.9733 -3.9208 -30.8776 2.5988
# 2 22.4894 69.4719 31.0771 -11.3878 3.7216 4.5169
# 3 55.9733 31.0771 108.5300 -19.5465 -5.8285 0.0138
# 4 -3.9208 -11.3878 -19.5465 33.5757 -0.4834 0.4153
# 5 -30.8776 3.7216 -5.8285 -0.4834 41.2405 -4.5046
# 6 2.5988 4.5169 0.0138 0.4153 -4.5046 28.1331
#
#
#
# Elastic Compliance Matrix: (Units=1/GPa)
#
#
# Indices 1 2 3 4 5 6 
#
# 1 0.011779 -0.002276 -0.005417 -0.002438 0.008301 0.000645
# 2 -0.002276 0.017723 -0.003452 0.003718 -0.004114 -0.003347
# 3 -0.005417 -0.003452 0.014052 0.006346 -0.001608 0.000697
# 4 -0.002438 0.003718 0.006346 0.034453 -0.000974 -0.001039
# 5 0.008301 -0.004114 -0.001608 -0.000974 0.031130 0.004893
# 6 0.000645 -0.003347 0.000697 -0.001039 0.004893 0.036822
#
#
# Mechanical properties :
#
#
# Convention : Reuss Voigt Hill
#
# Bulk Modulus (GPa) = 47.02575 59.20761 53.11668
# Shear Modulus (GPa) = 28.51653 34.20646 31.36150
#
# Velocity S-wave (km/s) = 3.73054 4.08581 3.91221
# Velocity P-wave (km/s) = 6.44251 7.15217 6.80660
#
# Compressibility (1/GPa) = 0.02126495
#
# Stress axis : x y z
#
# Youngs Moduli (GPa) = 84.89549 56.42481 71.16203
#
# Poissons Ratio (x) = 0.12845 0.38545
# Poissons Ratio (y) = 0.19326 0.24563
# Poissons Ratio (z) = 0.45984 0.19476
#
# Static dielectric constant tensor:
#      x y z
#    x 4.349460 0.230510 0.168100 
#    y 0.230510 4.043560 -0.169960 
#    z 0.168100 -0.169960 4.288230 
# 
# 
# High freq. dielectric constant tensor:
#      x y z
#    x 1.820760 0.009810 -0.016770 
#    y 0.009810 1.779500 -0.023400 
#    z -0.016770 -0.023400 1.784200 
# 
# From -- ./inp_files/431559.got.cif
#   From: 2010.06.25/outbox.cif.g09.slc.cpg/sg2_216_cif.got.tgz:431559.got - 2010.06.27 13:26:56.
