data_PCOD8044098
_publ_section_title
;
Structure prediction by ZEFSAII (Michael W. Deem and Ramdas Pophale) SiO2 
 PCOD8044098
Probable space group: P -1
;
_chemical_formula_sum "Si O2"
_cell_formula_units_Z 16
_cell_length_a 16.262539
_cell_length_b 11.666396
_cell_length_c 12.777870
_cell_angle_alpha 127.777105
_cell_angle_beta 26.314677
_cell_angle_gamma 133.412196
_cell_volume 780.638899
_symmetry_space_group_name_H-M "P -1"
_symmetry_group_IT_number 2
_symmetry_cell_setting 'triclinic'
loop_
_space_group_symop_operation_xyz
x,y,z
-x,-y,-z
loop_
_atom_site_type_symbol
_atom_site_label
_atom_site_fract_x
_atom_site_fract_y
_atom_site_fract_z
Si Si1 0.090620 0.989966 0.604765
Si Si2 0.816425 0.489573 0.564245
Si Si3 0.675165 0.414169 0.317769
Si Si4 0.522457 0.545235 0.233135
Si Si5 0.901613 0.222643 0.704257
Si Si6 0.504988 0.257926 0.215679
Si Si7 0.939485 0.690343 0.739859
Si Si8 0.022214 0.743220 0.131106
O O1 0.028197 0.885853 0.511998
O O2 0.054500 0.872586 0.677911
O O3 0.316460 0.110693 0.391019
O O4 0.960862 0.091016 0.844711
O O5 0.605549 0.444124 0.717283
O O6 0.818836 0.579995 0.719560
O O7 0.000163 0.596274 0.341674
O O8 0.871950 0.341461 0.446180
O O9 0.531683 0.374884 0.559616
O O10 0.569138 0.381691 0.308056
O O11 0.818598 0.597999 0.252149
O O12 0.789246 0.296302 0.135990
O O13 0.475626 0.359695 0.207992
O O14 0.759386 0.653873 0.008277
O O15 0.994142 0.216971 0.707027
O O16 0.662912 0.181590 0.959512
#
# Coordination Sequence:
#
# PCOD8044098 Si02
#       8
#     2   2   2   2   2   2   2   2
#     4  11  22  39  58  92 132 161 196 263 327 365
#     4  10  20  41  63  92 125 166 212 251 302 380
#     4  10  22  38  64  91 122 157 218 262 292 369
#     4  12  21  40  67  92 115 171 214 253 302 369
#     4  10  19  37  63  95 126 157 206 265 314 371
#     4  11  22  38  64  95 123 161 213 259 309 367
#     4  10  24  40  61  90 133 164 204 256 311 374
#     4  10  20  37  62  92 118 163 207 265 312 358
#
# _framework density 20.496032
#
# number of rings (size 3 to 8) (size 9 to 14) (size 15 to 20)
#    0.000    1.500    3.750    1.500    0.000    1.000 
#    4.500    1.250    0.000    0.000    0.000    0.000 
#    0.000    0.000    0.000    0.000    0.000    0.000 
#
# Total GULP energy -198264.438254 kJ/mol
# GULP energy per Si atom -12391.527391 kJ/mol
# Density = 2.044938 g / cm^3
# Si number density = 20.496032 Si / 1000 Ang^3
#
#
#
# Elastic Constant Matrix: (Units=GPa)
#
#
# Indices 1 2 3 4 5 6 
#
# 1 90.8094 26.8510 -15.8350 2.9809 5.3334 9.2779
# 2 26.8510 128.3689 39.6234 0.3948 -11.9324 -35.5949
# 3 -15.8350 39.6234 118.4026 -7.7013 -36.4733 -52.0054
# 4 2.9809 0.3948 -7.7013 36.5410 -1.1343 5.2550
# 5 5.3334 -11.9324 -36.4733 -1.1343 58.8134 34.3253
# 6 9.2779 -35.5949 -52.0054 5.2550 34.3253 64.2197
#
#
#
# Elastic Compliance Matrix: (Units=1/GPa)
#
#
# Indices 1 2 3 4 5 6 
#
# 1 0.012815 -0.004045 0.002082 -0.000107 0.001026 -0.002947
# 2 -0.004045 0.010825 -0.002311 -0.001233 -0.002476 0.006137
# 3 0.002082 -0.002311 0.014154 0.001827 0.003599 0.007808
# 4 -0.000107 -0.001233 0.001827 0.028355 0.003372 -0.003311
# 5 0.001026 -0.002476 0.003599 0.003372 0.026236 -0.012905
# 6 -0.002947 0.006137 0.007808 -0.003311 -0.012905 0.032890
#
#
# Mechanical properties :
#
#
# Convention : Reuss Voigt Hill
#
# Bulk Modulus (GPa) = 34.19013 48.76221 41.47617
# Shear Modulus (GPa) = 34.82592 51.04424 42.93508
#
# Velocity S-wave (km/s) = 4.12655 4.99585 4.58186
# Velocity P-wave (km/s) = 6.27870 7.55782 6.94776
#
# Compressibility (1/GPa) = 0.02924820
#
# Stress axis : x y z
#
# Youngs Moduli (GPa) = 78.03051 92.38093 70.65046
#
# Poissons Ratio (x) = 0.37366 -0.14712
# Poissons Ratio (y) = 0.31562 0.16325
# Poissons Ratio (z) = -0.16249 0.21346
#
# Static dielectric constant tensor:
#      x y z
#    x 3.856900 -0.241050 -0.019970 
#    y -0.241050 3.848030 0.197870 
#    z -0.019970 0.197870 3.785140 
# 
# 
# High freq. dielectric constant tensor:
#      x y z
#    x 1.797570 -0.010830 -0.004030 
#    y -0.010830 1.788060 0.013350 
#    z -0.004030 0.013350 1.807350 
# 
# From -- ./inp_files/451585.got.cif
#   From: 2010.06.25/outbox.cif.g09.slc.cpg/sg2_226_cif.got.tgz:451585.got - 2010.06.27 13:26:56.
