data_PCOD8044809
_publ_section_title
;
Structure prediction by ZEFSAII (Michael W. Deem and Ramdas Pophale) SiO2 
 PCOD8044809
Probable space group: P -1
;
_chemical_formula_sum "Si O2"
_cell_formula_units_Z 14
_cell_length_a 8.219525
_cell_length_b 9.331818
_cell_length_c 12.248024
_cell_angle_alpha 121.460686
_cell_angle_beta 130.226284
_cell_angle_gamma 54.352180
_cell_volume 566.608412
_symmetry_space_group_name_H-M "P -1"
_symmetry_group_IT_number 2
_symmetry_cell_setting 'triclinic'
loop_
_space_group_symop_operation_xyz
x,y,z
-x,-y,-z
loop_
_atom_site_type_symbol
_atom_site_label
_atom_site_fract_x
_atom_site_fract_y
_atom_site_fract_z
Si Si1 0.898433 0.182647 0.462082
Si Si2 0.900159 0.544079 0.281503
Si Si3 0.583294 0.191226 0.784821
Si Si4 0.803323 0.464466 0.966056
Si Si5 0.891944 0.852639 0.697203
Si Si6 0.519158 0.772116 0.827730
Si Si7 0.254803 0.974580 0.989707
O O1 0.624197 0.242805 0.347135
O O2 0.935683 0.342296 0.610183
O O3 0.036135 0.148026 0.395345
O O4 0.000000 0.000000 0.500000
O O5 0.670272 0.662523 0.298261
O O6 0.053510 0.354523 0.329126
O O7 0.811073 0.513998 0.114164
O O8 0.782460 0.269043 0.870408
O O9 0.632191 0.001360 0.663722
O O10 0.579390 0.155945 0.899121
O O11 0.573733 0.598271 0.859077
O O12 0.000000 0.500000 0.000000
O O13 0.015990 0.943443 0.874762
O O14 0.347753 0.935383 0.890752
O O15 0.743584 0.820292 0.907682
#
# Coordination Sequence:
#
# PCOD8044809 Si02
#       7
#     2   2   2   2   2   2   2
#     4  11  26  47  71 101 149 197 234 291 364 432
#     4  12  26  48  73 106 148 190 237 294 362 434
#     4  12  23  43  74 107 142 182 245 295 360 423
#     4  12  26  42  73 112 142 185 243 305 359 425
#     4  11  25  42  72 105 140 188 240 296 355 427
#     4  10  22  41  69 102 145 185 234 294 361 414
#     4  10  19  38  68 103 137 179 233 296 351 416
#
# _framework density 24.708424000000001
#
# number of rings (size 3 to 8) (size 9 to 14) (size 15 to 20)
#    0.000    0.857    2.857    4.714    8.000    0.571 
#    0.000    0.714    0.000    0.000    0.000    0.000 
#    0.000    0.000    0.000    0.000    0.000    0.000 
#
# Total GULP energy -173471.040960 kJ/mol
# GULP energy per Si atom -12390.788640 kJ/mol
# Density = 2.465219 g / cm^3
# Si number density = 24.708424 Si / 1000 Ang^3
#
#
#
# Elastic Constant Matrix: (Units=GPa)
#
#
# Indices 1 2 3 4 5 6 
#
# 1 47.3514 31.3911 -7.1868 6.8922 8.0586 9.5122
# 2 31.3911 195.3475 52.0108 16.9752 -5.0148 25.3069
# 3 -7.1868 52.0108 80.0288 -2.8051 12.0907 16.5027
# 4 6.8922 16.9752 -2.8051 32.4734 14.7637 -5.3216
# 5 8.0586 -5.0148 12.0907 14.7637 25.1588 8.2593
# 6 9.5122 25.3069 16.5027 -5.3216 8.2593 45.7704
#
#
#
# Elastic Compliance Matrix: (Units=1/GPa)
#
#
# Indices 1 2 3 4 5 6 
#
# 1 0.033604 -0.011202 0.014853 0.012626 -0.027646 0.000311
# 2 -0.011202 0.013657 -0.012953 -0.018985 0.026130 -0.007475
# 3 0.014853 -0.012953 0.027655 0.022242 -0.034648 0.002942
# 4 0.012626 -0.018985 0.022242 0.074997 -0.069457 0.021107
# 5 -0.027646 0.026130 -0.034648 -0.069457 0.119719 -0.025889
# 6 0.000311 -0.007475 0.002942 0.021107 -0.025889 0.031981
#
#
# Mechanical properties :
#
#
# Convention : Reuss Voigt Hill
#
# Bulk Modulus (GPa) = 17.75845 52.79533 35.27689
# Shear Modulus (GPa) = 14.74977 37.11469 25.93223
#
# Velocity S-wave (km/s) = 2.44591 3.87991 3.24316
# Velocity P-wave (km/s) = 3.89608 6.44091 5.32282
#
# Compressibility (1/GPa) = 0.05631121
#
# Stress axis : x y z
#
# Youngs Moduli (GPa) = 29.75875 73.22322 36.15963
#
# Poissons Ratio (x) = 0.82022 -0.53707
# Poissons Ratio (y) = 0.33335 0.46839
# Poissons Ratio (z) = -0.44200 0.94848
#
# Static dielectric constant tensor:
#      x y z
#    x 4.600550 0.242920 0.310970 
#    y 0.242920 5.387220 -0.139780 
#    z 0.310970 -0.139780 4.716280 
# 
# 
# High freq. dielectric constant tensor:
#      x y z
#    x 1.968080 0.009380 0.007890 
#    y 0.009380 2.002780 -0.002200 
#    z 0.007890 -0.002200 1.975360 
# 
# From -- ./inp_files/380025.got.cif
#   From: 2010.06.25/outbox.cif.g09.slc.cpg/sg2_191_cif.got.tgz:380025.got - 2010.06.27 13:26:56.
