data_PCOD8044442
_publ_section_title
;
Structure prediction by ZEFSAII (Michael W. Deem and Ramdas Pophale) SiO2 
 PCOD8044442
Probable space group: P -1
;
_chemical_formula_sum "Si O2"
_cell_formula_units_Z 16
_cell_length_a 14.160010
_cell_length_b 11.862152
_cell_length_c 14.695893
_cell_angle_alpha 41.249376
_cell_angle_beta 54.282798
_cell_angle_gamma 29.477377
_cell_volume 781.612777
_symmetry_space_group_name_H-M "P -1"
_symmetry_group_IT_number 2
_symmetry_cell_setting 'triclinic'
loop_
_space_group_symop_operation_xyz
x,y,z
-x,-y,-z
loop_
_atom_site_type_symbol
_atom_site_label
_atom_site_fract_x
_atom_site_fract_y
_atom_site_fract_z
Si Si1 0.225990 0.228523 0.065092
Si Si2 0.787298 0.714729 0.289066
Si Si3 0.511685 0.160366 0.018036
Si Si4 0.140101 0.832822 0.636146
Si Si5 0.568929 0.385192 0.254787
Si Si6 0.067991 0.195341 0.318372
Si Si7 0.199421 0.613125 0.389984
Si Si8 0.909146 0.777447 0.340528
O O1 0.237128 0.079227 0.232142
O O2 0.339819 0.026817 0.036098
O O3 0.309664 0.306600 0.012433
O O4 0.000000 0.500000 0.000000
O O5 0.727598 0.642728 0.441486
O O6 0.853784 0.809729 0.246859
O O7 0.979890 0.434650 0.293941
O O8 0.601722 0.967530 0.174889
O O9 0.480074 0.398852 0.916652
O O10 0.335017 0.624922 0.710064
O O11 0.116636 0.661527 0.724180
O O12 0.168980 0.916101 0.480664
O O13 0.941525 0.115556 0.629161
O O14 0.379395 0.514945 0.319387
O O15 0.710796 0.073864 0.322460
O O16 0.079864 0.714257 0.301988
O O17 0.000000 0.500000 0.500000
#
# Coordination Sequence:
#
# PCOD8044442 Si02
#       8
#     2   2   2   2   2   2   2   2
#     4  11  22  40  59  82 127 171 196 232 302 363
#     4  10  21  40  60  90 122 152 205 248 288 366
#     4  11  25  38  59  93 122 157 206 245 294 363
#     4   9  20  36  59  91 123 149 203 253 293 354
#     4  11  22  39  63  88 122 158 197 253 302 348
#     4  10  19  38  61  86 119 164 196 246 303 352
#     4   9  20  40  65  88 116 158 201 246 304 352
#     4   9  21  43  64  86 122 155 202 253 299 352
#
# _framework density 20.470496000000001
#
# number of rings (size 3 to 8) (size 9 to 14) (size 15 to 20)
#    0.000    2.000    1.250    2.250    3.500    3.500 
#    2.250    3.125    0.000    0.000    0.000    0.000 
#    0.000    0.000    0.000    0.000    0.000    0.000 
#
# Total GULP energy -198308.286824 kJ/mol
# GULP energy per Si atom -12394.267926 kJ/mol
# Density = 2.042390 g / cm^3
# Si number density = 20.470496 Si / 1000 Ang^3
#
#
#
# Elastic Constant Matrix: (Units=GPa)
#
#
# Indices 1 2 3 4 5 6 
#
# 1 125.8750 56.6318 46.0317 18.2482 4.6788 0.0339
# 2 56.6318 76.3895 37.9067 4.1952 -11.9816 -13.6204
# 3 46.0317 37.9067 86.3292 7.1997 -11.3589 -11.2868
# 4 18.2482 4.1952 7.1997 26.1617 -4.0009 -3.7979
# 5 4.6788 -11.9816 -11.3589 -4.0009 30.9560 -0.2084
# 6 0.0339 -13.6204 -11.2868 -3.7979 -0.2084 35.1047
#
#
#
# Elastic Compliance Matrix: (Units=1/GPa)
#
#
# Indices 1 2 3 4 5 6 
#
# 1 0.018081 -0.013360 -0.005371 -0.011949 -0.011475 -0.008289
# 2 -0.013360 0.027851 -0.002712 0.009197 0.013067 0.011019
# 3 -0.005371 -0.002712 0.016952 0.001120 0.006158 0.004561
# 4 -0.011949 0.009197 0.001120 0.047952 0.012036 0.009200
# 5 -0.011475 0.013067 0.006158 0.012036 0.042969 0.008618
# 6 -0.008289 0.011019 0.004561 0.009200 0.008618 0.035282
#
#
# Mechanical properties :
#
#
# Convention : Reuss Voigt Hill
#
# Bulk Modulus (GPa) = 50.01267 63.30380 56.65823
# Shear Modulus (GPa) = 20.95221 28.31273 24.63247
#
# Velocity S-wave (km/s) = 3.20274 3.72304 3.47265
# Velocity P-wave (km/s) = 6.17749 7.03370 6.61945
#
# Compressibility (1/GPa) = 0.01999493
#
# Stress axis : x y z
#
# Youngs Moduli (GPa) = 55.30820 35.90587 58.99139
#
# Poissons Ratio (x) = 0.47971 0.31686
# Poissons Ratio (y) = 0.73893 0.16001
# Poissons Ratio (z) = 0.29708 0.09739
#
# Static dielectric constant tensor:
#      x y z
#    x 4.176100 0.050730 0.006160 
#    y 0.050730 3.608120 0.098510 
#    z 0.006160 0.098510 3.932620 
# 
# 
# High freq. dielectric constant tensor:
#      x y z
#    x 1.813700 0.001530 -0.000840 
#    y 0.001530 1.781450 -0.007880 
#    z -0.000840 -0.007880 1.796340 
# 
# From -- ./inp_files/531634.got.cif
#   From: 2010.06.25/outbox.cif.g09.slc.cpg/sg2_266_cif.got.tgz:531634.got - 2010.06.27 13:26:56.
