data_PCOD8044293
_publ_section_title
;
Structure prediction by ZEFSAII (Michael W. Deem and Ramdas Pophale) SiO2 
 PCOD8044293
Probable space group: P -1
;
_chemical_formula_sum "Si O2"
_cell_formula_units_Z 16
_cell_length_a 12.143931
_cell_length_b 9.351133
_cell_length_c 19.653686
_cell_angle_alpha 112.638328
_cell_angle_beta 139.890732
_cell_angle_gamma 36.703292
_cell_volume 692.070465
_symmetry_space_group_name_H-M "P -1"
_symmetry_group_IT_number 2
_symmetry_cell_setting 'triclinic'
loop_
_space_group_symop_operation_xyz
x,y,z
-x,-y,-z
loop_
_atom_site_type_symbol
_atom_site_label
_atom_site_fract_x
_atom_site_fract_y
_atom_site_fract_z
Si Si1 0.302976 0.834922 0.864471
Si Si2 0.066761 0.772142 0.004128
Si Si3 0.697055 0.335198 0.445861
Si Si4 0.369661 0.181573 0.370201
Si Si5 0.589837 0.879808 0.774854
Si Si6 0.070232 0.203909 0.700419
Si Si7 0.703064 0.068737 0.633973
Si Si8 0.892601 0.347981 0.848751
O O1 0.670385 0.484962 0.975765
O O2 0.290770 0.945621 0.810871
O O3 0.043771 0.896036 0.755945
O O4 0.238428 0.002381 0.927961
O O5 0.210954 0.636550 0.123625
O O6 0.724525 0.946990 0.865504
O O7 0.000000 0.000000 0.000000
O O8 0.593584 0.589283 0.416259
O O9 0.370773 0.488438 0.306197
O O10 0.780192 0.308167 0.559335
O O11 0.000000 0.000000 0.500000
O O12 0.525434 0.049013 0.344556
O O13 0.630335 0.049152 0.522282
O O14 0.058735 0.535816 0.282288
O O15 0.249548 0.104054 0.320823
O O16 0.893311 0.533614 0.879300
O O17 0.271883 0.087095 0.706252
#
# Coordination Sequence:
#
# PCOD8044293 Si02
#       8
#     2   2   2   2   2   2   2   2
#     4  11  24  44  72  97 133 176 222 276 335 394
#     4  12  30  47  64  96 134 179 232 284 330 391
#     4  10  19  37  69 102 139 167 212 265 333 403
#     4  10  23  45  65 102 138 178 212 275 339 400
#     4  12  25  43  70  94 133 175 230 273 332 390
#     4  11  23  40  71 106 132 175 213 277 334 404
#     4   9  23  41  68 101 143 172 221 267 338 411
#     4  11  24  44  70  99 131 174 227 276 327 402
#
# _framework density 23.119032000000001
#
# number of rings (size 3 to 8) (size 9 to 14) (size 15 to 20)
#    0.000    1.250    3.750    0.375    7.000    4.500 
#    0.000    5.625    0.000    0.000    0.000    0.000 
#    0.000    0.000    0.000    0.000    0.000    0.000 
#
# Total GULP energy -198253.897884 kJ/mol
# GULP energy per Si atom -12390.868618 kJ/mol
# Density = 2.306641 g / cm^3
# Si number density = 23.119032 Si / 1000 Ang^3
#
#
#
# Elastic Constant Matrix: (Units=GPa)
#
#
# Indices 1 2 3 4 5 6 
#
# 1 112.9748 31.4040 9.5762 6.6122 -0.5419 2.4221
# 2 31.4040 106.8641 6.3425 -1.8922 -0.3161 6.0971
# 3 9.5762 6.3425 42.0447 6.1842 2.3975 -1.4016
# 4 6.6122 -1.8922 6.1842 31.0804 -0.1083 3.6712
# 5 -0.5419 -0.3161 2.3975 -0.1083 24.0318 -3.3499
# 6 2.4221 6.0971 -1.4016 3.6712 -3.3499 44.1429
#
#
#
# Elastic Compliance Matrix: (Units=1/GPa)
#
#
# Indices 1 2 3 4 5 6 
#
# 1 0.009892 -0.002848 -0.001553 -0.001966 0.000330 -0.000010
# 2 -0.002848 0.010378 -0.001208 0.001650 -0.000002 -0.001453
# 3 -0.001553 -0.001208 0.025224 -0.004922 -0.002411 0.001279
# 4 -0.001966 0.001650 -0.004922 0.034039 0.000191 -0.003093
# 5 0.000330 -0.000002 -0.002411 0.000191 0.042292 0.003099
# 6 -0.000010 -0.001453 0.001279 -0.003093 0.003099 0.023388
#
#
# Mechanical properties :
#
#
# Convention : Reuss Voigt Hill
#
# Bulk Modulus (GPa) = 29.17482 39.61434 34.39458
# Shear Modulus (GPa) = 29.78727 34.15508 31.97118
#
# Velocity S-wave (km/s) = 3.59337 3.84781 3.72276
# Velocity P-wave (km/s) = 5.46472 6.07561 5.77824
#
# Compressibility (1/GPa) = 0.03427613
#
# Stress axis : x y z
#
# Youngs Moduli (GPa) = 101.09451 96.35405 39.64437
#
# Poissons Ratio (x) = 0.27441 0.06158
# Poissons Ratio (y) = 0.28791 0.04789
# Poissons Ratio (z) = 0.15703 0.11639
#
# Static dielectric constant tensor:
#      x y z
#    x 4.007360 0.080980 -0.060910 
#    y 0.080980 4.676000 0.133860 
#    z -0.060910 0.133860 3.951180 
# 
# 
# High freq. dielectric constant tensor:
#      x y z
#    x 1.904170 0.006910 -0.004650 
#    y 0.006910 1.936300 0.010350 
#    z -0.004650 0.010350 1.895270 
# 
# From -- ./inp_files/498946.got.cif
#   From: 2010.06.25/outbox.cif.g09.slc.cpg/sg2_250_cif.got.tgz:498946.got - 2010.06.27 13:26:56.
