data_PCOD8044401
_publ_section_title
;
Structure prediction by ZEFSAII (Michael W. Deem and Ramdas Pophale) SiO2 
 PCOD8044401
Probable space group: P -1
;
_chemical_formula_sum "Si O2"
_cell_formula_units_Z 14
_cell_length_a 9.060515
_cell_length_b 23.073479
_cell_length_c 12.924477
_cell_angle_alpha 23.320767
_cell_angle_beta 135.639470
_cell_angle_gamma 137.539165
_cell_volume 714.965273
_symmetry_space_group_name_H-M "P -1"
_symmetry_group_IT_number 2
_symmetry_cell_setting 'triclinic'
loop_
_space_group_symop_operation_xyz
x,y,z
-x,-y,-z
loop_
_atom_site_type_symbol
_atom_site_label
_atom_site_fract_x
_atom_site_fract_y
_atom_site_fract_z
Si Si1 0.956268 0.813973 0.878068
Si Si2 0.510588 0.634056 0.009489
Si Si3 0.666522 0.716203 0.538494
Si Si4 0.881305 0.061176 0.569787
Si Si5 0.416406 0.185271 0.446406
Si Si6 0.560995 0.148318 0.971492
Si Si7 0.511197 0.841310 0.861282
O O1 0.844631 0.859281 0.643332
O O2 0.177018 0.768860 0.041557
O O3 0.012381 0.956176 0.752433
O O4 0.776849 0.667533 0.081282
O O5 0.385895 0.456266 0.244086
O O6 0.438067 0.712679 0.741459
O O7 0.453952 0.708267 0.964916
O O8 0.557591 0.717386 0.594655
O O9 0.932918 0.784495 0.557120
O O10 0.564242 0.815117 0.249400
O O11 0.694675 0.086866 0.356982
O O12 0.743127 0.970987 0.745808
O O13 0.493881 0.035172 0.747877
O O14 0.477134 0.216692 0.920502
#
# Coordination Sequence:
#
# PCOD8044401 Si02
#       7
#     2   2   2   2   2   2   2
#     4   9  19  37  65  83 108 158 203 227 269 350
#     4   9  23  40  60  83 119 157 192 234 284 349
#     4  12  24  34  59  94 126 140 183 253 307 323
#     4  10  19  38  63  85 110 155 203 239 268 347
#     4  10  19  38  60  87 110 152 197 240 267 344
#     4  12  21  35  64  92 114 149 195 243 287 339
#     4  10  20  40  62  81 111 160 206 223 276 357
#
# _framework density 19.581371000000001
#
# number of rings (size 3 to 8) (size 9 to 14) (size 15 to 20)
#    0.857    0.857    2.857    3.000    0.000    2.286 
#    0.000    0.000    0.000    0.000    0.000    0.000 
#    0.000    0.000    0.000    0.000    0.000    0.000 
#
# Total GULP energy -173517.761536 kJ/mol
# GULP energy per Si atom -12394.125824 kJ/mol
# Density = 1.953680 g / cm^3
# Si number density = 19.581371 Si / 1000 Ang^3
#
#
#
# Elastic Constant Matrix: (Units=GPa)
#
#
# Indices 1 2 3 4 5 6 
#
# 1 90.6910 36.2659 16.6139 -3.5899 -9.6323 -14.2991
# 2 36.2659 61.8586 27.1397 -19.8703 -4.2527 -3.4745
# 3 16.6139 27.1397 63.5846 -11.0568 1.4133 8.6614
# 4 -3.5899 -19.8703 -11.0568 41.8733 -1.3620 -4.1075
# 5 -9.6323 -4.2527 1.4133 -1.3620 11.2304 -2.1284
# 6 -14.2991 -3.4745 8.6614 -4.1075 -2.1284 31.6880
#
#
#
# Elastic Compliance Matrix: (Units=1/GPa)
#
#
# Indices 1 2 3 4 5 6 
#
# 1 0.017554 -0.008221 -0.002863 -0.001875 0.013683 0.008478
# 2 -0.008221 0.029399 -0.009113 0.011471 0.007375 0.003987
# 3 -0.002863 -0.009113 0.021810 -0.000026 -0.010351 -0.008951
# 4 -0.001875 0.011471 -0.000026 0.029862 0.007266 0.004777
# 5 0.013683 0.007375 -0.010351 0.007266 0.109185 0.018088
# 6 0.008478 0.003987 -0.008951 0.004777 0.018088 0.040101
#
#
# Mechanical properties :
#
#
# Convention : Reuss Voigt Hill
#
# Bulk Modulus (GPa) = 35.24868 41.79702 38.52285
# Shear Modulus (GPa) = 16.79194 26.03264 21.41229
#
# Velocity S-wave (km/s) = 2.93157 3.65013 3.31040
# Velocity P-wave (km/s) = 5.43130 6.25750 5.85898
#
# Compressibility (1/GPa) = 0.02836986
#
# Stress axis : x y z
#
# Youngs Moduli (GPa) = 56.96671 34.01424 45.85127
#
# Poissons Ratio (x) = 0.27963 0.13127
# Poissons Ratio (y) = 0.46832 0.41784
# Poissons Ratio (z) = 0.16309 0.30997
#
# Static dielectric constant tensor:
#      x y z
#    x 3.553950 -0.085050 -0.191880 
#    y -0.085050 3.377420 0.008470 
#    z -0.191880 0.008470 3.212830 
# 
# 
# High freq. dielectric constant tensor:
#      x y z
#    x 1.767700 -0.011570 -0.016770 
#    y -0.011570 1.751090 -0.004900 
#    z -0.016770 -0.004900 1.732510 
# 
# From -- ./inp_files/274554.got.cif
#   From: 2010.06.25/outbox.cif.g09.slc.cpg/sg2_138_cif.got.tgz:274554.got - 2010.06.27 13:26:56.
