data_PCOD8044664
_publ_section_title
;
Structure prediction by ZEFSAII (Michael W. Deem and Ramdas Pophale) SiO2 
 PCOD8044664
Probable space group: P -1
;
_chemical_formula_sum "Si O2"
_cell_formula_units_Z 16
_cell_length_a 14.942847
_cell_length_b 11.752491
_cell_length_c 15.862045
_cell_angle_alpha 64.440820
_cell_angle_beta 140.938734
_cell_angle_gamma 147.018727
_cell_volume 733.392427
_symmetry_space_group_name_H-M "P -1"
_symmetry_group_IT_number 2
_symmetry_cell_setting 'triclinic'
loop_
_space_group_symop_operation_xyz
x,y,z
-x,-y,-z
loop_
_atom_site_type_symbol
_atom_site_label
_atom_site_fract_x
_atom_site_fract_y
_atom_site_fract_z
Si Si1 0.742368 0.517137 0.636489
Si Si2 0.588792 0.628023 0.258417
Si Si3 0.786784 0.223970 0.397773
Si Si4 0.780460 0.834541 0.516158
Si Si5 0.713905 0.367062 0.022351
Si Si6 0.381395 0.948154 0.042207
Si Si7 0.412005 0.953176 0.356528
Si Si8 0.658511 0.410397 0.416650
O O1 0.803501 0.711081 0.604530
O O2 0.434304 0.253498 0.550468
O O3 0.708586 0.424553 0.549463
O O4 0.024053 0.689532 0.844163
O O5 0.659381 0.749617 0.359778
O O6 0.471220 0.392752 0.266488
O O7 0.350807 0.535326 0.069860
O O8 0.876484 0.841220 0.337310
O O9 0.000000 0.500000 0.500000
O O10 0.001866 0.307165 0.468576
O O11 0.481892 0.032133 0.186187
O O12 0.633233 0.044161 0.427555
O O13 0.076068 0.638152 0.193371
O O14 0.596084 0.226884 0.071386
O O15 0.543694 0.135726 0.908091
O O16 0.500000 0.000000 0.500000
O O17 0.461027 0.142345 0.316576
#
# Coordination Sequence:
#
# PCOD8044664 Si02
#       8
#     2   2   2   2   2   2   2   2
#     4  10  19  38  64  95 124 165 210 258 304 369
#     4  10  21  38  60  93 132 167 206 257 308 374
#     4  10  23  42  65  91 123 164 206 257 315 376
#     4   9  20  35  59  92 131 164 204 255 313 364
#     4  11  23  39  63  95 129 160 211 262 307 367
#     4  11  22  38  64  94 124 162 207 263 315 360
#     4  11  24  44  65  90 124 167 209 263 314 375
#     4  10  22  41  65  88 128 174 206 251 319 372
#
# _framework density 21.816424000000001
#
# number of rings (size 3 to 8) (size 9 to 14) (size 15 to 20)
#    0.000    1.750    1.250    3.750    5.250    3.000 
#    0.000    0.000    0.000    4.500    0.000    0.000 
#    0.000    0.000    0.000    0.000    0.000    0.000 
#
# Total GULP energy -198209.898100 kJ/mol
# GULP energy per Si atom -12388.118631 kJ/mol
# Density = 2.176677 g / cm^3
# Si number density = 21.816424 Si / 1000 Ang^3
#
#
#
# Elastic Constant Matrix: (Units=GPa)
#
#
# Indices 1 2 3 4 5 6 
#
# 1 106.0448 33.3202 34.5998 -2.7218 -1.4605 28.0767
# 2 33.3202 69.2083 34.8846 -1.1140 5.4662 6.4257
# 3 34.5998 34.8846 79.3682 -4.0446 -4.6848 0.3948
# 4 -2.7218 -1.1140 -4.0446 29.8457 0.5769 2.7698
# 5 -1.4605 5.4662 -4.6848 0.5769 28.0418 -0.6114
# 6 28.0767 6.4257 0.3948 2.7698 -0.6114 52.2188
#
#
#
# Elastic Compliance Matrix: (Units=1/GPa)
#
#
# Indices 1 2 3 4 5 6 
#
# 1 0.013953 -0.003976 -0.004202 0.001196 0.000622 -0.007037
# 2 -0.003976 0.020723 -0.007725 -0.000493 -0.005536 -0.000393
# 3 -0.004202 -0.007725 0.018141 0.001420 0.004355 0.003049
# 4 0.001196 -0.000493 0.001420 0.034018 -0.000357 -0.002402
# 5 0.000622 -0.005536 0.004355 -0.000357 0.037524 0.000772
# 6 -0.007037 -0.000393 0.003049 -0.002402 0.000772 0.023096
#
#
# Mechanical properties :
#
#
# Convention : Reuss Voigt Hill
#
# Bulk Modulus (GPa) = 47.59575 51.13673 49.36624
# Shear Modulus (GPa) = 26.84351 32.14238 29.49294
#
# Velocity S-wave (km/s) = 3.51155 3.84254 3.68077
# Velocity P-wave (km/s) = 6.18911 6.57094 6.38288
#
# Compressibility (1/GPa) = 0.02101028
#
# Stress axis : x y z
#
# Youngs Moduli (GPa) = 71.67018 48.25609 55.12340
#
# Poissons Ratio (x) = 0.19185 0.23166
# Poissons Ratio (y) = 0.28494 0.42583
# Poissons Ratio (z) = 0.30119 0.37278
#
# Static dielectric constant tensor:
#      x y z
#    x 6.747890 0.134270 -2.427460 
#    y 0.134270 4.301190 0.102250 
#    z -2.427460 0.102250 6.253260 
# 
# 
# High freq. dielectric constant tensor:
#      x y z
#    x 1.854830 0.006580 0.005690 
#    y 0.006580 1.874500 -0.007090 
#    z 0.005690 -0.007090 1.832540 
# 
# From -- ./inp_files/532485.got.cif
#   From: 2010.06.25/outbox.cif.g09.slc.cpg/sg2_267_cif.got.tgz:532485.got - 2010.06.27 13:26:56.
