data_PCOD8044344
_publ_section_title
;
Structure prediction by ZEFSAII (Michael W. Deem and Ramdas Pophale) SiO2 
 PCOD8044344
Probable space group: P -1
;
_chemical_formula_sum "Si O2"
_cell_formula_units_Z 14
_cell_length_a 11.321046
_cell_length_b 17.021247
_cell_length_c 9.772908
_cell_angle_alpha 43.946482
_cell_angle_beta 40.497175
_cell_angle_gamma 39.528834
_cell_volume 736.695805
_symmetry_space_group_name_H-M "P -1"
_symmetry_group_IT_number 2
_symmetry_cell_setting 'triclinic'
loop_
_space_group_symop_operation_xyz
x,y,z
-x,-y,-z
loop_
_atom_site_type_symbol
_atom_site_label
_atom_site_fract_x
_atom_site_fract_y
_atom_site_fract_z
Si Si1 0.427403 0.604288 0.158965
Si Si2 0.227539 0.999053 0.954865
Si Si3 0.811440 0.621671 0.786772
Si Si4 0.242856 0.856781 0.847544
Si Si5 0.269408 0.411977 0.595103
Si Si6 0.520280 0.732741 0.140939
Si Si7 0.669562 0.777431 0.452416
O O1 0.382497 0.486114 0.337884
O O2 0.406729 0.657529 0.267146
O O3 0.665352 0.558001 0.955362
O O4 0.264924 0.723326 0.057162
O O5 0.300077 0.104886 0.770636
O O6 0.273735 0.938507 0.838509
O O7 0.981761 0.062932 0.127120
O O8 0.359022 0.887346 0.090286
O O9 0.787146 0.722439 0.562371
O O10 0.051184 0.513316 0.730786
O O11 0.724516 0.700799 0.907158
O O12 0.421938 0.826787 0.616360
O O13 0.418712 0.310749 0.703453
O O14 0.225318 0.337114 0.608043
#
# Coordination Sequence:
#
# PCOD8044344 Si02
#       7
#     2   2   2   2   2   2   2
#     4   8  19  36  55  78 108 136 190 217 254 325
#     4  10  19  38  58  77 113 138 185 222 263 319
#     4   9  21  37  54  83 105 142 185 220 263 319
#     4   9  19  36  59  82 101 146 180 228 264 308
#     4  12  21  35  57  80 116 144 169 224 282 311
#     4   9  21  39  54  80 108 147 186 214 257 333
#     4  11  22  34  57  88 107 137 181 227 271 318
#
# _framework density 19.003772999999999
#
# number of rings (size 3 to 8) (size 9 to 14) (size 15 to 20)
#    0.857    1.429    1.429    2.571    0.000    4.000 
#    0.000    0.714    0.000    0.000    0.000    0.000 
#    0.000    0.000    0.000    0.000    0.000    0.000 
#
# Total GULP energy -173555.689709 kJ/mol
# GULP energy per Si atom -12396.834979 kJ/mol
# Density = 1.896052 g / cm^3
# Si number density = 19.003773 Si / 1000 Ang^3
#
#
#
# Elastic Constant Matrix: (Units=GPa)
#
#
# Indices 1 2 3 4 5 6 
#
# 1 40.0090 32.9994 25.5045 -16.1412 -6.8726 -8.6621
# 2 32.9994 71.1071 35.9468 -16.3650 -8.1477 -21.9650
# 3 25.5045 35.9468 49.4973 -18.1346 -17.8246 -3.3169
# 4 -16.1412 -16.3650 -18.1346 35.2670 2.7164 -6.6204
# 5 -6.8726 -8.1477 -17.8246 2.7164 17.8581 1.0935
# 6 -8.6621 -21.9650 -3.3169 -6.6204 1.0935 38.1872
#
#
#
# Elastic Compliance Matrix: (Units=1/GPa)
#
#
# Indices 1 2 3 4 5 6 
#
# 1 0.048093 -0.012595 -0.011462 0.011193 -0.000665 0.004629
# 2 -0.012595 0.034822 -0.020052 0.003982 -0.010585 0.016424
# 3 -0.011462 -0.020052 0.061020 0.011755 0.046054 -0.008115
# 4 0.011193 0.003982 0.011755 0.043001 0.010521 0.013004
# 5 -0.000665 -0.010585 0.046054 0.010521 0.095472 -0.003149
# 6 0.004629 0.016424 -0.008115 0.013004 -0.003149 0.038324
#
#
# Mechanical properties :
#
#
# Convention : Reuss Voigt Hill
#
# Bulk Modulus (GPa) = 17.94794 38.83498 28.39146
# Shear Modulus (GPa) = 11.69528 22.67331 17.18429
#
# Velocity S-wave (km/s) = 2.48345 3.45787 3.01035
# Velocity P-wave (km/s) = 4.20575 6.03508 5.20147
#
# Compressibility (1/GPa) = 0.05571671
#
# Stress axis : x y z
#
# Youngs Moduli (GPa) = 20.79294 28.71736 16.38814
#
# Poissons Ratio (x) = 0.36169 0.18785
# Poissons Ratio (y) = 0.26188 0.32861
# Poissons Ratio (z) = 0.23834 0.57584
#
# Static dielectric constant tensor:
#      x y z
#    x 3.158480 -0.180860 -0.067540 
#    y -0.180860 3.509500 -0.022080 
#    z -0.067540 -0.022080 3.208390 
# 
# 
# High freq. dielectric constant tensor:
#      x y z
#    x 1.715010 -0.015270 -0.007320 
#    y -0.015270 1.739600 -0.005340 
#    z -0.007320 -0.005340 1.723370 
# 
# From -- ./inp_files/278725.got.cif
#   From: 2010.06.25/outbox.cif.g09.slc.cpg/sg2_140_cif.got.tgz:278725.got - 2010.06.27 13:26:56.
