data_PCOD8044099
_publ_section_title
;
Structure prediction by ZEFSAII (Michael W. Deem and Ramdas Pophale) SiO2 
 PCOD8044099
Probable space group: P -1
;
_chemical_formula_sum "Si O2"
_cell_formula_units_Z 16
_cell_length_a 9.656276
_cell_length_b 11.734186
_cell_length_c 14.959462
_cell_angle_alpha 37.791365
_cell_angle_beta 49.340477
_cell_angle_gamma 50.687121
_cell_volume 761.847455
_symmetry_space_group_name_H-M "P -1"
_symmetry_group_IT_number 2
_symmetry_cell_setting 'triclinic'
loop_
_space_group_symop_operation_xyz
x,y,z
-x,-y,-z
loop_
_atom_site_type_symbol
_atom_site_label
_atom_site_fract_x
_atom_site_fract_y
_atom_site_fract_z
Si Si1 0.692063 0.162157 0.529317
Si Si2 0.413160 0.729850 0.798121
Si Si3 0.423195 0.040649 0.144549
Si Si4 0.049231 0.216596 0.430505
Si Si5 0.711548 0.622263 0.888180
Si Si6 0.862446 0.858181 0.359242
Si Si7 0.393155 0.401397 0.382951
Si Si8 0.266689 0.854312 0.161620
O O1 0.543332 0.101956 0.696024
O O2 0.583253 0.322107 0.408073
O O3 0.832145 0.245987 0.478926
O O4 0.812026 0.984016 0.533113
O O5 0.518365 0.717533 0.856370
O O6 0.568053 0.654328 0.702807
O O7 0.300535 0.945365 0.689073
O O8 0.271522 0.592014 0.950361
O O9 0.305795 0.962038 0.167465
O O10 0.288068 0.245112 0.106875
O O11 0.626133 0.065880 0.012635
O O12 0.112647 0.386547 0.246204
O O13 0.060905 0.228997 0.523521
O O14 0.773016 0.695311 0.453361
O O15 0.042956 0.896652 0.206893
O O16 0.342214 0.626662 0.280660
#
# Coordination Sequence:
#
# PCOD8044099 Si02
#       8
#     2   2   2   2   2   2   2   2
#     4  10  21  38  64  94 123 165 213 259 315 368
#     4  11  22  39  67  99 126 161 217 262 326 371
#     4  10  21  43  63  85 130 176 203 254 317 382
#     4  10  19  37  63  95 126 157 208 271 311 364
#     4  10  21  40  66  95 128 166 208 269 318 374
#     4  12  22  42  64  99 124 166 215 263 317 372
#     4  12  23  42  65  96 128 170 215 258 317 382
#     4  11  25  42  63  90 133 174 210 255 317 383
#
# _framework density 21.001580000000001
#
# number of rings (size 3 to 8) (size 9 to 14) (size 15 to 20)
#    0.000    1.250    5.000    2.250    0.000    0.500 
#    4.500    3.750    0.000    0.000    0.000    0.000 
#    0.000    0.000    0.000    0.000    0.000    0.000 
#
# Total GULP energy -198376.899238 kJ/mol
# GULP energy per Si atom -12398.556202 kJ/mol
# Density = 2.095378 g / cm^3
# Si number density = 21.001580 Si / 1000 Ang^3
#
#
#
# Elastic Constant Matrix: (Units=GPa)
#
#
# Indices 1 2 3 4 5 6 
#
# 1 85.3432 35.3407 31.7389 -8.2307 -11.6659 -3.7653
# 2 35.3407 61.2347 35.1112 -4.7299 -8.7627 5.1015
# 3 31.7389 35.1112 113.7132 2.5448 -27.7762 -1.4772
# 4 -8.2307 -4.7299 2.5448 32.9592 2.0831 -7.6461
# 5 -11.6659 -8.7627 -27.7762 2.0831 35.3953 4.2070
# 6 -3.7653 5.1015 -1.4772 -7.6461 4.2070 23.3582
#
#
#
# Elastic Compliance Matrix: (Units=1/GPa)
#
#
# Indices 1 2 3 4 5 6 
#
# 1 0.016777 -0.008654 -0.001775 0.004343 0.001060 0.005713
# 2 -0.008654 0.025038 -0.005433 0.000204 -0.000082 -0.007125
# 3 -0.001775 -0.005433 0.013135 -0.002969 0.008647 -0.000798
# 4 0.004343 0.000204 -0.002969 0.034906 -0.004410 0.012688
# 5 0.001060 -0.000082 0.008647 -0.004410 0.036492 -0.007281
# 6 0.005713 -0.007125 -0.000798 0.012688 -0.007281 0.050703
#
#
# Mechanical properties :
#
#
# Convention : Reuss Voigt Hill
#
# Bulk Modulus (GPa) = 43.05266 51.63032 47.34149
# Shear Modulus (GPa) = 23.09311 28.88256 25.98784
#
# Velocity S-wave (km/s) = 3.31960 3.71247 3.52152
# Velocity P-wave (km/s) = 5.93610 6.55850 6.25505
#
# Compressibility (1/GPa) = 0.02322737
#
# Stress axis : x y z
#
# Youngs Moduli (GPa) = 59.60665 39.93996 76.13133
#
# Poissons Ratio (x) = 0.34563 0.13511
# Poissons Ratio (y) = 0.51581 0.41360
# Poissons Ratio (z) = 0.10579 0.21698
#
# Static dielectric constant tensor:
#      x y z
#    x 3.764230 0.180490 -0.280050 
#    y 0.180490 3.549120 0.123000 
#    z -0.280050 0.123000 4.167590 
# 
# 
# High freq. dielectric constant tensor:
#      x y z
#    x 1.817350 0.017090 -0.016800 
#    y 0.017090 1.797240 0.005830 
#    z -0.016800 0.005830 1.840410 
# 
# From -- ./inp_files/209062.got.cif
#   From: 2010.06.25/outbox.cif.g09.slc.cpg/sg2_105_cif.got.tgz:209062.got - 2010.06.27 13:26:56.
