data_PCOD8044014
_publ_section_title
;
Structure prediction by ZEFSAII (Michael W. Deem and Ramdas Pophale) SiO2 
 PCOD8044014
Probable space group: P -1
;
_chemical_formula_sum "Si O2"
_cell_formula_units_Z 16
_cell_length_a 22.988512
_cell_length_b 8.844428
_cell_length_c 8.548439
_cell_angle_alpha 62.972867
_cell_angle_beta 56.158210
_cell_angle_gamma 32.998363
_cell_volume 785.900918
_symmetry_space_group_name_H-M "P -1"
_symmetry_group_IT_number 2
_symmetry_cell_setting 'triclinic'
loop_
_space_group_symop_operation_xyz
x,y,z
-x,-y,-z
loop_
_atom_site_type_symbol
_atom_site_label
_atom_site_fract_x
_atom_site_fract_y
_atom_site_fract_z
Si Si1 0.282978 0.423856 0.262683
Si Si2 0.683181 0.271897 0.817567
Si Si3 0.937526 0.282070 0.399500
Si Si4 0.433067 0.798469 0.812188
Si Si5 0.683924 0.659123 0.111873
Si Si6 0.089958 0.838591 0.805205
Si Si7 0.078030 0.205095 0.448976
Si Si8 0.522360 0.078863 0.578520
O O1 0.263904 0.658023 0.221628
O O2 0.189271 0.478409 0.450471
O O3 0.401123 0.144353 0.294490
O O4 0.278398 0.407085 0.092212
O O5 0.569780 0.515361 0.768558
O O6 0.790334 0.988330 0.690844
O O7 0.642823 0.223722 0.038890
O O8 0.932195 0.279106 0.221142
O O9 0.011883 0.298353 0.339586
O O10 0.000000 0.000000 0.500000
O O11 0.423484 0.857389 0.612329
O O12 0.382671 0.039023 0.889474
O O13 0.786465 0.429284 0.183368
O O14 0.598224 0.665155 0.271248
O O15 0.081101 0.034904 0.637170
O O16 0.000000 0.000000 0.000000
O O17 0.000000 0.500000 0.500000
O O18 0.500000 0.000000 0.500000
#
# Coordination Sequence:
#
# PCOD8044014 Si02
#       8
#     2   2   2   2   2   2   2   2
#     4  12  21  38  66  95 126 166 216 263 319 390
#     4  11  22  40  65  91 135 165 212 256 338 374
#     4  10  20  39  63  90 122 165 216 261 316 378
#     4  10  23  39  65  94 128 174 203 268 327 387
#     4  11  22  37  67  94 127 167 221 261 315 392
#     4  11  23  40  66  96 125 169 222 268 316 386
#     4  11  25  44  66  96 130 175 211 271 327 385
#     4  10  19  37  62  91 123 166 209 256 315 379
#
# _framework density 20.358799999999999
#
# number of rings (size 3 to 8) (size 9 to 14) (size 15 to 20)
#    0.000    1.250    5.000    4.125    3.500    0.000 
#    0.000    3.750    0.000    0.000    0.000    0.000 
#    0.000    0.000    0.000    0.000    0.000    0.000 
#
# Total GULP energy -198239.745887 kJ/mol
# GULP energy per Si atom -12389.984118 kJ/mol
# Density = 2.031246 g / cm^3
# Si number density = 20.358800 Si / 1000 Ang^3
#
#
#
# Elastic Constant Matrix: (Units=GPa)
#
#
# Indices 1 2 3 4 5 6 
#
# 1 83.6007 48.0876 39.0871 4.4617 9.3651 -15.5509
# 2 48.0876 113.6513 38.5578 15.1336 4.1996 -16.6162
# 3 39.0871 38.5578 130.2782 9.7302 3.4830 -7.7806
# 4 4.4617 15.1336 9.7302 42.4267 -5.2323 -3.2322
# 5 9.3651 4.1996 3.4830 -5.2323 41.9999 -0.9801
# 6 -15.5509 -16.6162 -7.7806 -3.2322 -0.9801 27.6872
#
#
#
# Elastic Compliance Matrix: (Units=1/GPa)
#
#
# Indices 1 2 3 4 5 6 
#
# 1 0.018212 -0.005713 -0.003419 0.000989 -0.002946 0.005851
# 2 -0.005713 0.012729 -0.001585 -0.003327 -0.000198 0.003589
# 3 -0.003419 -0.001585 0.009238 -0.001227 -0.000008 -0.000419
# 4 0.000989 -0.003327 -0.001227 0.025455 0.003415 0.001307
# 5 -0.002946 -0.000198 -0.000008 0.003415 0.024901 -0.000496
# 6 0.005851 0.003589 -0.000419 0.001307 -0.000496 0.041575
#
#
# Mechanical properties :
#
#
# Convention : Reuss Voigt Hill
#
# Bulk Modulus (GPa) = 53.34988 64.33278 58.84133
# Shear Modulus (GPa) = 31.29062 35.87593 33.58327
#
# Velocity S-wave (km/s) = 3.92466 4.20239 4.06590
# Velocity P-wave (km/s) = 6.84098 7.43067 7.14191
#
# Compressibility (1/GPa) = 0.01874419
#
# Stress axis : x y z
#
# Youngs Moduli (GPa) = 54.90886 78.55999 108.25399
#
# Poissons Ratio (x) = 0.44884 0.37010
# Poissons Ratio (y) = 0.31371 0.17159
# Poissons Ratio (z) = 0.18773 0.12452
#
# Static dielectric constant tensor:
#      x y z
#    x 2.950450 -0.562920 -0.673560 
#    y -0.562920 3.618740 -0.277190 
#    z -0.673560 -0.277190 3.705150 
# 
# 
# High freq. dielectric constant tensor:
#      x y z
#    x 1.778400 -0.025270 -0.005140 
#    y -0.025270 1.795970 0.011730 
#    z -0.005140 0.011730 1.807780 
# 
# From -- ./inp_files/351694.got.cif
#   From: 2010.06.25/outbox.cif.g09.slc.cpg/sg2_176_cif.got.tgz:351694.got - 2010.06.27 13:26:56.
