data_PCOD8044902
_publ_section_title
;
Structure prediction by ZEFSAII (Michael W. Deem and Ramdas Pophale) SiO2 
 PCOD8044902
Probable space group: P 2
;
_chemical_formula_sum "Si O2"
_cell_formula_units_Z 14
_cell_length_a 11.601520
_cell_length_b 13.483319
_cell_length_c 11.649019
_cell_angle_alpha 90.000000
_cell_angle_beta 24.481298
_cell_angle_gamma 90.000000
_cell_volume 755.121471
_symmetry_space_group_name_H-M "P 2"
_symmetry_group_IT_number 3
_symmetry_cell_setting 'monoclinic'
loop_
_space_group_symop_operation_xyz
x,y,z
-x,y,-z
loop_
_atom_site_type_symbol
_atom_site_label
_atom_site_fract_x
_atom_site_fract_y
_atom_site_fract_z
Si Si1 0.709612 0.976140 0.709391
Si Si2 0.999325 0.660247 0.290749
Si Si3 0.701815 0.382981 0.577163
Si Si4 0.487014 0.774003 0.149758
Si Si5 0.287813 0.193719 0.296633
Si Si6 0.732034 0.472027 0.881121
Si Si7 0.788890 0.511048 0.291548
O O1 0.598966 0.885422 0.730598
O O2 0.000000 0.941014 0.500000
O O3 0.728192 0.083499 0.630121
O O4 0.500000 0.998927 0.000000
O O5 0.735589 0.695119 0.602560
O O6 0.900578 0.601828 0.267709
O O7 0.208602 0.751066 0.072019
O O8 0.192810 0.588217 0.193507
O O9 0.644005 0.267770 0.658977
O O10 0.423401 0.446315 0.858586
O O11 0.756796 0.409093 0.393982
O O12 0.976538 0.414992 0.400258
O O13 0.500000 0.773594 0.000000
O O14 0.000000 0.221563 0.500000
O O15 0.500000 0.206419 0.000000
O O16 0.500000 0.438956 0.000000
O O17 0.500000 0.546674 0.500000
O O18 0.000000 0.485561 0.000000
#
# Coordination Sequence:
#
# PCOD8044902 Si02
#       7
#     2   2   2   2   2   2   2
#     4   9  18  31  48  73 108 147 172 194 234 289
#     4  11  22  34  52  75  99 138 176 206 255 305
#     4  11  21  34  53  75  99 137 175 205 255 306
#     4  11  20  33  51  78 112 140 167 200 241 305
#     4  10  19  32  51  77 110 140 168 200 240 301
#     4  11  21  32  46  74 110 136 160 200 247 310
#     4  11  23  40  54  70  99 132 176 229 263 300
#
# _framework density 18.540064999999998
#
# number of rings (size 3 to 8) (size 9 to 14) (size 15 to 20)
#    0.000    1.429    0.000    9.429    0.000    2.286 
#    0.000    2.857    0.000    0.000    0.000    4.000 
#    0.000    2.286    0.000    0.000    0.000    0.000 
#
# Total GULP energy -173486.958293 kJ/mol
# GULP energy per Si atom -12391.925592 kJ/mol
# Density = 1.849787 g / cm^3
# Si number density = 18.540065 Si / 1000 Ang^3
#
#
#
# Elastic Constant Matrix: (Units=GPa)
#
#
# Indices 1 2 3 4 5 6 
#
# 1 62.7520 45.0512 18.5847 0.0000 -2.3769 0.0000
# 2 45.0512 121.1879 34.9395 0.0000 7.3541 0.0000
# 3 18.5847 34.9395 112.0515 0.0000 -4.2670 0.0000
# 4 0.0000 0.0000 0.0000 26.9661 0.0000 -9.1068
# 5 -2.3769 7.3541 -4.2670 0.0000 33.2158 0.0000
# 6 0.0000 0.0000 0.0000 -9.1068 0.0000 -16.8473
#
#
#
# Elastic Compliance Matrix: (Units=1/GPa)
#
#
# Indices 1 2 3 4 5 6 
#
# 1 0.022224 -0.008167 -0.001015 0.000000 0.003268 0.000000
# 2 -0.008167 0.012260 -0.002607 0.000000 -0.003634 0.000000
# 3 -0.001015 -0.002607 0.009974 0.000000 0.001786 0.000000
# 4 0.000000 0.000000 0.000000 0.031359 0.000000 -0.016951
# 5 0.003268 -0.003634 0.001786 0.000000 0.031374 0.000000
# 6 0.000000 0.000000 0.000000 -0.016951 0.000000 -0.050194
#
#
# Mechanical properties :
#
#
# Convention : Reuss Voigt Hill
#
# Bulk Modulus (GPa) = 47.89363 54.79359 51.34361
# Shear Modulus (GPa) = 57.12108 21.82798 39.47453
#
# Velocity S-wave (km/s) = 5.55666 3.43496 4.61927
# Velocity P-wave (km/s) = 8.18884 6.73426 7.49691
#
# Compressibility (1/GPa) = 0.02087960
#
# Stress axis : x y z
#
# Youngs Moduli (GPa) = 44.99722 81.56738 100.26508
#
# Poissons Ratio (x) = 0.66618 0.10175
# Poissons Ratio (y) = 0.36750 0.26135
# Poissons Ratio (z) = 0.04566 0.21261
#
# Static dielectric constant tensor:
#      x y z
#    x 3.070300 0.000000 -0.150480 
#    y 0.000000 3.747840 0.000000 
#    z -0.150480 0.000000 3.763320 
# 
# 
# High freq. dielectric constant tensor:
#      x y z
#    x 1.659000 0.000000 -0.017510 
#    y 0.000000 1.719550 0.000000 
#    z -0.017510 0.000000 1.755370 
# 
# From -- ./inp_files/11910.got.cif
#   From: 2010.03.12/outbox.cif.g09.slc.cpg/sg3_6_cif.got.tgz:11910.got - 2010.03.31 09:20:49.
