data_PCOD8044506
_publ_section_title
;
Structure prediction by ZEFSAII (Michael W. Deem and Ramdas Pophale) SiO2 
 PCOD8044506
Probable space group: P -1
;
_chemical_formula_sum "Si O2"
_cell_formula_units_Z 10
_cell_length_a 10.350661
_cell_length_b 13.931461
_cell_length_c 8.930030
_cell_angle_alpha 47.403139
_cell_angle_beta 117.054495
_cell_angle_gamma 147.608282
_cell_volume 485.069446
_symmetry_space_group_name_H-M "P -1"
_symmetry_group_IT_number 2
_symmetry_cell_setting 'triclinic'
loop_
_space_group_symop_operation_xyz
x,y,z
-x,-y,-z
loop_
_atom_site_type_symbol
_atom_site_label
_atom_site_fract_x
_atom_site_fract_y
_atom_site_fract_z
Si Si1 0.542474 0.733913 0.323614
Si Si2 0.298638 0.118414 0.186690
Si Si3 0.887620 0.059115 0.401600
Si Si4 0.229279 0.292851 0.766375
Si Si5 0.784887 0.446794 0.921576
O O1 0.404704 0.547007 0.576085
O O2 0.714625 0.768903 0.272874
O O3 0.335707 0.657983 0.196329
O O4 0.712475 0.961118 0.267713
O O5 0.280131 0.068072 0.403107
O O6 0.285181 0.264163 0.985858
O O7 0.566780 0.258669 0.126379
O O8 0.064391 0.881717 0.220758
O O9 0.107910 0.327927 0.244779
O O10 0.000000 0.000000 0.500000
O O11 0.000000 0.500000 0.000000
#
# Coordination Sequence:
#
# PCOD8044506 Si02
#       5
#     2   2   2   2   2
#     4  10  19  38  62  87 127 154 198 254 301 353
#     4  10  20  37  63  91 121 159 198 248 309 357
#     4  12  22  39  66  97 119 151 205 260 303 350
#     4   9  17  36  61  93 121 154 193 257 310 346
#     4  11  26  44  59  85 129 170 200 241 300 365
#
# _framework density 20.615604000000001
#
# number of rings (size 3 to 8) (size 9 to 14) (size 15 to 20)
#    0.000    1.600    4.000    2.400    0.000    4.800 
#    0.000    1.000    0.000    0.000    0.000    0.000 
#    0.000    0.000    0.000    0.000    0.000    0.000 
#
# Total GULP energy -123952.957451 kJ/mol
# GULP energy per Si atom -12395.295745 kJ/mol
# Density = 2.056868 g / cm^3
# Si number density = 20.615604 Si / 1000 Ang^3
#
#
#
# Elastic Constant Matrix: (Units=GPa)
#
#
# Indices 1 2 3 4 5 6 
#
# 1 83.8838 38.0745 22.3339 -3.9301 -1.9059 32.0672
# 2 38.0745 131.6991 26.5929 16.8289 -3.9650 16.6026
# 3 22.3339 26.5929 66.2884 -8.8404 -15.1123 6.5794
# 4 -3.9301 16.8289 -8.8404 28.9429 8.8368 -3.6515
# 5 -1.9059 -3.9650 -15.1123 8.8368 27.5241 -1.1451
# 6 32.0672 16.6026 6.5794 -3.6515 -1.1451 31.7742
#
#
#
# Elastic Compliance Matrix: (Units=1/GPa)
#
#
# Indices 1 2 3 4 5 6 
#
# 1 0.022162 -0.003362 -0.004578 0.001991 -0.002915 -0.019538
# 2 -0.003362 0.010793 -0.003665 -0.008776 0.002026 -0.002423
# 3 -0.004578 -0.003665 0.020514 0.005501 0.008787 0.003236
# 4 0.001991 -0.008776 0.005501 0.046277 -0.012702 0.006298
# 5 -0.002915 0.002026 0.008787 -0.012702 0.045334 0.000238
# 6 -0.019538 -0.002423 0.003236 0.006298 0.000238 0.052519
#
#
# Mechanical properties :
#
#
# Convention : Reuss Voigt Hill
#
# Bulk Modulus (GPa) = 33.04777 50.65267 41.85022
# Shear Modulus (GPa) = 21.65485 30.63956 26.14720
#
# Velocity S-wave (km/s) = 3.24452 3.85935 3.56521
# Velocity P-wave (km/s) = 5.48645 6.66955 6.10672
#
# Compressibility (1/GPa) = 0.03025922
#
# Stress axis : x y z
#
# Youngs Moduli (GPa) = 45.12178 92.65315 48.74732
#
# Poissons Ratio (x) = 0.31148 0.22317
# Poissons Ratio (y) = 0.15169 0.17866
# Poissons Ratio (z) = 0.20657 0.33958
#
# Static dielectric constant tensor:
#      x y z
#    x 3.243040 0.182430 -0.307960 
#    y 0.182430 4.179140 -0.029430 
#    z -0.307960 -0.029430 4.003840 
# 
# 
# High freq. dielectric constant tensor:
#      x y z
#    x 1.750140 0.026670 -0.029470 
#    y 0.026670 1.818340 -0.001450 
#    z -0.029470 -0.001450 1.815150 
# 
# From -- ./inp_files/144093.got.cif
#   From: 2010.06.25/outbox.cif.g09.slc.cpg/sg2_73_cif.got.tgz:144093.got - 2010.06.27 13:26:56.
