data_PCOD8044966
_publ_section_title
;
Structure prediction by ZEFSAII (Michael W. Deem and Ramdas Pophale) SiO2 
 PCOD8044966
Probable space group: P 2
;
_chemical_formula_sum "Si O2"
_cell_formula_units_Z 13
_cell_length_a 11.201460
_cell_length_b 6.248596
_cell_length_c 14.500611
_cell_angle_alpha 90.000000
_cell_angle_beta 40.034269
_cell_angle_gamma 90.000000
_cell_volume 652.860289
_symmetry_space_group_name_H-M "P 2"
_symmetry_group_IT_number 3
_symmetry_cell_setting 'monoclinic'
loop_
_space_group_symop_operation_xyz
x,y,z
-x,y,-z
loop_
_atom_site_type_symbol
_atom_site_label
_atom_site_fract_x
_atom_site_fract_y
_atom_site_fract_z
Si Si1 0.129355 0.396990 0.559392
Si Si2 0.008337 0.025010 0.249415
Si Si3 0.328085 0.020030 0.353787
Si Si4 0.333509 0.775508 0.529736
Si Si5 0.500000 0.535617 0.000000
Si Si6 0.600962 0.127666 0.031667
Si Si7 0.165955 0.732062 0.305100
O O1 0.216810 0.242717 0.429725
O O2 0.283727 0.553880 0.509935
O O3 0.055686 0.265228 0.691384
O O4 0.956138 0.518439 0.615196
O O5 0.054870 0.920754 0.320747
O O6 0.191446 0.032201 0.077687
O O7 0.840618 0.877750 0.308946
O O8 0.498716 0.064308 0.185315
O O9 0.396450 0.946284 0.414238
O O10 0.205960 0.823956 0.383824
O O11 0.500000 0.731246 0.500000
O O12 0.604791 0.385184 0.013996
O O13 0.355073 0.683699 0.138777
O O14 0.500000 0.027637 0.000000
#
# Coordination Sequence:
#
# PCOD8044966 Si02
#       7
#     2   2   2   2   1   2   2
#     4  10  23  40  57  89 128 166 202 254 304 368
#     4  10  20  40  65  90 126 164 199 246 311 371
#     4  11  24  38  63  93 128 163 200 254 307 366
#     4  10  25  44  65  87 114 165 220 266 305 350
#     4  10  20  34  60  86 142 170 188 232 294 392
#     4  10  19  38  58  93 136 161 192 234 310 378
#     4  11  20  36  59  93 130 165 198 238 307 382
#
# _framework density 19.912378
#
# number of rings (size 3 to 8) (size 9 to 14) (size 15 to 20)
#    0.462    1.231    3.077    0.923    2.154    9.231 
#    0.000    0.769    0.000    0.000    0.000    0.000 
#    0.000    0.000    0.000    0.000    0.000    0.000 
#
# Total GULP energy -161136.949882 kJ/mol
# GULP energy per Si atom -12395.149991 kJ/mol
# Density = 1.986706 g / cm^3
# Si number density = 19.912378 Si / 1000 Ang^3
#
#
#
# Elastic Constant Matrix: (Units=GPa)
#
#
# Indices 1 2 3 4 5 6 
#
# 1 87.4271 39.1122 49.2684 0.0000 -14.9642 0.0000
# 2 39.1122 115.7695 51.0280 0.0000 -7.1967 0.0000
# 3 49.2684 51.0280 136.4714 0.0000 -15.2498 0.0000
# 4 0.0000 0.0000 0.0000 31.2378 0.0000 -0.2545
# 5 -14.9642 -7.1967 -15.2498 0.0000 23.9125 0.0000
# 6 0.0000 0.0000 0.0000 -0.2545 0.0000 19.6887
#
#
#
# Elastic Compliance Matrix: (Units=1/GPa)
#
#
# Indices 1 2 3 4 5 6 
#
# 1 0.016274 -0.003379 -0.003863 0.000000 0.006704 0.000000
# 2 -0.003379 0.011055 -0.002991 0.000000 -0.000695 0.000000
# 3 -0.003863 -0.002991 0.010196 0.000000 0.003185 0.000000
# 4 0.000000 0.000000 0.000000 0.032016 0.000000 0.000414
# 5 0.006704 -0.000695 0.003185 0.000000 0.047836 0.000000
# 6 0.000000 0.000000 0.000000 0.000414 0.000000 0.050796
#
#
# Mechanical properties :
#
#
# Convention : Reuss Voigt Hill
#
# Bulk Modulus (GPa) = 58.61860 68.72056 63.66958
# Shear Modulus (GPa) = 25.73009 28.31843 27.02426
#
# Velocity S-wave (km/s) = 3.59857 3.77523 3.68796
# Velocity P-wave (km/s) = 6.83875 7.32049 7.08372
#
# Compressibility (1/GPa) = 0.01705943
#
# Stress axis : x y z
#
# Youngs Moduli (GPa) = 61.44831 90.45988 98.07354
#
# Poissons Ratio (x) = 0.30564 0.37883
# Poissons Ratio (y) = 0.20762 0.29337
# Poissons Ratio (z) = 0.23735 0.27059
#
# Static dielectric constant tensor:
#      x y z
#    x 3.127840 0.000000 -0.241660 
#    y 0.000000 3.829590 0.000000 
#    z -0.241660 0.000000 3.695860 
# 
# 
# High freq. dielectric constant tensor:
#      x y z
#    x 1.712790 0.000000 -0.016960 
#    y 0.000000 1.801180 0.000000 
#    z -0.016960 0.000000 1.789010 
# 
# From -- ./inp_files/12100.got.cif
#   From: 2010.03.12/outbox.cif.g09.slc.cpg/sg3_7_cif.got.tgz:12100.got - 2010.03.31 09:20:49.
