data_PCOD8044995
_publ_section_title
;
Structure prediction by ZEFSAII (Michael W. Deem and Ramdas Pophale) SiO2 
 PCOD8044995
Probable space group: P 2
;
_chemical_formula_sum "Si O2"
_cell_formula_units_Z 16
_cell_length_a 8.673580
_cell_length_b 18.759848
_cell_length_c 9.461421
_cell_angle_alpha 90.000000
_cell_angle_beta 31.864132
_cell_angle_gamma 90.000000
_cell_volume 812.720654
_symmetry_space_group_name_H-M "P 2"
_symmetry_group_IT_number 3
_symmetry_cell_setting 'monoclinic'
loop_
_space_group_symop_operation_xyz
x,y,z
-x,y,-z
loop_
_atom_site_type_symbol
_atom_site_label
_atom_site_fract_x
_atom_site_fract_y
_atom_site_fract_z
Si Si1 0.160910 0.198210 0.235174
Si Si2 0.857081 0.323905 0.959093
Si Si3 0.334472 0.541474 0.268765
Si Si4 0.661897 0.697727 0.731601
Si Si5 0.368220 0.826202 0.448640
Si Si6 0.768018 0.394977 0.551867
Si Si7 0.131749 0.912439 0.051171
Si Si8 0.838567 0.038681 0.764791
O O1 0.046396 0.118392 0.288479
O O2 0.000000 0.228137 0.500000
O O3 0.500000 0.197403 0.000000
O O4 0.087157 0.249036 0.162253
O O5 0.510832 0.341934 0.224842
O O6 0.000000 0.315705 0.000000
O O7 0.045874 0.384493 0.734459
O O8 0.455873 0.618755 0.225216
O O9 0.362300 0.475562 0.355727
O O10 0.000000 0.555612 0.500000
O O11 0.500000 0.515616 0.000000
O O12 0.600097 0.750747 0.651830
O O13 0.000000 0.697845 0.500000
O O14 0.500000 0.722487 0.000000
O O15 0.500000 0.815856 0.500000
O O16 0.036694 0.852891 0.724377
O O17 0.536655 0.885864 0.224521
O O18 0.000000 0.384707 0.500000
O O19 0.101859 0.988371 0.148924
O O20 0.000000 0.922693 0.000000
O O21 0.000000 0.009018 0.500000
O O22 0.500000 0.040440 0.000000
#
# Coordination Sequence:
#
# PCOD8044995 Si02
#       8
#     2   2   2   2   2   2   2   2
#     4  10  21  38  58  79 107 145 183 217 267 333
#     4  12  24  37  56  87 118 143 182 236 278 320
#     4   9  18  33  55  82 106 135 181 227 266 318
#     4  10  20  34  55  81 106 135 178 228 268 308
#     4  10  21  36  52  76 108 143 177 212 262 326
#     4  11  21  38  62  82 108 152 191 223 274 338
#     4  10  21  36  54  75 106 143 177 213 263 324
#     4  10  21  36  56  82 107 134 177 228 266 309
#
# _framework density 19.686962000000001
#
# number of rings (size 3 to 8) (size 9 to 14) (size 15 to 20)
#    0.000    1.750    0.000    5.625    0.000    3.500 
#    0.000    1.250    0.000    9.000    0.000    0.000 
#    0.000    0.000    0.000    0.000    0.000    0.000 
#
# Total GULP energy -198327.314504 kJ/mol
# GULP energy per Si atom -12395.457156 kJ/mol
# Density = 1.964215 g / cm^3
# Si number density = 19.686962 Si / 1000 Ang^3
#
#
#
# Elastic Constant Matrix: (Units=GPa)
#
#
# Indices 1 2 3 4 5 6 
#
# 1 74.8198 54.2086 44.8957 0.0000 13.8684 0.0000
# 2 54.2086 125.8050 37.5872 0.0000 23.7176 0.0000
# 3 44.8957 37.5872 140.8564 0.0000 9.4930 0.0000
# 4 0.0000 0.0000 0.0000 36.1774 0.0000 3.8726
# 5 13.8684 23.7176 9.4930 0.0000 29.3207 0.0000
# 6 0.0000 0.0000 0.0000 3.8726 0.0000 15.4817
#
#
#
# Elastic Compliance Matrix: (Units=1/GPa)
#
#
# Indices 1 2 3 4 5 6 
#
# 1 0.022363 -0.007643 -0.004899 0.000000 -0.002809 0.000000
# 2 -0.007643 0.012599 -0.000494 0.000000 -0.006417 0.000000
# 3 -0.004899 -0.000494 0.008802 0.000000 -0.000133 0.000000
# 4 0.000000 0.000000 0.000000 0.028402 0.000000 -0.007105
# 5 -0.002809 -0.006417 -0.000133 0.000000 0.040668 0.000000
# 6 0.000000 0.000000 0.000000 -0.007105 0.000000 0.066370
#
#
# Mechanical properties :
#
#
# Convention : Reuss Voigt Hill
#
# Bulk Modulus (GPa) = 56.51956 68.31826 62.41891
# Shear Modulus (GPa) = 23.67730 29.84861 26.76295
#
# Velocity S-wave (km/s) = 3.47174 3.89802 3.69104
# Velocity P-wave (km/s) = 6.69643 7.41869 7.06679
#
# Compressibility (1/GPa) = 0.01769299
#
# Stress axis : x y z
#
# Youngs Moduli (GPa) = 44.71611 79.36947 113.61523
#
# Poissons Ratio (x) = 0.60661 0.55662
# Poissons Ratio (y) = 0.34176 0.05608
# Poissons Ratio (z) = 0.21907 0.03918
#
# Static dielectric constant tensor:
#      x y z
#    x 3.167090 0.000000 -0.026980 
#    y 0.000000 4.052510 0.000000 
#    z -0.026980 0.000000 3.966630 
# 
# 
# High freq. dielectric constant tensor:
#      x y z
#    x 1.724200 0.000000 -0.001050 
#    y 0.000000 1.780150 0.000000 
#    z -0.001050 0.000000 1.798170 
# 
# From -- ./inp_files/6316.got.cif
#   From: 2010.03.12/outbox.cif.g09.slc.cpg/sg3_4_cif.got.tgz:6316.got - 2010.03.31 09:20:49.
