data_PCOD8044115
_publ_section_title
;
Structure prediction by ZEFSAII (Michael W. Deem and Ramdas Pophale) SiO2 
 PCOD8044115
Probable space group: P -1
;
_chemical_formula_sum "Si O2"
_cell_formula_units_Z 16
_cell_length_a 18.979285
_cell_length_b 19.025284
_cell_length_c 9.332607
_cell_angle_alpha 127.200682
_cell_angle_beta 39.620450
_cell_angle_gamma 158.567769
_cell_volume 687.815919
_symmetry_space_group_name_H-M "P -1"
_symmetry_group_IT_number 2
_symmetry_cell_setting 'triclinic'
loop_
_space_group_symop_operation_xyz
x,y,z
-x,-y,-z
loop_
_atom_site_type_symbol
_atom_site_label
_atom_site_fract_x
_atom_site_fract_y
_atom_site_fract_z
Si Si1 0.383603 0.503228 0.814212
Si Si2 0.380880 0.068885 0.001455
Si Si3 0.630471 0.450081 0.610581
Si Si4 0.188826 0.672340 0.131962
Si Si5 0.742527 0.445591 0.713121
Si Si6 0.738058 0.778323 0.338446
Si Si7 0.906185 0.828538 0.574469
Si Si8 0.088839 0.683482 0.021884
O O1 0.462157 0.590872 0.637863
O O2 0.193646 0.276594 0.830638
O O3 0.676962 0.700687 0.673156
O O4 0.214702 0.456726 0.099797
O O5 0.545242 0.174576 0.022228
O O6 0.572817 0.236750 0.775745
O O7 0.162980 0.987446 0.269664
O O8 0.235075 0.870892 0.942257
O O9 0.572661 0.371986 0.764159
O O10 0.342769 0.253049 0.735455
O O11 0.792688 0.661423 0.633519
O O12 0.804403 0.505108 0.320084
O O13 0.278322 0.785180 0.981852
O O14 0.040916 0.633027 0.422771
O O15 0.968506 0.434266 0.148692
O O16 0.997498 0.025929 0.285648
#
# Coordination Sequence:
#
# PCOD8044115 Si02
#       8
#     2   2   2   2   2   2   2   2
#     4  10  22  38  61  90 118 151 200 249 287 341
#     4  11  21  37  63  87 115 157 196 240 289 350
#     4   9  21  39  59  87 122 155 192 244 295 344
#     4  10  21  40  61  86 121 154 191 241 297 346
#     4  11  23  40  57  89 131 150 183 257 303 329
#     4  10  19  37  64  84 110 160 206 231 284 358
#     4  10  20  38  65  86 113 156 208 238 280 353
#     4   9  20  38  63  88 112 155 204 235 278 360
#
# _framework density 23.262038
#
# number of rings (size 3 to 8) (size 9 to 14) (size 15 to 20)
#    0.000    2.000    1.250    1.875    0.000    2.500 
#    0.000    5.000    0.000    0.000    0.000    0.000 
#    0.000    0.000    0.000    0.000    0.000    0.000 
#
# Total GULP energy -198444.206418 kJ/mol
# GULP energy per Si atom -12402.762901 kJ/mol
# Density = 2.320909 g / cm^3
# Si number density = 23.262038 Si / 1000 Ang^3
#
#
#
# Elastic Constant Matrix: (Units=GPa)
#
#
# Indices 1 2 3 4 5 6 
#
# 1 60.9452 15.3864 -3.5631 2.0962 4.3776 -14.8638
# 2 15.3864 94.3727 17.9779 21.4962 -7.9317 -10.5656
# 3 -3.5631 17.9779 71.8631 21.7531 -5.9484 -6.5611
# 4 2.0962 21.4962 21.7531 30.1863 -1.2380 -5.9255
# 5 4.3776 -7.9317 -5.9484 -1.2380 27.0315 -2.2443
# 6 -14.8638 -10.5656 -6.5611 -5.9255 -2.2443 33.2168
#
#
#
# Elastic Compliance Matrix: (Units=1/GPa)
#
#
# Indices 1 2 3 4 5 6 
#
# 1 0.019450 -0.003092 0.001960 0.000903 -0.002914 0.008072
# 2 -0.003092 0.013705 -0.000446 -0.008737 0.004157 0.001610
# 3 0.001960 -0.000446 0.018380 -0.012469 0.003221 0.002359
# 4 0.000903 -0.008737 -0.012469 0.048876 -0.002909 0.003685
# 5 -0.002914 0.004157 0.003221 -0.002909 0.039494 0.002804
# 6 0.008072 0.001610 0.002359 0.003685 0.002804 0.035542
#
#
# Mechanical properties :
#
#
# Convention : Reuss Voigt Hill
#
# Bulk Modulus (GPa) = 20.66948 31.86482 26.26715
# Shear Modulus (GPa) = 25.67664 31.24558 28.46111
#
# Velocity S-wave (km/s) = 3.32595 3.66895 3.50165
# Velocity P-wave (km/s) = 4.86355 5.62816 5.25976
#
# Compressibility (1/GPa) = 0.04838052
#
# Stress axis : x y z
#
# Youngs Moduli (GPa) = 51.41370 72.96562 54.40567
#
# Poissons Ratio (x) = 0.22558 -0.10664
# Poissons Ratio (y) = 0.15895 0.02427
# Poissons Ratio (z) = -0.10077 0.03254
#
# Static dielectric constant tensor:
#      x y z
#    x 4.355330 -0.181350 -0.018710 
#    y -0.181350 4.109160 0.251840 
#    z -0.018710 0.251840 3.866360 
# 
# 
# High freq. dielectric constant tensor:
#      x y z
#    x 1.931000 -0.012420 -0.001770 
#    y -0.012420 1.912910 0.018760 
#    z -0.001770 0.018760 1.894370 
# 
# From -- ./inp_files/349536.got.cif
#   From: 2010.06.25/outbox.cif.g09.slc.cpg/sg2_175_cif.got.tgz:349536.got - 2010.06.27 13:26:56.
