data_PCOD8044029
_publ_section_title
;
Structure prediction by ZEFSAII (Michael W. Deem and Ramdas Pophale) SiO2 
 PCOD8044029
Probable space group: P -1
;
_chemical_formula_sum "Si O2"
_cell_formula_units_Z 16
_cell_length_a 15.083163
_cell_length_b 11.438649
_cell_length_c 12.652314
_cell_angle_alpha 82.050478
_cell_angle_beta 150.447875
_cell_angle_gamma 118.898431
_cell_volume 713.636266
_symmetry_space_group_name_H-M "P -1"
_symmetry_group_IT_number 2
_symmetry_cell_setting 'triclinic'
loop_
_space_group_symop_operation_xyz
x,y,z
-x,-y,-z
loop_
_atom_site_type_symbol
_atom_site_label
_atom_site_fract_x
_atom_site_fract_y
_atom_site_fract_z
Si Si1 0.757901 0.422180 0.184156
Si Si2 0.237430 0.137534 0.808530
Si Si3 0.894879 0.707933 0.959624
Si Si4 0.975614 0.765746 0.275894
Si Si5 0.255325 0.681253 0.365431
Si Si6 0.735201 0.294164 0.963126
Si Si7 0.541366 0.954623 0.812824
Si Si8 0.454808 0.311993 0.518836
O O1 0.811272 0.568346 0.158248
O O2 0.705563 0.295822 0.058049
O O3 0.000000 0.500000 0.500000
O O4 0.496362 0.316256 0.996512
O O5 0.144413 0.183024 0.794539
O O6 0.303569 0.044657 0.939977
O O7 0.000000 0.000000 0.500000
O O8 0.612600 0.502456 0.701510
O O9 0.847692 0.792333 0.815248
O O10 0.960769 0.789520 0.133424
O O11 0.131846 0.733575 0.166541
O O12 0.285516 0.892431 0.610671
O O13 0.453462 0.825611 0.642852
O O14 0.412627 0.674594 0.451385
O O15 0.009763 0.488638 0.185164
O O16 0.471585 0.221977 0.639560
O O17 0.739912 0.157262 0.957289
#
# Coordination Sequence:
#
# PCOD8044029 Si02
#       8
#     2   2   2   2   2   2   2   2
#     4  12  23  44  72  94 129 183 223 271 337 391
#     4  12  27  43  63 100 133 173 227 280 330 390
#     4   9  18  35  64  90 124 163 209 266 321 379
#     4  11  22  45  67  94 130 176 222 271 328 400
#     4  10  20  42  64  92 129 174 213 263 327 394
#     4  11  22  40  68  95 128 174 219 266 332 390
#     4  11  24  45  66  94 139 172 218 277 330 388
#     4  10  19  37  62  96 129 164 215 267 323 391
#
# _framework density 22.420386000000001
#
# number of rings (size 3 to 8) (size 9 to 14) (size 15 to 20)
#    0.000    1.250    5.000    3.375    1.750    1.500 
#    4.500    6.250    0.000    0.000    0.000    0.000 
#    0.000    0.000    0.000    0.000    0.000    0.000 
#
# Total GULP energy -198361.762063 kJ/mol
# GULP energy per Si atom -12397.610129 kJ/mol
# Density = 2.236936 g / cm^3
# Si number density = 22.420386 Si / 1000 Ang^3
#
#
#
# Elastic Constant Matrix: (Units=GPa)
#
#
# Indices 1 2 3 4 5 6 
#
# 1 81.8237 24.3919 32.7690 4.7205 3.9090 -14.1320
# 2 24.3919 95.1500 51.8860 -9.9532 -19.4497 -12.1864
# 3 32.7690 51.8860 141.8119 -26.3833 -13.3356 -5.8656
# 4 4.7205 -9.9532 -26.3833 36.3450 -0.3629 -9.3610
# 5 3.9090 -19.4497 -13.3356 -0.3629 32.5054 -6.0048
# 6 -14.1320 -12.1864 -5.8656 -9.3610 -6.0048 18.9332
#
#
#
# Elastic Compliance Matrix: (Units=1/GPa)
#
#
# Indices 1 2 3 4 5 6 
#
# 1 0.015838 -0.002536 -0.003556 -0.003830 -0.003818 0.005983
# 2 -0.002536 0.018478 -0.002669 0.008091 0.013586 0.017483
# 3 -0.003556 -0.002669 0.011190 0.009201 0.004459 0.005058
# 4 -0.003830 0.008091 0.009201 0.045467 0.015613 0.032631
# 5 -0.003818 0.013586 0.004459 0.015613 0.046873 0.029861
# 6 0.005983 0.017483 0.005058 0.032631 0.029861 0.095708
#
#
# Mechanical properties :
#
#
# Convention : Reuss Voigt Hill
#
# Bulk Modulus (GPa) = 35.73354 59.65326 47.69340
# Shear Modulus (GPa) = 19.20100 31.53929 25.37014
#
# Velocity S-wave (km/s) = 2.92962 3.75470 3.36752
# Velocity P-wave (km/s) = 5.23604 6.74251 6.03646
#
# Compressibility (1/GPa) = 0.02798491
#
# Stress axis : x y z
#
# Youngs Moduli (GPa) = 63.13818 54.11932 89.36457
#
# Poissons Ratio (x) = 0.13724 0.31779
# Poissons Ratio (y) = 0.16011 0.23848
# Poissons Ratio (z) = 0.22453 0.14442
#
# Static dielectric constant tensor:
#      x y z
#    x 4.094680 -0.242160 -0.136210 
#    y -0.242160 4.168610 -0.275840 
#    z -0.136210 -0.275840 4.321930 
# 
# 
# High freq. dielectric constant tensor:
#      x y z
#    x 1.878380 -0.015110 -0.014530 
#    y -0.015110 1.879390 -0.012280 
#    z -0.014530 -0.012280 1.893000 
# 
# From -- ./inp_files/452310.got.cif
#   From: 2010.06.25/outbox.cif.g09.slc.cpg/sg2_227_cif.got.tgz:452310.got - 2010.06.27 13:26:56.
