data_PCOD8044565
_publ_section_title
;
Structure prediction by ZEFSAII (Michael W. Deem and Ramdas Pophale) SiO2 
 PCOD8044565
Probable space group: P -1
;
_chemical_formula_sum "Si O2"
_cell_formula_units_Z 16
_cell_length_a 10.730299
_cell_length_b 14.920860
_cell_length_c 13.395460
_cell_angle_alpha 79.854570
_cell_angle_beta 33.789226
_cell_angle_gamma 57.837916
_cell_volume 832.729912
_symmetry_space_group_name_H-M "P -1"
_symmetry_group_IT_number 2
_symmetry_cell_setting 'triclinic'
loop_
_space_group_symop_operation_xyz
x,y,z
-x,-y,-z
loop_
_atom_site_type_symbol
_atom_site_label
_atom_site_fract_x
_atom_site_fract_y
_atom_site_fract_z
Si Si1 0.421812 0.687641 0.422894
Si Si2 0.333000 0.908628 0.350334
Si Si3 0.651878 0.451847 0.201178
Si Si4 0.960255 0.787130 0.877235
Si Si5 0.128767 0.862495 0.919284
Si Si6 0.102062 0.365652 0.745896
Si Si7 0.774519 0.591803 0.543653
Si Si8 0.395436 0.097399 0.636360
O O1 0.417023 0.781890 0.346532
O O2 0.503592 0.587821 0.308844
O O3 0.699057 0.612337 0.335357
O O4 0.089826 0.757189 0.684097
O O5 0.348692 0.965427 0.430893
O O6 0.581279 0.882283 0.111754
O O7 0.000000 0.000000 0.500000
O O8 0.375483 0.458489 0.382805
O O9 0.917515 0.338067 0.121817
O O10 0.791523 0.428611 0.002295
O O11 0.073832 0.848955 0.843089
O O12 0.498052 0.744212 0.726606
O O13 0.936700 0.843062 0.113201
O O14 0.000000 0.000000 0.000000
O O15 0.011592 0.428042 0.684171
O O16 0.334058 0.212919 0.606068
O O17 0.000000 0.500000 0.500000
O O18 0.500000 0.000000 0.500000
#
# Coordination Sequence:
#
# PCOD8044565 Si02
#       8
#     2   2   2   2   2   2   2   2
#     4  11  21  36  67  89 116 162 203 246 307 373
#     4  10  23  41  57  90 130 155 203 265 309 354
#     4  11  21  39  61  94 116 157 211 242 304 387
#     4  10  20  37  63  88 119 157 206 253 295 378
#     4  10  19  38  63  87 119 162 211 249 299 376
#     4  11  20  38  65  86 121 162 201 256 304 369
#     4  11  24  41  59  92 130 156 204 269 312 352
#     4  10  20  38  64  90 113 166 218 245 300 387
#
# _framework density 19.213912000000001
#
# number of rings (size 3 to 8) (size 9 to 14) (size 15 to 20)
#    0.000    1.500    7.500    1.500    1.750    1.000 
#    6.750    1.250    0.000    0.000    0.000    0.000 
#    0.000    0.000    0.000    0.000    0.000    0.000 
#
# Total GULP energy -198323.603975 kJ/mol
# GULP energy per Si atom -12395.225248 kJ/mol
# Density = 1.917018 g / cm^3
# Si number density = 19.213912 Si / 1000 Ang^3
#
#
#
# Elastic Constant Matrix: (Units=GPa)
#
#
# Indices 1 2 3 4 5 6 
#
# 1 84.5627 52.5072 43.6365 12.1042 10.1936 3.8391
# 2 52.5072 90.5528 38.4291 0.8718 7.4538 8.8499
# 3 43.6365 38.4291 92.6693 -4.4695 7.0355 -0.1886
# 4 12.1042 0.8718 -4.4695 33.9256 -0.5925 7.8974
# 5 10.1936 7.4538 7.0355 -0.5925 33.2502 7.6710
# 6 3.8391 8.8499 -0.1886 7.8974 7.6710 33.9831
#
#
#
# Elastic Compliance Matrix: (Units=1/GPa)
#
#
# Indices 1 2 3 4 5 6 
#
# 1 0.023923 -0.010805 -0.006927 -0.010039 -0.004410 0.003401
# 2 -0.010805 0.018760 -0.002564 0.004176 0.000840 -0.004839
# 3 -0.006927 -0.002564 0.015377 0.004400 -0.000628 0.000655
# 4 -0.010039 0.004176 0.004400 0.035723 0.003952 -0.009123
# 5 -0.004410 0.000840 -0.000628 0.003952 0.033326 -0.008165
# 6 0.003401 -0.004839 0.000655 -0.009123 -0.008165 0.034269
#
#
# Mechanical properties :
#
#
# Convention : Reuss Voigt Hill
#
# Bulk Modulus (GPa) = 57.24399 59.65893 58.45146
# Shear Modulus (GPa) = 24.06234 29.11259 26.58746
#
# Velocity S-wave (km/s) = 3.54268 3.89676 3.72393
# Velocity P-wave (km/s) = 6.82582 7.16684 6.99840
#
# Compressibility (1/GPa) = 0.01746908
#
# Stress axis : x y z
#
# Youngs Moduli (GPa) = 41.80032 53.30396 65.03106
#
# Poissons Ratio (x) = 0.57595 0.45046
# Poissons Ratio (y) = 0.45166 0.16674
# Poissons Ratio (z) = 0.28954 0.13667
#
# Static dielectric constant tensor:
#      x y z
#    x 4.134020 -0.140700 -0.189110 
#    y -0.140700 3.951530 0.551310 
#    z -0.189110 0.551310 4.772540 
# 
# 
# High freq. dielectric constant tensor:
#      x y z
#    x 1.722860 0.018060 0.013160 
#    y 0.018060 1.744420 -0.023020 
#    z 0.013160 -0.023020 1.755370 
# 
# From -- ./inp_files/521584.got.cif
#   From: 2010.06.25/outbox.cif.g09.slc.cpg/sg2_261_cif.got.tgz:521584.got - 2010.06.27 13:26:56.
