data_PCOD8044117
_publ_section_title
;
Structure prediction by ZEFSAII (Michael W. Deem and Ramdas Pophale) SiO2 
 PCOD8044117
Probable space group: P -1
;
_chemical_formula_sum "Si O2"
_cell_formula_units_Z 16
_cell_length_a 11.009037
_cell_length_b 19.797990
_cell_length_c 8.439173
_cell_angle_alpha 135.214317
_cell_angle_beta 106.478870
_cell_angle_gamma 40.785907
_cell_volume 706.147586
_symmetry_space_group_name_H-M "P -1"
_symmetry_group_IT_number 2
_symmetry_cell_setting 'triclinic'
loop_
_space_group_symop_operation_xyz
x,y,z
-x,-y,-z
loop_
_atom_site_type_symbol
_atom_site_label
_atom_site_fract_x
_atom_site_fract_y
_atom_site_fract_z
Si Si1 0.760776 0.847290 0.359225
Si Si2 0.549009 0.657992 0.670367
Si Si3 0.851770 0.504586 0.248257
Si Si4 0.728691 0.085561 0.751369
Si Si5 0.314190 0.552744 0.382712
Si Si6 0.173820 0.818163 0.606834
Si Si7 0.554262 0.322620 0.817643
Si Si8 0.030912 0.395542 0.711452
O O1 0.801703 0.784872 0.448932
O O2 0.500000 0.000000 0.500000
O O3 0.821281 0.921015 0.491076
O O4 0.912042 0.696113 0.034086
O O5 0.774123 0.540493 0.461509
O O6 0.569952 0.533890 0.543436
O O7 0.337844 0.795937 0.703615
O O8 0.494050 0.765729 0.974327
O O9 0.672049 0.575395 0.175527
O O10 0.873481 0.606982 0.409418
O O11 0.685560 0.154414 0.675287
O O12 0.929944 0.013592 0.803677
O O13 0.156425 0.741101 0.599705
O O14 0.186764 0.528599 0.291198
O O15 0.498130 0.437215 0.119727
O O16 0.285279 0.721738 0.318446
O O17 0.000000 0.500000 0.000000
#
# Coordination Sequence:
#
# PCOD8044117 Si02
#       8
#     2   2   2   2   2   2   2   2
#     4  11  22  37  65  93 120 157 203 259 302 356
#     4  10  25  39  62  89 127 170 196 248 307 368
#     4  10  21  42  62  92 125 160 207 249 299 368
#     4  11  22  40  62  96 123 162 204 248 319 353
#     4  11  20  38  61  92 119 167 207 244 303 369
#     4  11  21  40  59  90 127 159 208 255 297 356
#     4  10  20  36  64  91 120 164 203 253 297 364
#     4  10  19  37  64  86 122 158 204 254 297 355
#
# _framework density 22.658152000000001
#
# number of rings (size 3 to 8) (size 9 to 14) (size 15 to 20)
#    0.000    1.500    3.750    2.250    5.250    1.500 
#    0.000    5.625    0.000    0.000    0.000    0.000 
#    0.000    0.000    0.000    0.000    0.000    0.000 
#
# Total GULP energy -198214.105084 kJ/mol
# GULP energy per Si atom -12388.381568 kJ/mol
# Density = 2.260658 g / cm^3
# Si number density = 22.658152 Si / 1000 Ang^3
#
#
#
# Elastic Constant Matrix: (Units=GPa)
#
#
# Indices 1 2 3 4 5 6 
#
# 1 66.0332 10.5702 29.9559 6.4052 -14.1114 26.4116
# 2 10.5702 107.7401 28.8040 20.7583 -14.9679 16.1782
# 3 29.9559 28.8040 87.3846 5.1808 -26.0189 13.3072
# 4 6.4052 20.7583 5.1808 38.0304 6.6360 -7.4762
# 5 -14.1114 -14.9679 -26.0189 6.6360 36.7216 1.8028
# 6 26.4116 16.1782 13.3072 -7.4762 1.8028 39.1389
#
#
#
# Elastic Compliance Matrix: (Units=1/GPa)
#
#
# Indices 1 2 3 4 5 6 
#
# 1 0.032074 0.007833 -0.002803 -0.018011 0.018171 -0.028206
# 2 0.007833 0.015461 -0.001178 -0.014530 0.011820 -0.014596
# 3 -0.002803 -0.001178 0.017253 -0.004221 0.011667 -0.004831
# 4 -0.018011 -0.014530 -0.004221 0.048277 -0.026032 0.030016
# 5 0.018171 0.011820 0.011667 -0.026032 0.053405 -0.028547
# 6 -0.028206 -0.014596 -0.004831 0.030016 -0.028547 0.059308
#
#
# Mechanical properties :
#
#
# Convention : Reuss Voigt Hill
#
# Bulk Modulus (GPa) = 13.79490 44.42424 29.10957
# Shear Modulus (GPa) = 20.64085 35.56671 28.10378
#
# Velocity S-wave (km/s) = 3.02150 3.96625 3.52566
# Velocity P-wave (km/s) = 4.27482 6.37368 5.42669
#
# Compressibility (1/GPa) = 0.07249056
#
# Stress axis : x y z
#
# Youngs Moduli (GPa) = 31.17819 64.67743 57.96228
#
# Poissons Ratio (x) = -0.50660 0.16248
# Poissons Ratio (y) = -0.24421 0.06828
# Poissons Ratio (z) = 0.08740 0.07619
#
# Static dielectric constant tensor:
#      x y z
#    x 4.635180 0.323630 -0.138170 
#    y 0.323630 4.590470 -0.044320 
#    z -0.138170 -0.044320 3.834320 
# 
# 
# High freq. dielectric constant tensor:
#      x y z
#    x 1.892370 0.005720 -0.008430 
#    y 0.005720 1.918110 0.006310 
#    z -0.008430 0.006310 1.863840 
# 
# From -- ./inp_files/283249.got.cif
#   From: 2010.06.25/outbox.cif.g09.slc.cpg/sg2_142_cif.got.tgz:283249.got - 2010.06.27 13:26:56.
