data_PCOD8044311
_publ_section_title
;
Structure prediction by ZEFSAII (Michael W. Deem and Ramdas Pophale) SiO2 
 PCOD8044311
Probable space group: P -1
;
_chemical_formula_sum "Si O2"
_cell_formula_units_Z 14
_cell_length_a 5.466336
_cell_length_b 16.857204
_cell_length_c 11.251960
_cell_angle_alpha 45.074302
_cell_angle_beta 113.814897
_cell_angle_gamma 120.900867
_cell_volume 628.458788
_symmetry_space_group_name_H-M "P -1"
_symmetry_group_IT_number 2
_symmetry_cell_setting 'triclinic'
loop_
_space_group_symop_operation_xyz
x,y,z
-x,-y,-z
loop_
_atom_site_type_symbol
_atom_site_label
_atom_site_fract_x
_atom_site_fract_y
_atom_site_fract_z
Si Si1 0.074960 0.283741 0.442268
Si Si2 0.573707 0.639902 0.345516
Si Si3 0.357332 0.962853 0.382946
Si Si4 0.777584 0.690515 0.813222
Si Si5 0.959665 0.592006 0.299275
Si Si6 0.832047 0.478182 0.155194
Si Si7 0.944011 0.057327 0.307020
O O1 0.281821 0.283222 0.591514
O O2 0.195410 0.255666 0.370933
O O3 0.763894 0.180768 0.508470
O O4 0.065340 0.417073 0.287986
O O5 0.500000 0.500000 0.500000
O O6 0.282281 0.667849 0.234331
O O7 0.799518 0.674642 0.242376
O O8 0.500000 0.000000 0.500000
O O9 0.598001 0.020155 0.267774
O O10 0.086961 0.009572 0.275578
O O11 0.447151 0.620225 0.852565
O O12 0.907504 0.799055 0.815196
O O13 0.940297 0.594061 0.965801
O O14 0.000000 0.500000 0.500000
O O15 0.764097 0.523104 0.223559
O O16 0.000000 0.000000 0.500000
#
# Coordination Sequence:
#
# PCOD8044311 Si02
#       7
#     2   2   2   2   2   2   2
#     4  12  21  34  60  84 121 146 186 246 287 340
#     4  10  20  34  57  79 110 145 191 236 274 329
#     4  10  20  34  57  79 110 145 191 236 274 329
#     4  11  23  35  54  85 122 156 183 229 298 359
#     4  10  19  38  53  76 114 146 194 230 265 341
#     4  11  23  35  54  85 122 156 183 229 298 359
#     4  10  19  38  53  76 114 146 194 230 265 341
#
# _framework density 22.276720000000001
#
# number of rings (size 3 to 8) (size 9 to 14) (size 15 to 20)
#    0.000    1.429    5.714    3.857    0.000    0.000 
#    0.000    0.000    0.000    0.000    0.000    6.000 
#    0.000    0.000    0.000    0.000    0.000    0.000 
#
# Total GULP energy -173482.264175 kJ/mol
# GULP energy per Si atom -12391.590298 kJ/mol
# Density = 2.222602 g / cm^3
# Si number density = 22.276720 Si / 1000 Ang^3
#
#
#
# Elastic Constant Matrix: (Units=GPa)
#
#
# Indices 1 2 3 4 5 6 
#
# 1 176.9926 25.2430 15.3059 -6.3762 -0.8827 -4.1502
# 2 25.2430 88.8844 29.8229 -6.0797 -5.2303 9.8004
# 3 15.3059 29.8229 30.4462 -13.9662 -2.9946 8.7194
# 4 -6.3762 -6.0797 -13.9662 30.0227 -3.1883 -2.3495
# 5 -0.8827 -5.2303 -2.9946 -3.1883 19.8498 -2.5595
# 6 -4.1502 9.8004 8.7194 -2.3495 -2.5595 32.2068
#
#
#
# Elastic Compliance Matrix: (Units=1/GPa)
#
#
# Indices 1 2 3 4 5 6 
#
# 1 0.006063 -0.001089 -0.002492 0.000030 -0.000159 0.001777
# 2 -0.001089 0.017686 -0.019001 -0.005463 0.000776 -0.000715
# 3 -0.002492 -0.019001 0.069424 0.027988 0.008482 -0.010618
# 4 0.000030 -0.005463 0.027988 0.046150 0.009971 -0.001752
# 5 -0.000159 0.000776 0.008482 0.009971 0.053773 0.002448
# 6 0.001777 -0.000715 -0.010618 -0.001752 0.002448 0.034437
#
#
# Mechanical properties :
#
#
# Convention : Reuss Voigt Hill
#
# Bulk Modulus (GPa) = 20.82988 48.56298 34.69643
# Shear Modulus (GPa) = 17.31907 31.47929 24.39918
#
# Velocity S-wave (km/s) = 2.79131 3.76320 3.31309
# Velocity P-wave (km/s) = 4.44515 6.38196 5.49949
#
# Compressibility (1/GPa) = 0.04800797
#
# Stress axis : x y z
#
# Youngs Moduli (GPa) = 164.94284 56.54182 14.40430
#
# Poissons Ratio (x) = 0.06157 0.03590
# Poissons Ratio (y) = 0.17961 0.27370
# Poissons Ratio (z) = 0.41104 1.07437
#
# Static dielectric constant tensor:
#      x y z
#    x 12.292960 -1.222500 0.148680 
#    y -1.222500 4.191890 -0.137100 
#    z 0.148680 -0.137100 3.626120 
# 
# 
# High freq. dielectric constant tensor:
#      x y z
#    x 1.890510 0.001770 -0.000750 
#    y 0.001770 1.866110 -0.007360 
#    z -0.000750 -0.007360 1.810710 
# 
# From -- ./inp_files/71909.got.cif
#   From: 2010.06.25/outbox.cif.g09.slc.cpg/sg2_36_cif.got.tgz:71909.got - 2010.06.27 13:26:56.
