data_PCOD8044006
_publ_section_title
;
Structure prediction by ZEFSAII (Michael W. Deem and Ramdas Pophale) SiO2 
 PCOD8044006
Probable space group: P -1
;
_chemical_formula_sum "Si O2"
_cell_formula_units_Z 12
_cell_length_a 7.365003
_cell_length_b 9.282047
_cell_length_c 12.077225
_cell_angle_alpha 132.627253
_cell_angle_beta 72.137309
_cell_angle_gamma 79.729989
_cell_volume 482.423195
_symmetry_space_group_name_H-M "P -1"
_symmetry_group_IT_number 2
_symmetry_cell_setting 'triclinic'
loop_
_space_group_symop_operation_xyz
x,y,z
-x,-y,-z
loop_
_atom_site_type_symbol
_atom_site_label
_atom_site_fract_x
_atom_site_fract_y
_atom_site_fract_z
Si Si1 0.244849 0.669641 0.006626
Si Si2 0.321764 0.339425 0.005812
Si Si3 0.380264 0.520588 0.662964
Si Si4 0.092384 0.791547 0.628888
Si Si5 0.085008 0.418245 0.310291
Si Si6 0.453486 0.191675 0.305355
O O1 0.214262 0.494979 0.997039
O O2 0.238285 0.608253 0.848363
O O3 0.486179 0.632212 0.963852
O O4 0.039860 0.931186 0.214029
O O5 0.421100 0.072746 0.815871
O O6 0.123230 0.425763 0.177557
O O7 0.303148 0.363781 0.527317
O O8 0.356468 0.738630 0.709249
O O9 0.654447 0.337024 0.536677
O O10 0.056184 0.712462 0.717575
O O11 0.968374 0.681230 0.524056
O O12 0.328602 0.243707 0.237348
#
# Coordination Sequence:
#
# PCOD8044006 Si02
#       6
#     2   2   2   2   2   2
#     4  11  22  38  60  87 121 156 194 238 292 351
#     4  11  21  37  62  87 116 162 192 236 294 350
#     4  10  22  40  61  89 118 152 194 245 297 341
#     4  10  20  37  61  89 116 149 200 246 284 342
#     4  10  19  37  62  90 113 151 201 245 286 339
#     4  10  19  38  63  85 119 153 194 243 293 344
#
# _framework density 24.874427000000001
#
# number of rings (size 3 to 8) (size 9 to 14) (size 15 to 20)
#    0.000    1.667    5.000    1.500    0.000    1.333 
#    0.000   15.833    0.000    0.000    0.000    0.000 
#    0.000    0.000    0.000    0.000    0.000    0.000 
#
# Total GULP energy -148726.324110 kJ/mol
# GULP energy per Si atom -12393.860342 kJ/mol
# Density = 2.481781 g / cm^3
# Si number density = 24.874427 Si / 1000 Ang^3
#
#
#
# Elastic Constant Matrix: (Units=GPa)
#
#
# Indices 1 2 3 4 5 6 
#
# 1 79.6715 14.2256 12.3258 5.4574 12.8324 15.6916
# 2 14.2256 190.6053 112.1118 34.2227 8.7841 6.1910
# 3 12.3258 112.1118 145.3042 26.2983 6.3205 3.5569
# 4 5.4574 34.2227 26.2983 36.1163 -4.1517 -1.4869
# 5 12.8324 8.7841 6.3205 -4.1517 31.5832 0.6392
# 6 15.6916 6.1910 3.5569 -1.4869 0.6392 18.4491
#
#
#
# Elastic Compliance Matrix: (Units=1/GPa)
#
#
# Indices 1 2 3 4 5 6 
#
# 1 0.016810 0.000544 -0.000426 -0.004163 -0.007150 -0.014486
# 2 0.000544 0.010480 -0.006994 -0.005316 -0.002375 -0.002977
# 3 -0.000426 -0.006994 0.012848 -0.002756 -0.000816 0.000039
# 4 -0.004163 -0.005316 -0.002756 0.036674 0.008370 0.008522
# 5 -0.007150 -0.002375 -0.000816 0.008370 0.036361 0.006450
# 6 -0.014486 -0.002977 0.000039 0.008522 0.006450 0.067979
#
#
# Mechanical properties :
#
#
# Convention : Reuss Voigt Hill
#
# Bulk Modulus (GPa) = 37.90047 76.98970 57.44509
# Shear Modulus (GPa) = 24.54584 35.69090 30.11837
#
# Velocity S-wave (km/s) = 3.14473 3.79204 3.48345
# Velocity P-wave (km/s) = 5.33438 7.08458 6.27084
#
# Compressibility (1/GPa) = 0.02638489
#
# Stress axis : x y z
#
# Youngs Moduli (GPa) = 59.48756 95.41757 77.83337
#
# Poissons Ratio (x) = -0.05187 0.03318
# Poissons Ratio (y) = -0.03234 0.54437
# Poissons Ratio (z) = 0.02536 0.66736
#
# Static dielectric constant tensor:
#      x y z
#    x 5.552570 0.233380 0.237300 
#    y 0.233380 4.332700 0.052120 
#    z 0.237300 0.052120 4.337030 
# 
# 
# High freq. dielectric constant tensor:
#      x y z
#    x 2.045790 0.005150 0.003040 
#    y 0.005150 1.956550 0.005000 
#    z 0.003040 0.005000 1.991340 
# 
# From -- ./inp_files/151942.got.cif
#   From: 2010.06.25/outbox.cif.g09.slc.cpg/sg2_76_cif.got.tgz:151942.got - 2010.06.27 13:26:56.
