data_PCOD8044042
_publ_section_title
;
Structure prediction by ZEFSAII (Michael W. Deem and Ramdas Pophale) SiO2 
 PCOD8044042
Probable space group: P -1
;
_chemical_formula_sum "Si O2"
_cell_formula_units_Z 16
_cell_length_a 10.292350
_cell_length_b 14.610536
_cell_length_c 8.863262
_cell_angle_alpha 141.799140
_cell_angle_beta 75.787087
_cell_angle_gamma 95.516980
_cell_volume 788.531669
_symmetry_space_group_name_H-M "P -1"
_symmetry_group_IT_number 2
_symmetry_cell_setting 'triclinic'
loop_
_space_group_symop_operation_xyz
x,y,z
-x,-y,-z
loop_
_atom_site_type_symbol
_atom_site_label
_atom_site_fract_x
_atom_site_fract_y
_atom_site_fract_z
Si Si1 0.570710 0.013820 0.156806
Si Si2 0.606326 0.305056 0.392021
Si Si3 0.421123 0.545397 0.928774
Si Si4 0.898725 0.253252 0.346062
Si Si5 0.111883 0.596817 0.149502
Si Si6 0.853979 0.940018 0.084827
Si Si7 0.601748 0.177253 0.902242
Si Si8 0.128819 0.914182 0.428471
O O1 0.586507 0.188737 0.383581
O O2 0.719445 0.912043 0.996296
O O3 0.500000 0.000000 0.000000
O O4 0.482854 0.961602 0.252168
O O5 0.499196 0.452068 0.648920
O O6 0.766390 0.318794 0.368570
O O7 0.567438 0.262523 0.180332
O O8 0.427814 0.717372 0.101150
O O9 0.500000 0.500000 0.000000
O O10 0.265466 0.518130 0.959553
O O11 0.906301 0.379604 0.634620
O O12 0.900122 0.089137 0.200510
O O13 0.036982 0.215496 0.157837
O O14 0.086443 0.759524 0.294156
O O15 0.000000 0.500000 0.000000
O O16 0.819673 0.981744 0.322631
O O17 0.759406 0.109176 0.764993
O O18 0.000000 0.000000 0.500000
#
# Coordination Sequence:
#
# PCOD8044042 Si02
#       8
#     2   2   2   2   2   2   2   2
#     4   9  20  36  57  90 116 146 198 250 295 348
#     4  10  19  37  63  84 116 161 199 236 297 359
#     4  11  22  40  60  83 119 162 202 237 294 357
#     4   9  17  34  59  82 114 155 197 238 298 356
#     4  10  22  38  58  87 119 154 201 251 294 352
#     4   9  18  33  57  84 116 153 191 244 296 355
#     4  10  22  37  59  89 122 152 195 246 294 355
#     4  10  21  38  58  84 118 153 196 239 303 359
#
# _framework density 20.290877999999999
#
# number of rings (size 3 to 8) (size 9 to 14) (size 15 to 20)
#    0.000    2.250    1.250    1.125    1.750    6.500 
#    2.250    0.000    0.000    4.500    0.000    0.000 
#    0.000    0.000    0.000    0.000    0.000    0.000 
#
# Total GULP energy -198211.999401 kJ/mol
# GULP energy per Si atom -12388.249963 kJ/mol
# Density = 2.024469 g / cm^3
# Si number density = 20.290878 Si / 1000 Ang^3
#
#
#
# Elastic Constant Matrix: (Units=GPa)
#
#
# Indices 1 2 3 4 5 6 
#
# 1 141.9255 46.5585 43.3238 8.9014 -12.2154 -2.9980
# 2 46.5585 81.5165 18.2790 -5.2649 -5.3360 6.2168
# 3 43.3238 18.2790 91.6046 -9.3900 -20.0263 -0.6677
# 4 8.9014 -5.2649 -9.3900 20.2604 -5.3972 -0.2173
# 5 -12.2154 -5.3360 -20.0263 -5.3972 37.0849 -0.0191
# 6 -2.9980 6.2168 -0.6677 -0.2173 -0.0191 31.3162
#
#
#
# Elastic Compliance Matrix: (Units=1/GPa)
#
#
# Indices 1 2 3 4 5 6 
#
# 1 0.011151 -0.006028 -0.005317 -0.009285 -0.001416 0.002086
# 2 -0.006028 0.016455 0.000752 0.007742 0.001913 -0.003773
# 3 -0.005317 0.000752 0.016576 0.012649 0.009149 -0.000211
# 4 -0.009285 0.007742 0.012649 0.065119 0.014363 -0.001696
# 5 -0.001416 0.001913 0.009149 0.014363 0.033805 -0.000200
# 6 0.002086 -0.003773 -0.000211 -0.001696 -0.000200 0.032865
#
#
# Mechanical properties :
#
#
# Convention : Reuss Voigt Hill
#
# Bulk Modulus (GPa) = 43.48677 59.04102 51.26390
# Shear Modulus (GPa) = 24.41142 31.52464 27.96803
#
# Velocity S-wave (km/s) = 3.47230 3.94590 3.71665
# Velocity P-wave (km/s) = 6.12813 7.06545 6.61342
#
# Compressibility (1/GPa) = 0.02299550
#
# Stress axis : x y z
#
# Youngs Moduli (GPa) = 89.67760 60.77242 60.32722
#
# Poissons Ratio (x) = 0.36634 0.32076
# Poissons Ratio (y) = 0.54059 -0.04535
# Poissons Ratio (z) = 0.47682 -0.04569
#
# Static dielectric constant tensor:
#      x y z
#    x 3.521280 0.981740 -0.188050 
#    y 0.981740 0.037190 0.155360 
#    z -0.188050 0.155360 3.518640 
# 
# 
# High freq. dielectric constant tensor:
#      x y z
#    x 1.798600 -0.008910 -0.015650 
#    y -0.008910 1.771950 -0.010920 
#    z -0.015650 -0.010920 1.787620 
# 
# From -- ./inp_files/209192.got.cif
#   From: 2010.06.25/outbox.cif.g09.slc.cpg/sg2_105_cif.got.tgz:209192.got - 2010.06.27 13:26:56.
