data_PCOD8044868
_publ_section_title
;
Structure prediction by ZEFSAII (Michael W. Deem and Ramdas Pophale) SiO2 
 PCOD8044868
Probable space group: P 2
;
_chemical_formula_sum "Si O2"
_cell_formula_units_Z 12
_cell_length_a 26.099294
_cell_length_b 5.036594
_cell_length_c 10.520028
_cell_angle_alpha 90.000000
_cell_angle_beta 27.596841
_cell_angle_gamma 90.000000
_cell_volume 640.612454
_symmetry_space_group_name_H-M "P 2"
_symmetry_group_IT_number 3
_symmetry_cell_setting 'monoclinic'
loop_
_space_group_symop_operation_xyz
x,y,z
-x,y,-z
loop_
_atom_site_type_symbol
_atom_site_label
_atom_site_fract_x
_atom_site_fract_y
_atom_site_fract_z
Si Si1 0.379291 0.359760 0.705753
Si Si2 0.399938 0.772619 0.034081
Si Si3 0.703722 0.278066 0.850159
Si Si4 0.636648 0.861765 0.428617
Si Si5 0.872088 0.334522 0.268648
Si Si6 0.234748 0.827702 0.611703
O O1 0.500000 0.307887 0.500000
O O2 0.368041 0.655232 0.676468
O O3 0.353822 0.154678 0.649759
O O4 0.287031 0.323316 0.018938
O O5 0.389673 0.477027 0.999357
O O6 0.350421 0.778605 0.284359
O O7 0.331772 0.975377 0.095251
O O8 0.527892 0.847885 0.755375
O O9 0.820023 0.341504 0.525067
O O10 0.741115 0.808004 0.290931
O O11 0.856325 0.614223 0.231948
O O12 0.811395 0.117786 0.316265
O O13 0.000000 0.267346 0.000000
#
# Coordination Sequence:
#
# PCOD8044868 Si02
#       6
#     2   2   2   2   2   2
#     4  12  21  33  52  77 116 152 179 200 248 322
#     4  10  18  33  51  77 112 142 172 214 255 318
#     4  10  20  33  53  81 104 139 186 214 252 310
#     4  12  21  33  53  78 118 149 166 213 261 318
#     4  10  21  40  62  77 100 135 181 238 271 304
#     4  10  22  35  55  84 106 135 181 219 276 316
#
# _framework density 18.732075999999999
#
# number of rings (size 3 to 8) (size 9 to 14) (size 15 to 20)
#    0.000    1.333    3.333    3.500    0.000    0.000 
#    0.000    6.667    0.000    6.000    0.000    0.000 
#    0.000    0.000    0.000    0.000    0.000    0.000 
#
# Total GULP energy -148841.908802 kJ/mol
# GULP energy per Si atom -12403.492400 kJ/mol
# Density = 1.868944 g / cm^3
# Si number density = 18.732076 Si / 1000 Ang^3
#
#
#
# Elastic Constant Matrix: (Units=GPa)
#
#
# Indices 1 2 3 4 5 6 
#
# 1 87.6008 11.4900 34.0532 0.0000 10.1035 0.0000
# 2 11.4900 77.8908 5.1904 0.0000 6.5073 0.0000
# 3 34.0532 5.1904 71.1302 0.0000 -0.4450 0.0000
# 4 0.0000 0.0000 0.0000 21.2171 0.0000 5.8088
# 5 10.1035 6.5073 -0.4450 0.0000 15.1059 0.0000
# 6 0.0000 0.0000 0.0000 5.8088 0.0000 24.6467
#
#
#
# Elastic Compliance Matrix: (Units=1/GPa)
#
#
# Indices 1 2 3 4 5 6 
#
# 1 0.015631 -0.000950 -0.007478 0.000000 -0.010266 0.000000
# 2 -0.000950 0.013448 -0.000559 0.000000 -0.005174 0.000000
# 3 -0.007478 -0.000559 0.017716 0.000000 0.005764 0.000000
# 4 0.000000 0.000000 0.000000 0.050383 0.000000 -0.011874
# 5 -0.010266 -0.005174 0.005764 0.000000 0.075464 0.000000
# 6 0.000000 0.000000 0.000000 -0.011874 0.000000 0.043372
#
#
# Mechanical properties :
#
#
# Convention : Reuss Voigt Hill
#
# Bulk Modulus (GPa) = 34.69700 37.56543 36.13122
# Shear Modulus (GPa) = 20.52590 24.58650 22.55620
#
# Velocity S-wave (km/s) = 3.31382 3.62682 3.47385
# Velocity P-wave (km/s) = 5.76237 6.13482 5.95151
#
# Compressibility (1/GPa) = 0.02882093
#
# Stress axis : x y z
#
# Youngs Moduli (GPa) = 63.97526 74.35980 56.44705
#
# Poissons Ratio (x) = 0.07063 0.42212
# Poissons Ratio (y) = 0.06077 0.03155
# Poissons Ratio (z) = 0.47842 0.04156
#
# Static dielectric constant tensor:
#      x y z
#    x 3.195750 0.000000 0.304760 
#    y 0.000000 3.544640 0.000000 
#    z 0.304760 0.000000 3.345900 
# 
# 
# High freq. dielectric constant tensor:
#      x y z
#    x 1.708690 0.000000 0.023880 
#    y 0.000000 1.748720 0.000000 
#    z 0.023880 0.000000 1.701060 
# 
# From -- ./inp_files/6527.got.cif
#   From: 2010.03.12/outbox.cif.g09.slc.cpg/sg3_4_cif.got.tgz:6527.got - 2010.03.31 09:20:49.
