data_PCOD8044935
_publ_section_title
;
Structure prediction by ZEFSAII (Michael W. Deem and Ramdas Pophale) SiO2 
 PCOD8044935
Probable space group: P 2
;
_chemical_formula_sum "Si O2"
_cell_formula_units_Z 12
_cell_length_a 5.058711
_cell_length_b 13.941554
_cell_length_c 8.658364
_cell_angle_alpha 90.000000
_cell_angle_beta 95.909440
_cell_angle_gamma 90.000000
_cell_volume 607.397279
_symmetry_space_group_name_H-M "P 2"
_symmetry_group_IT_number 3
_symmetry_cell_setting 'monoclinic'
loop_
_space_group_symop_operation_xyz
x,y,z
-x,y,-z
loop_
_atom_site_type_symbol
_atom_site_label
_atom_site_fract_x
_atom_site_fract_y
_atom_site_fract_z
Si Si1 0.764638 0.947830 0.102355
Si Si2 0.451935 0.442594 0.315713
Si Si3 0.466006 0.656938 0.315877
Si Si4 0.951207 0.752294 0.179815
Si Si5 0.235692 0.158176 0.894226
Si Si6 0.949208 0.329274 0.316104
O O1 0.856494 0.860684 0.219024
O O2 0.713172 0.051797 0.178655
O O3 0.500000 0.911618 0.000000
O O4 0.000000 0.967636 0.000000
O O5 0.500000 0.442349 0.500000
O O6 0.383038 0.550093 0.255533
O O7 0.724914 0.406624 0.256792
O O8 0.217064 0.369424 0.252935
O O9 0.500000 0.658391 0.500000
O O10 0.732102 0.681070 0.236611
O O11 0.234471 0.732890 0.272377
O O12 0.000000 0.740034 0.000000
O O13 0.149882 0.227103 0.750614
O O14 0.500000 0.192720 0.000000
O O15 0.000000 0.157098 0.000000
O O16 0.000000 0.317351 0.500000
#
# Coordination Sequence:
#
# PCOD8044935 Si02
#       6
#     2   2   2   2   2   2
#     4   9  18  34  56  78 105 144 179 210 266 339
#     4   9  19  35  55  75 105 147 182 210 265 337
#     4  11  22  38  58  82 111 148 188 228 272 326
#     4  11  21  37  59  83 111 145 186 230 273 326
#     4  10  20  35  56  80 106 138 177 220 267 320
#     4  10  19  35  56  78 104 140 180 220 264 320
#
# _framework density 19.756426000000001
#
# number of rings (size 3 to 8) (size 9 to 14) (size 15 to 20)
#    0.000    2.000    0.000    5.000    0.000    2.667 
#    0.000   10.000    0.000    2.000    0.000    0.000 
#    0.000    0.000    0.000    0.000    0.000    0.000 
#
# Total GULP energy -148705.589560 kJ/mol
# GULP energy per Si atom -12392.132463 kJ/mol
# Density = 1.971146 g / cm^3
# Si number density = 19.756426 Si / 1000 Ang^3
#
#
#
# Elastic Constant Matrix: (Units=GPa)
#
#
# Indices 1 2 3 4 5 6 
#
# 1 134.2657 32.6414 34.6444 0.0000 10.8601 0.0000
# 2 32.6414 127.9099 49.8795 0.0000 13.2059 0.0000
# 3 34.6444 49.8795 54.2863 0.0000 7.4212 0.0000
# 4 0.0000 0.0000 0.0000 32.3707 0.0000 7.3266
# 5 10.8601 13.2059 7.4212 0.0000 27.8060 0.0000
# 6 0.0000 0.0000 0.0000 7.3266 0.0000 37.5998
#
#
#
# Elastic Compliance Matrix: (Units=1/GPa)
#
#
# Indices 1 2 3 4 5 6 
#
# 1 0.009029 0.000073 -0.005545 0.000000 -0.002081 0.000000
# 2 0.000073 0.012414 -0.011046 0.000000 -0.002976 0.000000
# 3 -0.005545 -0.011046 0.032273 0.000000 -0.001202 0.000000
# 4 0.000000 0.000000 0.000000 0.032317 0.000000 -0.006297
# 5 -0.002081 -0.002976 -0.001202 0.000000 0.038511 0.000000
# 6 0.000000 0.000000 0.000000 -0.006297 0.000000 0.027823
#
#
# Mechanical properties :
#
#
# Convention : Reuss Voigt Hill
#
# Bulk Modulus (GPa) = 48.35444 61.19917 54.77680
# Shear Modulus (GPa) = 26.00145 32.84173 29.42159
#
# Velocity S-wave (km/s) = 3.63175 4.08159 3.86322
# Velocity P-wave (km/s) = 6.48957 7.29771 6.90547
#
# Compressibility (1/GPa) = 0.02068063
#
# Stress axis : x y z
#
# Youngs Moduli (GPa) = 110.75124 80.55303 30.98559
#
# Poissons Ratio (x) = -0.00587 0.17181
# Poissons Ratio (y) = -0.00808 0.34227
# Poissons Ratio (z) = 0.61409 0.88980
#
# Static dielectric constant tensor:
#      x y z
#    x 3.865560 0.000000 0.046300 
#    y 0.000000 4.115960 0.000000 
#    z 0.046300 0.000000 3.156040 
# 
# 
# High freq. dielectric constant tensor:
#      x y z
#    x 1.796350 0.000000 0.007400 
#    y 0.000000 1.786070 0.000000 
#    z 0.007400 0.000000 1.721010 
# 
# From -- ./inp_files/1157.got.cif
#   From: 2010.03.12/outbox.cif.g09.slc.cpg/sg3_1_cif.got.tgz:1157.got - 2010.03.31 09:20:49.
