data_PCOD8044814
_publ_section_title
;
Structure prediction by ZEFSAII (Michael W. Deem and Ramdas Pophale) SiO2 
 PCOD8044814
Probable space group: P -1
;
_chemical_formula_sum "Si O2"
_cell_formula_units_Z 14
_cell_length_a 12.249807
_cell_length_b 7.917945
_cell_length_c 9.322777
_cell_angle_alpha 70.514547
_cell_angle_beta 55.254655
_cell_angle_gamma 59.935043
_cell_volume 641.577892
_symmetry_space_group_name_H-M "P -1"
_symmetry_group_IT_number 2
_symmetry_cell_setting 'triclinic'
loop_
_space_group_symop_operation_xyz
x,y,z
-x,-y,-z
loop_
_atom_site_type_symbol
_atom_site_label
_atom_site_fract_x
_atom_site_fract_y
_atom_site_fract_z
Si Si1 0.355020 0.041335 0.504101
Si Si2 0.276277 0.457529 0.509368
Si Si3 0.575106 0.737129 0.264359
Si Si4 0.561073 0.361424 0.856640
Si Si5 0.742279 0.994405 0.982503
Si Si6 0.960428 0.345020 0.160930
Si Si7 0.837609 0.122234 0.136351
O O1 0.285733 0.272238 0.459394
O O2 0.500000 0.000000 0.500000
O O3 0.412340 0.907495 0.357797
O O4 0.225410 0.997003 0.680533
O O5 0.381147 0.397439 0.587967
O O6 0.319147 0.590920 0.331886
O O7 0.111350 0.570089 0.656381
O O8 0.570944 0.613732 0.160937
O O9 0.687389 0.838780 0.135087
O O10 0.636745 0.129804 0.902537
O O11 0.500000 0.500000 0.000000
O O12 0.905084 0.859267 0.846870
O O13 0.741558 0.157536 0.053932
O O14 0.837164 0.312408 0.164586
O O15 0.000000 0.500000 0.000000
O O16 0.000000 0.000000 0.000000
#
# Coordination Sequence:
#
# PCOD8044814 Si02
#       7
#     2   2   2   2   2   2   2
#     4  10  19  38  68  95 129 168 230 280 323 389
#     4  11  22  41  67  99 129 176 232 272 329 406
#     4  11  22  43  69  92 134 181 229 277 333 399
#     4  12  28  40  63 101 142 175 219 281 353 395
#     4  11  23  42  63  97 137 178 217 285 340 397
#     4  11  22  41  70  99 129 175 237 279 327 407
#     4  10  20  37  64  96 129 174 224 276 333 394
#
# _framework density 21.821202
#
# number of rings (size 3 to 8) (size 9 to 14) (size 15 to 20)
#    0.000    1.143    4.286    3.429    4.000    0.571 
#    0.000    0.000    0.000    7.714    0.000    0.000 
#    0.000    0.000    0.000    0.000    0.000    0.000 
#
# Total GULP energy -173476.446248 kJ/mol
# GULP energy per Si atom -12391.174732 kJ/mol
# Density = 2.177154 g / cm^3
# Si number density = 21.821202 Si / 1000 Ang^3
#
#
#
# Elastic Constant Matrix: (Units=GPa)
#
#
# Indices 1 2 3 4 5 6 
#
# 1 61.9235 7.5204 23.2386 2.5197 -5.5299 11.9727
# 2 7.5204 72.4067 27.1851 11.7620 1.5735 -0.6324
# 3 23.2386 27.1851 122.9226 9.5016 -14.4688 1.7755
# 4 2.5197 11.7620 9.5016 43.9949 6.0637 -1.4081
# 5 -5.5299 1.5735 -14.4688 6.0637 38.7765 -3.7427
# 6 11.9727 -0.6324 1.7755 -1.4081 -3.7427 34.3840
#
#
#
# Elastic Compliance Matrix: (Units=1/GPa)
#
#
# Indices 1 2 3 4 5 6 
#
# 1 0.018742 -0.000764 -0.003122 -0.000536 0.001015 -0.006290
# 2 -0.000764 0.015668 -0.003242 -0.003237 -0.001406 0.000436
# 3 -0.003122 -0.003242 0.009995 -0.001602 0.003749 0.000854
# 4 -0.000536 -0.003237 -0.001602 0.024591 -0.004316 0.000747
# 5 0.001015 -0.001406 0.003749 -0.004316 0.028289 0.002330
# 6 -0.006290 0.000436 0.000854 0.000747 0.002330 0.031522
#
#
# Mechanical properties :
#
#
# Convention : Reuss Voigt Hill
#
# Bulk Modulus (GPa) = 33.17006 41.46012 37.31509
# Shear Modulus (GPa) = 32.65537 36.71832 34.68685
#
# Velocity S-wave (km/s) = 3.87266 4.10651 3.99130
# Velocity P-wave (km/s) = 5.93552 6.44405 6.19501
#
# Compressibility (1/GPa) = 0.03014767
#
# Stress axis : x y z
#
# Youngs Moduli (GPa) = 53.35534 63.82547 100.04690
#
# Poissons Ratio (x) = 0.04878 0.31239
# Poissons Ratio (y) = 0.04078 0.32437
# Poissons Ratio (z) = 0.16660 0.20693
#
# Static dielectric constant tensor:
#      x y z
#    x 3.985020 0.404700 -0.002560 
#    y 0.404700 4.229050 0.438250 
#    z -0.002560 0.438250 4.062150 
# 
# 
# High freq. dielectric constant tensor:
#      x y z
#    x 1.837110 0.023670 -0.016490 
#    y 0.023670 1.864210 0.018480 
#    z -0.016490 0.018480 1.862080 
# 
# From -- ./inp_files/241873.got.cif
#   From: 2010.06.25/outbox.cif.g09.slc.cpg/sg2_121_cif.got.tgz:241873.got - 2010.06.27 13:26:56.
