data_PCOD8044622
_publ_section_title
;
Structure prediction by ZEFSAII (Michael W. Deem and Ramdas Pophale) SiO2 
 PCOD8044622
Probable space group: P -1
;
_chemical_formula_sum "Si O2"
_cell_formula_units_Z 12
_cell_length_a 9.424647
_cell_length_b 12.569510
_cell_length_c 11.854801
_cell_angle_alpha 45.893442
_cell_angle_beta 36.161199
_cell_angle_gamma 50.989184
_cell_volume 587.401585
_symmetry_space_group_name_H-M "P -1"
_symmetry_group_IT_number 2
_symmetry_cell_setting 'triclinic'
loop_
_space_group_symop_operation_xyz
x,y,z
-x,-y,-z
loop_
_atom_site_type_symbol
_atom_site_label
_atom_site_fract_x
_atom_site_fract_y
_atom_site_fract_z
Si Si1 0.008802 0.824147 0.634358
Si Si2 0.919538 0.792976 0.962978
Si Si3 0.758947 0.020572 0.066684
Si Si4 0.548705 0.740523 0.405776
Si Si5 0.445699 0.619840 0.786219
Si Si6 0.614875 0.695849 0.858277
O O1 0.285657 0.740516 0.518375
O O2 0.873757 0.786713 0.863973
O O3 0.863228 0.761392 0.672580
O O4 0.000000 0.000000 0.500000
O O5 0.200060 0.739572 0.852332
O O6 0.753180 0.689664 0.215241
O O7 0.842456 0.966577 0.925590
O O8 0.621875 0.189721 0.033604
O O9 0.576669 0.907619 0.310257
O O10 0.000000 0.000000 0.000000
O O11 0.589504 0.629289 0.569152
O O12 0.608392 0.661899 0.754474
O O13 0.384431 0.453730 0.959654
#
# Coordination Sequence:
#
# PCOD8044622 Si02
#       6
#     2   2   2   2   2   2
#     4  11  21  38  62  94 123 157 199 252 308 353
#     4   9  21  40  61  86 126 155 203 249 292 367
#     4  10  19  38  64  88 117 158 206 250 293 346
#     4   9  21  39  63  86 123 159 201 241 307 358
#     4  10  22  42  62  87 126 163 200 246 305 356
#     4  11  22  38  63  93 124 156 204 257 292 359
#
# _framework density 20.428954000000001
#
# number of rings (size 3 to 8) (size 9 to 14) (size 15 to 20)
#    1.000    1.000    3.333    0.000    0.000    7.333 
#    0.000   14.167    0.000    0.000    0.000    0.000 
#    0.000    0.000    0.000    0.000    0.000    0.000 
#
# Total GULP energy -148729.050887 kJ/mol
# GULP energy per Si atom -12394.087574 kJ/mol
# Density = 2.038246 g / cm^3
# Si number density = 20.428954 Si / 1000 Ang^3
#
#
#
# Elastic Constant Matrix: (Units=GPa)
#
#
# Indices 1 2 3 4 5 6 
#
# 1 114.7834 16.2365 55.1472 -5.6482 -15.4796 4.3171
# 2 16.2365 44.8015 16.5673 -12.8664 -6.9489 -1.3938
# 3 55.1472 16.5673 118.5840 4.2436 8.3282 5.3272
# 4 -5.6482 -12.8664 4.2436 35.5332 2.7860 -0.5478
# 5 -15.4796 -6.9489 8.3282 2.7860 40.5597 -8.3155
# 6 4.3171 -1.3938 5.3272 -0.5478 -8.3155 17.9904
#
#
#
# Elastic Compliance Matrix: (Units=1/GPa)
#
#
# Indices 1 2 3 4 5 6 
#
# 1 0.012795 -0.000599 -0.006467 0.002121 0.006329 0.001788
# 2 -0.000599 0.028534 -0.004846 0.010424 0.006386 0.007059
# 3 -0.006467 -0.004846 0.013013 -0.003886 -0.006934 -0.006000
# 4 0.002121 0.010424 -0.003886 0.032626 0.001826 0.003287
# 5 0.006329 0.006386 -0.006934 0.001826 0.032793 0.016242
# 6 0.001788 0.007059 -0.006000 0.003287 0.016242 0.065087
#
#
# Mechanical properties :
#
#
# Convention : Reuss Voigt Hill
#
# Bulk Modulus (GPa) = 32.76975 50.45231 41.61103
# Shear Modulus (GPa) = 22.84733 31.49788 27.17260
#
# Velocity S-wave (km/s) = 3.34785 3.93087 3.65101
# Velocity P-wave (km/s) = 5.56954 6.73442 6.17949
#
# Compressibility (1/GPa) = 0.03051595
#
# Stress axis : x y z
#
# Youngs Moduli (GPa) = 78.15829 35.04642 76.84623
#
# Poissons Ratio (x) = 0.02099 0.49697
# Poissons Ratio (y) = 0.04682 0.37243
# Poissons Ratio (z) = 0.50546 0.16985
#
# Static dielectric constant tensor:
#      x y z
#    x 3.739240 -0.026060 0.035930 
#    y -0.026060 3.543410 -0.002460 
#    z 0.035930 -0.002460 3.670760 
# 
# 
# High freq. dielectric constant tensor:
#      x y z
#    x 1.806070 -0.002950 -0.005170 
#    y -0.002950 1.780310 -0.000130 
#    z -0.005170 -0.000130 1.790440 
# 
# From -- ./inp_files/181989.got.cif
#   From: 2010.06.25/outbox.cif.g09.slc.cpg/sg2_91_cif.got.tgz:181989.got - 2010.06.27 13:26:56.
