data_PCOD8044538
_publ_section_title
;
Structure prediction by ZEFSAII (Michael W. Deem and Ramdas Pophale) SiO2 
 PCOD8044538
Probable space group: P -1
;
_chemical_formula_sum "Si O2"
_cell_formula_units_Z 16
_cell_length_a 11.404900
_cell_length_b 21.957413
_cell_length_c 16.433523
_cell_angle_alpha 23.248226
_cell_angle_beta 149.289936
_cell_angle_gamma 136.604569
_cell_volume 787.566301
_symmetry_space_group_name_H-M "P -1"
_symmetry_group_IT_number 2
_symmetry_cell_setting 'triclinic'
loop_
_space_group_symop_operation_xyz
x,y,z
-x,-y,-z
loop_
_atom_site_type_symbol
_atom_site_label
_atom_site_fract_x
_atom_site_fract_y
_atom_site_fract_z
Si Si1 0.079802 0.523227 0.886017
Si Si2 0.969452 0.018723 0.862799
Si Si3 0.528289 0.963145 0.914531
Si Si4 0.401128 0.801700 0.895343
Si Si5 0.582025 0.355214 0.162857
Si Si6 0.646686 0.608891 0.418495
Si Si7 0.890730 0.747526 0.645097
Si Si8 0.641205 0.839591 0.826856
O O1 0.307487 0.579580 0.929179
O O2 0.928640 0.522412 0.713761
O O3 0.910028 0.643150 0.703480
O O4 0.165746 0.345316 0.195465
O O5 0.776242 0.194812 0.513251
O O6 0.892719 0.863509 0.975613
O O7 0.217619 0.002252 0.985002
O O8 0.000000 0.000000 0.000000
O O9 0.412735 0.959579 0.759599
O O10 0.341898 0.094467 0.698575
O O11 0.568561 0.787038 0.196260
O O12 0.481177 0.816151 0.834897
O O13 0.130762 0.795208 0.744806
O O14 0.588256 0.639334 0.249531
O O15 0.346943 0.309711 0.044665
O O16 0.500000 0.500000 0.000000
O O17 0.500000 0.500000 0.500000
O O18 0.500000 0.000000 0.500000
#
# Coordination Sequence:
#
# PCOD8044538 Si02
#       8
#     2   2   2   2   2   2   2   2
#     4  11  22  41  61  90 133 167 211 274 327 381
#     4  11  21  42  66  92 131 170 212 268 319 386
#     4  10  22  37  66  94 128 170 215 257 321 400
#     4  10  19  38  62  93 128 163 212 265 317 391
#     4  11  24  42  67  94 124 172 223 271 327 387
#     4  10  20  38  62  90 130 168 202 259 331 379
#     4  11  23  37  65  96 127 171 214 264 324 390
#     4  10  22  40  66  93 126 171 218 274 325 374
#
# _framework density 20.315750000000001
#
# number of rings (size 3 to 8) (size 9 to 14) (size 15 to 20)
#    0.750    0.750    5.000    0.375    1.750    0.500 
#    0.000    1.875    2.750    0.000    0.000    0.000 
#    0.000    0.000    0.000    0.000    0.000    0.000 
#
# Total GULP energy -198241.681181 kJ/mol
# GULP energy per Si atom -12390.105074 kJ/mol
# Density = 2.026951 g / cm^3
# Si number density = 20.315750 Si / 1000 Ang^3
#
#
#
# Elastic Constant Matrix: (Units=GPa)
#
#
# Indices 1 2 3 4 5 6 
#
# 1 87.5260 44.1321 39.2389 -11.1796 -17.9941 10.8007
# 2 44.1321 167.5943 34.3778 -3.4069 1.2370 20.8094
# 3 39.2389 34.3778 68.8718 -5.1208 -10.8802 10.7932
# 4 -11.1796 -3.4069 -5.1208 32.5263 -0.4649 -3.3947
# 5 -17.9941 1.2370 -10.8802 -0.4649 32.2775 -5.2401
# 6 10.8007 20.8094 10.7932 -3.3947 -5.2401 31.6915
#
#
#
# Elastic Compliance Matrix: (Units=1/GPa)
#
#
# Indices 1 2 3 4 5 6 
#
# 1 0.018746 -0.003421 -0.007337 0.005074 0.008224 0.000260
# 2 -0.003421 0.007763 -0.001944 -0.001134 -0.003521 -0.003973
# 3 -0.007337 -0.001944 0.020511 0.000249 0.002451 -0.002777
# 4 0.005074 -0.001134 0.000249 0.032788 0.003931 0.003092
# 5 0.008224 -0.003521 0.002451 0.003931 0.037442 0.005287
# 6 0.000260 -0.003973 -0.002777 0.003092 0.005287 0.036225
#
#
# Mechanical properties :
#
#
# Convention : Reuss Voigt Hill
#
# Bulk Modulus (GPa) = 46.26122 62.16551 54.21336
# Shear Modulus (GPa) = 26.86964 33.04863 29.95914
#
# Velocity S-wave (km/s) = 3.64070 4.03767 3.84432
# Velocity P-wave (km/s) = 6.36345 7.23900 6.81530
#
# Compressibility (1/GPa) = 0.02161638
#
# Stress axis : x y z
#
# Youngs Moduli (GPa) = 53.34401 128.82325 48.75463
#
# Poissons Ratio (x) = 0.44073 0.35771
# Poissons Ratio (y) = 0.18250 0.09476
# Poissons Ratio (z) = 0.39138 0.25037
#
# Static dielectric constant tensor:
#      x y z
#    x 3.497030 0.117060 -0.272810 
#    y 0.117060 4.355100 0.061040 
#    z -0.272810 0.061040 3.567430 
# 
# 
# High freq. dielectric constant tensor:
#      x y z
#    x 1.777670 0.008200 -0.029890 
#    y 0.008200 1.817770 0.001090 
#    z -0.029890 0.001090 1.774050 
# 
# From -- ./inp_files/570936.got.cif
#   From: 2010.06.25/outbox.cif.g09.slc.cpg/sg2_286_cif.got.tgz:570936.got - 2010.06.27 13:26:56.
