data_PCOD8044764
_publ_section_title
;
Structure prediction by ZEFSAII (Michael W. Deem and Ramdas Pophale) SiO2 
 PCOD8044764
Probable space group: P -1
;
_chemical_formula_sum "Si O2"
_cell_formula_units_Z 16
_cell_length_a 10.941739
_cell_length_b 13.638522
_cell_length_c 11.367565
_cell_angle_alpha 32.367860
_cell_angle_beta 85.128930
_cell_angle_gamma 64.442545
_cell_volume 668.197648
_symmetry_space_group_name_H-M "P -1"
_symmetry_group_IT_number 2
_symmetry_cell_setting 'triclinic'
loop_
_space_group_symop_operation_xyz
x,y,z
-x,-y,-z
loop_
_atom_site_type_symbol
_atom_site_label
_atom_site_fract_x
_atom_site_fract_y
_atom_site_fract_z
Si Si1 0.110474 0.663186 0.288833
Si Si2 0.418772 0.129895 0.250552
Si Si3 0.932978 0.405869 0.259019
Si Si4 0.842092 0.034767 0.450841
Si Si5 0.629993 0.241738 0.041219
Si Si6 0.608371 0.204091 0.519664
Si Si7 0.857114 0.737877 0.398283
Si Si8 0.134066 0.861236 0.302478
O O1 0.218039 0.387103 0.504360
O O2 0.206561 0.671910 0.377024
O O3 0.942457 0.742658 0.273851
O O4 0.049189 0.872741 0.983700
O O5 0.481424 0.266834 0.076020
O O6 0.500000 0.000000 0.500000
O O7 0.465426 0.926582 0.355941
O O8 0.218638 0.339538 0.050362
O O9 0.881603 0.255056 0.465316
O O10 0.008959 0.440355 0.328179
O O11 0.076659 0.241959 0.313845
O O12 0.746861 0.203574 0.172390
O O13 0.704967 0.152420 0.442900
O O14 0.000000 0.000000 0.500000
O O15 0.721558 0.022135 0.161401
O O16 0.544184 0.508706 0.724686
O O17 0.741599 0.096027 0.722821
#
# Coordination Sequence:
#
# PCOD8044764 Si02
#       8
#     2   2   2   2   2   2   2   2
#     4   9  19  39  68  95 121 156 221 276 329 368
#     4  12  25  42  62  94 136 181 212 254 317 387
#     4  10  21  39  63  93 132 163 217 261 312 382
#     4  11  21  38  66  96 123 173 214 262 312 376
#     4  11  24  45  61  95 135 172 213 260 325 385
#     4  12  24  41  66  90 137 177 208 262 324 380
#     4   9  20  42  67  92 124 166 212 279 317 379
#     4  10  19  38  66  94 123 164 209 269 325 380
#
# _framework density 23.945011999999998
#
# number of rings (size 3 to 8) (size 9 to 14) (size 15 to 20)
#    0.000    1.500    3.750    1.125    1.750    0.500 
#   11.250    1.250    0.000    0.000    0.000    0.000 
#    0.000    0.000    0.000    0.000    0.000    0.000 
#
# Total GULP energy -198219.459808 kJ/mol
# GULP energy per Si atom -12388.716238 kJ/mol
# Density = 2.389051 g / cm^3
# Si number density = 23.945012 Si / 1000 Ang^3
#
#
#
# Elastic Constant Matrix: (Units=GPa)
#
#
# Indices 1 2 3 4 5 6 
#
# 1 69.3983 14.7672 7.5484 -1.9320 -0.9825 39.9861
# 2 14.7672 86.1905 39.5654 -13.8130 9.4046 25.6966
# 3 7.5484 39.5654 108.0683 -21.1480 9.7101 11.3423
# 4 -1.9320 -13.8130 -21.1480 29.2580 1.7994 -1.4269
# 5 -0.9825 9.4046 9.7101 1.7994 33.2823 -5.5891
# 6 39.9861 25.6966 11.3423 -1.4269 -5.5891 42.9395
#
#
#
# Elastic Compliance Matrix: (Units=1/GPa)
#
#
# Indices 1 2 3 4 5 6 
#
# 1 0.033951 0.006181 0.000675 0.004325 -0.007270 -0.036296
# 2 0.006181 0.019142 -0.003759 0.006351 -0.007321 -0.016960
# 3 0.000675 -0.003759 0.012530 0.007438 -0.003289 -0.001869
# 4 0.004325 0.006351 0.007438 0.042857 -0.007728 -0.009374
# 5 -0.007270 -0.007321 -0.003289 -0.007728 0.036041 0.016454
# 6 -0.036296 -0.016960 -0.001869 -0.009374 0.016454 0.069561
#
#
# Mechanical properties :
#
#
# Convention : Reuss Voigt Hill
#
# Bulk Modulus (GPa) = 13.92456 43.04656 28.48556
# Shear Modulus (GPa) = 21.56771 34.54770 28.05771
#
# Velocity S-wave (km/s) = 3.00445 3.80253 3.42681
# Velocity P-wave (km/s) = 4.22652 6.10699 5.25161
#
# Compressibility (1/GPa) = 0.07181557
#
# Stress axis : x y z
#
# Youngs Moduli (GPa) = 29.45386 52.24133 79.80979
#
# Poissons Ratio (x) = -0.32289 -0.05384
# Poissons Ratio (y) = -0.18205 0.30002
# Poissons Ratio (z) = -0.01987 0.19638
#
# Static dielectric constant tensor:
#      x y z
#    x 4.515230 0.366780 -0.139430 
#    y 0.366780 4.450150 -0.163560 
#    z -0.139430 -0.163560 4.290440 
# 
# 
# High freq. dielectric constant tensor:
#      x y z
#    x 1.946090 0.027310 -0.003270 
#    y 0.027310 1.945920 -0.010320 
#    z -0.003270 -0.010320 1.936310 
# 
# From -- ./inp_files/433668.got.cif
#   From: 2010.06.25/outbox.cif.g09.slc.cpg/sg2_217_cif.got.tgz:433668.got - 2010.06.27 13:26:56.
