data_PCOD8044854
_publ_section_title
;
Structure prediction by ZEFSAII (Michael W. Deem and Ramdas Pophale) SiO2 
 PCOD8044854
Probable space group: P 2
;
_chemical_formula_sum "Si O2"
_cell_formula_units_Z 16
_cell_length_a 8.607538
_cell_length_b 9.363912
_cell_length_c 20.162926
_cell_angle_alpha 90.000000
_cell_angle_beta 31.372733
_cell_angle_gamma 90.000000
_cell_volume 846.051506
_symmetry_space_group_name_H-M "P 2"
_symmetry_group_IT_number 3
_symmetry_cell_setting 'monoclinic'
loop_
_space_group_symop_operation_xyz
x,y,z
-x,y,-z
loop_
_atom_site_type_symbol
_atom_site_label
_atom_site_fract_x
_atom_site_fract_y
_atom_site_fract_z
Si Si1 0.288302 0.531840 0.763746
Si Si2 0.320156 0.530832 0.500000
Si Si3 0.178359 0.830567 0.500000
Si Si4 0.656713 0.531840 0.763746
Si Si5 0.271217 0.855477 0.774713
Si Si6 0.682863 0.363016 0.000000
Si Si7 0.813772 0.049371 0.000000
Si Si8 0.629933 0.855477 0.774712
O O1 0.501109 0.468148 0.628399
O O2 0.467525 0.526771 0.766237
O O3 0.186780 0.694439 0.783083
O O4 0.000606 0.435232 0.874816
O O5 0.500000 0.490508 0.500000
O O6 0.297060 0.700501 0.500000
O O7 0.985295 0.468148 0.628399
O O8 0.467290 0.919095 0.369173
O O9 0.000000 0.770091 0.500000
O O10 0.943982 0.919095 0.630827
O O11 0.680889 0.694439 0.783083
O O12 0.500130 0.435232 0.874816
O O13 0.380816 0.844862 0.809592
O O14 0.993597 0.963054 0.877177
O O15 0.500000 0.379224 0.000000
O O16 0.730942 0.199493 0.000000
O O17 0.502303 0.963054 0.122824
O O18 0.000000 0.069851 0.000000
#
# Coordination Sequence:
#
# PCOD8044854 Si02
#       8
#     2   2   2   2   2   2   2   2
#     4  10  19  36  60  83 105 139 182 223 264 317
#     4  10  18  30  51  84 117 140 166 214 270 320
#     4   8  14  28  49  76 105 134 170 216 260 308
#     4  10  19  36  60  83 105 139 182 223 264 317
#     4   8  15  29  54  80 100 126 172 222 260 304
#     4  12  25  38  50  74 110 146 181 226 274 318
#     4  10  19  34  52  72 100 138 177 218 264 316
#     4   8  15  29  54  80 100 126 172 222 260 304
#
# _framework density 18.911377999999999
#
# number of rings (size 3 to 8) (size 9 to 14) (size 15 to 20)
#    0.000    2.500    0.000    5.250    0.000    2.000 
#    0.000    8.750    0.000    3.000    0.000    0.000 
#    0.000    0.000    0.000    0.000    0.000    0.000 
#
# Total GULP energy -198266.691831 kJ/mol
# GULP energy per Si atom -12391.668239 kJ/mol
# Density = 1.886834 g / cm^3
# Si number density = 18.911378 Si / 1000 Ang^3
#
#
#
# Elastic Constant Matrix: (Units=GPa)
#
#
# Indices 1 2 3 4 5 6 
#
# 1 81.7114 26.6280 47.1830 0.0000 0.0926 0.0000
# 2 26.6280 88.5636 79.3667 0.0000 0.4581 0.0000
# 3 47.1830 79.3667 213.6797 0.0000 1.0539 0.0000
# 4 0.0000 0.0000 0.0000 -0.5923 0.0000 -0.1160
# 5 0.0926 0.4581 1.0539 0.0000 22.5987 0.0000
# 6 0.0000 0.0000 0.0000 -0.1160 0.0000 12.7622
#
#
#
# Elastic Compliance Matrix: (Units=1/GPa)
#
#
# Indices 1 2 3 4 5 6 
#
# 1 0.014308 -0.002205 -0.002341 0.000000 0.000095 0.000000
# 2 -0.002205 0.017265 -0.005925 0.000000 -0.000065 0.000000
# 3 -0.002341 -0.005925 0.007399 0.000000 -0.000215 0.000000
# 4 0.000000 0.000000 0.000000 -1.685354 0.000000 -0.015316
# 5 0.000095 -0.000065 -0.000215 0.000000 0.044261 0.000000
# 6 0.000000 0.000000 0.000000 -0.015316 0.000000 0.078217
#
#
# Mechanical properties :
#
#
# Convention : Reuss Voigt Hill
#
# Bulk Modulus (GPa) = 55.46446 76.70112 66.08279
# Shear Modulus (GPa) = -3.34012 22.33886 9.49937
#
# Velocity S-wave (km/s) = -1.33043 3.44064 2.24366
# Velocity P-wave (km/s) = 5.19925 7.51201 6.45997
#
# Compressibility (1/GPa) = 0.01802956
#
# Stress axis : x y z
#
# Youngs Moduli (GPa) = 69.88938 57.92192 135.15717
#
# Poissons Ratio (x) = 0.12769 0.31642
# Poissons Ratio (y) = 0.15407 0.80087
# Poissons Ratio (z) = 0.16362 0.34321
#
# Static dielectric constant tensor:
#      x y z
#    x 3.205070 0.000000 0.007210 
#    y 0.000000 3.218420 0.000000 
#    z 0.007210 0.000000 4.034830 
# 
# 
# High freq. dielectric constant tensor:
#      x y z
#    x 1.710230 0.000000 0.000490 
#    y 0.000000 1.690920 0.000000 
#    z 0.000490 0.000000 1.766560 
# 
# From -- ./inp_files/15818.got.cif
#   From: 2010.03.12/outbox.cif.g09.slc.cpg/sg3_8_cif.got.tgz:15818.got - 2010.03.31 09:20:49.
