data_PCOD8044364
_publ_section_title
;
Structure prediction by ZEFSAII (Michael W. Deem and Ramdas Pophale) SiO2 
 PCOD8044364
Probable space group: P -1
;
_chemical_formula_sum "Si O2"
_cell_formula_units_Z 14
_cell_length_a 15.687533
_cell_length_b 10.202915
_cell_length_c 9.013736
_cell_angle_alpha 41.882959
_cell_angle_beta 63.930053
_cell_angle_gamma 46.585917
_cell_volume 691.860030
_symmetry_space_group_name_H-M "P -1"
_symmetry_group_IT_number 2
_symmetry_cell_setting 'triclinic'
loop_
_space_group_symop_operation_xyz
x,y,z
-x,-y,-z
loop_
_atom_site_type_symbol
_atom_site_label
_atom_site_fract_x
_atom_site_fract_y
_atom_site_fract_z
Si Si1 0.263986 0.082007 0.875446
Si Si2 0.847515 0.011041 0.729890
Si Si3 0.521876 0.465667 0.839059
Si Si4 0.707099 0.371962 0.295083
Si Si5 0.050918 0.226895 0.729157
Si Si6 0.070816 0.832506 0.861881
Si Si7 0.317187 0.459611 0.516395
O O1 0.185858 0.076122 0.812516
O O2 0.280702 0.286840 0.646104
O O3 0.193079 0.145084 0.033222
O O4 0.392412 0.823852 0.014207
O O5 0.795190 0.094285 0.533390
O O6 0.791294 0.255384 0.671130
O O7 0.988677 0.869448 0.753126
O O8 0.397539 0.593499 0.745200
O O9 0.574044 0.604440 0.616467
O O10 0.500000 0.500000 0.000000
O O11 0.793739 0.384786 0.107564
O O12 0.651634 0.570657 0.304576
O O13 0.000000 0.500000 0.500000
O O14 0.055322 0.082150 0.703696
O O15 0.961044 0.254400 0.897290
#
# Coordination Sequence:
#
# PCOD8044364 Si02
#       7
#     2   2   2   2   2   2   2
#     4  10  20  38  59  84 112 154 185 235 284 331
#     4   8  19  36  58  84 114 143 189 231 280 333
#     4  11  23  40  58  83 116 149 193 236 279 341
#     4  10  21  39  59  86 113 153 190 232 284 336
#     4  10  21  36  59  87 118 150 189 230 285 341
#     4  10  19  38  59  84 117 152 186 235 283 331
#     4   9  21  38  60  82 115 147 191 233 283 332
#
# _framework density 20.235305
#
# number of rings (size 3 to 8) (size 9 to 14) (size 15 to 20)
#    0.857    1.429    0.000    2.571    0.000    4.571 
#    2.571    1.429    0.000    0.000    0.000    0.000 
#    0.000    0.000    0.000    0.000    0.000    0.000 
#
# Total GULP energy -173483.015002 kJ/mol
# GULP energy per Si atom -12391.643929 kJ/mol
# Density = 2.018925 g / cm^3
# Si number density = 20.235305 Si / 1000 Ang^3
#
#
#
# Elastic Constant Matrix: (Units=GPa)
#
#
# Indices 1 2 3 4 5 6 
#
# 1 129.7495 32.4309 53.5346 14.6846 -10.8379 -16.0986
# 2 32.4309 58.4318 35.9760 21.0975 -16.5379 -3.3849
# 3 53.5346 35.9760 91.2441 4.4083 -16.5532 -1.4505
# 4 14.6846 21.0975 4.4083 34.3868 0.4446 -0.3011
# 5 -10.8379 -16.5379 -16.5532 0.4446 40.4512 3.2438
# 6 -16.0986 -3.3849 -1.4505 -0.3011 3.2438 25.5013
#
#
#
# Elastic Compliance Matrix: (Units=1/GPa)
#
#
# Indices 1 2 3 4 5 6 
#
# 1 0.011801 -0.001151 -0.006263 -0.003465 -0.000391 0.006949
# 2 -0.001151 0.033359 -0.009841 -0.018820 0.009371 0.001728
# 3 -0.006263 -0.009841 0.018535 0.006270 0.002168 -0.004407
# 4 -0.003465 -0.018820 0.006270 0.041358 -0.006267 -0.003043
# 5 -0.000391 0.009371 0.002168 -0.006267 0.029622 -0.002721
# 6 0.006949 0.001728 -0.004407 -0.003043 -0.002721 0.043889
#
#
# Mechanical properties :
#
#
# Convention : Reuss Voigt Hill
#
# Bulk Modulus (GPa) = 34.26386 58.14538 46.20462
# Shear Modulus (GPa) = 22.44146 30.56678 26.50412
#
# Velocity S-wave (km/s) = 3.33382 3.89082 3.62304
# Velocity P-wave (km/s) = 5.63814 6.99869 6.35493
#
# Compressibility (1/GPa) = 0.02918527
#
# Stress axis : x y z
#
# Youngs Moduli (GPa) = 84.74169 29.97657 53.95284
#
# Poissons Ratio (x) = 0.03449 0.33791
# Poissons Ratio (y) = 0.09750 0.53095
# Poissons Ratio (z) = 0.53074 0.29500
#
# Static dielectric constant tensor:
#      x y z
#    x 3.726610 -0.160040 -0.038260 
#    y -0.160040 3.378400 0.218400 
#    z -0.038260 0.218400 3.640550 
# 
# 
# High freq. dielectric constant tensor:
#      x y z
#    x 1.797080 -0.013810 -0.003390 
#    y -0.013810 1.757910 0.020760 
#    z -0.003390 0.020760 1.789650 
# 
# From -- ./inp_files/236604.got.cif
#   From: 2010.06.25/outbox.cif.g09.slc.cpg/sg2_119_cif.got.tgz:236604.got - 2010.06.27 13:26:56.
