data_PCOD8044116
_publ_section_title
;
Structure prediction by ZEFSAII (Michael W. Deem and Ramdas Pophale) SiO2 
 PCOD8044116
Probable space group: P -1
;
_chemical_formula_sum "Si O2"
_cell_formula_units_Z 16
_cell_length_a 10.904936
_cell_length_b 6.395902
_cell_length_c 13.978397
_cell_angle_alpha 91.233126
_cell_angle_beta 58.502094
_cell_angle_gamma 113.399476
_cell_volume 741.074513
_symmetry_space_group_name_H-M "P -1"
_symmetry_group_IT_number 2
_symmetry_cell_setting 'triclinic'
loop_
_space_group_symop_operation_xyz
x,y,z
-x,-y,-z
loop_
_atom_site_type_symbol
_atom_site_label
_atom_site_fract_x
_atom_site_fract_y
_atom_site_fract_z
Si Si1 0.155677 0.096589 0.660766
Si Si2 0.525208 0.804106 0.746157
Si Si3 0.812630 0.933433 0.852102
Si Si4 0.593974 0.891572 0.290873
Si Si5 0.098554 0.300036 0.341345
Si Si6 0.704390 0.576079 0.556808
Si Si7 0.310525 0.768453 0.185241
Si Si8 0.403850 0.348011 0.901134
O O1 0.286707 0.065785 0.669737
O O2 0.235804 0.344500 0.574672
O O3 0.007148 0.080988 0.787151
O O4 0.086825 0.885102 0.606648
O O5 0.606824 0.711768 0.634108
O O6 0.446218 0.617528 0.863265
O O7 0.395927 0.856565 0.738535
O O8 0.642235 0.058353 0.742547
O O9 0.784290 0.797619 0.759340
O O10 0.724056 0.102090 0.889945
O O11 0.742606 0.748809 0.965070
O O12 0.412086 0.701778 0.393885
O O13 0.652778 0.794640 0.175546
O O14 0.138736 0.344477 0.437660
O O15 0.140052 0.548490 0.277734
O O16 0.446696 0.680769 0.111569
#
# Coordination Sequence:
#
# PCOD8044116 Si02
#       8
#     2   2   2   2   2   2   2   2
#     4  10  24  42  58  87 132 151 195 248 296 357
#     4  10  19  37  64  85 116 154 207 243 289 335
#     4  10  23  38  59  90 125 155 190 246 311 341
#     4  10  22  41  62  90 113 162 205 238 291 357
#     4  10  21  38  58  91 123 149 196 244 300 349
#     4  11  19  43  65  86 117 157 202 250 287 353
#     4  11  18  38  61  92 118 154 199 243 295 358
#     4  10  21  38  65  87 119 155 203 247 285 356
#
# _framework density 21.590268999999999
#
# number of rings (size 3 to 8) (size 9 to 14) (size 15 to 20)
#    0.750    1.000    5.000    1.125    0.000    5.000 
#    6.750    1.875    0.000    0.000    0.000    0.000 
#    0.000    0.000    0.000    0.000    0.000    0.000 
#
# Total GULP energy -198251.861726 kJ/mol
# GULP energy per Si atom -12390.741358 kJ/mol
# Density = 2.154113 g / cm^3
# Si number density = 21.590269 Si / 1000 Ang^3
#
#
#
# Elastic Constant Matrix: (Units=GPa)
#
#
# Indices 1 2 3 4 5 6 
#
# 1 125.6027 36.4311 27.2650 -21.9815 15.7577 1.9921
# 2 36.4311 82.5382 25.6483 -33.3212 -0.5172 -18.3061
# 3 27.2650 25.6483 96.5372 -36.3116 -3.6383 -4.9593
# 4 -21.9815 -33.3212 -36.3116 29.3532 -5.0450 9.3086
# 5 15.7577 -0.5172 -3.6383 -5.0450 21.0199 -3.5213
# 6 1.9921 -18.3061 -4.9593 9.3086 -3.5213 20.1647
#
#
#
# Elastic Compliance Matrix: (Units=1/GPa)
#
#
# Indices 1 2 3 4 5 6 
#
# 1 0.012126 -0.007720 -0.003435 -0.002912 -0.012223 -0.009841
# 2 -0.007720 0.035143 0.012876 0.048512 0.023461 0.017535
# 3 -0.003435 0.012876 0.027013 0.048943 0.019220 -0.000565
# 4 -0.002912 0.048512 0.048943 0.158476 0.048489 -0.008325
# 5 -0.012223 0.023461 0.019220 0.048489 0.075293 0.017997
# 6 -0.009841 0.017535 -0.000565 -0.008325 0.017997 0.073329
#
#
# Mechanical properties :
#
#
# Convention : Reuss Voigt Hill
#
# Bulk Modulus (GPa) = 12.86612 53.70743 33.28677
# Shear Modulus (GPa) = 12.38094 28.46314 20.42204
#
# Velocity S-wave (km/s) = 2.39728 3.63482 3.07887
# Velocity P-wave (km/s) = 3.69253 6.52270 5.30002
#
# Compressibility (1/GPa) = 0.07772353
#
# Stress axis : x y z
#
# Youngs Moduli (GPa) = 82.46533 28.45555 37.01950
#
# Poissons Ratio (x) = 0.21967 0.12717
# Poissons Ratio (y) = 0.63660 -0.47666
# Poissons Ratio (z) = 0.28329 -0.36639
#
# Static dielectric constant tensor:
#      x y z
#    x 3.720290 -0.138490 0.087160 
#    y -0.138490 4.009650 -0.319970 
#    z 0.087160 -0.319970 3.636570 
# 
# 
# High freq. dielectric constant tensor:
#      x y z
#    x 1.825410 -0.008120 0.009640 
#    y -0.008120 1.846500 -0.025340 
#    z 0.009640 -0.025340 1.831200 
# 
# From -- ./inp_files/510891.got.cif
#   From: 2010.06.25/outbox.cif.g09.slc.cpg/sg2_256_cif.got.tgz:510891.got - 2010.06.27 13:26:56.
