data_PCOD8044625
_publ_section_title
;
Structure prediction by ZEFSAII (Michael W. Deem and Ramdas Pophale) SiO2 
 PCOD8044625
Probable space group: P -1
;
_chemical_formula_sum "Si O2"
_cell_formula_units_Z 16
_cell_length_a 11.035817
_cell_length_b 15.896041
_cell_length_c 15.430973
_cell_angle_alpha 39.497501
_cell_angle_beta 33.188057
_cell_angle_gamma 63.502690
_cell_volume 772.173281
_symmetry_space_group_name_H-M "P -1"
_symmetry_group_IT_number 2
_symmetry_cell_setting 'triclinic'
loop_
_space_group_symop_operation_xyz
x,y,z
-x,-y,-z
loop_
_atom_site_type_symbol
_atom_site_label
_atom_site_fract_x
_atom_site_fract_y
_atom_site_fract_z
Si Si1 0.531865 0.346895 0.709691
Si Si2 0.287479 0.961264 0.729802
Si Si3 0.267348 0.172198 0.178332
Si Si4 0.727202 0.197316 0.977258
Si Si5 0.300086 0.298329 0.708591
Si Si6 0.260529 0.233113 0.597447
Si Si7 0.413512 0.484904 0.933665
Si Si8 0.128672 0.489017 0.260551
O O1 0.447322 0.276545 0.718278
O O2 0.570890 0.518445 0.544235
O O3 0.804310 0.363084 0.561352
O O4 0.299476 0.228552 0.013387
O O5 0.402299 0.955756 0.759097
O O6 0.500000 0.000000 0.500000
O O7 0.228604 0.097038 0.662085
O O8 0.012564 0.788143 0.008808
O O9 0.519641 0.162965 0.053699
O O10 0.272846 0.300503 0.136205
O O11 0.000000 0.000000 0.500000
O O12 0.793097 0.342945 0.883350
O O13 0.998756 0.236361 0.739841
O O14 0.301764 0.205122 0.696019
O O15 0.524243 0.406334 0.274292
O O16 0.704957 0.564135 0.743247
O O17 0.211331 0.500065 0.102071
#
# Coordination Sequence:
#
# PCOD8044625 Si02
#       8
#     2   2   2   2   2   2   2   2
#     4  11  21  41  63  88 130 165 206 255 320 375
#     4  11  23  39  65  96 127 161 210 265 309 366
#     4  11  24  42  64  90 129 165 208 266 315 373
#     4  10  20  39  64  89 121 166 212 252 313 367
#     4  10  22  39  62  92 125 167 208 251 315 380
#     4  11  20  40  67  92 124 161 216 260 301 382
#     4  10  21  38  63  95 120 160 219 256 311 370
#     4  10  19  38  64  89 125 161 208 261 307 375
#
# _framework density 20.720737
#
# number of rings (size 3 to 8) (size 9 to 14) (size 15 to 20)
#    0.000    1.500    3.750    3.000    1.750    2.000 
#    4.500    1.250    0.000    0.000    0.000    0.000 
#    0.000    0.000    0.000    0.000    0.000    0.000 
#
# Total GULP energy -198308.269837 kJ/mol
# GULP energy per Si atom -12394.266865 kJ/mol
# Density = 2.067358 g / cm^3
# Si number density = 20.720737 Si / 1000 Ang^3
#
#
#
# Elastic Constant Matrix: (Units=GPa)
#
#
# Indices 1 2 3 4 5 6 
#
# 1 87.4623 24.0247 42.1458 -2.2899 0.7626 13.3119
# 2 24.0247 99.0632 49.3093 16.8540 1.0408 -0.3973
# 3 42.1458 49.3093 146.0228 1.9980 23.7710 10.4138
# 4 -2.2899 16.8540 1.9980 31.6444 3.0750 4.5769
# 5 0.7626 1.0408 23.7710 3.0750 28.0992 -1.2769
# 6 13.3119 -0.3973 10.4138 4.5769 -1.2769 25.0703
#
#
#
# Elastic Compliance Matrix: (Units=1/GPa)
#
#
# Indices 1 2 3 4 5 6 
#
# 1 0.014883 -0.002668 -0.003207 0.003575 0.001690 -0.007179
# 2 -0.002668 0.014999 -0.005471 -0.009214 0.005421 0.005885
# 3 -0.003207 -0.005471 0.011515 0.003556 -0.010038 -0.004328
# 4 0.003575 -0.009214 0.003556 0.038864 -0.007517 -0.010999
# 5 0.001690 0.005421 -0.010038 -0.007517 0.044975 0.007021
# 6 -0.007179 0.005885 -0.004328 -0.010999 0.007021 0.047957
#
#
# Mechanical properties :
#
#
# Convention : Reuss Voigt Hill
#
# Bulk Modulus (GPa) = 53.45860 62.61200 58.03530
# Shear Modulus (GPa) = 24.73776 31.43400 28.08588
#
# Velocity S-wave (km/s) = 3.45898 3.89913 3.68564
# Velocity P-wave (km/s) = 6.46594 7.11011 6.79566
#
# Compressibility (1/GPa) = 0.01870607
#
# Stress axis : x y z
#
# Youngs Moduli (GPa) = 67.18984 66.67046 86.84114
#
# Poissons Ratio (x) = 0.17787 0.27848
# Poissons Ratio (y) = 0.17926 0.47511
# Poissons Ratio (z) = 0.21546 0.36476
#
# Static dielectric constant tensor:
#      x y z
#    x 3.950940 0.053310 0.055200 
#    y 0.053310 3.706430 0.070480 
#    z 0.055200 0.070480 3.787210 
# 
# 
# High freq. dielectric constant tensor:
#      x y z
#    x 1.804810 0.002220 0.016930 
#    y 0.002220 1.801580 0.007470 
#    z 0.016930 0.007470 1.808690 
# 
# From -- ./inp_files/521537.got.cif
#   From: 2010.06.25/outbox.cif.g09.slc.cpg/sg2_261_cif.got.tgz:521537.got - 2010.06.27 13:26:56.
