data_PCOD8044504
_publ_section_title
;
Structure prediction by ZEFSAII (Michael W. Deem and Ramdas Pophale) SiO2 
 PCOD8044504
Probable space group: P -1
;
_chemical_formula_sum "Si O2"
_cell_formula_units_Z 14
_cell_length_a 8.907974
_cell_length_b 12.468548
_cell_length_c 20.510789
_cell_angle_alpha 38.875346
_cell_angle_beta 148.366867
_cell_angle_gamma 138.819521
_cell_volume 721.466432
_symmetry_space_group_name_H-M "P -1"
_symmetry_group_IT_number 2
_symmetry_cell_setting 'triclinic'
loop_
_space_group_symop_operation_xyz
x,y,z
-x,-y,-z
loop_
_atom_site_type_symbol
_atom_site_label
_atom_site_fract_x
_atom_site_fract_y
_atom_site_fract_z
Si Si1 0.282543 0.751982 0.363331
Si Si2 0.545649 0.823792 0.569807
Si Si3 0.681274 0.573494 0.967909
Si Si4 0.228331 0.068290 0.109236
Si Si5 0.088499 0.207688 0.452293
Si Si6 0.755197 0.401488 0.320521
Si Si7 0.881107 0.258971 0.218812
O O1 0.383768 0.792317 0.455743
O O2 0.558705 0.721065 0.438259
O O3 0.004904 0.583455 0.335760
O O4 0.195526 0.918491 0.222273
O O5 0.403476 0.655154 0.642687
O O6 0.898598 0.840870 0.686705
O O7 0.500000 0.000000 0.500000
O O8 0.858294 0.774455 0.956884
O O9 0.481163 0.569983 0.832480
O O10 0.500000 0.500000 0.000000
O O11 0.886683 0.439321 0.095282
O O12 0.552672 0.124975 0.168281
O O13 0.000000 0.000000 0.000000
O O14 0.904884 0.245361 0.428479
O O15 0.000797 0.317822 0.307982
O O16 0.000000 0.000000 0.500000
#
# Coordination Sequence:
#
# PCOD8044504 Si02
#       7
#     2   2   2   2   2   2   2
#     4  11  23  38  60  93 123 155 209 258 304 357
#     4  11  25  41  63  86 127 170 201 246 312 373
#     4  10  19  38  62  86 121 158 202 253 305 354
#     4  11  21  37  65  94 120 154 208 261 302 360
#     4  11  19  37  62  88 120 159 205 252 300 357
#     4  12  22  39  62  90 124 162 202 255 306 367
#     4  10  21  39  62  91 120 160 209 247 306 365
#
# _framework density 19.404921999999999
#
# number of rings (size 3 to 8) (size 9 to 14) (size 15 to 20)
#    0.000    1.143    4.286    5.143    0.000    0.571 
#    0.000    1.429    0.000    3.429    0.000    0.000 
#    0.000    0.000    0.000    0.000    0.000    0.000 
#
# Total GULP energy -173556.316782 kJ/mol
# GULP energy per Si atom -12396.879770 kJ/mol
# Density = 1.936076 g / cm^3
# Si number density = 19.404922 Si / 1000 Ang^3
#
#
#
# Elastic Constant Matrix: (Units=GPa)
#
#
# Indices 1 2 3 4 5 6 
#
# 1 91.4840 35.2524 49.7413 -5.4999 0.1802 1.6905
# 2 35.2524 131.5583 67.8111 -1.5121 4.9002 1.3854
# 3 49.7413 67.8111 138.8661 -6.8660 -12.3094 -6.2622
# 4 -5.4999 -1.5121 -6.8660 35.8128 -2.2878 -1.1238
# 5 0.1802 4.9002 -12.3094 -2.2878 36.3174 -4.6544
# 6 1.6905 1.3854 -6.2622 -1.1238 -4.6544 31.9118
#
#
#
# Elastic Compliance Matrix: (Units=1/GPa)
#
#
# Indices 1 2 3 4 5 6 
#
# 1 0.014009 -0.001324 -0.004539 0.001068 -0.001589 -0.001770
# 2 -0.001324 0.010809 -0.005260 -0.001045 -0.003555 -0.001987
# 3 -0.004539 -0.005260 0.012138 0.001872 0.005440 0.003710
# 4 0.001068 -0.001045 0.001872 0.028636 0.002801 0.001773
# 5 -0.001589 -0.003555 0.005440 0.002801 0.030798 0.005897
# 6 -0.001770 -0.001987 0.003710 0.001773 0.005897 0.033167
#
#
# Mechanical properties :
#
#
# Convention : Reuss Voigt Hill
#
# Bulk Modulus (GPa) = 67.98748 74.16867 71.07808
# Shear Modulus (GPa) = 31.90659 34.74865 33.32762
#
# Velocity S-wave (km/s) = 4.05934 4.23627 4.14875
# Velocity P-wave (km/s) = 7.55534 7.88876 7.72385
#
# Compressibility (1/GPa) = 0.01470859
#
# Stress axis : x y z
#
# Youngs Moduli (GPa) = 71.38158 92.51834 82.38693
#
# Poissons Ratio (x) = 0.12250 0.37398
# Poissons Ratio (y) = 0.09451 0.43337
# Poissons Ratio (z) = 0.32402 0.48667
#
# Static dielectric constant tensor:
#      x y z
#    x 3.704040 0.004240 0.088300 
#    y 0.004240 3.656060 -0.335650 
#    z 0.088300 -0.335650 4.198770 
# 
# 
# High freq. dielectric constant tensor:
#      x y z
#    x 1.739750 0.003600 -0.006790 
#    y 0.003600 1.752990 -0.011680 
#    z -0.006790 -0.011680 1.774910 
# 
# From -- ./inp_files/198412.got.cif
#   From: 2010.06.25/outbox.cif.g09.slc.cpg/sg2_100_cif.got.tgz:198412.got - 2010.06.27 13:26:56.
