data_PCOD8044462
_publ_section_title
;
Structure prediction by ZEFSAII (Michael W. Deem and Ramdas Pophale) SiO2 
 PCOD8044462
Probable space group: P -1
;
_chemical_formula_sum "Si O2"
_cell_formula_units_Z 16
_cell_length_a 18.905505
_cell_length_b 11.047347
_cell_length_c 9.116197
_cell_angle_alpha 138.489354
_cell_angle_beta 51.871149
_cell_angle_gamma 147.003365
_cell_volume 686.905986
_symmetry_space_group_name_H-M "P -1"
_symmetry_group_IT_number 2
_symmetry_cell_setting 'triclinic'
loop_
_space_group_symop_operation_xyz
x,y,z
-x,-y,-z
loop_
_atom_site_type_symbol
_atom_site_label
_atom_site_fract_x
_atom_site_fract_y
_atom_site_fract_z
Si Si1 0.052614 0.845453 0.458381
Si Si2 0.559486 0.851330 0.694504
Si Si3 0.315958 0.353761 0.689038
Si Si4 0.081279 0.479406 0.143944
Si Si5 0.279825 0.795029 0.923277
Si Si6 0.300078 0.638175 0.188370
Si Si7 0.157451 0.964309 0.116300
Si Si8 0.240945 0.470784 0.433021
O O1 0.068075 0.675995 0.368418
O O2 0.913611 0.726173 0.560871
O O3 0.166807 0.147747 0.640802
O O4 0.065637 0.840768 0.263824
O O5 0.405664 0.585166 0.660597
O O6 0.638602 0.789040 0.483538
O O7 0.589900 0.057536 0.729403
O O8 0.599240 0.971012 0.917421
O O9 0.326676 0.476965 0.940113
O O10 0.155633 0.496861 0.201045
O O11 0.164165 0.564683 0.968764
O O12 0.937669 0.184420 0.038465
O O13 0.309869 0.672829 0.663894
O O14 0.242607 0.907220 0.966156
O O15 0.311839 0.640531 0.349328
O O16 0.257954 0.278548 0.257619
#
# Coordination Sequence:
#
# PCOD8044462 Si02
#       8
#     2   2   2   2   2   2   2   2
#     4  11  20  38  64  97 121 162 210 255 306 365
#     4  10  23  44  71  90 113 167 218 266 293 351
#     4  11  22  41  70  92 119 160 219 258 302 360
#     4  10  19  38  61  89 127 162 208 253 302 363
#     4  10  20  39  62  91 119 160 215 256 301 357
#     4  11  25  41  58  99 129 163 199 254 321 372
#     4  11  20  36  59  93 126 164 209 250 301 371
#     4  12  25  36  63  96 134 166 189 251 330 376
#
# _framework density 23.292854999999999
#
# number of rings (size 3 to 8) (size 9 to 14) (size 15 to 20)
#    0.000    1.250    6.250    2.250    3.500    3.500 
#    0.000    0.625    0.000    2.250    0.000    0.000 
#    0.000    0.000    0.000    0.000    0.000    0.000 
#
# Total GULP energy -198402.419141 kJ/mol
# GULP energy per Si atom -12400.151196 kJ/mol
# Density = 2.323984 g / cm^3
# Si number density = 23.292855 Si / 1000 Ang^3
#
#
#
# Elastic Constant Matrix: (Units=GPa)
#
#
# Indices 1 2 3 4 5 6 
#
# 1 45.9383 12.1201 19.4252 5.0265 1.1585 -10.6689
# 2 12.1201 61.6278 35.4307 14.6015 -1.9975 3.9745
# 3 19.4252 35.4307 99.3234 26.5577 -2.5168 -10.3872
# 4 5.0265 14.6015 26.5577 26.3917 -7.4661 -4.3969
# 5 1.1585 -1.9975 -2.5168 -7.4661 15.4148 2.9010
# 6 -10.6689 3.9745 -10.3872 -4.3969 2.9010 21.4168
#
#
#
# Elastic Compliance Matrix: (Units=1/GPa)
#
#
# Indices 1 2 3 4 5 6 
#
# 1 0.027601 -0.005433 -0.002341 0.000999 -0.005417 0.014561
# 2 -0.005433 0.023609 -0.006738 -0.006872 0.001286 -0.011941
# 3 -0.002341 -0.006738 0.017074 -0.013554 -0.005669 0.006350
# 4 0.000999 -0.006872 -0.013554 0.063461 0.026690 0.004613
# 5 -0.005417 0.001286 -0.005669 0.026690 0.079514 -0.010978
# 6 0.014561 -0.011941 0.006350 0.004613 -0.010978 0.061676
#
#
# Mechanical properties :
#
#
# Convention : Reuss Voigt Hill
#
# Bulk Modulus (GPa) = 25.47203 37.87127 31.67165
# Shear Modulus (GPa) = 15.87072 21.97222 18.92147
#
# Velocity S-wave (km/s) = 2.61311 3.07466 2.85323
# Velocity P-wave (km/s) = 4.47926 5.37575 4.94785
#
# Compressibility (1/GPa) = 0.03925875
#
# Stress axis : x y z
#
# Youngs Moduli (GPa) = 36.23054 42.35734 58.56857
#
# Poissons Ratio (x) = 0.23015 0.13713
# Poissons Ratio (y) = 0.19686 0.39461
# Poissons Ratio (z) = 0.08483 0.28539
#
# Static dielectric constant tensor:
#      x y z
#    x 4.128680 0.041390 -0.205740 
#    y 0.041390 3.933230 0.305540 
#    z -0.205740 0.305540 4.207410 
# 
# 
# High freq. dielectric constant tensor:
#      x y z
#    x 1.914550 0.006200 -0.016200 
#    y 0.006200 1.897460 0.028250 
#    z -0.016200 0.028250 1.922050 
# 
# From -- ./inp_files/346448.got.cif
#   From: 2010.06.25/outbox.cif.g09.slc.cpg/sg2_174_cif.got.tgz:346448.got - 2010.06.27 13:26:56.
