data_PCOD8044682
_publ_section_title
;
Structure prediction by ZEFSAII (Michael W. Deem and Ramdas Pophale) SiO2 
 PCOD8044682
Probable space group: P -1
;
_chemical_formula_sum "Si O2"
_cell_formula_units_Z 14
_cell_length_a 8.499316
_cell_length_b 11.832822
_cell_length_c 13.385054
_cell_angle_alpha 102.271674
_cell_angle_beta 32.689234
_cell_angle_gamma 93.700234
_cell_volume 693.541738
_symmetry_space_group_name_H-M "P -1"
_symmetry_group_IT_number 2
_symmetry_cell_setting 'triclinic'
loop_
_space_group_symop_operation_xyz
x,y,z
-x,-y,-z
loop_
_atom_site_type_symbol
_atom_site_label
_atom_site_fract_x
_atom_site_fract_y
_atom_site_fract_z
Si Si1 0.082327 0.191025 0.244661
Si Si2 0.165995 0.552307 0.156348
Si Si3 0.818467 0.910861 0.620529
Si Si4 0.232811 0.609341 0.679795
Si Si5 0.634432 0.256273 0.037933
Si Si6 0.322057 0.313050 0.413431
Si Si7 0.846035 0.017203 0.978103
O O1 0.006806 0.156384 0.390246
O O2 0.427263 0.207359 0.057907
O O3 0.862578 0.314508 0.354960
O O4 0.010813 0.090328 0.190711
O O5 0.044393 0.447257 0.145140
O O6 0.950042 0.589367 0.375662
O O7 0.500000 0.500000 0.000000
O O8 0.161751 0.662236 0.105124
O O9 0.771734 0.813228 0.545393
O O10 0.498860 0.989209 0.834556
O O11 0.000000 0.000000 0.500000
O O12 0.500000 0.500000 0.500000
O O13 0.354043 0.691750 0.710192
O O14 0.393152 0.329566 0.260952
O O15 0.862679 0.145757 0.947131
O O16 0.000000 0.000000 0.000000
#
# Coordination Sequence:
#
# PCOD8044682 Si02
#       7
#     2   2   2   2   2   2   2
#     4  10  19  38  65  84 123 160 198 252 310 358
#     4  11  22  38  65  91 115 167 213 246 295 371
#     4  10  22  38  60  94 117 160 204 245 306 370
#     4  10  21  41  60  86 126 162 200 253 311 351
#     4  10  21  39  62  94 117 162 206 245 314 363
#     4   9  22  40  59  85 132 150 201 262 302 353
#     4  10  21  39  62  88 124 154 195 260 313 359
#
# _framework density 20.186242
#
# number of rings (size 3 to 8) (size 9 to 14) (size 15 to 20)
#    0.000    2.286    1.429    3.429    4.000    1.143 
#    7.714    1.429    0.000    0.000    0.000    0.000 
#    0.000    0.000    0.000    0.000    0.000    0.000 
#
# Total GULP energy -173435.106596 kJ/mol
# GULP energy per Si atom -12388.221900 kJ/mol
# Density = 2.014030 g / cm^3
# Si number density = 20.186242 Si / 1000 Ang^3
#
#
#
# Elastic Constant Matrix: (Units=GPa)
#
#
# Indices 1 2 3 4 5 6 
#
# 1 133.6854 81.4028 31.2305 -2.0637 -12.7962 4.4942
# 2 81.4028 171.5812 49.0915 -19.0181 -10.2166 -5.5448
# 3 31.2305 49.0915 72.4849 -3.0994 -4.1538 -0.7369
# 4 -2.0637 -19.0181 -3.0994 38.2887 0.9172 -9.5881
# 5 -12.7962 -10.2166 -4.1538 0.9172 28.7989 3.9620
# 6 4.4942 -5.5448 -0.7369 -9.5881 3.9620 45.0050
#
#
#
# Elastic Compliance Matrix: (Units=1/GPa)
#
#
# Indices 1 2 3 4 5 6 
#
# 1 0.011328 -0.005194 -0.001313 -0.002835 0.003463 -0.002702
# 2 -0.005194 0.010228 -0.004434 0.005137 0.000134 0.002789
# 3 -0.001313 -0.004434 0.017344 -0.000974 0.000428 -0.000376
# 4 -0.002835 0.005137 -0.000974 0.030355 -0.001577 0.007506
# 5 0.003463 0.000134 0.000428 -0.001577 0.036960 -0.003912
# 6 -0.002702 0.002789 -0.000376 0.007506 -0.003912 0.024770
#
#
# Mechanical properties :
#
#
# Convention : Reuss Voigt Hill
#
# Bulk Modulus (GPa) = 58.76087 77.91125 68.33606
# Shear Modulus (GPa) = 31.53766 36.82030 34.17898
#
# Velocity S-wave (km/s) = 3.95693 4.27550 4.11929
# Velocity P-wave (km/s) = 7.07453 7.94060 7.52004
#
# Compressibility (1/GPa) = 0.01701813
#
# Stress axis : x y z
#
# Youngs Moduli (GPa) = 88.27397 97.76741 57.65773
#
# Poissons Ratio (x) = 0.50781 0.07573
# Poissons Ratio (y) = 0.45850 0.25564
# Poissons Ratio (z) = 0.11594 0.43348
#
# Static dielectric constant tensor:
#      x y z
#    x 4.250800 0.538800 -0.152790 
#    y 0.538800 4.295580 -0.177950 
#    z -0.152790 -0.177950 3.489710 
# 
# 
# High freq. dielectric constant tensor:
#      x y z
#    x 1.790380 0.013580 -0.011610 
#    y 0.013580 1.803030 0.005270 
#    z -0.011610 0.005270 1.755830 
# 
# From -- ./inp_files/342931.got.cif
#   From: 2010.06.25/outbox.cif.g09.slc.cpg/sg2_172_cif.got.tgz:342931.got - 2010.06.27 13:26:56.
