data_PCOD8044140
_publ_section_title
;
Structure prediction by ZEFSAII (Michael W. Deem and Ramdas Pophale) SiO2 
 PCOD8044140
Probable space group: P -1
;
_chemical_formula_sum "Si O2"
_cell_formula_units_Z 16
_cell_length_a 11.823800
_cell_length_b 9.028414
_cell_length_c 11.699353
_cell_angle_alpha 108.111674
_cell_angle_beta 99.582536
_cell_angle_gamma 130.569669
_cell_volume 775.279729
_symmetry_space_group_name_H-M "P -1"
_symmetry_group_IT_number 2
_symmetry_cell_setting 'triclinic'
loop_
_space_group_symop_operation_xyz
x,y,z
-x,-y,-z
loop_
_atom_site_type_symbol
_atom_site_label
_atom_site_fract_x
_atom_site_fract_y
_atom_site_fract_z
Si Si1 0.195153 0.938494 0.851276
Si Si2 0.911704 0.802605 0.348231
Si Si3 0.637901 0.004397 0.519833
Si Si4 0.985295 0.538492 0.373696
Si Si5 0.123233 0.172936 0.295346
Si Si6 0.451226 0.614718 0.567315
Si Si7 0.386427 0.264195 0.756621
Si Si8 0.649648 0.746800 0.840038
O O1 0.142203 0.705626 0.773819
O O2 0.029788 0.874456 0.783946
O O3 0.348636 0.132688 0.834459
O O4 0.263986 0.034178 0.013994
O O5 0.896001 0.615681 0.357148
O O6 0.731311 0.700769 0.263749
O O7 0.000000 0.000000 0.500000
O O8 0.044404 0.945848 0.297577
O O9 0.591038 0.873205 0.598612
O O10 0.627433 0.871079 0.382421
O O11 0.500000 0.000000 0.500000
O O12 0.827920 0.273078 0.611199
O O13 0.000000 0.500000 0.500000
O O14 0.247924 0.418282 0.450340
O O15 0.211548 0.186329 0.204754
O O16 0.500000 0.500000 0.500000
O O17 0.487606 0.656335 0.719552
O O18 0.579812 0.532368 0.855112
#
# Coordination Sequence:
#
# PCOD8044140 Si02
#       8
#     2   2   2   2   2   2   2   2
#     4  11  24  41  62  96 132 167 205 264 329 376
#     4  11  21  38  64  90 125 163 216 262 309 373
#     4  12  23  39  63  99 126 158 215 275 315 363
#     4  12  23  40  62  94 129 164 212 264 319 377
#     4  10  20  39  66  94 120 169 222 258 304 381
#     4  10  19  37  64  91 120 161 216 258 303 367
#     4  11  22  42  64  92 125 169 215 261 314 384
#     4  11  22  39  67  93 131 164 214 260 320 383
#
# _framework density 20.637713000000002
#
# number of rings (size 3 to 8) (size 9 to 14) (size 15 to 20)
#    0.000    1.000    5.000    4.500    0.000    1.000 
#    0.000    3.125    2.750    0.000    0.000    0.000 
#    0.000    0.000    0.000    0.000    0.000    0.000 
#
# Total GULP energy -198225.873517 kJ/mol
# GULP energy per Si atom -12389.117095 kJ/mol
# Density = 2.059074 g / cm^3
# Si number density = 20.637713 Si / 1000 Ang^3
#
#
#
# Elastic Constant Matrix: (Units=GPa)
#
#
# Indices 1 2 3 4 5 6 
#
# 1 79.1811 46.7382 29.2269 0.3805 -14.2200 -2.5471
# 2 46.7382 161.1151 52.5283 9.4999 -13.6115 -1.0056
# 3 29.2269 52.5283 149.8880 8.6922 -3.3763 -4.2118
# 4 0.3805 9.4999 8.6922 22.6310 -5.4847 -4.3690
# 5 -14.2200 -13.6115 -3.3763 -5.4847 22.0670 0.2048
# 6 -2.5471 -1.0056 -4.2118 -4.3690 0.2048 36.8647
#
#
#
# Elastic Compliance Matrix: (Units=1/GPa)
#
#
# Indices 1 2 3 4 5 6 
#
# 1 0.017418 -0.003827 -0.002072 0.004727 0.009708 0.001369
# 2 -0.003827 0.008245 -0.001985 -0.002318 0.001745 -0.000551
# 3 -0.002072 -0.001985 0.007887 -0.002565 -0.001994 0.000411
# 4 0.004727 -0.002318 -0.002565 0.050528 0.013728 0.005882
# 5 0.009708 0.001745 -0.001994 0.013728 0.055739 0.001808
# 6 0.001369 -0.000551 0.000411 0.005882 0.001808 0.027940
#
#
# Mechanical properties :
#
#
# Convention : Reuss Voigt Hill
#
# Bulk Modulus (GPa) = 56.23949 71.90789 64.07369
# Shear Modulus (GPa) = 26.39195 33.75860 30.07528
#
# Velocity S-wave (km/s) = 3.57994 4.04886 3.82160
# Velocity P-wave (km/s) = 6.66318 7.53500 7.11246
#
# Compressibility (1/GPa) = 0.01778110
#
# Stress axis : x y z
#
# Youngs Moduli (GPa) = 57.41177 121.28962 126.79648
#
# Poissons Ratio (x) = 0.46420 0.26273
# Poissons Ratio (y) = 0.21973 0.25167
# Poissons Ratio (z) = 0.11896 0.24074
#
# Static dielectric constant tensor:
#      x y z
#    x 4.377140 0.250550 0.854310 
#    y 0.250550 3.966230 -0.022030 
#    z 0.854310 -0.022030 4.543840 
# 
# 
# High freq. dielectric constant tensor:
#      x y z
#    x 1.801800 0.016210 -0.001390 
#    y 0.016210 1.834010 0.001220 
#    z -0.001390 0.001220 1.781030 
# 
# From -- ./inp_files/257359.got.cif
#   From: 2010.06.25/outbox.cif.g09.slc.cpg/sg2_129_cif.got.tgz:257359.got - 2010.06.27 13:26:56.
