data_PCOD8044362
_publ_section_title
;
Structure prediction by ZEFSAII (Michael W. Deem and Ramdas Pophale) SiO2 
 PCOD8044362
Probable space group: P -1
;
_chemical_formula_sum "Si O2"
_cell_formula_units_Z 16
_cell_length_a 24.841845
_cell_length_b 8.036080
_cell_length_c 11.088282
_cell_angle_alpha 107.904626
_cell_angle_beta 157.742900
_cell_angle_gamma 71.077146
_cell_volume 792.941331
_symmetry_space_group_name_H-M "P -1"
_symmetry_group_IT_number 2
_symmetry_cell_setting 'triclinic'
loop_
_space_group_symop_operation_xyz
x,y,z
-x,-y,-z
loop_
_atom_site_type_symbol
_atom_site_label
_atom_site_fract_x
_atom_site_fract_y
_atom_site_fract_z
Si Si1 0.712029 0.333795 0.153220
Si Si2 0.898181 0.653392 0.259640
Si Si3 0.911427 0.988594 0.513511
Si Si4 0.848630 0.782997 0.929436
Si Si5 0.534747 0.788418 0.252585
Si Si6 0.727262 0.626934 0.431898
Si Si7 0.675175 0.880355 0.159851
Si Si8 0.638126 0.582575 0.846785
O O1 0.812340 0.157138 0.296161
O O2 0.761357 0.438376 0.396682
O O3 0.548618 0.294888 0.829264
O O4 0.727133 0.447607 0.091459
O O5 0.000000 0.500000 0.500000
O O6 0.932993 0.841952 0.422336
O O7 0.914455 0.661614 0.150275
O O8 0.735785 0.618163 0.943401
O O9 0.833891 0.913749 0.451444
O O10 0.065521 0.048992 0.879063
O O11 0.681305 0.856299 0.624044
O O12 0.858266 0.661889 0.801142
O O13 0.582509 0.640283 0.216760
O O14 0.429540 0.941021 0.004368
O O15 0.699724 0.786613 0.316737
O O16 0.598548 0.763460 0.877866
O O17 0.500000 0.500000 0.500000
#
# Coordination Sequence:
#
# PCOD8044362 Si02
#       8
#     2   2   2   2   2   2   2   2
#     4  10  19  38  59  80 113 149 179 229 279 327
#     4  11  23  41  57  78 113 147 184 230 282 328
#     4  10  22  38  58  79 108 149 185 224 280 326
#     4  10  22  36  57  85 110 145 189 226 270 329
#     4   9  19  34  57  85 111 142 184 221 275 324
#     4   9  20  35  60  83 114 143 187 222 277 325
#     4   9  19  37  57  81 116 147 178 227 277 324
#     4  10  21  35  57  85 109 145 188 228 272 323
#
# _framework density 20.178038000000001
#
# number of rings (size 3 to 8) (size 9 to 14) (size 15 to 20)
#    0.750    1.500    0.000    2.625    0.000    3.000 
#    0.000    6.250    0.000    0.000    0.000    0.000 
#    0.000    0.000    0.000    0.000    0.000    0.000 
#
# Total GULP energy -198288.375381 kJ/mol
# GULP energy per Si atom -12393.023461 kJ/mol
# Density = 2.013211 g / cm^3
# Si number density = 20.178038 Si / 1000 Ang^3
#
#
#
# Elastic Constant Matrix: (Units=GPa)
#
#
# Indices 1 2 3 4 5 6 
#
# 1 58.5207 19.2877 33.6883 8.7006 -3.7252 0.5981
# 2 19.2877 103.1437 33.8161 12.1234 -8.8418 -6.0320
# 3 33.6883 33.8161 119.6840 30.5456 1.7953 -1.0736
# 4 8.7006 12.1234 30.5456 33.7013 10.2530 -0.4515
# 5 -3.7252 -8.8418 1.7953 10.2530 25.8205 8.4429
# 6 0.5981 -6.0320 -1.0736 -0.4515 8.4429 24.3808
#
#
#
# Elastic Compliance Matrix: (Units=1/GPa)
#
#
# Indices 1 2 3 4 5 6 
#
# 1 0.021188 -0.001902 -0.005146 -0.001442 0.004220 -0.002705
# 2 -0.001902 0.011554 -0.001935 -0.003353 0.004789 0.001100
# 3 -0.005146 -0.001935 0.012953 -0.010339 0.002020 -0.000673
# 4 -0.001442 -0.003353 -0.010339 0.047345 -0.021782 0.007170
# 5 0.004220 0.004789 0.002020 -0.021782 0.055523 -0.018460
# 6 -0.002705 0.001100 -0.000673 0.007170 -0.018460 0.047850
#
#
# Mechanical properties :
#
#
# Convention : Reuss Voigt Hill
#
# Bulk Modulus (GPa) = 36.06396 50.54807 43.30602
# Shear Modulus (GPa) = 22.35912 29.75095 26.05504
#
# Velocity S-wave (km/s) = 3.33241 3.84399 3.59731
# Velocity P-wave (km/s) = 5.71999 6.69381 6.22597
#
# Compressibility (1/GPa) = 0.02772851
#
# Stress axis : x y z
#
# Youngs Moduli (GPa) = 47.19668 86.54741 77.20207
#
# Poissons Ratio (x) = 0.16460 0.39729
# Poissons Ratio (y) = 0.08976 0.14942
# Poissons Ratio (z) = 0.24288 0.16750
#
# Static dielectric constant tensor:
#      x y z
#    x 3.772280 0.083520 0.175170 
#    y 0.083520 3.563380 0.179720 
#    z 0.175170 0.179720 3.504060 
# 
# 
# High freq. dielectric constant tensor:
#      x y z
#    x 1.795690 0.007480 0.013170 
#    y 0.007480 1.780910 0.009340 
#    z 0.013170 0.009340 1.775640 
# 
# From -- ./inp_files/476391.got.cif
#   From: 2010.06.25/outbox.cif.g09.slc.cpg/sg2_239_cif.got.tgz:476391.got - 2010.06.27 13:26:56.
