data_PCOD8044391
_publ_section_title
;
Structure prediction by ZEFSAII (Michael W. Deem and Ramdas Pophale) SiO2 
 PCOD8044391
Probable space group: P -1
;
_chemical_formula_sum "Si O2"
_cell_formula_units_Z 14
_cell_length_a 8.792323
_cell_length_b 8.919282
_cell_length_c 14.261072
_cell_angle_alpha 53.629892
_cell_angle_beta 88.018533
_cell_angle_gamma 119.386382
_cell_volume 695.057526
_symmetry_space_group_name_H-M "P -1"
_symmetry_group_IT_number 2
_symmetry_cell_setting 'triclinic'
loop_
_space_group_symop_operation_xyz
x,y,z
-x,-y,-z
loop_
_atom_site_type_symbol
_atom_site_label
_atom_site_fract_x
_atom_site_fract_y
_atom_site_fract_z
Si Si1 0.600843 0.638161 0.174333
Si Si2 0.823503 0.324228 0.140930
Si Si3 0.882199 0.527726 0.256720
Si Si4 0.698080 0.002657 0.889520
Si Si5 0.217211 0.694481 0.464492
Si Si6 0.483435 0.169130 0.738868
Si Si7 0.577032 0.777957 0.794242
O O1 0.781358 0.638227 0.182009
O O2 0.523221 0.640692 0.276637
O O3 0.425845 0.407885 0.201985
O O4 0.669055 0.883763 0.033987
O O5 0.903554 0.396067 0.219846
O O6 0.647755 0.338320 0.135039
O O7 0.730555 0.049517 0.219974
O O8 0.000000 0.500000 0.000000
O O9 0.760170 0.344579 0.412939
O O10 0.092762 0.737621 0.216156
O O11 0.542297 0.044140 0.853664
O O12 0.682118 0.827877 0.874366
O O13 0.359846 0.677711 0.404211
O O14 0.000000 0.500000 0.500000
O O15 0.297777 0.967640 0.356728
#
# Coordination Sequence:
#
# PCOD8044391 Si02
#       7
#     2   2   2   2   2   2   2
#     4  11  22  35  55  93 121 143 196 244 300 333
#     4   9  19  35  55  87 117 146 193 231 286 347
#     4  11  21  36  65  85 114 158 192 246 287 335
#     4  10  19  38  60  83 117 163 191 230 292 355
#     4  10  19  42  64  79 114 155 210 228 283 356
#     4  10  22  38  60  84 117 162 189 239 286 348
#     4   9  21  37  61  84 116 160 190 241 288 342
#
# _framework density 20.142218
#
# number of rings (size 3 to 8) (size 9 to 14) (size 15 to 20)
#    0.000    2.286    2.857    2.143    0.000    8.000 
#    0.000    2.143    0.000    0.000    0.000    0.000 
#    0.000    0.000    0.000    0.000    0.000    0.000 
#
# Total GULP energy -173493.661562 kJ/mol
# GULP energy per Si atom -12392.404397 kJ/mol
# Density = 2.009637 g / cm^3
# Si number density = 20.142218 Si / 1000 Ang^3
#
#
#
# Elastic Constant Matrix: (Units=GPa)
#
#
# Indices 1 2 3 4 5 6 
#
# 1 38.9707 47.0440 30.4805 -5.6597 -12.5352 0.1114
# 2 47.0440 165.0987 35.5655 7.1286 -28.3596 -13.0886
# 3 30.4805 35.5655 118.0154 13.8925 -24.3746 -0.7374
# 4 -5.6597 7.1286 13.8925 33.1342 5.7184 -4.4001
# 5 -12.5352 -28.3596 -24.3746 5.7184 31.9255 1.1360
# 6 0.1114 -13.0886 -0.7374 -4.4001 1.1360 34.9898
#
#
#
# Elastic Compliance Matrix: (Units=1/GPa)
#
#
# Indices 1 2 3 4 5 6 
#
# 1 0.054430 -0.014582 -0.012722 0.018067 -0.004407 -0.003481
# 2 -0.014582 0.011513 0.002740 -0.007016 0.007734 0.003277
# 3 -0.012722 0.002740 0.014293 -0.010564 0.010254 -0.000295
# 4 0.018067 -0.007016 -0.010564 0.042152 -0.014857 0.002878
# 5 -0.004407 0.007734 0.010254 -0.014857 0.046962 -0.000270
# 6 -0.003481 0.003277 -0.000295 0.002878 -0.000270 0.030181
#
#
# Mechanical properties :
#
#
# Convention : Reuss Voigt Hill
#
# Bulk Modulus (GPa) = 32.14603 60.91832 46.53218
# Shear Modulus (GPa) = 19.30290 33.94287 26.62289
#
# Velocity S-wave (km/s) = 3.09905 4.10952 3.63953
# Velocity P-wave (km/s) = 5.36653 7.26824 6.38854
#
# Compressibility (1/GPa) = 0.03110804
#
# Stress axis : x y z
#
# Youngs Moduli (GPa) = 18.37226 86.85845 69.96363
#
# Poissons Ratio (x) = 1.26657 0.89010
# Poissons Ratio (y) = 0.26791 -0.19172
# Poissons Ratio (z) = 0.23374 -0.23802
#
# Static dielectric constant tensor:
#      x y z
#    x 3.267290 0.076870 -0.132900 
#    y 0.076870 4.288440 0.109200 
#    z -0.132900 0.109200 3.545810 
# 
# 
# High freq. dielectric constant tensor:
#      x y z
#    x 1.748210 0.009280 -0.013530 
#    y 0.009280 1.815130 0.006720 
#    z -0.013530 0.006720 1.778890 
# 
# From -- ./inp_files/177325.got.cif
#   From: 2010.06.25/outbox.cif.g09.slc.cpg/sg2_89_cif.got.tgz:177325.got - 2010.06.27 13:26:56.
