data_PCOD8044077
_publ_section_title
;
Structure prediction by ZEFSAII (Michael W. Deem and Ramdas Pophale) SiO2 
 PCOD8044077
Probable space group: P -1
;
_chemical_formula_sum "Si O2"
_cell_formula_units_Z 16
_cell_length_a 7.979070
_cell_length_b 8.756923
_cell_length_c 16.332907
_cell_angle_alpha 101.409750
_cell_angle_beta 44.728080
_cell_angle_gamma 111.945042
_cell_volume 740.914173
_symmetry_space_group_name_H-M "P -1"
_symmetry_group_IT_number 2
_symmetry_cell_setting 'triclinic'
loop_
_space_group_symop_operation_xyz
x,y,z
-x,-y,-z
loop_
_atom_site_type_symbol
_atom_site_label
_atom_site_fract_x
_atom_site_fract_y
_atom_site_fract_z
Si Si1 0.317182 0.672284 0.283805
Si Si2 0.904489 0.130368 0.858632
Si Si3 0.865769 0.604641 0.316612
Si Si4 0.548757 0.717801 0.568092
Si Si5 0.222884 0.054427 0.865544
Si Si6 0.514926 0.114864 0.132002
Si Si7 0.808409 0.072973 0.528718
Si Si8 0.756169 0.683380 0.666609
O O1 0.608294 0.750442 0.160355
O O2 0.293589 0.811059 0.368410
O O3 0.252242 0.499934 0.333304
O O4 0.138965 0.648972 0.265866
O O5 0.085493 0.307117 0.779669
O O6 0.087171 0.032963 0.820944
O O7 0.728190 0.026058 0.836550
O O8 0.738718 0.168376 0.993682
O O9 0.676267 0.673441 0.438864
O O10 0.740946 0.404550 0.333343
O O11 0.697593 0.687302 0.591692
O O12 0.568266 0.910238 0.570434
O O13 0.403069 0.947143 0.816049
O O14 0.000000 0.000000 0.000000
O O15 0.436099 0.272074 0.200706
O O16 0.958298 0.181396 0.410133
O O17 0.000000 0.000000 0.500000
#
# Coordination Sequence:
#
# PCOD8044077 Si02
#       8
#     2   2   2   2   2   2   2   2
#     4  12  22  39  65  95 133 176 215 268 333 385
#     4  10  21  40  70  99 127 175 218 272 329 387
#     4  11  21  39  63  98 138 168 214 281 323 388
#     4  10  22  38  65  92 132 175 216 270 332 384
#     4  10  21  40  68  95 123 173 221 265 322 390
#     4  10  21  42  69  95 133 169 219 276 326 385
#     4  10  19  37  63  90 123 175 219 264 325 391
#     4  11  22  40  64  95 130 176 223 264 331 394
#
# _framework density 21.594943000000001
#
# number of rings (size 3 to 8) (size 9 to 14) (size 15 to 20)
#    0.000    1.500    3.750    3.375    0.000    0.000 
#    4.500    8.125    0.000    0.000    0.000    0.000 
#    0.000    0.000    0.000    0.000    0.000    0.000 
#
# Total GULP energy -198244.932412 kJ/mol
# GULP energy per Si atom -12390.308276 kJ/mol
# Density = 2.154579 g / cm^3
# Si number density = 21.594943 Si / 1000 Ang^3
#
#
#
# Elastic Constant Matrix: (Units=GPa)
#
#
# Indices 1 2 3 4 5 6 
#
# 1 93.1416 44.6326 40.4565 -11.3640 -7.3923 -0.7969
# 2 44.6326 176.4633 71.3824 -23.3592 -0.3247 -3.4946
# 3 40.4565 71.3824 104.1478 -29.0096 3.5123 -0.7926
# 4 -11.3640 -23.3592 -29.0096 40.2181 3.5486 -0.8241
# 5 -7.3923 -0.3247 3.5123 3.5486 25.2516 -8.2432
# 6 -0.7969 -3.4946 -0.7926 -0.8241 -8.2432 26.0162
#
#
#
# Elastic Compliance Matrix: (Units=1/GPa)
#
#
# Indices 1 2 3 4 5 6 
#
# 1 0.013907 -0.001711 -0.004633 -0.000845 0.005378 0.001732
# 2 -0.001711 0.008126 -0.004679 0.000840 0.000488 0.001078
# 3 -0.004633 -0.004679 0.017260 0.008884 -0.005637 -0.001749
# 4 -0.000845 0.000840 0.008884 0.032054 -0.006167 -0.000581
# 5 0.005378 0.000488 -0.005637 -0.006167 0.047724 0.014985
# 6 0.001732 0.001078 -0.001749 -0.000581 0.014985 0.043312
#
#
# Mechanical properties :
#
#
# Convention : Reuss Voigt Hill
#
# Bulk Modulus (GPa) = 57.98228 76.29954 67.14091
# Shear Modulus (GPa) = 26.29112 32.78262 29.53687
#
# Velocity S-wave (km/s) = 3.49301 3.90047 3.70235
# Velocity P-wave (km/s) = 6.57087 7.46282 7.03100
#
# Compressibility (1/GPa) = 0.01724665
#
# Stress axis : x y z
#
# Youngs Moduli (GPa) = 71.90519 123.06383 57.93753
#
# Poissons Ratio (x) = 0.21056 0.26843
# Poissons Ratio (y) = 0.12303 0.27109
# Poissons Ratio (z) = 0.33315 0.57582
#
# Static dielectric constant tensor:
#      x y z
#    x 4.232570 0.133090 -0.214910 
#    y 0.133090 4.421400 -0.574110 
#    z -0.214910 -0.574110 4.043290 
# 
# 
# High freq. dielectric constant tensor:
#      x y z
#    x 1.839250 0.000780 -0.005120 
#    y 0.000780 1.842170 -0.033500 
#    z -0.005120 -0.033500 1.851610 
# 
# From -- ./inp_files/557290.got.cif
#   From: 2010.06.25/outbox.cif.g09.slc.cpg/sg2_279_cif.got.tgz:557290.got - 2010.06.27 13:26:56.
