data_PCOD8044317
_publ_section_title
;
Structure prediction by ZEFSAII (Michael W. Deem and Ramdas Pophale) SiO2 
 PCOD8044317
Probable space group: P -1
;
_chemical_formula_sum "Si O2"
_cell_formula_units_Z 10
_cell_length_a 5.061085
_cell_length_b 15.503019
_cell_length_c 18.451709
_cell_angle_alpha 20.695387
_cell_angle_beta 68.744320
_cell_angle_gamma 71.820361
_cell_volume 475.210266
_symmetry_space_group_name_H-M "P -1"
_symmetry_group_IT_number 2
_symmetry_cell_setting 'triclinic'
loop_
_space_group_symop_operation_xyz
x,y,z
-x,-y,-z
loop_
_atom_site_type_symbol
_atom_site_label
_atom_site_fract_x
_atom_site_fract_y
_atom_site_fract_z
Si Si1 0.663551 0.708544 0.411476
Si Si2 0.820521 0.305112 0.220256
Si Si3 0.619750 0.785412 0.200963
Si Si4 0.945004 0.387902 0.425794
Si Si5 0.810962 0.745460 0.640455
O O1 0.710417 0.874566 0.203676
O O2 0.642365 0.427494 0.604064
O O3 0.909235 0.747812 0.415473
O O4 0.362762 0.762420 0.437057
O O5 0.492546 0.364421 0.211790
O O6 0.946695 0.316724 0.279047
O O7 0.827384 0.036380 0.396060
O O8 0.000000 0.500000 0.000000
O O9 0.894218 0.672776 0.224855
O O10 0.500000 0.000000 0.000000
O O11 0.136983 0.386243 0.336873
#
# Coordination Sequence:
#
# PCOD8044317 Si02
#       5
#     2   2   2   2   2
#     4   9  20  36  54  78 115 151 188 239 284 339
#     4  10  21  40  62  86 119 153 191 238 305 356
#     4   9  20  36  57  78 115 155 190 233 289 337
#     4  10  19  38  56  82 117 147 196 239 284 342
#     4  10  21  38  63  86 119 154 190 247 291 346
#
# _framework density 21.043317999999999
#
# number of rings (size 3 to 8) (size 9 to 14) (size 15 to 20)
#    1.200    1.200    0.000    2.400    0.000    0.800 
#    3.600    0.000    0.000    0.000    0.000    0.000 
#    0.000    0.000    0.000    0.000    0.000    0.000 
#
# Total GULP energy -123915.401033 kJ/mol
# GULP energy per Si atom -12391.540103 kJ/mol
# Density = 2.099542 g / cm^3
# Si number density = 21.043318 Si / 1000 Ang^3
#
#
#
# Elastic Constant Matrix: (Units=GPa)
#
#
# Indices 1 2 3 4 5 6 
#
# 1 116.0315 34.5990 31.1158 1.8143 16.1160 0.2817
# 2 34.5990 123.9027 37.9118 18.5850 11.3337 -9.0107
# 3 31.1158 37.9118 89.5625 22.7723 7.7752 -6.0652
# 4 1.8143 18.5850 22.7723 13.2596 3.5804 3.3977
# 5 16.1160 11.3337 7.7752 3.5804 33.7376 8.8067
# 6 0.2817 -9.0107 -6.0652 3.3977 8.8067 27.5137
#
#
#
# Elastic Compliance Matrix: (Units=1/GPa)
#
#
# Indices 1 2 3 4 5 6 
#
# 1 0.011838 -0.003765 -0.006920 0.017518 -0.003642 -0.003877
# 2 -0.003765 0.012678 0.002698 -0.023317 -0.002847 0.008576
# 3 -0.006920 0.002698 0.026657 -0.051650 -0.001867 0.013807
# 4 0.017518 -0.023317 -0.051650 0.205588 0.001298 -0.045006
# 5 -0.003642 -0.002847 -0.001867 0.001298 0.036022 -0.012997
# 6 -0.003877 0.008576 0.013807 -0.045006 -0.012997 0.051956
#
#
# Mechanical properties :
#
#
# Convention : Reuss Voigt Hill
#
# Bulk Modulus (GPa) = 28.40905 59.63888 44.02396
# Shear Modulus (GPa) = 13.42479 29.96018 21.69249
#
# Velocity S-wave (km/s) = 2.52853 3.77734 3.21417
# Velocity P-wave (km/s) = 4.69619 6.88672 5.89411
#
# Compressibility (1/GPa) = 0.03520006
#
# Stress axis : x y z
#
# Youngs Moduli (GPa) = 84.47381 78.87538 37.51363
#
# Poissons Ratio (x) = 0.29695 0.25958
# Poissons Ratio (y) = 0.31803 -0.10121
# Poissons Ratio (z) = 0.58452 -0.21279
#
# Static dielectric constant tensor:
#      x y z
#    x 3.894810 -0.058590 0.121100 
#    y -0.058590 3.660990 0.102780 
#    z 0.121100 0.102780 3.454740 
# 
# 
# High freq. dielectric constant tensor:
#      x y z
#    x 1.839750 -0.003410 0.015980 
#    y -0.003410 1.813780 0.019910 
#    z 0.015980 0.019910 1.789620 
# 
# From -- ./inp_files/4608.got.cif
#   From: 2010.06.25/outbox.cif.g09.slc.cpg/sg2_3_cif.got.tgz:4608.got - 2010.06.27 13:26:56.
