data_PCOD8044982
_publ_section_title
;
Structure prediction by ZEFSAII (Michael W. Deem and Ramdas Pophale) SiO2 
 PCOD8044982
Probable space group: P 2
;
_chemical_formula_sum "Si O2"
_cell_formula_units_Z 15
_cell_length_a 13.653372
_cell_length_b 5.020365
_cell_length_c 26.271278
_cell_angle_alpha 90.000000
_cell_angle_beta 23.102740
_cell_angle_gamma 90.000000
_cell_volume 706.585142
_symmetry_space_group_name_H-M "P 2"
_symmetry_group_IT_number 3
_symmetry_cell_setting 'monoclinic'
loop_
_space_group_symop_operation_xyz
x,y,z
-x,y,-z
loop_
_atom_site_type_symbol
_atom_site_label
_atom_site_fract_x
_atom_site_fract_y
_atom_site_fract_z
Si Si1 0.388268 0.888990 0.251866
Si Si2 0.460644 0.110132 0.076644
Si Si3 0.242027 0.137471 0.854853
Si Si4 0.000000 0.566270 0.500000
Si Si5 0.681283 0.620645 0.024441
Si Si6 0.761613 0.469383 0.509206
Si Si7 0.766281 0.635236 0.206565
Si Si8 0.010091 0.989956 0.351547
O O1 0.574664 0.695642 0.131275
O O2 0.228308 0.736550 0.370137
O O3 0.530853 0.116482 0.214715
O O4 0.215228 0.053818 0.296580
O O5 0.556950 0.344457 0.067228
O O6 0.163985 0.041978 0.225924
O O7 0.618401 0.846193 0.013293
O O8 0.500000 0.197513 0.000000
O O9 0.223464 0.443335 0.847319
O O10 0.272340 0.940371 0.792135
O O11 0.000000 0.041252 0.000000
O O12 0.873478 0.410601 0.512629
O O13 0.981213 0.594526 0.882170
O O14 0.473093 0.552047 0.645676
O O15 0.783113 0.196154 0.466982
O O16 0.919261 0.688251 0.402404
#
# Coordination Sequence:
#
# PCOD8044982 Si02
#       8
#     2   2   2   1   2   2   2   2
#     4  10  22  37  56  86 125 168 213 253 297 341
#     4  11  23  44  74  97 116 150 202 268 339 398
#     4  12  24  37  55  83 126 176 226 250 285 347
#     4  10  20  32  54  80 118 166 220 242 280 340
#     4  11  24  42  63  94 129 157 205 266 323 373
#     4  11  23  38  57  84 126 171 209 247 297 357
#     4  12  25  39  58  87 126 178 210 250 300 365
#     4  10  23  39  60  87 121 157 199 265 312 361
#
# _framework density 21.228863
#
# number of rings (size 3 to 8) (size 9 to 14) (size 15 to 20)
#    0.000    1.067    2.667    4.800    5.600    0.533 
#    0.000    0.000    0.000    4.800    0.000    0.000 
#    0.000    0.000    0.000    0.000    0.000    0.000 
#
# Total GULP energy -185976.486132 kJ/mol
# GULP energy per Si atom -12398.432409 kJ/mol
# Density = 2.118055 g / cm^3
# Si number density = 21.228863 Si / 1000 Ang^3
#
#
#
# Elastic Constant Matrix: (Units=GPa)
#
#
# Indices 1 2 3 4 5 6 
#
# 1 38.9471 5.5974 30.8390 0.0000 4.3606 0.0001
# 2 5.5974 74.8841 9.5231 0.0000 2.6960 0.0001
# 3 30.8390 9.5231 123.1789 -0.0001 -1.8651 0.0005
# 4 0.0000 0.0000 -0.0001 25.4403 0.0000 20.8812
# 5 4.3606 2.6960 -1.8651 0.0000 33.2133 -0.0002
# 6 0.0001 0.0001 0.0005 20.8812 -0.0002 -68.9514
#
#
#
# Elastic Compliance Matrix: (Units=1/GPa)
#
#
# Indices 1 2 3 4 5 6 
#
# 1 0.032875 -0.001246 -0.008205 0.000000 -0.004676 0.000000
# 2 -0.001246 0.013578 -0.000753 0.000000 -0.000981 0.000000
# 3 -0.008205 -0.000753 0.010257 0.000000 0.001714 0.000000
# 4 0.000000 0.000000 0.000000 0.031482 0.000000 0.009534
# 5 -0.004676 -0.000981 0.001714 0.000000 0.030898 0.000000
# 6 0.000000 0.000000 0.000000 0.009534 0.000000 -0.011616
#
#
# Mechanical properties :
#
#
# Convention : Reuss Voigt Hill
#
# Bulk Modulus (GPa) = 27.54578 36.54769 32.04673
# Shear Modulus (GPa) = 35.71862 10.67713 23.19787
#
# Velocity S-wave (km/s) = 4.10634 2.24509 3.30927
# Velocity P-wave (km/s) = 5.95705 4.89633 5.45255
#
# Compressibility (1/GPa) = 0.03630321
#
# Stress axis : x y z
#
# Youngs Moduli (GPa) = 30.41789 73.64792 97.49748
#
# Poissons Ratio (x) = 0.09173 0.79998
# Poissons Ratio (y) = 0.03789 0.07339
# Poissons Ratio (z) = 0.24958 0.05544
#
# Static dielectric constant tensor:
#      x y z
#    x 3.636810 0.000000 -0.019620 
#    y 0.000000 3.742260 0.000000 
#    z -0.019620 0.000000 4.183940 
# 
# 
# High freq. dielectric constant tensor:
#      x y z
#    x 1.778670 0.000000 -0.009080 
#    y 0.000000 1.841860 0.000000 
#    z -0.009080 0.000000 1.851920 
# 
# From -- ./inp_files/16550.got.cif
#   From: 2010.03.12/outbox.cif.g09.slc.cpg/sg3_9_cif.got.tgz:16550.got - 2010.03.31 09:20:49.
