data_PCOD8044343
_publ_section_title
;
Structure prediction by ZEFSAII (Michael W. Deem and Ramdas Pophale) SiO2 
 PCOD8044343
Probable space group: P -1
;
_chemical_formula_sum "Si O2"
_cell_formula_units_Z 16
_cell_length_a 7.541543
_cell_length_b 22.169028
_cell_length_c 9.517895
_cell_angle_alpha 27.019790
_cell_angle_beta 97.822371
_cell_angle_gamma 98.059332
_cell_volume 715.555493
_symmetry_space_group_name_H-M "P -1"
_symmetry_group_IT_number 2
_symmetry_cell_setting 'triclinic'
loop_
_space_group_symop_operation_xyz
x,y,z
-x,-y,-z
loop_
_atom_site_type_symbol
_atom_site_label
_atom_site_fract_x
_atom_site_fract_y
_atom_site_fract_z
Si Si1 0.030196 0.769206 0.245887
Si Si2 0.996716 0.477497 0.786174
Si Si3 0.453558 0.714056 0.045966
Si Si4 0.267287 0.024426 0.713074
Si Si5 0.673134 0.098685 0.568765
Si Si6 0.022951 0.201344 0.513216
Si Si7 0.756199 0.523898 0.433376
Si Si8 0.752641 0.894009 0.776048
O O1 0.921500 0.798152 0.318218
O O2 0.085794 0.614534 0.576252
O O3 0.899243 0.789031 0.056751
O O4 0.204020 0.870379 0.046527
O O5 0.801723 0.511918 0.631011
O O6 0.087356 0.431441 0.746933
O O7 0.006117 0.355640 0.146828
O O8 0.612421 0.632046 0.169745
O O9 0.323751 0.622612 0.319315
O O10 0.351339 0.761140 0.799648
O O11 0.546250 0.836485 0.888470
O O12 0.483163 0.038132 0.733366
O O13 0.210475 0.063346 0.468505
O O14 0.170064 0.124081 0.601864
O O15 0.825763 0.124924 0.648128
O O16 0.769532 0.013919 0.636418
#
# Coordination Sequence:
#
# PCOD8044343 Si02
#       8
#     2   2   2   2   2   2   2   2
#     4  12  26  43  66  97 137 174 217 271 327 389
#     4  11  23  40  65  93 131 173 219 265 329 386
#     4  10  19  38  58 100 131 157 212 280 323 382
#     4  11  25  44  72  97 131 171 224 273 327 387
#     4  11  24  40  71  96 132 169 221 268 334 381
#     4  12  26  47  65  94 138 181 217 266 325 398
#     4  10  21  34  67  94 123 168 217 269 330 381
#     4  11  23  40  68 102 130 166 216 281 328 381
#
# _framework density 22.360249
#
# number of rings (size 3 to 8) (size 9 to 14) (size 15 to 20)
#    0.000    1.000    3.750    4.125    5.250    0.500 
#    0.000    0.000    0.000    3.000    0.000    0.000 
#    0.000    0.000    0.000    0.000    0.000    0.000 
#
# Total GULP energy -198269.459685 kJ/mol
# GULP energy per Si atom -12391.841230 kJ/mol
# Density = 2.230936 g / cm^3
# Si number density = 22.360249 Si / 1000 Ang^3
#
#
#
# Elastic Constant Matrix: (Units=GPa)
#
#
# Indices 1 2 3 4 5 6 
#
# 1 67.2834 8.7446 7.4931 -0.8112 -10.2862 -4.4881
# 2 8.7446 79.2648 30.5418 -0.2608 -15.0133 0.0565
# 3 7.4931 30.5418 82.6992 -16.3617 -17.6082 -3.1097
# 4 -0.8112 -0.2608 -16.3617 37.7184 -2.6431 0.0555
# 5 -10.2862 -15.0133 -17.6082 -2.6431 17.6295 -0.5867
# 6 -4.4881 0.0565 -3.1097 0.0555 -0.5867 17.8121
#
#
#
# Elastic Compliance Matrix: (Units=1/GPa)
#
#
# Indices 1 2 3 4 5 6 
#
# 1 0.016849 -0.000269 0.001607 0.001867 0.011650 0.004905
# 2 -0.000269 0.015973 -0.004166 -0.001064 0.009107 -0.000543
# 3 0.001607 -0.004166 0.019521 0.009763 0.018497 0.004405
# 4 0.001867 -0.001064 0.009763 0.031813 0.014790 0.002566
# 5 0.011650 0.009107 0.018497 0.014790 0.092271 0.009129
# 6 0.004905 -0.000543 0.004405 0.002566 0.009129 0.058441
#
#
# Mechanical properties :
#
#
# Convention : Reuss Voigt Hill
#
# Bulk Modulus (GPa) = 21.41968 35.86738 28.64353
# Shear Modulus (GPa) = 19.52466 26.79653 23.16060
#
# Velocity S-wave (km/s) = 2.95818 3.46555 3.22187
# Velocity P-wave (km/s) = 4.61171 5.66470 5.16511
#
# Compressibility (1/GPa) = 0.04668604
#
# Stress axis : x y z
#
# Youngs Moduli (GPa) = 59.34994 62.60670 51.22760
#
# Poissons Ratio (x) = 0.01682 -0.08232
# Poissons Ratio (y) = 0.01595 0.21344
# Poissons Ratio (z) = -0.09537 0.26085
#
# Static dielectric constant tensor:
#      x y z
#    x 4.130870 0.275070 -0.078210 
#    y 0.275070 3.883320 -0.189520 
#    z -0.078210 -0.189520 4.276590 
# 
# 
# High freq. dielectric constant tensor:
#      x y z
#    x 1.874280 0.007850 -0.001900 
#    y 0.007850 1.865290 -0.016670 
#    z -0.001900 -0.016670 1.897430 
# 
# From -- ./inp_files/221556.got.cif
#   From: 2010.06.25/outbox.cif.g09.slc.cpg/sg2_111_cif.got.tgz:221556.got - 2010.06.27 13:26:56.
