data_PCOD8044027
_publ_section_title
;
Structure prediction by ZEFSAII (Michael W. Deem and Ramdas Pophale) SiO2 
 PCOD8044027
Probable space group: P -1
;
_chemical_formula_sum "Si O2"
_cell_formula_units_Z 16
_cell_length_a 12.109691
_cell_length_b 15.315812
_cell_length_c 15.150995
_cell_angle_alpha 28.565264
_cell_angle_beta 59.313115
_cell_angle_gamma 40.389337
_cell_volume 747.946011
_symmetry_space_group_name_H-M "P -1"
_symmetry_group_IT_number 2
_symmetry_cell_setting 'triclinic'
loop_
_space_group_symop_operation_xyz
x,y,z
-x,-y,-z
loop_
_atom_site_type_symbol
_atom_site_label
_atom_site_fract_x
_atom_site_fract_y
_atom_site_fract_z
Si Si1 0.019872 0.728563 0.980116
Si Si2 0.592767 0.244546 0.626329
Si Si3 0.754632 0.653996 0.531585
Si Si4 0.665446 0.338509 0.150654
Si Si5 0.295242 0.254311 0.731024
Si Si6 0.108087 0.263021 0.449559
Si Si7 0.865121 0.936460 0.037592
Si Si8 0.544347 0.531856 0.709783
O O1 0.205355 0.620494 0.952350
O O2 0.074045 0.458273 0.216982
O O3 0.825188 0.957952 0.796202
O O4 0.981147 0.880343 0.952976
O O5 0.500000 0.500000 0.500000
O O6 0.483431 0.170297 0.757241
O O7 0.569767 0.332250 0.456655
O O8 0.704842 0.774768 0.347951
O O9 0.739553 0.830622 0.453591
O O10 0.592710 0.675860 0.604915
O O11 0.979707 0.332846 0.722844
O O12 0.572071 0.461673 0.176882
O O13 0.804359 0.009891 0.389247
O O14 0.500000 0.500000 0.000000
O O15 0.099957 0.567029 0.570703
O O16 0.295263 0.042666 0.952492
O O17 0.761509 0.211312 0.887117
#
# Coordination Sequence:
#
# PCOD8044027 Si02
#       8
#     2   2   2   2   2   2   2   2
#     4  10  23  44  65  91 125 173 210 262 314 366
#     4  11  21  42  67  92 126 163 217 270 309 368
#     4   9  19  35  62  89 128 157 207 269 316 367
#     4  12  27  42  66  94 133 171 205 258 326 386
#     4   9  20  35  63  96 121 160 212 263 320 363
#     4  10  22  41  62  95 128 167 211 255 321 387
#     4  10  19  37  62  95 122 157 213 264 316 373
#     4  11  24  38  61  98 123 167 215 255 316 379
#
# _framework density 21.391918
#
# number of rings (size 3 to 8) (size 9 to 14) (size 15 to 20)
#    0.000    2.000    1.250    4.125    5.250    4.500 
#    4.500    0.625    0.000    0.000    0.000    0.000 
#    0.000    0.000    0.000    0.000    0.000    0.000 
#
# Total GULP energy -198346.064982 kJ/mol
# GULP energy per Si atom -12396.629061 kJ/mol
# Density = 2.134323 g / cm^3
# Si number density = 21.391918 Si / 1000 Ang^3
#
#
#
# Elastic Constant Matrix: (Units=GPa)
#
#
# Indices 1 2 3 4 5 6 
#
# 1 83.7583 9.2751 2.4060 11.5403 9.4889 -17.7763
# 2 9.2751 89.4918 4.6447 18.1273 -4.1759 -13.8821
# 3 2.4060 4.6447 53.1865 0.0683 -0.2263 -1.4688
# 4 11.5403 18.1273 0.0683 22.9314 -5.1716 -6.6868
# 5 9.4889 -4.1759 -0.2263 -5.1716 25.0987 -0.0689
# 6 -17.7763 -13.8821 -1.4688 -6.6868 -0.0689 37.0380
#
#
#
# Elastic Compliance Matrix: (Units=1/GPa)
#
#
# Indices 1 2 3 4 5 6 
#
# 1 0.015077 0.000685 -0.000596 -0.008004 -0.007224 0.006011
# 2 0.000685 0.013784 -0.001122 -0.010201 -0.000068 0.003609
# 3 -0.000596 -0.001122 0.018935 0.001322 0.000483 0.000284
# 4 -0.008004 -0.010201 0.001322 0.059706 0.013652 0.003192
# 5 -0.007224 -0.000068 0.000483 0.013652 0.045378 -0.000924
# 6 0.006011 0.003609 0.000284 0.003192 -0.000924 0.031823
#
#
# Mechanical properties :
#
#
# Convention : Reuss Voigt Hill
#
# Bulk Modulus (GPa) = 21.86785 28.78756 25.32771
# Shear Modulus (GPa) = 24.75085 31.02101 27.88593
#
# Velocity S-wave (km/s) = 3.40519 3.81219 3.61442
# Velocity P-wave (km/s) = 5.07002 5.73266 5.41149
#
# Compressibility (1/GPa) = 0.04572923
#
# Stress axis : x y z
#
# Youngs Moduli (GPa) = 66.32465 72.54575 52.81247
#
# Poissons Ratio (x) = -0.04968 0.03149
# Poissons Ratio (y) = -0.04542 0.05927
# Poissons Ratio (z) = 0.03955 0.08142
#
# Static dielectric constant tensor:
#      x y z
#    x 3.929980 -0.173850 -0.072980 
#    y -0.173850 3.765740 0.152460 
#    z -0.072980 0.152460 3.759890 
# 
# 
# High freq. dielectric constant tensor:
#      x y z
#    x 1.835360 -0.010700 -0.004050 
#    y -0.010700 1.830130 0.015110 
#    z -0.004050 0.015110 1.832550 
# 
# From -- ./inp_files/522150.got.cif
#   From: 2010.06.25/outbox.cif.g09.slc.cpg/sg2_262_cif.got.tgz:522150.got - 2010.06.27 13:26:56.
