data_PCOD8044335
_publ_section_title
;
Structure prediction by ZEFSAII (Michael W. Deem and Ramdas Pophale) SiO2 
 PCOD8044335
Probable space group: P -1
;
_chemical_formula_sum "Si O2"
_cell_formula_units_Z 16
_cell_length_a 9.033306
_cell_length_b 18.707564
_cell_length_c 10.175585
_cell_angle_alpha 58.338385
_cell_angle_beta 92.271225
_cell_angle_gamma 137.167614
_cell_volume 798.490367
_symmetry_space_group_name_H-M "P -1"
_symmetry_group_IT_number 2
_symmetry_cell_setting 'triclinic'
loop_
_space_group_symop_operation_xyz
x,y,z
-x,-y,-z
loop_
_atom_site_type_symbol
_atom_site_label
_atom_site_fract_x
_atom_site_fract_y
_atom_site_fract_z
Si Si1 0.262834 0.107545 0.483273
Si Si2 0.770034 0.100153 0.345273
Si Si3 0.216773 0.831817 0.003661
Si Si4 0.280373 0.020307 0.003149
Si Si5 0.247661 0.560404 0.916419
Si Si6 0.332212 0.505533 0.702928
Si Si7 0.730018 0.814310 0.306003
Si Si8 0.291326 0.415757 0.187713
O O1 0.494867 0.256520 0.255530
O O2 0.230795 0.136624 0.592674
O O3 0.288469 0.021122 0.587655
O O4 0.000000 0.000000 0.500000
O O5 0.020044 0.231879 0.328255
O O6 0.500000 0.000000 0.500000
O O7 0.824157 0.181894 0.140507
O O8 0.932067 0.660595 0.214870
O O9 0.261846 0.944934 0.957305
O O10 0.468909 0.889133 0.983929
O O11 0.340850 0.141900 0.833524
O O12 0.998594 0.890758 0.198230
O O13 0.226605 0.505414 0.827514
O O14 0.245976 0.494477 0.103784
O O15 0.000000 0.500000 0.000000
O O16 0.468564 0.629042 0.477364
O O17 0.564245 0.546547 0.709695
O O18 0.500000 0.500000 0.000000
#
# Coordination Sequence:
#
# PCOD8044335 Si02
#       8
#     2   2   2   2   2   2   2   2
#     4  11  23  35  60  92 121 152 194 243 298 364
#     4  12  23  36  61  93 125 156 194 243 304 359
#     4  11  23  42  61  90 117 161 203 250 295 353
#     4  10  24  43  65  82 120 158 209 252 290 348
#     4  10  20  35  52  84 126 156 184 230 294 362
#     4  10  22  38  63  85 120 157 198 244 300 359
#     4  10  22  44  62  87 118 158 200 254 298 349
#     4  10  19  38  57  85 122 159 187 235 300 367
#
# _framework density 20.037811999999999
#
# number of rings (size 3 to 8) (size 9 to 14) (size 15 to 20)
#    0.000    1.500    3.750    3.000    3.500    1.000 
#    0.000    1.250    0.000    0.000    0.000    0.000 
#    0.000    0.000    0.000    0.000    0.000    0.000 
#
# Total GULP energy -198325.715025 kJ/mol
# GULP energy per Si atom -12395.357189 kJ/mol
# Density = 1.999220 g / cm^3
# Si number density = 20.037812 Si / 1000 Ang^3
#
#
#
# Elastic Constant Matrix: (Units=GPa)
#
#
# Indices 1 2 3 4 5 6 
#
# 1 129.2719 25.8666 39.1361 -4.9650 -1.4408 11.3849
# 2 25.8666 56.1550 22.3125 -18.0482 -1.2373 15.0248
# 3 39.1361 22.3125 85.3001 -20.6026 9.8123 -28.5777
# 4 -4.9650 -18.0482 -20.6026 33.2720 0.3457 -5.0658
# 5 -1.4408 -1.2373 9.8123 0.3457 35.8757 1.2806
# 6 11.3849 15.0248 -28.5777 -5.0658 1.2806 -8.9257
#
#
#
# Elastic Compliance Matrix: (Units=1/GPa)
#
#
# Indices 1 2 3 4 5 6 
#
# 1 0.008592 -0.005548 -0.000984 -0.001479 0.000236 0.005645
# 2 -0.005548 0.021106 0.003545 0.014184 -0.000920 0.008921
# 3 -0.000984 0.003545 0.006298 0.003048 -0.001050 -0.017332
# 4 -0.001479 0.014184 0.003048 0.037990 -0.000435 -0.009392
# 5 0.000236 -0.000920 -0.001050 -0.000435 0.027916 0.006368
# 6 0.005645 0.008921 -0.017332 -0.009392 0.006368 -0.028080
#
#
# Mechanical properties :
#
#
# Convention : Reuss Voigt Hill
#
# Bulk Modulus (GPa) = 33.30837 49.48414 41.39626
# Shear Modulus (GPa) = 55.67725 24.27185 39.97455
#
# Velocity S-wave (km/s) = 5.27697 3.48415 4.47134
# Velocity P-wave (km/s) = 7.33399 6.39803 6.88194
#
# Compressibility (1/GPa) = 0.03002248
#
# Stress axis : x y z
#
# Youngs Moduli (GPa) = 116.38443 47.37926 158.78705
#
# Poissons Ratio (x) = 0.26284 0.15626
# Poissons Ratio (y) = 0.64565 -0.56286
# Poissons Ratio (z) = 0.11453 -0.16795
#
# Static dielectric constant tensor:
#      x y z
#    x 4.349230 0.558750 0.564410 
#    y 0.558750 3.571520 0.086490 
#    z 0.564410 0.086490 4.192480 
# 
# 
# High freq. dielectric constant tensor:
#      x y z
#    x 1.792670 0.008980 0.007460 
#    y 0.008980 1.759350 -0.016790 
#    z 0.007460 -0.016790 1.796440 
# 
# From -- ./inp_files/202979.got.cif
#   From: 2010.06.25/outbox.cif.g09.slc.cpg/sg2_102_cif.got.tgz:202979.got - 2010.06.27 13:26:56.
