data_PCOD8044705
_publ_section_title
;
Structure prediction by ZEFSAII (Michael W. Deem and Ramdas Pophale) SiO2 
 PCOD8044705
Probable space group: P -1
;
_chemical_formula_sum "Si O2"
_cell_formula_units_Z 16
_cell_length_a 9.375529
_cell_length_b 23.802385
_cell_length_c 20.958660
_cell_angle_alpha 19.826343
_cell_angle_beta 31.882095
_cell_angle_gamma 44.794999
_cell_volume 726.685054
_symmetry_space_group_name_H-M "P -1"
_symmetry_group_IT_number 2
_symmetry_cell_setting 'triclinic'
loop_
_space_group_symop_operation_xyz
x,y,z
-x,-y,-z
loop_
_atom_site_type_symbol
_atom_site_label
_atom_site_fract_x
_atom_site_fract_y
_atom_site_fract_z
Si Si1 0.568338 0.665379 0.526854
Si Si2 0.111932 0.467449 0.351733
Si Si3 0.225181 0.184233 0.065861
Si Si4 0.391044 0.469402 0.001122
Si Si5 0.091580 0.707595 0.834541
Si Si6 0.538956 0.836531 0.126692
Si Si7 0.268328 0.379136 0.616836
Si Si8 0.208713 0.856031 0.491632
O O1 0.743455 0.606426 0.572556
O O2 0.777813 0.736296 0.307533
O O3 0.514601 0.835501 0.389331
O O4 0.227945 0.488939 0.833339
O O5 0.787380 0.288922 0.648292
O O6 0.054924 0.637226 0.218625
O O7 0.336721 0.544974 0.123137
O O8 0.916034 0.175786 0.223828
O O9 0.322076 0.074653 0.197787
O O10 0.187632 0.086917 0.113717
O O11 0.493105 0.401119 0.724296
O O12 0.069082 0.278636 0.308630
O O13 0.500000 0.500000 0.000000
O O14 0.367977 0.656397 0.789114
O O15 0.108260 0.816466 0.646249
O O16 0.594932 0.704004 0.294917
O O17 0.500000 0.000000 0.000000
#
# Coordination Sequence:
#
# PCOD8044705 Si02
#       8
#     2   2   2   2   2   2   2   2
#     4  10  19  38  65  92 120 165 205 251 305 363
#     4  11  21  40  63  92 125 156 212 247 310 364
#     4  10  22  37  65  89 119 167 206 249 307 361
#     4  11  24  36  66  94 125 169 202 253 308 366
#     4  10  20  40  61  90 128 165 204 249 311 361
#     4  11  25  44  65  89 120 165 205 259 312 367
#     4  10  23  41  66  87 123 161 204 258 312 361
#     4  11  20  41  62  92 129 164 207 249 305 370
#
# _framework density 22.017790999999999
#
# number of rings (size 3 to 8) (size 9 to 14) (size 15 to 20)
#    0.000    1.500    2.500    3.750    8.750    0.000 
#    0.000   10.000    0.000    0.000    0.000    0.000 
#    0.000    0.000    0.000    0.000    0.000    0.000 
#
# Total GULP energy -198235.842237 kJ/mol
# GULP energy per Si atom -12389.740140 kJ/mol
# Density = 2.196768 g / cm^3
# Si number density = 22.017791 Si / 1000 Ang^3
#
#
#
# Elastic Constant Matrix: (Units=GPa)
#
#
# Indices 1 2 3 4 5 6 
#
# 1 125.8653 48.2929 34.7462 14.5963 30.3929 -8.1432
# 2 48.2929 196.2920 42.6171 18.7462 24.9147 4.6551
# 3 34.7462 42.6171 47.6304 -0.6305 29.3025 -7.6167
# 4 14.5963 18.7462 -0.6305 31.0876 -4.1933 11.3969
# 5 30.3929 24.9147 29.3025 -4.1933 35.8281 -4.7763
# 6 -8.1432 4.6551 -7.6167 11.3969 -4.7763 52.3154
#
#
#
# Elastic Compliance Matrix: (Units=1/GPa)
#
#
# Indices 1 2 3 4 5 6 
#
# 1 0.011862 -0.000652 -0.003142 -0.007105 -0.007563 0.002304
# 2 -0.000652 0.006900 -0.005896 -0.003687 0.000044 -0.000767
# 3 -0.003142 -0.005896 0.049777 -0.000017 -0.033382 0.004239
# 4 -0.007105 -0.003687 -0.000017 0.042679 0.012407 -0.008945
# 5 -0.007563 0.000044 -0.033382 0.012407 0.062648 -0.003025
# 6 0.002304 -0.000767 0.004239 -0.008945 -0.003025 0.021831
#
#
# Mechanical properties :
#
#
# Convention : Reuss Voigt Hill
#
# Bulk Modulus (GPa) = 20.34247 69.01113 44.67680
# Shear Modulus (GPa) = 21.60162 40.12165 30.86164
#
# Velocity S-wave (km/s) = 3.13565 4.27340 3.74795
# Velocity P-wave (km/s) = 4.72957 7.46730 6.25018
#
# Compressibility (1/GPa) = 0.04915823
#
# Stress axis : x y z
#
# Youngs Moduli (GPa) = 84.30224 144.93247 20.08953
#
# Poissons Ratio (x) = 0.09454 0.06312
# Poissons Ratio (y) = 0.05499 0.11845
# Poissons Ratio (z) = 0.26489 0.85451
#
# Static dielectric constant tensor:
#      x y z
#    x 4.057610 0.341850 0.274000 
#    y 0.341850 5.326050 0.239530 
#    z 0.274000 0.239530 3.647240 
# 
# 
# High freq. dielectric constant tensor:
#      x y z
#    x 1.863860 0.006160 0.029430 
#    y 0.006160 1.903520 0.006220 
#    z 0.029430 0.006220 1.826640 
# 
# From -- ./inp_files/187633.got.cif
#   From: 2010.06.25/outbox.cif.g09.slc.cpg/sg2_94_cif.got.tgz:187633.got - 2010.06.27 13:26:56.
