data_PCOD8044446
_publ_section_title
;
Structure prediction by ZEFSAII (Michael W. Deem and Ramdas Pophale) SiO2 
 PCOD8044446
Probable space group: P -1
;
_chemical_formula_sum "Si O2"
_cell_formula_units_Z 14
_cell_length_a 9.841316
_cell_length_b 9.172898
_cell_length_c 14.462169
_cell_angle_alpha 125.781745
_cell_angle_beta 111.701874
_cell_angle_gamma 44.142328
_cell_volume 734.749476
_symmetry_space_group_name_H-M "P -1"
_symmetry_group_IT_number 2
_symmetry_cell_setting 'triclinic'
loop_
_space_group_symop_operation_xyz
x,y,z
-x,-y,-z
loop_
_atom_site_type_symbol
_atom_site_label
_atom_site_fract_x
_atom_site_fract_y
_atom_site_fract_z
Si Si1 0.566351 0.962308 0.606076
Si Si2 0.093410 0.557761 0.473328
Si Si3 0.100615 0.038828 0.294305
Si Si4 0.156699 0.321389 0.724565
Si Si5 0.953688 0.842651 0.888352
Si Si6 0.997469 0.276888 0.837973
Si Si7 0.271290 0.162115 0.022993
O O1 0.680828 0.689827 0.570395
O O2 0.500000 0.000000 0.500000
O O3 0.690789 0.042848 0.664947
O O4 0.383458 0.135005 0.690060
O O5 0.000000 0.500000 0.500000
O O6 0.984139 0.627707 0.374766
O O7 0.061034 0.774674 0.597912
O O8 0.122643 0.809026 0.222321
O O9 0.048497 0.145352 0.217780
O O10 0.124450 0.198862 0.749157
O O11 0.115339 0.555370 0.841871
O O12 0.757014 0.920704 0.916568
O O13 0.000000 0.000000 0.000000
O O14 0.153670 0.141465 0.910382
O O15 0.826400 0.563048 0.904539
O O16 0.500000 0.000000 0.000000
#
# Coordination Sequence:
#
# PCOD8044446 Si02
#       7
#     2   2   2   2   2   2   2
#     4  11  20  38  65  90 116 160 205 241 296 361
#     4  10  19  38  61  86 123 154 194 252 298 345
#     4  11  21  40  62  91 124 153 202 253 292 356
#     4  11  22  39  63  87 121 162 197 244 308 356
#     4  11  21  39  65  87 120 161 200 248 299 350
#     4  10  24  41  58  88 126 157 197 252 302 352
#     4  10  23  43  60  83 124 166 200 243 301 355
#
# _framework density 19.054113000000001
#
# number of rings (size 3 to 8) (size 9 to 14) (size 15 to 20)
#    0.000    1.429    7.143    0.000    2.000    1.714 
#    2.571    2.143    0.000    0.000    0.000    0.000 
#    0.000    0.000    0.000    0.000    0.000    0.000 
#
# Total GULP energy -173453.787156 kJ/mol
# GULP energy per Si atom -12389.556225 kJ/mol
# Density = 1.901075 g / cm^3
# Si number density = 19.054113 Si / 1000 Ang^3
#
#
#
# Elastic Constant Matrix: (Units=GPa)
#
#
# Indices 1 2 3 4 5 6 
#
# 1 126.8896 54.8614 54.2030 16.3514 -6.1985 -8.5701
# 2 54.8614 80.6491 43.2978 9.5316 3.1591 -11.0699
# 3 54.2030 43.2978 112.1290 1.6793 2.2987 -5.4064
# 4 16.3514 9.5316 1.6793 17.7462 -7.8752 -6.7351
# 5 -6.1985 3.1591 2.2987 -7.8752 34.5808 4.3699
# 6 -8.5701 -11.0699 -5.4064 -6.7351 4.3699 38.2352
#
#
#
# Elastic Compliance Matrix: (Units=1/GPa)
#
#
# Indices 1 2 3 4 5 6 
#
# 1 0.013323 -0.006100 -0.004037 -0.008354 0.001436 -0.000986
# 2 -0.006100 0.020268 -0.004544 -0.005465 -0.004316 0.003389
# 3 -0.004037 -0.004544 0.012571 0.005132 -0.000034 0.000465
# 4 -0.008354 -0.005465 0.005132 0.076568 0.014954 0.009049
# 5 0.001436 -0.004316 -0.000034 0.014954 0.033242 -0.002098
# 6 -0.000986 0.003389 0.000465 0.009049 -0.002098 0.028813
#
#
# Mechanical properties :
#
#
# Convention : Reuss Voigt Hill
#
# Bulk Modulus (GPa) = 59.52209 69.37692 64.44950
# Shear Modulus (GPa) = 22.75349 29.26614 26.00981
#
# Velocity S-wave (km/s) = 3.45940 3.92337 3.69867
# Velocity P-wave (km/s) = 6.87480 7.55071 7.22067
#
# Compressibility (1/GPa) = 0.01680049
#
# Stress axis : x y z
#
# Youngs Moduli (GPa) = 75.06093 49.33767 79.55110
#
# Poissons Ratio (x) = 0.30095 0.32111
# Poissons Ratio (y) = 0.45785 0.36150
# Poissons Ratio (z) = 0.30299 0.22420
#
# Static dielectric constant tensor:
#      x y z
#    x 3.404040 -0.163650 -0.625650 
#    y -0.163650 4.541090 1.900280 
#    z -0.625650 1.900280 6.849550 
# 
# 
# High freq. dielectric constant tensor:
#      x y z
#    x 1.730340 0.008260 -0.011270 
#    y 0.008260 1.733420 -0.002690 
#    z -0.011270 -0.002690 1.759500 
# 
# From -- ./inp_files/126171.got.cif
#   From: 2010.06.25/outbox.cif.g09.slc.cpg/sg2_64_cif.got.tgz:126171.got - 2010.06.27 13:26:56.
