data_PCOD8044385
_publ_section_title
;
Structure prediction by ZEFSAII (Michael W. Deem and Ramdas Pophale) SiO2 
 PCOD8044385
Probable space group: P -1
;
_chemical_formula_sum "Si O2"
_cell_formula_units_Z 16
_cell_length_a 8.854847
_cell_length_b 9.638972
_cell_length_c 14.961725
_cell_angle_alpha 42.533763
_cell_angle_beta 72.423484
_cell_angle_gamma 72.537371
_cell_volume 817.003493
_symmetry_space_group_name_H-M "P -1"
_symmetry_group_IT_number 2
_symmetry_cell_setting 'triclinic'
loop_
_space_group_symop_operation_xyz
x,y,z
-x,-y,-z
loop_
_atom_site_type_symbol
_atom_site_label
_atom_site_fract_x
_atom_site_fract_y
_atom_site_fract_z
Si Si1 0.903467 0.890855 0.441484
Si Si2 0.957458 0.359026 0.203805
Si Si3 0.739769 0.536200 0.005877
Si Si4 0.145488 0.556969 0.631751
Si Si5 0.718907 0.793018 0.347761
Si Si6 0.613974 0.813548 0.646096
Si Si7 0.474021 0.710099 0.554167
Si Si8 0.466865 0.788921 0.864147
O O1 0.828217 0.884043 0.359754
O O2 0.792136 0.830809 0.571528
O O3 0.061753 0.727455 0.497245
O O4 0.944617 0.120027 0.340983
O O5 0.956240 0.472055 0.246789
O O6 0.120068 0.377141 0.115476
O O7 0.805064 0.461878 0.126401
O O8 0.586584 0.715113 0.960228
O O9 0.681746 0.342366 0.055589
O O10 0.170558 0.337169 0.682235
O O11 0.310967 0.629218 0.599211
O O12 0.607212 0.637206 0.489631
O O13 0.607384 0.972878 0.229066
O O14 0.530962 0.654656 0.671574
O O15 0.594708 0.726983 0.789644
O O16 0.519764 0.042677 0.561743
#
# Coordination Sequence:
#
# PCOD8044385 Si02
#       8
#     2   2   2   2   2   2   2   2
#     4  11  21  36  58  85 120 143 178 231 287 335
#     4  11  22  38  57  86 113 139 193 241 264 324
#     4  10  22  37  61  81 103 150 199 233 267 308
#     4  12  22  34  57  88 114 150 179 223 291 344
#     4  10  22  37  53  83 123 147 176 223 287 344
#     4   9  17  33  58  86 109 139 180 238 283 316
#     4   9  18  31  53  82 116 141 175 222 278 339
#     4  10  19  38  60  81 109 148 189 231 273 325
#
# _framework density 19.583760999999999
#
# number of rings (size 3 to 8) (size 9 to 14) (size 15 to 20)
#    0.000    1.750    2.500    3.375    3.500    0.000 
#    0.000    1.250    0.000    0.000    0.000    0.000 
#    0.000    0.000    0.000    0.000    0.000    0.000 
#
# Total GULP energy -198270.715363 kJ/mol
# GULP energy per Si atom -12391.919710 kJ/mol
# Density = 1.953919 g / cm^3
# Si number density = 19.583761 Si / 1000 Ang^3
#
#
#
# Elastic Constant Matrix: (Units=GPa)
#
#
# Indices 1 2 3 4 5 6 
#
# 1 80.3411 20.9976 29.2186 -6.0197 10.1994 -4.7860
# 2 20.9976 97.3419 26.3532 -2.7261 10.5205 -12.0914
# 3 29.2186 26.3532 58.9188 -6.8354 5.2140 -8.4065
# 4 -6.0197 -2.7261 -6.8354 12.9506 -3.4042 2.7513
# 5 10.1994 10.5205 5.2140 -3.4042 37.1662 -8.5649
# 6 -4.7860 -12.0914 -8.4065 2.7513 -8.5649 17.9661
#
#
#
# Elastic Compliance Matrix: (Units=1/GPa)
#
#
# Indices 1 2 3 4 5 6 
#
# 1 0.015816 -0.001359 -0.006876 0.003008 -0.003149 -0.001881
# 2 -0.001359 0.012513 -0.004192 -0.001796 -0.001434 0.005689
# 3 -0.006876 -0.004192 0.023873 0.007688 0.001864 0.006229
# 4 0.003008 -0.001796 0.007688 0.085137 0.004643 -0.007634
# 5 -0.003149 -0.001434 0.001864 0.004643 0.031412 0.013332
# 6 -0.001881 0.005689 0.006229 -0.007634 0.013332 0.069427
#
#
# Mechanical properties :
#
#
# Convention : Reuss Voigt Hill
#
# Bulk Modulus (GPa) = 36.56770 43.30450 39.93610
# Shear Modulus (GPa) = 18.37228 24.28542 21.32885
#
# Velocity S-wave (km/s) = 3.06623 3.52530 3.30375
# Velocity P-wave (km/s) = 5.59005 6.22340 5.91521
#
# Compressibility (1/GPa) = 0.02734654
#
# Stress axis : x y z
#
# Youngs Moduli (GPa) = 63.22719 79.91956 41.88777
#
# Poissons Ratio (x) = 0.10862 0.28803
# Poissons Ratio (y) = 0.08593 0.17561
# Poissons Ratio (z) = 0.43476 0.33506
#
# Static dielectric constant tensor:
#      x y z
#    x 3.690860 -0.066910 0.157890 
#    y -0.066910 3.429030 0.238050 
#    z 0.157890 0.238050 3.664510 
# 
# 
# High freq. dielectric constant tensor:
#      x y z
#    x 1.781170 -0.004760 0.007020 
#    y -0.004760 1.725780 0.009340 
#    z 0.007020 0.009340 1.757300 
# 
# From -- ./inp_files/205460.got.cif
#   From: 2010.06.25/outbox.cif.g09.slc.cpg/sg2_103_cif.got.tgz:205460.got - 2010.06.27 13:26:56.
