data_PCOD8044448
_publ_section_title
;
Structure prediction by ZEFSAII (Michael W. Deem and Ramdas Pophale) SiO2 
 PCOD8044448
Probable space group: P -1
;
_chemical_formula_sum "Si O2"
_cell_formula_units_Z 16
_cell_length_a 15.581292
_cell_length_b 8.564466
_cell_length_c 10.476938
_cell_angle_alpha 69.304498
_cell_angle_beta 68.770294
_cell_angle_gamma 38.272201
_cell_volume 801.406491
_symmetry_space_group_name_H-M "P -1"
_symmetry_group_IT_number 2
_symmetry_cell_setting 'triclinic'
loop_
_space_group_symop_operation_xyz
x,y,z
-x,-y,-z
loop_
_atom_site_type_symbol
_atom_site_label
_atom_site_fract_x
_atom_site_fract_y
_atom_site_fract_z
Si Si1 0.313043 0.695559 0.922774
Si Si2 0.986790 0.823514 0.093061
Si Si3 0.335528 0.032843 0.215066
Si Si4 0.265487 0.388317 0.953522
Si Si5 0.329777 0.378644 0.414182
Si Si6 0.564541 0.855461 0.305696
Si Si7 0.612737 0.380558 0.809965
Si Si8 0.097786 0.489712 0.371292
O O1 0.295053 0.544939 0.903178
O O2 0.444209 0.615686 0.816449
O O3 0.175427 0.001636 0.895013
O O4 0.341523 0.617563 0.077162
O O5 0.019061 0.728398 0.250481
O O6 0.099025 0.577921 0.010337
O O7 0.000000 0.000000 0.000000
O O8 0.193203 0.233358 0.313398
O O9 0.468816 0.844621 0.292643
O O10 0.329428 0.882617 0.170007
O O11 0.352684 0.174723 0.078137
O O12 0.316157 0.249552 0.828983
O O13 0.354300 0.328409 0.564936
O O14 0.313482 0.597731 0.336560
O O15 0.190057 0.471016 0.425478
O O16 0.462628 0.142739 0.323917
O O17 0.000000 0.500000 0.500000
#
# Coordination Sequence:
#
# PCOD8044448 Si02
#       8
#     2   2   2   2   2   2   2   2
#     4  10  21  35  61  90 117 159 197 248 303 345
#     4   9  19  38  62  87 115 156 202 245 293 352
#     4  10  21  37  62  89 121 156 200 249 296 346
#     4  10  19  38  61  87 117 161 202 246 295 351
#     4  10  23  39  59  85 122 158 199 246 300 356
#     4  10  20  37  60  85 118 163 199 241 292 358
#     4  11  22  37  58  94 123 149 196 256 299 347
#     4  10  22  45  65  84 120 164 200 240 306 369
#
# _framework density 19.964898999999999
#
# number of rings (size 3 to 8) (size 9 to 14) (size 15 to 20)
#    0.000    2.000    1.250    3.375    3.500    3.500 
#    6.750    1.875    0.000    0.000    0.000    0.000 
#    0.000    0.000    0.000    0.000    0.000    0.000 
#
# Total GULP energy -198318.098814 kJ/mol
# GULP energy per Si atom -12394.881176 kJ/mol
# Density = 1.991946 g / cm^3
# Si number density = 19.964899 Si / 1000 Ang^3
#
#
#
# Elastic Constant Matrix: (Units=GPa)
#
#
# Indices 1 2 3 4 5 6 
#
# 1 73.9219 46.5078 46.0940 -3.4735 -7.3537 -16.4977
# 2 46.5078 89.2845 54.9999 3.7520 -0.6362 -24.2223
# 3 46.0940 54.9999 139.3491 5.2095 -7.4715 -17.2783
# 4 -3.4735 3.7520 5.2095 32.5087 2.0984 2.2102
# 5 -7.3537 -0.6362 -7.4715 2.0984 28.8562 -0.3905
# 6 -16.4977 -24.2223 -17.2783 2.2102 -0.3905 29.4386
#
#
#
# Elastic Compliance Matrix: (Units=1/GPa)
#
#
# Indices 1 2 3 4 5 6 
#
# 1 0.022591 -0.008910 -0.003465 0.003500 0.004451 0.003092
# 2 -0.008910 0.021357 -0.004215 -0.003281 -0.002513 0.010319
# 3 -0.003465 -0.004215 0.010239 -0.001692 0.001808 0.000751
# 4 0.003500 -0.003281 -0.001692 0.032199 -0.002017 -0.004176
# 5 0.004451 -0.002513 0.001808 -0.002017 0.036377 0.002122
# 6 0.003092 0.010319 0.000751 -0.004176 0.002122 0.044974
#
#
# Mechanical properties :
#
#
# Convention : Reuss Voigt Hill
#
# Bulk Modulus (GPa) = 47.60025 66.41764 57.00894
# Shear Modulus (GPa) = 24.04775 28.49095 26.26935
#
# Velocity S-wave (km/s) = 3.47436 3.78173 3.63130
# Velocity P-wave (km/s) = 6.32365 7.23934 6.79694
#
# Compressibility (1/GPa) = 0.02100829
#
# Stress axis : x y z
#
# Youngs Moduli (GPa) = 44.26505 46.82322 97.66318
#
# Poissons Ratio (x) = 0.41718 0.33840
# Poissons Ratio (y) = 0.39439 0.41164
# Poissons Ratio (z) = 0.15338 0.19735
#
# Static dielectric constant tensor:
#      x y z
#    x 3.455560 -0.284610 0.039410 
#    y -0.284610 3.939670 0.108280 
#    z 0.039410 0.108280 3.595120 
# 
# 
# High freq. dielectric constant tensor:
#      x y z
#    x 1.761930 -0.010830 -0.000090 
#    y -0.010830 1.781250 0.002660 
#    z -0.000090 0.002660 1.777110 
# 
# From -- ./inp_files/297816.got.cif
#   From: 2010.06.25/outbox.cif.g09.slc.cpg/sg2_149_cif.got.tgz:297816.got - 2010.06.27 13:26:56.
