data_PCOD8044599
_publ_section_title
;
Structure prediction by ZEFSAII (Michael W. Deem and Ramdas Pophale) SiO2 
 PCOD8044599
Probable space group: P -1
;
_chemical_formula_sum "Si O2"
_cell_formula_units_Z 14
_cell_length_a 8.708049
_cell_length_b 12.416480
_cell_length_c 11.442815
_cell_angle_alpha 134.336455
_cell_angle_beta 65.683964
_cell_angle_gamma 132.590670
_cell_volume 647.077614
_symmetry_space_group_name_H-M "P -1"
_symmetry_group_IT_number 2
_symmetry_cell_setting 'triclinic'
loop_
_space_group_symop_operation_xyz
x,y,z
-x,-y,-z
loop_
_atom_site_type_symbol
_atom_site_label
_atom_site_fract_x
_atom_site_fract_y
_atom_site_fract_z
Si Si1 0.408604 0.010225 0.154666
Si Si2 0.271108 0.260525 0.417187
Si Si3 0.218750 0.435976 0.352578
Si Si4 0.982876 0.313556 0.849652
Si Si5 0.175324 0.929679 0.519657
Si Si6 0.375179 0.342410 0.706308
Si Si7 0.760858 0.198201 0.362271
O O1 0.175594 0.822822 0.103777
O O2 0.400697 0.185042 0.279395
O O3 0.560971 0.033604 0.228246
O O4 0.500000 0.000000 0.000000
O O5 0.304694 0.410115 0.426594
O O6 0.348270 0.361333 0.592938
O O7 0.025209 0.087545 0.380301
O O8 0.374096 0.480692 0.226059
O O9 0.229535 0.618769 0.505074
O O10 0.977082 0.253227 0.273808
O O11 0.891041 0.211024 0.675437
O O12 0.213763 0.364144 0.842258
O O13 0.000000 0.500000 0.000000
O O14 0.269663 0.876344 0.552183
O O15 0.341019 0.146273 0.593760
#
# Coordination Sequence:
#
# PCOD8044599 Si02
#       7
#     2   2   2   2   2   2   2
#     4  12  25  41  64  91 130 172 215 265 327 383
#     4  10  19  38  63  95 121 170 219 253 310 384
#     4  10  21  35  64  97 127 157 214 267 310 368
#     4  11  24  40  65 102 129 165 217 271 324 368
#     4  10  20  42  71  91 130 168 216 266 312 389
#     4  11  19  38  70  97 125 169 222 262 308 386
#     4  10  23  41  63  99 128 167 217 263 319 381
#
# _framework density 21.635735
#
# number of rings (size 3 to 8) (size 9 to 14) (size 15 to 20)
#    0.000    1.429    4.286    1.286    2.000    5.714 
#    0.000    2.857    3.143    2.571    0.000    0.000 
#    0.000    0.000    0.000    0.000    0.000    0.000 
#
# Total GULP energy -173479.556494 kJ/mol
# GULP energy per Si atom -12391.396892 kJ/mol
# Density = 2.158649 g / cm^3
# Si number density = 21.635735 Si / 1000 Ang^3
#
#
#
# Elastic Constant Matrix: (Units=GPa)
#
#
# Indices 1 2 3 4 5 6 
#
# 1 96.2778 52.9145 30.3516 -7.6296 -20.2711 -3.9093
# 2 52.9145 150.5483 24.7600 -8.8761 -19.4935 17.5504
# 3 30.3516 24.7600 74.4511 -10.8072 -22.7191 2.2188
# 4 -7.6296 -8.8761 -10.8072 31.6647 -0.8715 -8.4098
# 5 -20.2711 -19.4935 -22.7191 -0.8715 22.9385 -4.9055
# 6 -3.9093 17.5504 2.2188 -8.4098 -4.9055 39.8571
#
#
#
# Elastic Compliance Matrix: (Units=1/GPa)
#
#
# Indices 1 2 3 4 5 6 
#
# 1 0.016027 -0.004499 -0.001538 0.003873 0.010185 0.005709
# 2 -0.004499 0.009100 -0.000176 0.000416 0.002741 -0.004013
# 3 -0.001538 -0.000176 0.021600 0.008336 0.020854 0.003050
# 4 0.003873 0.000416 0.008336 0.038501 0.015585 0.009774
# 5 0.010185 0.002741 0.020854 0.015585 0.078652 0.011600
# 6 0.005709 -0.004013 0.003050 0.009774 0.011600 0.030737
#
#
# Mechanical properties :
#
#
# Convention : Reuss Voigt Hill
#
# Bulk Modulus (GPa) = 29.15237 59.70326 44.42781
# Shear Modulus (GPa) = 22.88593 33.10880 27.99737
#
# Velocity S-wave (km/s) = 3.25589 3.91613 3.60117
# Velocity P-wave (km/s) = 5.25717 6.93561 6.15388
#
# Compressibility (1/GPa) = 0.03430253
#
# Stress axis : x y z
#
# Youngs Moduli (GPa) = 62.39463 109.89245 46.29685
#
# Poissons Ratio (x) = 0.49437 0.07118
# Poissons Ratio (y) = 0.28069 0.00814
# Poissons Ratio (z) = 0.09593 0.01932
#
# Static dielectric constant tensor:
#      x y z
#    x 4.725020 0.499820 -0.358910 
#    y 0.499820 4.376630 -0.176430 
#    z -0.358910 -0.176430 3.406110 
# 
# 
# High freq. dielectric constant tensor:
#      x y z
#    x 1.861740 0.016120 -0.027650 
#    y 0.016120 1.882610 -0.004170 
#    z -0.027650 -0.004170 1.793340 
# 
# From -- ./inp_files/158081.got.cif
#   From: 2010.06.25/outbox.cif.g09.slc.cpg/sg2_80_cif.got.tgz:158081.got - 2010.06.27 13:26:56.
