data_PCOD8044776
_publ_section_title
;
Structure prediction by ZEFSAII (Michael W. Deem and Ramdas Pophale) SiO2 
 PCOD8044776
Probable space group: P -1
;
_chemical_formula_sum "Si O2"
_cell_formula_units_Z 16
_cell_length_a 8.547559
_cell_length_b 23.015085
_cell_length_c 15.135322
_cell_angle_alpha 29.188881
_cell_angle_beta 130.323088
_cell_angle_gamma 148.176081
_cell_volume 711.911744
_symmetry_space_group_name_H-M "P -1"
_symmetry_group_IT_number 2
_symmetry_cell_setting 'triclinic'
loop_
_space_group_symop_operation_xyz
x,y,z
-x,-y,-z
loop_
_atom_site_type_symbol
_atom_site_label
_atom_site_fract_x
_atom_site_fract_y
_atom_site_fract_z
Si Si1 0.181337 0.424511 0.642319
Si Si2 0.786869 0.038892 0.025463
Si Si3 0.734266 0.322925 0.766260
Si Si4 0.802857 0.284697 0.038534
Si Si5 0.645852 0.397425 0.073471
Si Si6 0.246680 0.322082 0.358092
Si Si7 0.850153 0.803128 0.694771
Si Si8 0.242786 0.067118 0.242266
O O1 0.203413 0.508266 0.447730
O O2 0.516036 0.594541 0.585877
O O3 0.916553 0.344964 0.721771
O O4 0.080637 0.245472 0.816170
O O5 0.954109 0.036268 0.169202
O O6 0.638528 0.880754 0.110104
O O7 0.500000 0.000000 0.000000
O O8 0.860377 0.336075 0.888658
O O9 0.435318 0.141526 0.121877
O O10 0.885906 0.184258 0.224427
O O11 0.024975 0.477145 0.919119
O O12 0.394370 0.338761 0.128987
O O13 0.494198 0.213837 0.216663
O O14 0.734019 0.530082 0.852882
O O15 0.327793 0.281077 0.353648
O O16 0.900127 0.124428 0.528010
O O17 0.000000 0.000000 0.500000
#
# Coordination Sequence:
#
# PCOD8044776 Si02
#       8
#     2   2   2   2   2   2   2   2
#     4  10  19  38  66  97 119 174 223 274 321 388
#     4  10  22  39  65  98 126 174 226 269 321 389
#     4  10  21  40  63  92 135 166 220 275 330 382
#     4  11  26  44  64 100 140 177 215 277 340 393
#     4  11  23  45  69  97 133 174 226 273 327 401
#     4  11  21  39  69  93 134 169 226 270 331 391
#     4  11  23  42  68  99 128 172 223 279 323 388
#     4  12  24  43  67  98 138 177 220 274 335 397
#
# _framework density 22.474695000000001
#
# number of rings (size 3 to 8) (size 9 to 14) (size 15 to 20)
#    0.000    1.250    3.750    3.375    1.750    2.500 
#    4.500    0.625    0.000    0.000    0.000    0.000 
#    0.000    0.000    0.000    0.000    0.000    0.000 
#
# Total GULP energy -198243.086414 kJ/mol
# GULP energy per Si atom -12390.192901 kJ/mol
# Density = 2.242354 g / cm^3
# Si number density = 22.474695 Si / 1000 Ang^3
#
#
#
# Elastic Constant Matrix: (Units=GPa)
#
#
# Indices 1 2 3 4 5 6 
#
# 1 49.0119 18.2797 24.1081 -1.3462 -10.8145 11.4871
# 2 18.2797 111.2905 59.6802 -11.5430 1.0450 -0.6549
# 3 24.1081 59.6802 158.1312 -17.0318 -2.4036 -0.8371
# 4 -1.3462 -11.5430 -17.0318 43.7125 -7.4827 1.7763
# 5 -10.8145 1.0450 -2.4036 -7.4827 21.2150 -6.8271
# 6 11.4871 -0.6549 -0.8371 1.7763 -6.8271 17.2294
#
#
#
# Elastic Compliance Matrix: (Units=1/GPa)
#
#
# Indices 1 2 3 4 5 6 
#
# 1 0.029014 -0.003210 -0.003013 0.001218 0.009954 -0.015794
# 2 -0.003210 0.011707 -0.003824 0.001142 -0.001730 0.001596
# 3 -0.003013 -0.003824 0.008509 0.002324 0.001251 0.002533
# 4 0.001218 0.001142 0.002324 0.025833 0.010168 0.000710
# 5 0.009954 -0.001730 0.001251 0.010168 0.061375 0.016631
# 6 -0.015794 0.001596 0.002533 0.000710 0.016631 0.075271
#
#
# Mechanical properties :
#
#
# Convention : Reuss Voigt Hill
#
# Bulk Modulus (GPa) = 34.32120 58.06327 46.19224
# Shear Modulus (GPa) = 20.70258 30.85574 25.77916
#
# Velocity S-wave (km/s) = 3.03834 3.70930 3.39046
# Velocity P-wave (km/s) = 5.25479 6.65103 5.99371
#
# Compressibility (1/GPa) = 0.02913651
#
# Stress axis : x y z
#
# Youngs Moduli (GPa) = 34.46632 85.41585 117.52001
#
# Poissons Ratio (x) = 0.27418 0.35409
# Poissons Ratio (y) = 0.11063 0.44939
# Poissons Ratio (z) = 0.10385 0.32663
#
# Static dielectric constant tensor:
#      x y z
#    x 3.692380 -0.010840 0.062290 
#    y -0.010840 4.286190 -0.328360 
#    z 0.062290 -0.328360 4.488960 
# 
# 
# High freq. dielectric constant tensor:
#      x y z
#    x 1.845030 -0.003710 0.001390 
#    y -0.003710 1.889900 -0.018250 
#    z 0.001390 -0.018250 1.905920 
# 
# From -- ./inp_files/447580.got.cif
#   From: 2010.06.25/outbox.cif.g09.slc.cpg/sg2_224_cif.got.tgz:447580.got - 2010.06.27 13:26:56.
