data_PCOD8044545
_publ_section_title
;
Structure prediction by ZEFSAII (Michael W. Deem and Ramdas Pophale) SiO2 
 PCOD8044545
Probable space group: P -1
;
_chemical_formula_sum "Si O2"
_cell_formula_units_Z 16
_cell_length_a 12.241297
_cell_length_b 12.528478
_cell_length_c 9.390017
_cell_angle_alpha 92.153855
_cell_angle_beta 117.884651
_cell_angle_gamma 133.045235
_cell_volume 775.443996
_symmetry_space_group_name_H-M "P -1"
_symmetry_group_IT_number 2
_symmetry_cell_setting 'triclinic'
loop_
_space_group_symop_operation_xyz
x,y,z
-x,-y,-z
loop_
_atom_site_type_symbol
_atom_site_label
_atom_site_fract_x
_atom_site_fract_y
_atom_site_fract_z
Si Si1 0.320487 0.119073 0.948992
Si Si2 0.036563 0.089966 0.881344
Si Si3 0.914436 0.699741 0.707253
Si Si4 0.650110 0.195719 0.633912
Si Si5 0.619472 0.349113 0.394840
Si Si6 0.457389 0.709790 0.197276
Si Si7 0.950763 0.653852 0.033569
Si Si8 0.342239 0.269764 0.446525
O O1 0.237032 0.181119 0.931701
O O2 0.400358 0.165094 0.841049
O O3 0.511284 0.233401 0.178141
O O4 0.138064 0.905731 0.837207
O O5 0.037375 0.215410 0.910090
O O6 0.848333 0.939349 0.655582
O O7 0.000000 0.000000 0.000000
O O8 0.827907 0.564904 0.517750
O O9 0.738223 0.666226 0.625730
O O10 0.914906 0.622005 0.840262
O O11 0.680179 0.285532 0.515117
O O12 0.548961 0.193013 0.698998
O O13 0.858338 0.286197 0.812009
O O14 0.500000 0.000000 0.500000
O O15 0.460809 0.314356 0.380703
O O16 0.532873 0.656651 0.327626
O O17 0.232055 0.525493 0.999447
#
# Coordination Sequence:
#
# PCOD8044545 Si02
#       8
#     2   2   2   2   2   2   2   2
#     4  11  24  44  63 103 137 166 211 277 342 366
#     4  11  20  36  70  94 131 171 214 265 315 403
#     4  11  21  37  71  90 129 175 221 261 317 403
#     4  11  24  44  71  92 124 176 229 265 314 395
#     4  11  21  40  67  91 124 175 226 260 316 402
#     4  11  26  41  64  97 139 161 212 286 325 375
#     4  12  21  41  68  98 122 175 223 263 319 390
#     4  10  19  38  62  97 125 172 221 260 322 384
#
# _framework density 20.633338999999999
#
# number of rings (size 3 to 8) (size 9 to 14) (size 15 to 20)
#    0.000    1.000    6.250    3.000    1.750    2.500 
#    4.500    3.125    0.000    0.000    0.000    0.000 
#    0.000    0.000    0.000    0.000    0.000    0.000 
#
# Total GULP energy -198276.996789 kJ/mol
# GULP energy per Si atom -12392.312299 kJ/mol
# Density = 2.058638 g / cm^3
# Si number density = 20.633339 Si / 1000 Ang^3
#
#
#
# Elastic Constant Matrix: (Units=GPa)
#
#
# Indices 1 2 3 4 5 6 
#
# 1 70.6890 24.0459 38.5706 -17.3004 12.4244 2.5378
# 2 24.0459 58.4358 24.8986 -2.5786 8.3439 -0.9778
# 3 38.5706 24.8986 113.9376 2.1073 18.8814 -1.6345
# 4 -17.3004 -2.5786 2.1073 29.6255 0.2216 -4.7138
# 5 12.4244 8.3439 18.8814 0.2216 29.2816 -0.6264
# 6 2.5378 -0.9778 -1.6345 -4.7138 -0.6264 32.6397
#
#
#
# Elastic Compliance Matrix: (Units=1/GPa)
#
#
# Indices 1 2 3 4 5 6 
#
# 1 0.023729 -0.005853 -0.006274 0.013758 -0.004468 -0.000433
# 2 -0.005853 0.020685 -0.002175 -0.001331 -0.001982 0.000736
# 3 -0.006274 -0.002175 0.012221 -0.004644 -0.004557 0.000276
# 4 0.013758 -0.001331 -0.004644 0.042785 -0.002685 0.004785
# 5 -0.004468 -0.001982 -0.004557 -0.002685 0.039580 0.000432
# 6 -0.000433 0.000736 0.000276 0.004785 0.000432 0.031406
#
#
# Mechanical properties :
#
#
# Convention : Reuss Voigt Hill
#
# Bulk Modulus (GPa) = 35.67568 46.45473 41.06520
# Shear Modulus (GPa) = 23.99760 28.67917 26.33839
#
# Velocity S-wave (km/s) = 3.41405 3.73224 3.57669
# Velocity P-wave (km/s) = 5.73314 6.41374 6.08297
#
# Compressibility (1/GPa) = 0.02803030
#
# Stress axis : x y z
#
# Youngs Moduli (GPa) = 42.14275 48.34483 81.82619
#
# Poissons Ratio (x) = 0.28297 0.51337
# Poissons Ratio (y) = 0.24667 0.17798
# Poissons Ratio (z) = 0.26440 0.10515
#
# Static dielectric constant tensor:
#      x y z
#    x 3.866330 -1.582580 0.798530 
#    y -1.582580 10.506430 -2.582610 
#    z 0.798530 -2.582610 5.476490 
# 
# 
# High freq. dielectric constant tensor:
#      x y z
#    x 1.783760 -0.018020 0.018630 
#    y -0.018020 1.802650 0.025270 
#    z 0.018630 0.025270 1.824580 
# 
# From -- ./inp_files/186183.got.cif
#   From: 2010.06.25/outbox.cif.g09.slc.cpg/sg2_94_cif.got.tgz:186183.got - 2010.06.27 13:26:56.
