data_PCOD8044469
_publ_section_title
;
Structure prediction by ZEFSAII (Michael W. Deem and Ramdas Pophale) SiO2 
 PCOD8044469
Probable space group: P -1
;
_chemical_formula_sum "Si O2"
_cell_formula_units_Z 14
_cell_length_a 11.418217
_cell_length_b 9.440982
_cell_length_c 7.239772
_cell_angle_alpha 110.068536
_cell_angle_beta 117.455049
_cell_angle_gamma 65.672765
_cell_volume 619.617604
_symmetry_space_group_name_H-M "P -1"
_symmetry_group_IT_number 2
_symmetry_cell_setting 'triclinic'
loop_
_space_group_symop_operation_xyz
x,y,z
-x,-y,-z
loop_
_atom_site_type_symbol
_atom_site_label
_atom_site_fract_x
_atom_site_fract_y
_atom_site_fract_z
Si Si1 0.641483 0.115280 0.782806
Si Si2 0.831369 0.321218 0.020080
Si Si3 0.951029 0.838809 0.177556
Si Si4 0.646155 0.882878 0.402794
Si Si5 0.732947 0.682955 0.058317
Si Si6 0.417573 0.850863 0.828663
Si Si7 0.850349 0.204318 0.371844
O O1 0.703407 0.256247 0.846125
O O2 0.482108 0.162144 0.615351
O O3 0.722168 0.958955 0.647557
O O4 0.644759 0.077951 0.984886
O O5 0.970295 0.207876 0.979310
O O6 0.798419 0.496799 0.995693
O O7 0.849188 0.321973 0.254359
O O8 0.820381 0.771848 0.043270
O O9 0.052654 0.758987 0.384413
O O10 0.905884 0.026396 0.252436
O O11 0.746031 0.728121 0.305867
O O12 0.586168 0.003011 0.240276
O O13 0.571932 0.729986 0.899333
O O14 0.304902 0.764980 0.640623
#
# Coordination Sequence:
#
# PCOD8044469 Si02
#       7
#     2   2   2   2   2   2   2
#     4   9  20  34  60  87 120 157 204 249 297 362
#     4  11  24  41  60  96 129 160 203 261 311 368
#     4  11  23  43  63  90 125 171 207 249 302 382
#     4  10  19  38  61  90 123 162 206 252 299 372
#     4  11  23  39  67  92 130 161 200 261 319 357
#     4  10  20  40  64  92 121 160 207 255 306 364
#     4  10  23  41  68  90 119 168 213 253 304 361
#
# _framework density 22.594581999999999
#
# number of rings (size 3 to 8) (size 9 to 14) (size 15 to 20)
#    0.000    1.714    1.429    3.429    4.000    5.714 
#    0.000    8.571    0.000    0.000    0.000    1.000 
#    0.000    0.000    0.000    0.000    0.000    0.000 
#
# Total GULP energy -173498.727675 kJ/mol
# GULP energy per Si atom -12392.766262 kJ/mol
# Density = 2.254316 g / cm^3
# Si number density = 22.594582 Si / 1000 Ang^3
#
#
#
# Elastic Constant Matrix: (Units=GPa)
#
#
# Indices 1 2 3 4 5 6 
#
# 1 115.7533 27.0042 9.9577 6.6576 6.9153 2.5262
# 2 27.0042 64.1270 18.3193 -2.0528 5.4792 5.1371
# 3 9.9577 18.3193 52.3375 3.6724 4.7202 -2.7049
# 4 6.6576 -2.0528 3.6724 20.7899 -3.2920 4.5284
# 5 6.9153 5.4792 4.7202 -3.2920 24.0764 -1.1045
# 6 2.5262 5.1371 -2.7049 4.5284 -1.1045 19.8279
#
#
#
# Elastic Compliance Matrix: (Units=1/GPa)
#
#
# Indices 1 2 3 4 5 6 
#
# 1 0.009985 -0.004215 0.000125 -0.004169 -0.002473 0.000651
# 2 -0.004215 0.020232 -0.006916 0.005863 -0.001561 -0.007074
# 3 0.000125 -0.006916 0.022604 -0.006617 -0.003515 0.006175
# 4 -0.004169 0.005863 -0.006617 0.055543 0.008107 -0.014124
# 5 -0.002473 -0.001561 -0.003515 0.008107 0.044437 0.000864
# 6 0.000651 -0.007074 0.006175 -0.014124 0.000864 0.056300
#
#
# Mechanical properties :
#
#
# Convention : Reuss Voigt Hill
#
# Bulk Modulus (GPa) = 32.45747 38.08669 35.27208
# Shear Modulus (GPa) = 20.71387 24.73463 22.72425
#
# Velocity S-wave (km/s) = 3.03109 3.31224 3.17478
# Velocity P-wave (km/s) = 5.16201 5.61436 5.39293
#
# Compressibility (1/GPa) = 0.03080955
#
# Stress axis : x y z
#
# Youngs Moduli (GPa) = 100.15108 49.42580 44.23943
#
# Poissons Ratio (x) = 0.20831 -0.00552
# Poissons Ratio (y) = 0.42210 0.30596
# Poissons Ratio (z) = -0.01249 0.34183
#
# Static dielectric constant tensor:
#      x y z
#    x 4.484550 -0.080280 0.160970 
#    y -0.080280 3.539460 0.072930 
#    z 0.160970 0.072930 4.274010 
# 
# 
# High freq. dielectric constant tensor:
#      x y z
#    x 1.912630 0.004560 0.005660 
#    y 0.004560 1.843450 0.005270 
#    z 0.005660 0.005270 1.889340 
# 
# From -- ./inp_files/245202.got.cif
#   From: 2010.06.25/outbox.cif.g09.slc.cpg/sg2_123_cif.got.tgz:245202.got - 2010.06.27 13:26:56.
