data_PCOD8044677
_publ_section_title
;
Structure prediction by ZEFSAII (Michael W. Deem and Ramdas Pophale) SiO2 
 PCOD8044677
Probable space group: P -1
;
_chemical_formula_sum "Si O2"
_cell_formula_units_Z 16
_cell_length_a 12.179260
_cell_length_b 11.072939
_cell_length_c 5.322306
_cell_angle_alpha 103.200656
_cell_angle_beta 121.307045
_cell_angle_gamma 72.392708
_cell_volume 582.289890
_symmetry_space_group_name_H-M "P -1"
_symmetry_group_IT_number 2
_symmetry_cell_setting 'triclinic'
loop_
_space_group_symop_operation_xyz
x,y,z
-x,-y,-z
loop_
_atom_site_type_symbol
_atom_site_label
_atom_site_fract_x
_atom_site_fract_y
_atom_site_fract_z
Si Si1 0.086430 0.834374 0.904523
Si Si2 0.888410 0.357629 0.743578
Si Si3 0.804158 0.951253 0.648890
Si Si4 0.345232 0.229622 0.330183
Si Si5 0.349780 0.696982 0.030039
Si Si6 0.316851 0.461132 0.694831
Si Si7 0.399781 0.827626 0.662208
Si Si8 0.126008 0.411238 0.836662
O O1 0.188430 0.738873 0.795773
O O2 0.934537 0.861229 0.634606
O O3 0.097577 0.780911 0.180922
O O4 0.138104 0.966078 0.035571
O O5 0.739223 0.426447 0.519220
O O6 0.995537 0.352880 0.643053
O O7 0.922078 0.445047 0.053663
O O8 0.708980 0.870541 0.620195
O O9 0.707953 0.039632 0.375558
O O10 0.410097 0.332186 0.625367
O O11 0.454930 0.153007 0.234440
O O12 0.227310 0.323917 0.101784
O O13 0.391942 0.540375 0.013088
O O14 0.421136 0.757186 0.920896
O O15 0.356966 0.749159 0.342814
O O16 0.195184 0.410901 0.648803
#
# Coordination Sequence:
#
# PCOD8044677 Si02
#       8
#     2   2   2   2   2   2   2   2
#     4  10  20  42  75 102 140 179 232 298 356 419
#     4  10  19  38  65 100 143 175 220 287 358 422
#     4  10  22  45  70 102 138 187 238 291 351 413
#     4  11  25  44  66 101 141 192 236 283 348 424
#     4  11  25  47  74 106 138 184 236 296 360 414
#     4  11  23  38  68 104 139 182 230 293 360 424
#     4  11  27  49  73  98 144 192 242 291 339 416
#     4  10  21  37  64 100 142 177 224 281 355 423
#
# _framework density 27.477719
#
# number of rings (size 3 to 8) (size 9 to 14) (size 15 to 20)
#    0.000    1.500    2.500    2.250    3.500    2.500 
#    4.500    4.375    0.000    0.000    0.000    0.000 
#    0.000    0.000    0.000    0.000    0.000    0.000 
#
# Total GULP energy -198269.567796 kJ/mol
# GULP energy per Si atom -12391.847987 kJ/mol
# Density = 2.741518 g / cm^3
# Si number density = 27.477719 Si / 1000 Ang^3
#
#
#
# Elastic Constant Matrix: (Units=GPa)
#
#
# Indices 1 2 3 4 5 6 
#
# 1 61.5614 24.4523 -14.2022 0.8001 -15.9349 -2.0995
# 2 24.4523 103.2411 16.4158 -16.9099 -8.1824 1.6031
# 3 -14.2022 16.4158 48.6036 -21.3438 -9.9613 6.1727
# 4 0.8001 -16.9099 -21.3438 25.4436 -2.3772 4.5640
# 5 -15.9349 -8.1824 -9.9613 -2.3772 29.5082 3.0065
# 6 -2.0995 1.6031 6.1727 4.5640 3.0065 52.6852
#
#
#
# Elastic Compliance Matrix: (Units=1/GPa)
#
#
# Indices 1 2 3 4 5 6 
#
# 1 0.030716 -0.006004 0.025488 0.019667 0.025594 -0.004744
# 2 -0.006004 0.012576 -0.003496 0.005698 -0.000407 -0.000683
# 3 0.025488 -0.003496 0.064276 0.057026 0.040478 -0.013659
# 4 0.019667 0.005698 0.057026 0.097157 0.040992 -0.016827
# 5 0.025594 -0.000407 0.040478 0.040992 0.065686 -0.011010
# 6 -0.004744 -0.000683 -0.013659 -0.016827 -0.011010 0.022499
#
#
# Mechanical properties :
#
#
# Convention : Reuss Voigt Hill
#
# Bulk Modulus (GPa) = 7.16628 29.63755 18.40191
# Shear Modulus (GPa) = 16.26284 33.97674 25.11979
#
# Velocity S-wave (km/s) = 2.43545 3.52023 3.02683
# Velocity P-wave (km/s) = 3.24380 5.22802 4.35054
#
# Compressibility (1/GPa) = 0.13954246
#
# Stress axis : x y z
#
# Youngs Moduli (GPa) = 32.55585 79.51792 15.55786
#
# Poissons Ratio (x) = 0.47746 -0.39654
# Poissons Ratio (y) = 0.19548 0.05440
# Poissons Ratio (z) = -0.82978 0.27803
#
# Static dielectric constant tensor:
#      x y z
#    x 5.486420 -0.263730 0.358000 
#    y -0.263730 5.415170 0.019230 
#    z 0.358000 0.019230 4.688840 
# 
# 
# High freq. dielectric constant tensor:
#      x y z
#    x 2.128210 -0.007360 0.017750 
#    y -0.007360 2.115820 -0.002210 
#    z 0.017750 -0.002210 2.085020 
# 
# From -- ./inp_files/71413.got.cif
#   From: 2010.06.25/outbox.cif.g09.slc.cpg/sg2_36_cif.got.tgz:71413.got - 2010.06.27 13:26:56.
