data_PCOD8044934
_publ_section_title
;
Structure prediction by ZEFSAII (Michael W. Deem and Ramdas Pophale) SiO2 
 PCOD8044934
Probable space group: P 2
;
_chemical_formula_sum "Si O2"
_cell_formula_units_Z 16
_cell_length_a 8.877719
_cell_length_b 11.872895
_cell_length_c 9.110604
_cell_angle_alpha 90.000000
_cell_angle_beta 60.627003
_cell_angle_gamma 90.000000
_cell_volume 836.845356
_symmetry_space_group_name_H-M "P 2"
_symmetry_group_IT_number 3
_symmetry_cell_setting 'monoclinic'
loop_
_space_group_symop_operation_xyz
x,y,z
-x,y,-z
loop_
_atom_site_type_symbol
_atom_site_label
_atom_site_fract_x
_atom_site_fract_y
_atom_site_fract_z
Si Si1 0.280897 0.194310 0.304592
Si Si2 0.352856 0.943838 0.183227
Si Si3 0.666267 0.802550 0.520808
Si Si4 0.822844 0.563868 0.501664
Si Si5 0.987332 0.421263 0.171380
Si Si6 0.916782 0.195581 0.325572
Si Si7 0.021756 0.955566 0.665189
Si Si8 0.657927 0.422996 0.832028
O O1 0.255201 0.205036 0.492031
O O2 0.399395 0.296214 0.188648
O O3 0.092375 0.216421 0.329492
O O4 0.365010 0.074770 0.223904
O O5 0.381739 0.861868 0.305069
O O6 0.168402 0.915573 0.194037
O O7 0.500000 0.912816 0.000000
O O8 0.500000 0.816881 0.500000
O O9 0.712400 0.673208 0.517975
O O10 0.836597 0.861114 0.370181
O O11 0.863148 0.498190 0.331393
O O12 0.699449 0.490319 0.664084
O O13 0.000000 0.596743 0.500000
O O14 0.909570 0.292945 0.205268
O O15 0.178953 0.424236 0.140700
O O16 0.000000 0.467917 0.000000
O O17 0.923232 0.065969 0.266706
O O18 0.000000 0.986897 0.500000
O O19 0.500000 0.476845 0.000000
#
# Coordination Sequence:
#
# PCOD8044934 Si02
#       8
#     2   2   2   2   2   2   2   2
#     4   9  14  29  57  87 111 145 189 222 267 333
#     4  10  19  34  61  89 113 146 192 236 270 336
#     4  11  23  39  57  81 111 148 191 241 294 341
#     4  10  21  39  61  78 105 157 200 231 280 343
#     4  10  21  36  58  86 116 147 187 233 289 344
#     4   9  13  29  58  83 108 148 183 222 273 337
#     4   9  16  34  60  81 110 152 189 221 270 343
#     4  10  20  34  58  87 114 146 190 233 272 339
#
# _framework density 19.119422
#
# number of rings (size 3 to 8) (size 9 to 14) (size 15 to 20)
#    0.000    2.250    5.000    1.500    0.000    1.500 
#    0.000    8.125    0.000    0.000    0.000    0.000 
#    0.000    0.000    0.000    0.000    0.000    0.000 
#
# Total GULP energy -198268.888229 kJ/mol
# GULP energy per Si atom -12391.805514 kJ/mol
# Density = 1.907591 g / cm^3
# Si number density = 19.119422 Si / 1000 Ang^3
#
#
#
# Elastic Constant Matrix: (Units=GPa)
#
#
# Indices 1 2 3 4 5 6 
#
# 1 69.7177 58.4912 52.9977 0.0000 -10.7612 0.0000
# 2 58.4912 128.0194 58.1719 0.0000 -0.9125 0.0000
# 3 52.9977 58.1719 144.2137 0.0000 -16.1830 0.0000
# 4 0.0000 0.0000 0.0000 9.0550 0.0000 1.3141
# 5 -10.7612 -0.9125 -16.1830 0.0000 27.4761 0.0000
# 6 0.0000 0.0000 0.0000 1.3141 0.0000 15.2362
#
#
#
# Elastic Compliance Matrix: (Units=1/GPa)
#
#
# Indices 1 2 3 4 5 6 
#
# 1 0.028377 -0.010482 -0.005345 0.000000 0.007618 0.000000
# 2 -0.010482 0.013550 -0.002167 0.000000 -0.004932 0.000000
# 3 -0.005345 -0.002167 0.010204 0.000000 0.003845 0.000000
# 4 0.000000 0.000000 0.000000 0.111837 0.000000 -0.009646
# 5 0.007618 -0.004932 0.003845 0.000000 0.041479 0.000000
# 6 0.000000 0.000000 0.000000 -0.009646 0.000000 0.066465
#
#
# Mechanical properties :
#
#
# Convention : Reuss Voigt Hill
#
# Bulk Modulus (GPa) = 61.94962 75.69694 68.82328
# Shear Modulus (GPa) = 15.96009 21.83946 18.89978
#
# Velocity S-wave (km/s) = 2.89235 3.38341 3.14747
# Velocity P-wave (km/s) = 6.60500 7.41221 7.02022
#
# Compressibility (1/GPa) = 0.01614215
#
# Stress axis : x y z
#
# Youngs Moduli (GPa) = 35.24000 73.80071 97.99980
#
# Poissons Ratio (x) = 0.77358 0.52385
# Poissons Ratio (y) = 0.36938 0.21237
# Poissons Ratio (z) = 0.18837 0.15993
#
# Static dielectric constant tensor:
#      x y z
#    x 3.150040 0.000000 -0.216830 
#    y 0.000000 3.614360 0.000000 
#    z -0.216830 0.000000 3.550760 
# 
# 
# High freq. dielectric constant tensor:
#      x y z
#    x 1.706220 0.000000 -0.022410 
#    y 0.000000 1.748510 0.000000 
#    z -0.022410 0.000000 1.735330 
# 
# From -- ./inp_files/5997.got.cif
#   From: 2010.03.12/outbox.cif.g09.slc.cpg/sg3_3_cif.got.tgz:5997.got - 2010.03.31 09:20:49.
