data_PCOD8044628
_publ_section_title
;
Structure prediction by ZEFSAII (Michael W. Deem and Ramdas Pophale) SiO2 
 PCOD8044628
Probable space group: P -1
;
_chemical_formula_sum "Si O2"
_cell_formula_units_Z 14
_cell_length_a 18.347507
_cell_length_b 15.043237
_cell_length_c 9.156438
_cell_angle_alpha 132.859378
_cell_angle_beta 132.581490
_cell_angle_gamma 21.767796
_cell_volume 677.548547
_symmetry_space_group_name_H-M "P -1"
_symmetry_group_IT_number 2
_symmetry_cell_setting 'triclinic'
loop_
_space_group_symop_operation_xyz
x,y,z
-x,-y,-z
loop_
_atom_site_type_symbol
_atom_site_label
_atom_site_fract_x
_atom_site_fract_y
_atom_site_fract_z
Si Si1 0.656817 0.096870 0.840023
Si Si2 0.023480 0.091785 0.036690
Si Si3 0.847840 0.333235 0.575064
Si Si4 0.716594 0.728021 0.939177
Si Si5 0.186378 0.897608 0.738608
Si Si6 0.220208 0.497444 0.637988
Si Si7 0.107901 0.368838 0.227727
O O1 0.763316 0.064832 0.821557
O O2 0.459722 0.244839 0.678186
O O3 0.815840 0.828400 0.804697
O O4 0.628795 0.217644 0.078625
O O5 0.016642 0.067155 0.827483
O O6 0.847501 0.370573 0.154851
O O7 0.000000 0.000000 0.000000
O O8 0.726535 0.571696 0.753481
O O9 0.742667 0.314314 0.443038
O O10 0.862086 0.339111 0.427862
O O11 0.076096 0.083258 0.663316
O O12 0.764340 0.745592 0.873069
O O13 0.875071 0.599653 0.133201
O O14 0.500000 0.000000 0.000000
O O15 0.137270 0.450000 0.467376
#
# Coordination Sequence:
#
# PCOD8044628 Si02
#       7
#     2   2   2   2   2   2   2
#     4  10  22  39  60  91 130 168 203 263 313 381
#     4  10  21  39  61  90 124 164 206 265 313 374
#     4  10  19  38  64  90 116 167 205 257 314 370
#     4  10  21  39  65  91 129 164 212 264 318 371
#     4   9  20  38  66  84 128 163 204 259 321 366
#     4  11  22  37  66  90 127 168 212 251 319 377
#     4  10  22  39  60  93 128 171 206 261 313 374
#
# _framework density 20.662725999999999
#
# number of rings (size 3 to 8) (size 9 to 14) (size 15 to 20)
#    0.857    1.143    2.857    0.429    0.000    7.429 
#    0.000    0.000    3.143    3.429    0.000    0.000 
#    0.000    0.000    0.000    0.000    0.000    0.000 
#
# Total GULP energy -173449.149167 kJ/mol
# GULP energy per Si atom -12389.224940 kJ/mol
# Density = 2.061570 g / cm^3
# Si number density = 20.662726 Si / 1000 Ang^3
#
#
#
# Elastic Constant Matrix: (Units=GPa)
#
#
# Indices 1 2 3 4 5 6 
#
# 1 65.4656 52.1767 37.0506 -3.8120 13.2746 9.8398
# 2 52.1767 99.1214 55.2048 1.6614 13.4426 -9.9442
# 3 37.0506 55.2048 105.3002 -2.6695 27.1913 6.2113
# 4 -3.8120 1.6614 -2.6695 34.9781 5.0503 0.9797
# 5 13.2746 13.4426 27.1913 5.0503 33.4206 3.3008
# 6 9.8398 -9.9442 6.2113 0.9797 3.3008 26.5384
#
#
#
# Elastic Compliance Matrix: (Units=1/GPa)
#
#
# Indices 1 2 3 4 5 6 
#
# 1 0.036194 -0.021229 0.001302 0.006481 -0.005783 -0.021199
# 2 -0.021229 0.028291 -0.009674 -0.005508 0.003734 0.020475
# 3 0.001302 -0.009674 0.017354 0.003653 -0.010608 -0.006985
# 4 0.006481 -0.005508 0.003653 0.031071 -0.007479 -0.005539
# 5 -0.005783 0.003734 -0.010608 -0.007479 0.040351 0.001283
# 6 -0.021199 0.020475 -0.006985 -0.005539 0.001283 0.054893
#
#
# Mechanical properties :
#
#
# Convention : Reuss Voigt Hill
#
# Bulk Modulus (GPa) = 44.17304 62.08349 53.12827
# Shear Modulus (GPa) = 18.18837 27.35109 22.76973
#
# Velocity S-wave (km/s) = 2.97012 3.64221 3.32320
# Velocity P-wave (km/s) = 5.76079 6.91367 6.36340
#
# Compressibility (1/GPa) = 0.02263824
#
# Stress axis : x y z
#
# Youngs Moduli (GPa) = 27.62901 35.34668 57.62368
#
# Poissons Ratio (x) = 0.75036 -0.07504
# Poissons Ratio (y) = 0.58653 0.55745
# Poissons Ratio (z) = -0.03598 0.34195
#
# Static dielectric constant tensor:
#      x y z
#    x 3.671670 0.203870 0.228120 
#    y 0.203870 3.379970 0.069410 
#    z 0.228120 0.069410 4.145610 
# 
# 
# High freq. dielectric constant tensor:
#      x y z
#    x 1.799510 0.024600 0.018460 
#    y 0.024600 1.779090 0.000770 
#    z 0.018460 0.000770 1.822790 
# 
# From -- ./inp_files/335768.got.cif
#   From: 2010.06.25/outbox.cif.g09.slc.cpg/sg2_168_cif.got.tgz:335768.got - 2010.06.27 13:26:56.
