data_PCOD8044161
_publ_section_title
;
Structure prediction by ZEFSAII (Michael W. Deem and Ramdas Pophale) SiO2 
 PCOD8044161
Probable space group: P -1
;
_chemical_formula_sum "Si O2"
_cell_formula_units_Z 16
_cell_length_a 22.630723
_cell_length_b 8.935086
_cell_length_c 9.140544
_cell_angle_alpha 77.615037
_cell_angle_beta 115.061407
_cell_angle_gamma 46.074749
_cell_volume 755.933464
_symmetry_space_group_name_H-M "P -1"
_symmetry_group_IT_number 2
_symmetry_cell_setting 'triclinic'
loop_
_space_group_symop_operation_xyz
x,y,z
-x,-y,-z
loop_
_atom_site_type_symbol
_atom_site_label
_atom_site_fract_x
_atom_site_fract_y
_atom_site_fract_z
Si Si1 0.415604 0.319778 0.191838
Si Si2 0.281722 0.401282 0.260371
Si Si3 0.641483 0.620519 0.188170
Si Si4 0.909610 0.239014 0.492308
Si Si5 0.905641 0.568333 0.307889
Si Si6 0.356260 0.725080 0.245181
Si Si7 0.796268 0.164899 0.715833
Si Si8 0.954924 0.310534 0.108590
O O1 0.308153 0.414253 0.122554
O O2 0.411008 0.474161 0.257481
O O3 0.571780 0.924826 0.434177
O O4 0.377648 0.447483 0.960366
O O5 0.193543 0.706930 0.198545
O O6 0.206345 0.390685 0.169559
O O7 0.746868 0.531921 0.261230
O O8 0.695441 0.402432 0.421155
O O9 0.500000 0.000000 0.000000
O O10 0.909847 0.422892 0.462130
O O11 0.000000 0.000000 0.500000
O O12 0.981810 0.995818 0.751794
O O13 0.969888 0.376112 0.260498
O O14 0.000000 0.500000 0.500000
O O15 0.744510 0.956504 0.025568
O O16 0.500000 0.500000 0.500000
O O17 0.262154 0.860590 0.253645
O O18 0.954100 0.795027 0.900258
#
# Coordination Sequence:
#
# PCOD8044161 Si02
#       8
#     2   2   2   2   2   2   2   2
#     4  10  21  36  64  91 127 171 213 259 315 388
#     4  10  19  37  64  96 124 164 215 266 319 380
#     4  11  21  38  65  98 127 156 216 285 322 360
#     4   9  21  38  65  93 121 165 214 268 312 378
#     4  11  25  41  65  97 131 173 219 260 317 396
#     4  11  26  44  64  87 133 180 214 251 324 407
#     4  10  23  39  65  95 126 162 215 273 326 378
#     4  10  21  40  68  92 129 162 215 273 324 373
#
# _framework density 21.165883000000001
#
# number of rings (size 3 to 8) (size 9 to 14) (size 15 to 20)
#    0.000    1.750    1.250    2.625   10.500    0.500 
#    0.000    1.875    0.000    0.000    0.000    0.000 
#    0.000    0.000    0.000    0.000    0.000    0.000 
#
# Total GULP energy -198274.312707 kJ/mol
# GULP energy per Si atom -12392.144544 kJ/mol
# Density = 2.111771 g / cm^3
# Si number density = 21.165883 Si / 1000 Ang^3
#
#
#
# Elastic Constant Matrix: (Units=GPa)
#
#
# Indices 1 2 3 4 5 6 
#
# 1 93.2420 36.0820 29.4598 6.0877 16.5154 -0.1925
# 2 36.0820 67.9105 31.3358 0.7202 20.3764 -11.5944
# 3 29.4598 31.3358 90.5317 11.0292 13.7182 -3.6710
# 4 6.0877 0.7202 11.0292 38.0740 -1.1023 0.0798
# 5 16.5154 20.3764 13.7182 -1.1023 39.4786 -5.2407
# 6 -0.1925 -11.5944 -3.6710 0.0798 -5.2407 34.8347
#
#
#
# Elastic Compliance Matrix: (Units=1/GPa)
#
#
# Indices 1 2 3 4 5 6 
#
# 1 0.014369 -0.006427 -0.001992 -0.001663 -0.002397 -0.002626
# 2 -0.006427 0.023543 -0.004988 0.001816 -0.006851 0.006240
# 3 -0.001992 -0.004988 0.014107 -0.003721 -0.001655 -0.000425
# 4 -0.001663 0.001816 -0.003721 0.027628 0.001879 0.000422
# 5 -0.002397 -0.006851 -0.001655 0.001879 0.030783 0.002159
# 6 -0.002626 0.006240 -0.000425 0.000422 0.002159 0.031049
#
#
# Mechanical properties :
#
#
# Convention : Reuss Voigt Hill
#
# Bulk Modulus (GPa) = 39.67300 49.49327 44.58313
# Shear Modulus (GPa) = 28.29768 32.79791 30.54779
#
# Velocity S-wave (km/s) = 3.66040 3.94072 3.80314
# Velocity P-wave (km/s) = 6.05386 6.64379 6.35567
#
# Compressibility (1/GPa) = 0.02520606
#
# Stress axis : x y z
#
# Youngs Moduli (GPa) = 69.59518 42.47539 70.88563
#
# Poissons Ratio (x) = 0.27298 0.14120
# Poissons Ratio (y) = 0.44728 0.35356
# Poissons Ratio (z) = 0.13863 0.21185
#
# Static dielectric constant tensor:
#      x y z
#    x 4.221220 -0.103940 -0.005760 
#    y -0.103940 3.866970 -0.122360 
#    z -0.005760 -0.122360 3.922320 
# 
# 
# High freq. dielectric constant tensor:
#      x y z
#    x 1.815980 -0.013890 0.006230 
#    y -0.013890 1.831690 -0.004970 
#    z 0.006230 -0.004970 1.835690 
# 
# From -- ./inp_files/343556.got.cif
#   From: 2010.06.25/outbox.cif.g09.slc.cpg/sg2_172_cif.got.tgz:343556.got - 2010.06.27 13:26:56.
