data_PCOD8044851
_publ_section_title
;
Structure prediction by ZEFSAII (Michael W. Deem and Ramdas Pophale) SiO2 
 PCOD8044851
Probable space group: P 2
;
_chemical_formula_sum "Si O2"
_cell_formula_units_Z 14
_cell_length_a 14.988886
_cell_length_b 8.695244
_cell_length_c 11.350380
_cell_angle_alpha 90.000000
_cell_angle_beta 28.183615
_cell_angle_gamma 90.000000
_cell_volume 698.679977
_symmetry_space_group_name_H-M "P 2"
_symmetry_group_IT_number 3
_symmetry_cell_setting 'monoclinic'
loop_
_space_group_symop_operation_xyz
x,y,z
-x,y,-z
loop_
_atom_site_type_symbol
_atom_site_label
_atom_site_fract_x
_atom_site_fract_y
_atom_site_fract_z
Si Si1 0.704268 0.851940 0.282446
Si Si2 0.420280 0.231763 0.278256
Si Si3 0.645351 0.191993 0.243875
Si Si4 0.500000 0.981448 0.000000
Si Si5 0.080151 0.842864 0.731267
Si Si6 0.964549 0.178983 0.177321
Si Si7 0.193207 0.737785 0.349266
Si Si8 0.500000 0.485174 0.000000
O O1 0.500000 0.768390 0.500000
O O2 0.754649 0.842172 0.362223
O O3 0.682109 0.026520 0.262320
O O4 0.878770 0.771850 0.009794
O O5 0.573005 0.182559 0.196270
O O6 0.224171 0.272868 0.573368
O O7 0.480584 0.382987 0.139112
O O8 0.406028 0.085116 0.210059
O O9 0.500000 0.282126 0.500000
O O10 0.850120 0.275662 0.997804
O O11 0.671369 0.877244 0.851104
O O12 0.148276 0.748485 0.539843
O O13 0.047198 0.020535 0.735493
O O14 0.000000 0.137057 0.000000
O O15 0.310619 0.581582 0.196268
O O16 0.000000 0.735688 0.500000
#
# Coordination Sequence:
#
# PCOD8044851 Si02
#       8
#     2   2   2   1   2   2   2   1
#     4   9  17  28  54  92 132 154 180 243 338 386
#     4  11  22  40  64  94 131 165 214 266 321 382
#     4  10  18  29  57  97 131 159 187 248 333 391
#     4  10  24  36  62 102 124 158 214 282 322 370
#     4  10  18  33  56  93 129 155 198 258 321 384
#     4  11  17  32  58  99 133 151 186 261 333 382
#     4  11  25  43  64  87 126 175 228 264 315 369
#     4  10  28  50  60  80 128 190 228 260 302 370
#
# _framework density 20.037786000000001
#
# number of rings (size 3 to 8) (size 9 to 14) (size 15 to 20)
#    0.000    1.714    5.714    0.857    4.000    2.286 
#    0.000    2.857    3.143    0.857    0.000    0.000 
#    0.000    0.000    0.000    0.000    0.000    0.000 
#
# Total GULP energy -173456.913268 kJ/mol
# GULP energy per Si atom -12389.779519 kJ/mol
# Density = 1.999218 g / cm^3
# Si number density = 20.037786 Si / 1000 Ang^3
#
#
#
# Elastic Constant Matrix: (Units=GPa)
#
#
# Indices 1 2 3 4 5 6 
#
# 1 140.2738 40.8143 75.2436 0.0000 -20.1312 0.0000
# 2 40.8143 69.6504 44.4867 0.0000 1.6709 0.0000
# 3 75.2436 44.4867 165.7455 0.0000 -20.4475 0.0000
# 4 0.0000 0.0000 0.0000 17.1802 0.0000 7.0083
# 5 -20.1312 1.6709 -20.4475 0.0000 47.1278 0.0000
# 6 0.0000 0.0000 0.0000 7.0083 0.0000 9.0125
#
#
#
# Elastic Compliance Matrix: (Units=1/GPa)
#
#
# Indices 1 2 3 4 5 6 
#
# 1 0.010567 -0.004177 -0.003276 0.000000 0.003240 0.000000
# 2 -0.004177 0.019331 -0.003800 0.000000 -0.004119 0.000000
# 3 -0.003276 -0.003800 0.008859 0.000000 0.002579 0.000000
# 4 0.000000 0.000000 0.000000 0.085248 0.000000 -0.066291
# 5 0.003240 -0.004119 0.002579 0.000000 0.023868 0.000000
# 6 0.000000 0.000000 0.000000 -0.066291 0.000000 0.162506
#
#
# Mechanical properties :
#
#
# Convention : Reuss Voigt Hill
#
# Bulk Modulus (GPa) = 61.54017 77.41764 69.47891
# Shear Modulus (GPa) = 14.77967 29.00579 21.89273
#
# Velocity S-wave (km/s) = 2.71881 3.80880 3.30899
# Velocity P-wave (km/s) = 6.37453 7.61986 7.02485
#
# Compressibility (1/GPa) = 0.01624955
#
# Stress axis : x y z
#
# Youngs Moduli (GPa) = 94.63751 51.72939 112.88280
#
# Poissons Ratio (x) = 0.21609 0.36980
# Poissons Ratio (y) = 0.39532 0.42900
# Poissons Ratio (z) = 0.31003 0.19659
#
# Static dielectric constant tensor:
#      x y z
#    x 3.723330 0.000000 -0.352370 
#    y 0.000000 3.103190 0.000000 
#    z -0.352370 0.000000 4.666460 
# 
# 
# High freq. dielectric constant tensor:
#      x y z
#    x 1.781130 0.000000 -0.009080 
#    y 0.000000 1.718150 0.000000 
#    z -0.009080 0.000000 1.816430 
# 
# From -- ./inp_files/12204.got.cif
#   From: 2010.03.12/outbox.cif.g09.slc.cpg/sg3_7_cif.got.tgz:12204.got - 2010.03.31 09:20:49.
