data_PCOD8044096
_publ_section_title
;
Structure prediction by ZEFSAII (Michael W. Deem and Ramdas Pophale) SiO2 
 PCOD8044096
Probable space group: P -1
;
_chemical_formula_sum "Si O2"
_cell_formula_units_Z 16
_cell_length_a 11.523003
_cell_length_b 11.694554
_cell_length_c 9.464366
_cell_angle_alpha 125.813661
_cell_angle_beta 84.272011
_cell_angle_gamma 125.467993
_cell_volume 784.878140
_symmetry_space_group_name_H-M "P -1"
_symmetry_group_IT_number 2
_symmetry_cell_setting 'triclinic'
loop_
_space_group_symop_operation_xyz
x,y,z
-x,-y,-z
loop_
_atom_site_type_symbol
_atom_site_label
_atom_site_fract_x
_atom_site_fract_y
_atom_site_fract_z
Si Si1 0.032728 0.613904 0.861505
Si Si2 0.665110 0.479706 0.171241
Si Si3 0.654094 0.205369 0.161661
Si Si4 0.748114 0.400614 0.581399
Si Si5 0.416385 0.791096 0.257249
Si Si6 0.502950 0.417957 0.584318
Si Si7 0.669068 0.975033 0.571990
Si Si8 0.993181 0.707853 0.225635
O O1 0.208950 0.773804 0.913620
O O2 0.931280 0.558185 0.691231
O O3 0.007627 0.440498 0.802292
O O4 0.987311 0.689377 0.042981
O O5 0.642830 0.356012 0.214911
O O6 0.556321 0.528778 0.243393
O O7 0.841465 0.671171 0.271976
O O8 0.616599 0.365306 0.951349
O O9 0.695298 0.254398 0.357462
O O10 0.500000 0.000000 0.000000
O O11 0.695368 0.291222 0.655193
O O12 0.676249 0.501597 0.649021
O O13 0.589120 0.909073 0.379094
O O14 0.375893 0.907450 0.267067
O O15 0.500000 0.500000 0.500000
O O16 0.397000 0.194645 0.435694
O O17 0.849274 0.089351 0.608792
#
# Coordination Sequence:
#
# PCOD8044096 Si02
#       8
#     2   2   2   2   2   2   2   2
#     4  10  20  37  62  95 127 156 211 264 322 355
#     4  11  23  41  63  90 129 167 213 246 317 385
#     4  11  25  36  65  96 126 169 210 259 313 376
#     4  11  21  41  63  92 131 163 210 261 314 370
#     4  10  21  37  65  99 117 157 214 271 305 352
#     4  11  25  42  62  90 132 177 203 246 318 391
#     4  10  21  36  67  90 128 155 209 265 312 354
#     4  10  19  37  63  95 122 159 205 271 308 365
#
# _framework density 20.385328000000001
#
# number of rings (size 3 to 8) (size 9 to 14) (size 15 to 20)
#    0.000    1.500    3.750    1.875    8.750    2.500 
#    0.000    0.000    0.000    1.500    0.000    0.000 
#    0.000    0.000    0.000    0.000    0.000    0.000 
#
# Total GULP energy -198305.070109 kJ/mol
# GULP energy per Si atom -12394.066882 kJ/mol
# Density = 2.033893 g / cm^3
# Si number density = 20.385328 Si / 1000 Ang^3
#
#
#
# Elastic Constant Matrix: (Units=GPa)
#
#
# Indices 1 2 3 4 5 6 
#
# 1 112.9276 47.2555 52.6484 8.3147 7.9010 14.4622
# 2 47.2555 106.0030 42.8564 5.7549 5.7081 5.1200
# 3 52.6484 42.8564 94.3096 -2.8328 16.1919 10.2967
# 4 8.3147 5.7549 -2.8328 28.2297 9.0442 5.7183
# 5 7.9010 5.7081 16.1919 9.0442 36.0261 10.1961
# 6 14.4622 5.1200 10.2967 5.7183 10.1961 29.9353
#
#
#
# Elastic Compliance Matrix: (Units=1/GPa)
#
#
# Indices 1 2 3 4 5 6 
#
# 1 0.013830 -0.003335 -0.006311 -0.004006 0.002475 -0.004018
# 2 -0.003335 0.012678 -0.004260 -0.002559 0.000979 0.001064
# 3 -0.006311 -0.004260 0.017660 0.007081 -0.007329 -0.001153
# 4 -0.004006 -0.002559 0.007081 0.042329 -0.011309 -0.004297
# 5 0.002475 0.000979 -0.007329 -0.011309 0.035695 -0.008840
# 6 -0.004018 0.001064 -0.001153 -0.004297 -0.008840 0.039393
#
#
# Mechanical properties :
#
#
# Convention : Reuss Voigt Hill
#
# Bulk Modulus (GPa) = 61.14961 66.52899 63.83930
# Shear Modulus (GPa) = 25.66099 30.20355 27.93227
#
# Velocity S-wave (km/s) = 3.55180 3.85337 3.70566
# Velocity P-wave (km/s) = 6.84707 7.24600 7.04936
#
# Compressibility (1/GPa) = 0.01635333
#
# Stress axis : x y z
#
# Youngs Moduli (GPa) = 72.30835 78.87854 56.62673
#
# Poissons Ratio (x) = 0.26308 0.35739
# Poissons Ratio (y) = 0.24117 0.24124
# Poissons Ratio (z) = 0.45636 0.33603
#
# Static dielectric constant tensor:
#      x y z
#    x 4.008800 0.281550 0.190760 
#    y 0.281550 3.739700 -0.034340 
#    z 0.190760 -0.034340 3.756470 
# 
# 
# High freq. dielectric constant tensor:
#      x y z
#    x 1.792170 0.018040 0.015420 
#    y 0.018040 1.786820 -0.009000 
#    z 0.015420 -0.009000 1.788420 
# 
# From -- ./inp_files/260082.got.cif
#   From: 2010.06.25/outbox.cif.g09.slc.cpg/sg2_131_cif.got.tgz:260082.got - 2010.06.27 13:26:56.
