data_PCOD8044591
_publ_section_title
;
Structure prediction by ZEFSAII (Michael W. Deem and Ramdas Pophale) SiO2 
 PCOD8044591
Probable space group: P -1
;
_chemical_formula_sum "Si O2"
_cell_formula_units_Z 14
_cell_length_a 8.565996
_cell_length_b 9.469504
_cell_length_c 18.467721
_cell_angle_alpha 46.959165
_cell_angle_beta 118.887428
_cell_angle_gamma 81.994787
_cell_volume 652.218996
_symmetry_space_group_name_H-M "P -1"
_symmetry_group_IT_number 2
_symmetry_cell_setting 'triclinic'
loop_
_space_group_symop_operation_xyz
x,y,z
-x,-y,-z
loop_
_atom_site_type_symbol
_atom_site_label
_atom_site_fract_x
_atom_site_fract_y
_atom_site_fract_z
Si Si1 0.174786 0.607395 0.366487
Si Si2 0.942219 0.136076 0.207081
Si Si3 0.329801 0.249046 0.816141
Si Si4 0.435911 0.835942 0.512235
Si Si5 0.520766 0.260683 0.165643
Si Si6 0.298255 0.711528 0.661958
Si Si7 0.689214 0.723363 0.358486
O O1 0.346194 0.435504 0.394342
O O2 0.346680 0.429466 0.540917
O O3 0.944712 0.636560 0.295279
O O4 0.061254 0.914971 0.244120
O O5 0.767988 0.131047 0.218471
O O6 0.758544 0.455187 0.027749
O O7 0.162995 0.066676 0.327670
O O8 0.305381 0.480197 0.761027
O O9 0.447558 0.184343 0.783660
O O10 0.500000 0.000000 0.000000
O O11 0.414266 0.692280 0.619581
O O12 0.500000 0.000000 0.500000
O O13 0.526864 0.332006 0.222675
O O14 0.541144 0.015417 0.262495
O O15 0.000000 0.000000 0.500000
O O16 0.000000 0.500000 0.500000
#
# Coordination Sequence:
#
# PCOD8044591 Si02
#       7
#     2   2   2   2   2   2   2
#     4  11  23  44  66  97 135 176 227 271 337 408
#     4  11  23  41  66  96 131 176 219 280 332 394
#     4  11  23  39  66 102 132 169 222 281 333 384
#     4  12  26  44  67 100 139 181 223 280 342 399
#     4  11  22  39  67  98 130 165 231 275 327 388
#     4  12  23  41  68  99 132 176 226 277 329 402
#     4  10  19  38  63  93 128 169 223 267 319 400
#
# _framework density 21.465181999999999
#
# number of rings (size 3 to 8) (size 9 to 14) (size 15 to 20)
#    0.000    0.857    4.286    5.571    2.000    0.000 
#    0.000    7.143    0.000    0.000    0.000    0.000 
#    0.000    0.000    0.000    0.000    0.000    0.000 
#
# Total GULP energy -173509.710565 kJ/mol
# GULP energy per Si atom -12393.550755 kJ/mol
# Density = 2.141633 g / cm^3
# Si number density = 21.465182 Si / 1000 Ang^3
#
#
#
# Elastic Constant Matrix: (Units=GPa)
#
#
# Indices 1 2 3 4 5 6 
#
# 1 52.9796 30.9345 45.3629 -4.9895 -1.5973 -10.0810
# 2 30.9345 138.6313 62.8734 -12.8061 2.3626 -15.8021
# 3 45.3629 62.8734 122.0171 -10.9725 -8.9779 -13.6071
# 4 -4.9895 -12.8061 -10.9725 40.4147 3.1355 -21.4430
# 5 -1.5973 2.3626 -8.9779 3.1355 31.4025 1.1601
# 6 -10.0810 -15.8021 -13.6071 -21.4430 1.1601 14.5878
#
#
#
# Elastic Compliance Matrix: (Units=1/GPa)
#
#
# Indices 1 2 3 4 5 6 
#
# 1 0.020651 -0.008627 -0.012262 -0.033637 0.003630 -0.056246
# 2 -0.008627 0.003792 -0.006793 -0.028624 0.002055 -0.050430
# 3 -0.012262 -0.006793 0.013377 -0.011288 0.005592 -0.020393
# 4 -0.033637 -0.028624 -0.011288 -0.128335 0.019449 -0.254972
# 5 0.003630 0.002055 0.005592 0.019449 0.030196 0.036138
# 6 -0.056246 -0.050430 -0.020393 -0.254972 0.036138 -0.421633
#
#
# Mechanical properties :
#
#
# Convention : Reuss Voigt Hill
#
# Bulk Modulus (GPa) = -56.99467 65.77441 4.38987
# Shear Modulus (GPa) = -11.56244 28.91147 8.67452
#
# Velocity S-wave (km/s) = -2.32342 3.67400 2.01246
# Velocity P-wave (km/s) = 5.81442 6.97901 2.72938
#
# Compressibility (1/GPa) = -0.01754550
#
# Stress axis : x y z
#
# Youngs Moduli (GPa) = 48.42403 263.72237 74.75533
#
# Poissons Ratio (x) = 2.27519 0.91666
# Poissons Ratio (y) = 0.41776 0.50783
# Poissons Ratio (z) = 0.59378 1.79153
#
# Static dielectric constant tensor:
#      x y z
#    x 4.134270 -0.301360 -0.316450 
#    y -0.301360 4.245320 0.252980 
#    z -0.316450 0.252980 4.105140 
# 
# 
# High freq. dielectric constant tensor:
#      x y z
#    x 1.827110 -0.001880 -0.012870 
#    y -0.001880 1.862940 -0.000310 
#    z -0.012870 -0.000310 1.844170 
# 
# From -- ./inp_files/205051.got.cif
#   From: 2010.06.25/outbox.cif.g09.slc.cpg/sg2_103_cif.got.tgz:205051.got - 2010.06.27 13:26:56.
