data_PCOD8044105
_publ_section_title
;
Structure prediction by ZEFSAII (Michael W. Deem and Ramdas Pophale) SiO2 
 PCOD8044105
Probable space group: P -1
;
_chemical_formula_sum "Si O2"
_cell_formula_units_Z 16
_cell_length_a 20.691488
_cell_length_b 11.789552
_cell_length_c 18.152382
_cell_angle_alpha 138.859685
_cell_angle_beta 21.090209
_cell_angle_gamma 149.873166
_cell_volume 763.343408
_symmetry_space_group_name_H-M "P -1"
_symmetry_group_IT_number 2
_symmetry_cell_setting 'triclinic'
loop_
_space_group_symop_operation_xyz
x,y,z
-x,-y,-z
loop_
_atom_site_type_symbol
_atom_site_label
_atom_site_fract_x
_atom_site_fract_y
_atom_site_fract_z
Si Si1 0.573877 0.889358 0.670425
Si Si2 0.400659 0.470437 0.735418
Si Si3 0.162366 0.773817 0.974944
Si Si4 0.668265 0.192102 0.850796
Si Si5 0.897066 0.710840 0.519989
Si Si6 0.644387 0.566264 0.067183
Si Si7 0.036004 0.152350 0.646676
Si Si8 0.051438 0.054470 0.796949
O O1 0.376690 0.636108 0.798812
O O2 0.811074 0.931700 0.414094
O O3 0.649493 0.087141 0.741779
O O4 0.444342 0.889141 0.735589
O O5 0.284145 0.392764 0.902692
O O6 0.688625 0.619617 0.509516
O O7 0.259742 0.232907 0.722801
O O8 0.134340 0.843806 0.118901
O O9 0.107702 0.880316 0.022669
O O10 0.000000 0.500000 0.000000
O O11 0.960019 0.370149 0.648794
O O12 0.590444 0.335822 0.987862
O O13 0.500000 0.000000 0.000000
O O14 0.603197 0.489418 0.716795
O O15 0.016184 0.833110 0.374549
O O16 0.973724 0.906659 0.595187
O O17 0.869959 0.792138 0.893236
#
# Coordination Sequence:
#
# PCOD8044105 Si02
#       8
#     2   2   2   2   2   2   2   2
#     4  12  23  40  69  97 122 166 223 265 307 374
#     4  11  20  43  68  91 124 168 215 266 307 374
#     4  12  23  37  64  92 122 167 214 256 310 374
#     4  12  21  40  70  98 124 165 220 265 310 375
#     4  10  20  38  63  91 130 158 206 264 317 367
#     4  11  26  41  64  97 133 169 203 263 328 379
#     4  10  19  37  63  97 119 156 214 269 304 362
#     4  12  26  44  60  94 139 168 205 261 326 379
#
# _framework density 20.960422999999999
#
# number of rings (size 3 to 8) (size 9 to 14) (size 15 to 20)
#    0.000    0.750    5.000    4.500    0.000    1.500 
#    0.000    4.375    0.000    5.250    0.000    0.000 
#    0.000    0.000    0.000    0.000    0.000    0.000 
#
# Total GULP energy -198326.695656 kJ/mol
# GULP energy per Si atom -12395.418478 kJ/mol
# Density = 2.091272 g / cm^3
# Si number density = 20.960423 Si / 1000 Ang^3
#
#
#
# Elastic Constant Matrix: (Units=GPa)
#
#
# Indices 1 2 3 4 5 6 
#
# 1 87.5678 37.6403 38.9260 -5.4252 -9.0409 2.0086
# 2 37.6403 87.9395 25.0452 -6.6500 12.7751 -0.6892
# 3 38.9260 25.0452 72.1837 0.1369 -8.2927 -4.6359
# 4 -5.4252 -6.6500 0.1369 29.5513 1.2777 1.9482
# 5 -9.0409 12.7751 -8.2927 1.2777 44.5706 4.2391
# 6 2.0086 -0.6892 -4.6359 1.9482 4.2391 34.9205
#
#
#
# Elastic Compliance Matrix: (Units=1/GPa)
#
#
# Indices 1 2 3 4 5 6 
#
# 1 0.017858 -0.006077 -0.007215 0.001941 0.004226 -0.002726
# 2 -0.006077 0.015977 -0.002963 0.002716 -0.006528 0.000913
# 3 -0.007215 -0.002963 0.019270 -0.002380 0.002782 0.002710
# 4 0.001941 0.002716 -0.002380 0.035029 -0.001629 -0.002131
# 5 0.004226 -0.006528 0.002782 -0.001629 0.026021 -0.003070
# 6 -0.002726 0.000913 0.002710 -0.002131 -0.003070 0.029663
#
#
# Mechanical properties :
#
#
# Convention : Reuss Voigt Hill
#
# Bulk Modulus (GPa) = 48.55373 50.10154 49.32763
# Shear Modulus (GPa) = 27.29342 31.54711 29.42027
#
# Velocity S-wave (km/s) = 3.61243 3.88374 3.75054
# Velocity P-wave (km/s) = 6.37294 6.63823 6.50694
#
# Compressibility (1/GPa) = 0.02059574
#
# Stress axis : x y z
#
# Youngs Moduli (GPa) = 55.99610 62.58835 51.89291
#
# Poissons Ratio (x) = 0.38037 0.37441
# Poissons Ratio (y) = 0.34031 0.15375
# Poissons Ratio (z) = 0.40401 0.18544
#
# Static dielectric constant tensor:
#      x y z
#    x 3.973020 0.118460 -0.218300 
#    y 0.118460 3.526890 0.195820 
#    z -0.218300 0.195820 3.928920 
# 
# 
# High freq. dielectric constant tensor:
#      x y z
#    x 1.833710 0.022730 -0.018330 
#    y 0.022730 1.798480 0.015790 
#    z -0.018330 0.015790 1.817790 
# 
# From -- ./inp_files/425103.got.cif
#   From: 2010.06.25/outbox.cif.g09.slc.cpg/sg2_213_cif.got.tgz:425103.got - 2010.06.27 13:26:56.
