data_PCOD8044835
_publ_section_title
;
Structure prediction by ZEFSAII (Michael W. Deem and Ramdas Pophale) SiO2 
 PCOD8044835
Probable space group: P 2
;
_chemical_formula_sum "Si O2"
_cell_formula_units_Z 16
_cell_length_a 20.160071
_cell_length_b 5.237926
_cell_length_c 10.099436
_cell_angle_alpha 90.000000
_cell_angle_beta 49.178145
_cell_angle_gamma 90.000000
_cell_volume 807.046452
_symmetry_space_group_name_H-M "P 2"
_symmetry_group_IT_number 3
_symmetry_cell_setting 'monoclinic'
loop_
_space_group_symop_operation_xyz
x,y,z
-x,y,-z
loop_
_atom_site_type_symbol
_atom_site_label
_atom_site_fract_x
_atom_site_fract_y
_atom_site_fract_z
Si Si1 0.854985 0.880390 0.895179
Si Si2 0.958163 0.380153 0.695240
Si Si3 0.449436 0.413393 0.270740
Si Si4 0.075199 0.366952 0.792356
Si Si5 0.895354 0.867554 0.142365
Si Si6 0.505995 0.913317 0.648788
Si Si7 0.680152 0.913285 0.967149
Si Si8 0.635954 0.413386 0.886722
O O1 0.887090 0.598898 0.814798
O O2 0.757016 0.916781 0.973264
O O3 0.916246 0.099394 0.753686
O O4 0.852847 0.910545 0.055530
O O5 0.000000 0.430777 0.500000
O O6 0.035858 0.405062 0.699315
O O7 0.440703 0.664212 0.373108
O O8 0.372598 0.413075 0.261326
O O9 0.440869 0.162742 0.373017
O O10 0.541307 0.413608 0.076264
O O11 0.138676 0.604648 0.746093
O O12 0.131190 0.104725 0.728290
O O13 0.000000 0.324355 0.000000
O O14 0.000000 0.825586 0.000000
O O15 0.500000 0.913040 0.500000
O O16 0.409265 0.912971 0.834797
O O17 0.688460 0.665052 0.863065
O O18 0.688446 0.161953 0.863385
#
# Coordination Sequence:
#
# PCOD8044835 Si02
#       8
#     2   2   2   2   2   2   2   2
#     4  12  21  36  55  80 108 143 176 228 286 327
#     4  12  23  35  55  83 107 135 179 234 281 323
#     4   9  17  30  55  78 102 142 185 223 251 308
#     4  10  16  32  53  76  97 127 177 226 246 311
#     4  10  16  30  55  77  95 128 186 223 243 314
#     4  10  19  33  53  84 114 140 179 226 267 311
#     4  10  21  33  54  79 111 141 176 228 272 323
#     4   9  17  33  51  81 102 134 190 221 255 313
#
# _framework density 19.825377
#
# number of rings (size 3 to 8) (size 9 to 14) (size 15 to 20)
#    0.000    1.750    5.000    2.250    0.000    3.000 
#    0.000    0.000    0.000    9.000    0.000    0.000 
#    0.000    0.000    0.000    0.000    0.000    0.000 
#
# Total GULP energy -198379.410941 kJ/mol
# GULP energy per Si atom -12398.713184 kJ/mol
# Density = 1.978025 g / cm^3
# Si number density = 19.825377 Si / 1000 Ang^3
#
#
#
# Elastic Constant Matrix: (Units=GPa)
#
#
# Indices 1 2 3 4 5 6 
#
# 1 133.1278 47.0458 28.9056 0.0000 36.8600 0.0000
# 2 47.0458 178.1224 22.8487 0.0000 18.6045 0.0000
# 3 28.9056 22.8487 48.8454 0.0000 31.7629 0.0000
# 4 0.0000 0.0000 0.0000 15.9470 0.0000 12.7605
# 5 36.8600 18.6045 31.7629 0.0000 32.5933 0.0000
# 6 0.0000 0.0000 0.0000 12.7605 0.0000 34.0292
#
#
#
# Elastic Compliance Matrix: (Units=1/GPa)
#
#
# Indices 1 2 3 4 5 6 
#
# 1 0.011901 -0.001994 0.005192 0.000000 -0.017381 0.000000
# 2 -0.001994 0.006349 -0.002456 0.000000 0.001025 0.000000
# 3 0.005192 -0.002456 0.058575 0.000000 -0.061553 0.000000
# 4 0.000000 0.000000 0.000000 0.089590 0.000000 -0.033595
# 5 -0.017381 0.001025 -0.061553 0.000000 0.109737 0.000000
# 6 0.000000 0.000000 0.000000 -0.033595 0.000000 0.041984
#
#
# Mechanical properties :
#
#
# Convention : Reuss Voigt Hill
#
# Bulk Modulus (GPa) = 12.76988 61.96622 37.36805
# Shear Modulus (GPa) = 14.58771 33.93360 24.26066
#
# Velocity S-wave (km/s) = 2.71552 4.14167 3.50196
# Velocity P-wave (km/s) = 4.03575 7.36173 5.93643
#
# Compressibility (1/GPa) = 0.07830928
#
# Stress axis : x y z
#
# Youngs Moduli (GPa) = 84.02496 157.50976 17.07215
#
# Poissons Ratio (x) = 0.31407 -0.08864
# Poissons Ratio (y) = 0.16755 0.04193
# Poissons Ratio (z) = -0.43627 0.38685
#
# Static dielectric constant tensor:
#      x y z
#    x 3.547290 0.000000 0.359200 
#    y 0.000000 4.564150 0.000000 
#    z 0.359200 0.000000 3.098840 
# 
# 
# High freq. dielectric constant tensor:
#      x y z
#    x 1.768040 0.000000 0.039560 
#    y 0.000000 1.807240 0.000000 
#    z 0.039560 0.000000 1.721790 
# 
# From -- ./inp_files/8895.got.cif
#   From: 2010.03.12/outbox.cif.g09.slc.cpg/sg3_5_cif.got.tgz:8895.got - 2010.03.31 09:20:49.
