data_PCOD8044463
_publ_section_title
;
Structure prediction by ZEFSAII (Michael W. Deem and Ramdas Pophale) SiO2 
 PCOD8044463
Probable space group: P -1
;
_chemical_formula_sum "Si O2"
_cell_formula_units_Z 16
_cell_length_a 9.002075
_cell_length_b 17.936217
_cell_length_c 11.999333
_cell_angle_alpha 41.431617
_cell_angle_beta 101.399709
_cell_angle_gamma 69.295592
_cell_volume 796.562017
_symmetry_space_group_name_H-M "P -1"
_symmetry_group_IT_number 2
_symmetry_cell_setting 'triclinic'
loop_
_space_group_symop_operation_xyz
x,y,z
-x,-y,-z
loop_
_atom_site_type_symbol
_atom_site_label
_atom_site_fract_x
_atom_site_fract_y
_atom_site_fract_z
Si Si1 0.133569 0.427964 0.875506
Si Si2 0.785778 0.446015 0.704605
Si Si3 0.264157 0.954080 0.883439
Si Si4 0.046363 0.064355 0.184511
Si Si5 0.372590 0.841724 0.265636
Si Si6 0.505731 0.109710 0.443248
Si Si7 0.764430 0.576318 0.338306
Si Si8 0.718198 0.807794 0.447599
O O1 0.214282 0.463734 0.745021
O O2 0.017806 0.380765 0.858396
O O3 0.950141 0.599042 0.733397
O O4 0.348453 0.286505 0.151376
O O5 0.543429 0.629929 0.526418
O O6 0.734911 0.488018 0.516652
O O7 0.849025 0.278034 0.912416
O O8 0.103529 0.961224 0.777730
O O9 0.190689 0.122958 0.655387
O O10 0.217428 0.944402 0.015568
O O11 0.542553 0.788000 0.081086
O O12 0.193259 0.951988 0.219179
O O13 0.233422 0.983943 0.400651
O O14 0.549864 0.847939 0.283935
O O15 0.415568 0.121171 0.536065
O O16 0.500000 0.000000 0.500000
O O17 0.000000 0.500000 0.500000
#
# Coordination Sequence:
#
# PCOD8044463 Si02
#       8
#     2   2   2   2   2   2   2   2
#     4  10  19  38  61  90 112 155 207 252 290 345
#     4   9  19  37  60  90 119 155 205 243 298 356
#     4  11  22  39  56  94 126 154 195 245 311 354
#     4  11  23  38  62  89 126 162 196 250 302 358
#     4   9  21  37  61  87 121 160 199 243 299 365
#     4  11  21  39  64  83 115 160 211 245 291 359
#     4   9  20  34  60  87 118 149 197 246 292 358
#     4  10  22  36  61  89 116 154 203 253 291 360
#
# _framework density 20.086321000000002
#
# number of rings (size 3 to 8) (size 9 to 14) (size 15 to 20)
#    0.000    2.000    1.250    2.625    7.000    2.000 
#    2.250    3.125    0.000    0.000    0.000    0.000 
#    0.000    0.000    0.000    0.000    0.000    0.000 
#
# Total GULP energy -198233.939146 kJ/mol
# GULP energy per Si atom -12389.621197 kJ/mol
# Density = 2.004060 g / cm^3
# Si number density = 20.086321 Si / 1000 Ang^3
#
#
#
# Elastic Constant Matrix: (Units=GPa)
#
#
# Indices 1 2 3 4 5 6 
#
# 1 85.5871 25.8169 42.1853 -11.6503 3.4851 21.5580
# 2 25.8169 63.6721 22.5424 -13.3567 13.1359 7.8055
# 3 42.1853 22.5424 99.2668 -2.4261 8.0550 15.0283
# 4 -11.6503 -13.3567 -2.4261 33.4186 6.1748 0.3670
# 5 3.4851 13.1359 8.0550 6.1748 18.4397 0.4928
# 6 21.5580 7.8055 15.0283 0.3670 0.4928 24.2946
#
#
#
# Elastic Compliance Matrix: (Units=1/GPa)
#
#
# Indices 1 2 3 4 5 6 
#
# 1 0.019237 -0.003111 -0.005355 0.005310 -0.000516 -0.012828
# 2 -0.003111 0.024955 -0.001776 0.012596 -0.020526 -0.003932
# 3 -0.005355 -0.001776 0.013427 -0.000982 -0.003181 -0.002904
# 4 0.005310 0.012596 -0.000982 0.041095 -0.023087 -0.008304
# 5 -0.000516 -0.020526 -0.003181 -0.023087 0.077863 0.007790
# 6 -0.012828 -0.003932 -0.002904 -0.008304 0.007790 0.055571
#
#
# Mechanical properties :
#
#
# Convention : Reuss Voigt Hill
#
# Bulk Modulus (GPa) = 26.92958 47.73501 37.33229
# Shear Modulus (GPa) = 18.86728 25.76268 22.31498
#
# Velocity S-wave (km/s) = 3.06814 3.58522 3.33671
# Velocity P-wave (km/s) = 5.09778 6.39961 5.78543
#
# Compressibility (1/GPa) = 0.03713389
#
# Stress axis : x y z
#
# Youngs Moduli (GPa) = 51.98397 40.07248 74.47908
#
# Poissons Ratio (x) = 0.12467 0.39882
# Poissons Ratio (y) = 0.16173 0.13228
# Poissons Ratio (z) = 0.27837 0.07117
#
# Static dielectric constant tensor:
#      x y z
#    x 3.423470 -0.244690 0.133920 
#    y -0.244690 3.300000 -0.016820 
#    z 0.133920 -0.016820 3.602230 
# 
# 
# High freq. dielectric constant tensor:
#      x y z
#    x 1.760330 -0.000390 0.015430 
#    y -0.000390 1.785160 -0.008300 
#    z 0.015430 -0.008300 1.786310 
# 
# From -- ./inp_files/175203.got.cif
#   From: 2010.06.25/outbox.cif.g09.slc.cpg/sg2_88_cif.got.tgz:175203.got - 2010.06.27 13:26:56.
