data_PCOD8044154
_publ_section_title
;
Structure prediction by ZEFSAII (Michael W. Deem and Ramdas Pophale) SiO2 
 PCOD8044154
Probable space group: P -1
;
_chemical_formula_sum "Si O2"
_cell_formula_units_Z 14
_cell_length_a 8.718218
_cell_length_b 17.659885
_cell_length_c 23.283574
_cell_angle_alpha 158.267585
_cell_angle_beta 31.589020
_cell_angle_gamma 149.688744
_cell_volume 645.595892
_symmetry_space_group_name_H-M "P -1"
_symmetry_group_IT_number 2
_symmetry_cell_setting 'triclinic'
loop_
_space_group_symop_operation_xyz
x,y,z
-x,-y,-z
loop_
_atom_site_type_symbol
_atom_site_label
_atom_site_fract_x
_atom_site_fract_y
_atom_site_fract_z
Si Si1 0.418936 0.249387 0.929803
Si Si2 0.186590 0.354186 0.858052
Si Si3 0.635655 0.197351 0.551083
Si Si4 0.702878 0.154842 0.094966
Si Si5 0.815812 0.633698 0.427336
Si Si6 0.248937 0.911063 0.385184
Si Si7 0.428252 0.022445 0.209999
O O1 0.631255 0.217507 0.789339
O O2 0.442735 0.108453 0.878276
O O3 0.574838 0.514283 0.075247
O O4 0.056979 0.191981 0.989944
O O5 0.407371 0.335647 0.722974
O O6 0.939715 0.113663 0.785701
O O7 0.000000 0.500000 0.000000
O O8 0.993608 0.353009 0.563511
O O9 0.500000 0.000000 0.500000
O O10 0.576081 0.100356 0.437156
O O11 0.643594 0.384046 0.283293
O O12 0.627200 0.043484 0.103361
O O13 0.500000 0.000000 0.000000
O O14 0.560312 0.746835 0.602259
O O15 0.070089 0.756980 0.385515
O O16 0.000000 0.000000 0.500000
#
# Coordination Sequence:
#
# PCOD8044154 Si02
#       7
#     2   2   2   2   2   2   2
#     4  11  24  43  68 100 133 172 212 278 331 380
#     4  10  19  37  67  98 123 166 213 267 327 376
#     4  10  19  37  64  94 127 163 213 265 324 382
#     4  12  29  45  63  97 137 175 221 272 325 389
#     4  11  23  44  67  93 128 179 215 267 329 388
#     4  11  21  40  70 103 132 159 225 277 321 388
#     4  11  23  46  68  92 135 177 217 256 334 410
#
# _framework density 21.685392
#
# number of rings (size 3 to 8) (size 9 to 14) (size 15 to 20)
#    0.000    1.143    5.714    1.714    4.000    0.571 
#    0.000    0.714    0.000    0.000    0.000    0.000 
#    0.000    0.000    0.000    0.000    0.000    0.000 
#
# Total GULP energy -173453.269283 kJ/mol
# GULP energy per Si atom -12389.519235 kJ/mol
# Density = 2.163604 g / cm^3
# Si number density = 21.685392 Si / 1000 Ang^3
#
#
#
# Elastic Constant Matrix: (Units=GPa)
#
#
# Indices 1 2 3 4 5 6 
#
# 1 92.3389 23.2190 22.7188 14.2393 20.2216 12.6973
# 2 23.2190 53.7990 21.8041 -1.7797 14.9071 10.3677
# 3 22.7188 21.8041 102.3731 10.9713 15.1598 6.1534
# 4 14.2393 -1.7797 10.9713 38.7457 5.6706 13.5316
# 5 20.2216 14.9071 15.1598 5.6706 38.8207 -1.7658
# 6 12.6973 10.3677 6.1534 13.5316 -1.7658 37.6475
#
#
#
# Elastic Compliance Matrix: (Units=1/GPa)
#
#
# Indices 1 2 3 4 5 6 
#
# 1 0.014032 -0.003879 -0.001024 -0.003436 -0.005031 -0.002498
# 2 -0.003879 0.025874 -0.003804 0.007775 -0.007945 -0.008362
# 3 -0.001024 -0.003804 0.011384 -0.002895 -0.002007 0.000479
# 4 -0.003436 0.007775 -0.002895 0.033540 -0.005547 -0.012824
# 5 -0.005031 -0.007945 -0.002007 -0.005547 0.033379 0.007772
# 6 -0.002498 -0.008362 0.000479 -0.012824 0.007772 0.034603
#
#
# Mechanical properties :
#
#
# Convention : Reuss Voigt Hill
#
# Bulk Modulus (GPa) = 29.51963 42.66608 36.09285
# Shear Modulus (GPa) = 27.54526 35.09404 31.31965
#
# Velocity S-wave (km/s) = 3.56788 4.02721 3.80448
# Velocity P-wave (km/s) = 5.53311 6.42980 5.99823
#
# Compressibility (1/GPa) = 0.03387577
#
# Stress axis : x y z
#
# Youngs Moduli (GPa) = 71.26371 38.64896 87.83971
#
# Poissons Ratio (x) = 0.14993 0.08998
# Poissons Ratio (y) = 0.27645 0.33413
# Poissons Ratio (z) = 0.07300 0.14702
#
# Static dielectric constant tensor:
#      x y z
#    x 4.843880 0.607370 0.460570 
#    y 0.607370 4.013110 0.385040 
#    z 0.460570 0.385040 4.289080 
# 
# 
# High freq. dielectric constant tensor:
#      x y z
#    x 1.842920 0.017370 0.006160 
#    y 0.017370 1.829720 -0.001800 
#    z 0.006160 -0.001800 1.878100 
# 
# From -- ./inp_files/156603.got.cif
#   From: 2010.06.25/outbox.cif.g09.slc.cpg/sg2_79_cif.got.tgz:156603.got - 2010.06.27 13:26:56.
