data_PCOD8044237
_publ_section_title
;
Structure prediction by ZEFSAII (Michael W. Deem and Ramdas Pophale) SiO2 
 PCOD8044237
Probable space group: P -1
;
_chemical_formula_sum "Si O2"
_cell_formula_units_Z 16
_cell_length_a 12.888666
_cell_length_b 14.960017
_cell_length_c 8.593986
_cell_angle_alpha 30.355797
_cell_angle_beta 114.065087
_cell_angle_gamma 117.373367
_cell_volume 743.427857
_symmetry_space_group_name_H-M "P -1"
_symmetry_group_IT_number 2
_symmetry_cell_setting 'triclinic'
loop_
_space_group_symop_operation_xyz
x,y,z
-x,-y,-z
loop_
_atom_site_type_symbol
_atom_site_label
_atom_site_fract_x
_atom_site_fract_y
_atom_site_fract_z
Si Si1 0.927785 0.982839 0.825109
Si Si2 0.309511 0.392927 0.439693
Si Si3 0.915732 0.612302 0.206138
Si Si4 0.330757 0.463135 0.718592
Si Si5 0.942178 0.656700 0.787622
Si Si6 0.666501 0.912492 0.735727
Si Si7 0.579715 0.215007 0.084453
Si Si8 0.503288 0.795448 0.270123
O O1 0.792149 0.959863 0.826964
O O2 0.946307 0.811270 0.998961
O O3 0.968508 0.153508 0.479830
O O4 0.000000 0.000000 0.000000
O O5 0.322590 0.403509 0.618791
O O6 0.176197 0.347867 0.372700
O O7 0.368487 0.233368 0.649510
O O8 0.377243 0.585278 0.111371
O O9 0.788091 0.496753 0.351099
O O10 0.000000 0.500000 0.500000
O O11 0.922065 0.630798 0.997165
O O12 0.435085 0.632239 0.586625
O O13 0.348387 0.274733 0.092459
O O14 0.000000 0.500000 0.000000
O O15 0.555178 0.889426 0.815571
O O16 0.665765 0.084265 0.368091
O O17 0.590336 0.255842 0.848306
O O18 0.500000 0.000000 0.000000
#
# Coordination Sequence:
#
# PCOD8044237 Si02
#       8
#     2   2   2   2   2   2   2   2
#     4  11  24  42  69  97 134 174 223 276 335 393
#     4  11  21  42  69  90 130 176 219 268 329 405
#     4  11  25  44  66  97 132 177 224 279 329 395
#     4  10  20  43  65  89 128 171 220 266 328 395
#     4  12  25  44  67 101 134 176 225 276 340 399
#     4  10  19  37  66  93 118 166 217 267 318 394
#     4  10  20  38  65  91 125 165 216 258 329 391
#     4  11  23  39  60  97 130 170 213 271 331 392
#
# _framework density 21.521926000000001
#
# number of rings (size 3 to 8) (size 9 to 14) (size 15 to 20)
#    0.000    1.250    2.500    4.875    0.000    4.000 
#    6.750    1.250    0.000    0.000    0.000    0.000 
#    0.000    0.000    0.000    0.000    0.000    0.000 
#
# Total GULP energy -198225.591762 kJ/mol
# GULP energy per Si atom -12389.099485 kJ/mol
# Density = 2.147294 g / cm^3
# Si number density = 21.521926 Si / 1000 Ang^3
#
#
#
# Elastic Constant Matrix: (Units=GPa)
#
#
# Indices 1 2 3 4 5 6 
#
# 1 133.8819 44.4242 53.7977 -20.0438 12.8172 0.0742
# 2 44.4242 80.4094 32.8217 -19.8583 10.8405 -0.2382
# 3 53.7977 32.8217 127.3875 -29.9214 23.4030 1.5450
# 4 -20.0438 -19.8583 -29.9214 38.2781 -0.5524 -3.3463
# 5 12.8172 10.8405 23.4030 -0.5524 45.2262 -2.6756
# 6 0.0742 -0.2382 1.5450 -3.3463 -2.6756 32.3455
#
#
#
# Elastic Compliance Matrix: (Units=1/GPa)
#
#
# Indices 1 2 3 4 5 6 
#
# 1 0.010209 -0.004166 -0.002974 0.000868 -0.000336 0.000150
# 2 -0.004166 0.016842 -0.000746 0.005991 -0.002362 0.000594
# 3 -0.002974 -0.000746 0.011951 0.007304 -0.005087 -0.000235
# 4 0.000868 0.005991 0.007304 0.035586 -0.004851 0.002974
# 5 -0.000336 -0.002362 -0.005087 -0.004851 0.025454 0.001830
# 6 0.000150 0.000594 -0.000235 0.002974 0.001830 0.031390
#
#
# Mechanical properties :
#
#
# Convention : Reuss Voigt Hill
#
# Bulk Modulus (GPa) = 43.04879 67.08511 55.06695
# Shear Modulus (GPa) = 32.26872 37.21230 34.74051
#
# Velocity S-wave (km/s) = 3.87633 4.16269 4.02206
# Velocity P-wave (km/s) = 6.33090 7.37172 6.87105
#
# Compressibility (1/GPa) = 0.02322946
#
# Stress axis : x y z
#
# Youngs Moduli (GPa) = 97.95527 59.37460 83.67236
#
# Poissons Ratio (x) = 0.24735 0.24885
# Poissons Ratio (y) = 0.40808 0.06244
# Poissons Ratio (z) = 0.29133 0.04431
#
# Static dielectric constant tensor:
#      x y z
#    x 4.008840 0.186960 -0.119250 
#    y 0.186960 3.745720 -0.260450 
#    z -0.119250 -0.260450 4.730830 
# 
# 
# High freq. dielectric constant tensor:
#      x y z
#    x 1.852950 0.013760 0.001960 
#    y 0.013760 1.815090 -0.013490 
#    z 0.001960 -0.013490 1.875740 
# 
# From -- ./inp_files/205851.got.cif
#   From: 2010.06.25/outbox.cif.g09.slc.cpg/sg2_103_cif.got.tgz:205851.got - 2010.06.27 13:26:56.
