data_PCOD8044418
_publ_section_title
;
Structure prediction by ZEFSAII (Michael W. Deem and Ramdas Pophale) SiO2 
 PCOD8044418
Probable space group: P -1
;
_chemical_formula_sum "Si O2"
_cell_formula_units_Z 16
_cell_length_a 18.761695
_cell_length_b 8.618664
_cell_length_c 15.687710
_cell_angle_alpha 45.128372
_cell_angle_beta 25.992063
_cell_angle_gamma 41.588541
_cell_volume 733.091640
_symmetry_space_group_name_H-M "P -1"
_symmetry_group_IT_number 2
_symmetry_cell_setting 'triclinic'
loop_
_space_group_symop_operation_xyz
x,y,z
-x,-y,-z
loop_
_atom_site_type_symbol
_atom_site_label
_atom_site_fract_x
_atom_site_fract_y
_atom_site_fract_z
Si Si1 0.312690 0.596086 0.206911
Si Si2 0.266051 0.411795 0.774369
Si Si3 0.342630 0.864662 0.540837
Si Si4 0.788595 0.024699 0.546492
Si Si5 0.552259 0.220178 0.869003
Si Si6 0.863944 0.648080 0.388724
Si Si7 0.812745 0.519584 0.777562
Si Si8 0.971367 0.360341 0.213524
O O1 0.315162 0.815061 0.178050
O O2 0.280345 0.421530 0.378605
O O3 0.172883 0.632323 0.266465
O O4 0.500000 0.500000 0.000000
O O5 0.284372 0.644836 0.704111
O O6 0.451986 0.209313 0.635187
O O7 0.167252 0.466283 0.769739
O O8 0.166065 0.315647 0.989052
O O9 0.300042 0.969947 0.450823
O O10 0.234228 0.077541 0.638431
O O11 0.651769 0.235175 0.669539
O O12 0.956823 0.102441 0.331723
O O13 0.833003 0.769226 0.639477
O O14 0.371455 0.443224 0.991617
O O15 0.500000 0.000000 0.000000
O O16 0.940520 0.482636 0.290662
O O17 0.026709 0.636187 0.278008
#
# Coordination Sequence:
#
# PCOD8044418 Si02
#       8
#     2   2   2   2   2   2   2   2
#     4  10  20  39  55  84 134 172 200 252 301 363
#     4   9  22  47  64  90 117 164 212 287 321 378
#     4  10  22  40  68  85 123 166 213 261 334 378
#     4  10  19  38  60  89 126 173 207 253 309 388
#     4   9  19  37  57  86 122 174 214 246 295 367
#     4  12  23  39  62 100 126 171 208 261 316 385
#     4  10  22  37  59  91 138 167 207 256 300 383
#     4  10  22  41  67  91 125 155 223 270 324 375
#
# _framework density 21.825377
#
# number of rings (size 3 to 8) (size 9 to 14) (size 15 to 20)
#    0.000    2.000    2.500    0.375    1.750    1.500 
#    2.250    3.750    0.000    0.000    0.000    0.000 
#    0.000    0.000    0.000    0.000    0.000    0.000 
#
# Total GULP energy -198278.523302 kJ/mol
# GULP energy per Si atom -12392.407706 kJ/mol
# Density = 2.177570 g / cm^3
# Si number density = 21.825377 Si / 1000 Ang^3
#
#
#
# Elastic Constant Matrix: (Units=GPa)
#
#
# Indices 1 2 3 4 5 6 
#
# 1 104.6543 26.4553 28.5086 0.0156 -19.5797 20.6046
# 2 26.4553 76.4411 16.2779 1.4111 -16.9690 2.2854
# 3 28.5086 16.2779 116.2919 5.1202 -12.0265 -0.1692
# 4 0.0156 1.4111 5.1202 20.7788 1.0703 -4.3862
# 5 -19.5797 -16.9690 -12.0265 1.0703 29.6760 2.9426
# 6 20.6046 2.2854 -0.1692 -4.3862 2.9426 29.2972
#
#
#
# Elastic Compliance Matrix: (Units=1/GPa)
#
#
# Indices 1 2 3 4 5 6 
#
# 1 0.014579 -0.002277 -0.002291 -0.002112 0.008582 -0.011267
# 2 -0.002277 0.015696 -0.000832 -0.001350 0.007240 -0.000557
# 3 -0.002291 -0.000832 0.009564 -0.002134 0.001844 0.001227
# 4 -0.002112 -0.001350 -0.002134 0.051119 -0.005848 0.009819
# 5 0.008582 0.007240 0.001844 -0.005848 0.045652 -0.012051
# 6 -0.011267 -0.000557 0.001227 0.009819 -0.012051 0.044788
#
#
# Mechanical properties :
#
#
# Convention : Reuss Voigt Hill
#
# Bulk Modulus (GPa) = 34.43596 48.87454 41.65525
# Shear Modulus (GPa) = 24.76756 31.02677 27.89717
#
# Velocity S-wave (km/s) = 3.37234 3.77449 3.57907
# Velocity P-wave (km/s) = 5.56559 6.43722 6.01721
#
# Compressibility (1/GPa) = 0.02903941
#
# Stress axis : x y z
#
# Youngs Moduli (GPa) = 68.59071 63.71173 104.56331
#
# Poissons Ratio (x) = 0.14506 0.23958
# Poissons Ratio (y) = 0.15617 0.08695
# Poissons Ratio (z) = 0.15716 0.05298
#
# Static dielectric constant tensor:
#      x y z
#    x 4.252380 0.361300 -0.019640 
#    y 0.361300 3.812910 0.327950 
#    z -0.019640 0.327950 4.960820 
# 
# 
# High freq. dielectric constant tensor:
#      x y z
#    x 1.860350 0.021480 -0.015650 
#    y 0.021480 1.833750 0.015320 
#    z -0.015650 0.015320 1.870040 
# 
# From -- ./inp_files/184918.got.cif
#   From: 2010.06.25/outbox.cif.g09.slc.cpg/sg2_93_cif.got.tgz:184918.got - 2010.06.27 13:26:56.
