data_PCOD8044357
_publ_section_title
;
Structure prediction by ZEFSAII (Michael W. Deem and Ramdas Pophale) SiO2 
 PCOD8044357
Probable space group: P -1
;
_chemical_formula_sum "Si O2"
_cell_formula_units_Z 16
_cell_length_a 8.978690
_cell_length_b 15.589948
_cell_length_c 11.954920
_cell_angle_alpha 129.308821
_cell_angle_beta 52.712949
_cell_angle_gamma 141.200733
_cell_volume 789.328082
_symmetry_space_group_name_H-M "P -1"
_symmetry_group_IT_number 2
_symmetry_cell_setting 'triclinic'
loop_
_space_group_symop_operation_xyz
x,y,z
-x,-y,-z
loop_
_atom_site_type_symbol
_atom_site_label
_atom_site_fract_x
_atom_site_fract_y
_atom_site_fract_z
Si Si1 0.413833 0.820489 0.315580
Si Si2 0.494238 0.319494 0.219632
Si Si3 0.699988 0.986377 0.538070
Si Si4 0.041312 0.506913 0.721342
Si Si5 0.607382 0.470004 0.593599
Si Si6 0.260146 0.162632 0.412715
Si Si7 0.765398 0.841933 0.012142
Si Si8 0.723332 0.580610 0.877122
O O1 0.492202 0.873539 0.450816
O O2 0.652145 0.862595 0.184134
O O3 0.199120 0.652162 0.275363
O O4 0.317317 0.887937 0.343578
O O5 0.784369 0.435634 0.202349
O O6 0.388125 0.403384 0.351290
O O7 0.377825 0.196452 0.265200
O O8 0.435531 0.242575 0.064373
O O9 0.646269 0.907583 0.616203
O O10 0.970917 0.052631 0.434236
O O11 0.175404 0.515420 0.554314
O O12 0.957618 0.602633 0.831917
O O13 0.351027 0.310791 0.553334
O O14 0.633526 0.482926 0.725785
O O15 0.832542 0.743168 0.936555
O O16 0.000000 0.000000 0.000000
O O17 0.500000 0.500000 0.000000
#
# Coordination Sequence:
#
# PCOD8044357 Si02
#       8
#     2   2   2   2   2   2   2   2
#     4  11  22  40  60  90 121 164 213 250 319 364
#     4  10  22  40  61  92 123 161 207 258 310 376
#     4  10  22  35  60  88 121 157 201 265 298 379
#     4  11  21  39  67  92 121 161 217 266 298 370
#     4  10  21  38  66  90 122 163 210 258 312 364
#     4  10  19  38  58  90 121 154 203 257 314 352
#     4  11  25  43  63  85 131 172 201 251 325 381
#     4  11  23  42  61  96 127 166 213 259 307 376
#
# _framework density 20.270406000000001
#
# number of rings (size 3 to 8) (size 9 to 14) (size 15 to 20)
#    0.000    1.500    1.250    4.875    0.000    6.500 
#    2.250    1.250    0.000    0.000    0.000    0.000 
#    0.000    0.000    0.000    0.000    0.000    0.000 
#
# Total GULP energy -198393.553651 kJ/mol
# GULP energy per Si atom -12399.597103 kJ/mol
# Density = 2.022427 g / cm^3
# Si number density = 20.270406 Si / 1000 Ang^3
#
#
#
# Elastic Constant Matrix: (Units=GPa)
#
#
# Indices 1 2 3 4 5 6 
#
# 1 119.8977 40.3764 38.9316 3.1565 -15.1166 -11.6566
# 2 40.3764 111.9124 9.1407 -6.7906 -5.9931 -7.8680
# 3 38.9316 9.1407 64.7611 -10.0930 -9.7101 -8.3777
# 4 3.1565 -6.7906 -10.0930 26.0144 0.8422 -5.1735
# 5 -15.1166 -5.9931 -9.7101 0.8422 28.1869 1.1801
# 6 -11.6566 -7.8680 -8.3777 -5.1735 1.1801 36.5209
#
#
#
# Elastic Compliance Matrix: (Units=1/GPa)
#
#
# Indices 1 2 3 4 5 6 
#
# 1 0.012753 -0.004098 -0.007320 -0.005450 0.003583 0.000621
# 2 -0.004098 0.010696 0.001998 0.004458 0.000545 0.002069
# 3 -0.007320 0.001998 0.022419 0.010916 0.003701 0.004664
# 4 -0.005450 0.004458 0.010916 0.046141 0.000061 0.008259
# 5 0.003583 0.000545 0.003701 0.000061 0.038752 0.000867
# 6 0.000621 0.002069 0.004664 0.008259 0.000867 0.030237
#
#
# Mechanical properties :
#
#
# Convention : Reuss Voigt Hill
#
# Bulk Modulus (GPa) = 36.99859 52.60762 44.80310
# Shear Modulus (GPa) = 26.47635 32.01925 29.24780
#
# Velocity S-wave (km/s) = 3.61800 3.97874 3.80265
# Velocity P-wave (km/s) = 5.97874 6.86414 6.43668
#
# Compressibility (1/GPa) = 0.02702806
#
# Stress axis : x y z
#
# Youngs Moduli (GPa) = 78.41286 93.49183 44.60471
#
# Poissons Ratio (x) = 0.38317 0.32650
# Poissons Ratio (y) = 0.32137 -0.08913
# Poissons Ratio (z) = 0.57397 -0.18681
#
# Static dielectric constant tensor:
#      x y z
#    x 3.978140 -0.103500 -0.030490 
#    y -0.103500 3.819360 0.042010 
#    z -0.030490 0.042010 3.598320 
# 
# 
# High freq. dielectric constant tensor:
#      x y z
#    x 1.804620 -0.006710 0.002490 
#    y -0.006710 1.801380 0.003340 
#    z 0.002490 0.003340 1.775680 
# 
# From -- ./inp_files/216510.got.cif
#   From: 2010.06.25/outbox.cif.g09.slc.cpg/sg2_109_cif.got.tgz:216510.got - 2010.06.27 13:26:56.
