data_PCOD8044573
_publ_section_title
;
Structure prediction by ZEFSAII (Michael W. Deem and Ramdas Pophale) SiO2 
 PCOD8044573
Probable space group: P -1
;
_chemical_formula_sum "Si O2"
_cell_formula_units_Z 14
_cell_length_a 12.001010
_cell_length_b 8.651465
_cell_length_c 8.903375
_cell_angle_alpha 103.192721
_cell_angle_beta 121.986900
_cell_angle_gamma 55.589782
_cell_volume 643.502126
_symmetry_space_group_name_H-M "P -1"
_symmetry_group_IT_number 2
_symmetry_cell_setting 'triclinic'
loop_
_space_group_symop_operation_xyz
x,y,z
-x,-y,-z
loop_
_atom_site_type_symbol
_atom_site_label
_atom_site_fract_x
_atom_site_fract_y
_atom_site_fract_z
Si Si1 0.308931 0.398385 0.885347
Si Si2 0.535642 0.898021 0.660919
Si Si3 0.066350 0.627919 0.538939
Si Si4 0.751075 0.921673 0.283638
Si Si5 0.680661 0.493117 0.547015
Si Si6 0.364622 0.609177 0.211502
Si Si7 0.643845 0.119928 0.951842
O O1 0.183977 0.591438 0.751006
O O2 0.253587 0.252402 0.828701
O O3 0.467603 0.295422 0.882138
O O4 0.337510 0.455674 0.080735
O O5 0.622270 0.679537 0.643434
O O6 0.500000 0.000000 0.500000
O O7 0.378594 0.966808 0.657977
O O8 0.647586 0.941788 0.844570
O O9 0.160952 0.566248 0.436895
O O10 0.000000 0.500000 0.500000
O O11 0.920063 0.842815 0.463833
O O12 0.729443 0.059613 0.161278
O O13 0.550179 0.517820 0.342946
O O14 0.713061 0.339920 0.666170
O O15 0.283255 0.800124 0.094982
#
# Coordination Sequence:
#
# PCOD8044573 Si02
#       7
#     2   2   2   2   2   2   2
#     4  10  19  38  63  89 117 160 205 242 294 359
#     4  11  19  37  61  94 118 152 208 256 291 338
#     4  10  21  41  63  90 119 159 203 246 298 362
#     4  10  22  38  63  91 121 154 203 257 296 346
#     4  11  22  39  63  92 119 159 203 247 302 352
#     4  11  22  36  62  90 122 157 205 247 292 365
#     4  11  20  36  59  93 118 158 203 250 293 352
#
# _framework density 21.755949999999999
#
# number of rings (size 3 to 8) (size 9 to 14) (size 15 to 20)
#    0.000    1.429    2.857    5.571    0.000    0.000 
#    0.000    9.286    0.000    0.000    0.000    0.000 
#    0.000    0.000    0.000    0.000    0.000    0.000 
#
# Total GULP energy -173512.436141 kJ/mol
# GULP energy per Si atom -12393.745439 kJ/mol
# Density = 2.170643 g / cm^3
# Si number density = 21.755950 Si / 1000 Ang^3
#
#
#
# Elastic Constant Matrix: (Units=GPa)
#
#
# Indices 1 2 3 4 5 6 
#
# 1 121.5059 28.8885 29.9667 -18.6175 -30.1076 1.2984
# 2 28.8885 52.6639 25.2566 -9.1634 -3.2914 1.1615
# 3 29.9667 25.2566 93.0965 -17.3441 -24.0571 7.4397
# 4 -18.6175 -9.1634 -17.3441 42.9197 12.9473 -9.9584
# 5 -30.1076 -3.2914 -24.0571 12.9473 37.9526 -8.5913
# 6 1.2984 1.1615 7.4397 -9.9584 -8.5913 22.2584
#
#
#
# Elastic Compliance Matrix: (Units=1/GPa)
#
#
# Indices 1 2 3 4 5 6 
#
# 1 0.012243 -0.005924 0.000206 0.002232 0.009519 0.004199
# 2 -0.005924 0.025259 -0.006397 0.002347 -0.007520 -0.000687
# 3 0.000206 -0.006397 0.014989 0.002168 0.008249 -0.000534
# 4 0.002232 0.002347 0.002168 0.029379 -0.004295 0.010509
# 5 0.009519 -0.007520 0.008249 -0.004295 0.042565 0.011588
# 6 0.004199 -0.000687 -0.000534 0.010509 0.011588 0.054071
#
#
# Mechanical properties :
#
#
# Convention : Reuss Voigt Hill
#
# Bulk Modulus (GPa) = 35.38324 48.38775 41.88549
# Shear Modulus (GPa) = 23.56750 32.83646 28.20198
#
# Velocity S-wave (km/s) = 3.29487 3.88920 3.60431
# Velocity P-wave (km/s) = 5.54743 6.51592 6.05108
#
# Compressibility (1/GPa) = 0.02826197
#
# Stress axis : x y z
#
# Youngs Moduli (GPa) = 81.67633 39.58913 66.71572
#
# Poissons Ratio (x) = 0.23454 -0.01376
# Poissons Ratio (y) = 0.48387 0.42677
# Poissons Ratio (z) = -0.01684 0.25325
#
# Static dielectric constant tensor:
#      x y z
#    x 4.075760 0.407560 -0.000260 
#    y 0.407560 4.258380 -0.224500 
#    z -0.000260 -0.224500 4.329400 
# 
# 
# High freq. dielectric constant tensor:
#      x y z
#    x 1.840620 0.025390 -0.022920 
#    y 0.025390 1.832910 -0.009600 
#    z -0.022920 -0.009600 1.866730 
# 
# From -- ./inp_files/185098.got.cif
#   From: 2010.06.25/outbox.cif.g09.slc.cpg/sg2_93_cif.got.tgz:185098.got - 2010.06.27 13:26:56.
