data_PCOD8044470
_publ_section_title
;
Structure prediction by ZEFSAII (Michael W. Deem and Ramdas Pophale) SiO2 
 PCOD8044470
Probable space group: P -1
;
_chemical_formula_sum "Si O2"
_cell_formula_units_Z 16
_cell_length_a 12.477159
_cell_length_b 12.079186
_cell_length_c 11.109461
_cell_angle_alpha 106.731144
_cell_angle_beta 133.193646
_cell_angle_gamma 111.311887
_cell_volume 697.038147
_symmetry_space_group_name_H-M "P -1"
_symmetry_group_IT_number 2
_symmetry_cell_setting 'triclinic'
loop_
_space_group_symop_operation_xyz
x,y,z
-x,-y,-z
loop_
_atom_site_type_symbol
_atom_site_label
_atom_site_fract_x
_atom_site_fract_y
_atom_site_fract_z
Si Si1 0.699330 0.375879 0.020274
Si Si2 0.214546 0.310434 0.080591
Si Si3 0.099419 0.394314 0.510247
Si Si4 0.458060 0.295993 0.430905
Si Si5 0.377611 0.922844 0.081698
Si Si6 0.716287 0.052701 0.729770
Si Si7 0.500509 0.476940 0.851791
Si Si8 0.205088 0.629749 0.456097
O O1 0.829934 0.527255 0.276808
O O2 0.549105 0.165968 0.874895
O O3 0.934995 0.494286 0.153342
O O4 0.508871 0.342504 0.798363
O O5 0.243576 0.211475 0.151042
O O6 0.443259 0.539648 0.358233
O O7 0.263377 0.319260 0.977245
O O8 0.954320 0.209140 0.874970
O O9 0.252110 0.377921 0.578031
O O10 0.162267 0.545717 0.526433
O O11 0.809070 0.180039 0.206586
O O12 0.682805 0.392064 0.553921
O O13 0.362376 0.131164 0.388420
O O14 0.224403 0.870070 0.064532
O O15 0.623979 0.150608 0.324315
O O16 0.500000 0.000000 0.500000
O O17 0.500000 0.500000 0.000000
#
# Coordination Sequence:
#
# PCOD8044470 Si02
#       8
#     2   2   2   2   2   2   2   2
#     4  10  22  37  62  89 124 162 207 258 309 362
#     4  11  22  42  70  85 128 171 205 256 320 362
#     4  10  20  41  61  88 120 163 215 255 298 371
#     4  10  23  40  66  98 119 165 214 251 311 389
#     4  10  22  38  62  89 123 161 202 256 313 372
#     4  11  26  41  61 100 132 155 208 264 315 379
#     4  10  23  41  64  93 125 165 211 260 312 367
#     4  10  19  38  61  90 124 155 206 254 309 372
#
# _framework density 22.954266000000001
#
# number of rings (size 3 to 8) (size 9 to 14) (size 15 to 20)
#    0.000    1.750    1.250    3.375    7.000    2.500 
#    0.000    1.250    0.000    5.250    0.000    0.000 
#    0.000    0.000    0.000    0.000    0.000    0.000 
#
# Total GULP energy -198283.046615 kJ/mol
# GULP energy per Si atom -12392.690413 kJ/mol
# Density = 2.290202 g / cm^3
# Si number density = 22.954266 Si / 1000 Ang^3
#
#
#
# Elastic Constant Matrix: (Units=GPa)
#
#
# Indices 1 2 3 4 5 6 
#
# 1 84.3640 24.2495 10.4270 -12.2165 16.0043 -5.6826
# 2 24.2495 130.1008 35.5703 -5.2000 17.8283 -25.9927
# 3 10.4270 35.5703 48.6269 5.8119 5.9151 -10.4234
# 4 -12.2165 -5.2000 5.8119 23.3380 -8.1279 1.8975
# 5 16.0043 17.8283 5.9151 -8.1279 35.1840 -10.2878
# 6 -5.6826 -25.9927 -10.4234 1.8975 -10.2878 51.8672
#
#
#
# Elastic Compliance Matrix: (Units=1/GPa)
#
#
# Indices 1 2 3 4 5 6 
#
# 1 0.014189 -0.001265 -0.002519 0.006398 -0.004097 -0.000632
# 2 -0.001265 0.010921 -0.007015 0.002470 -0.002215 0.003395
# 3 -0.002519 -0.007015 0.028159 -0.010731 -0.001966 0.001870
# 4 0.006398 0.002470 -0.010731 0.052846 0.009789 -0.000209
# 5 -0.004097 -0.002215 -0.001966 0.009789 0.035376 0.004704
# 6 -0.000632 0.003395 0.001870 -0.000209 0.004704 0.022228
#
#
# Mechanical properties :
#
#
# Convention : Reuss Voigt Hill
#
# Bulk Modulus (GPa) = 31.57540 44.84283 38.20911
# Shear Modulus (GPa) = 25.52645 34.93416 30.23031
#
# Velocity S-wave (km/s) = 3.33837 3.90539 3.63296
# Velocity P-wave (km/s) = 5.35213 6.31777 5.85489
#
# Compressibility (1/GPa) = 0.03167023
#
# Stress axis : x y z
#
# Youngs Moduli (GPa) = 70.47509 91.56896 35.51261
#
# Poissons Ratio (x) = 0.11587 0.08945
# Poissons Ratio (y) = 0.08917 0.24913
# Poissons Ratio (z) = 0.17752 0.64238
#
# Static dielectric constant tensor:
#      x y z
#    x 4.531570 -0.368930 0.208400 
#    y -0.368930 4.531810 -0.290780 
#    z 0.208400 -0.290780 3.897020 
# 
# 
# High freq. dielectric constant tensor:
#      x y z
#    x 1.921290 -0.013140 0.003930 
#    y -0.013140 1.915010 -0.010830 
#    z 0.003930 -0.010830 1.873070 
# 
# From -- ./inp_files/428794.got.cif
#   From: 2010.06.25/outbox.cif.g09.slc.cpg/sg2_215_cif.got.tgz:428794.got - 2010.06.27 13:26:56.
