data_PCOD8044048
_publ_section_title
;
Structure prediction by ZEFSAII (Michael W. Deem and Ramdas Pophale) SiO2 
 PCOD8044048
Probable space group: P -1
;
_chemical_formula_sum "Si O2"
_cell_formula_units_Z 16
_cell_length_a 23.907122
_cell_length_b 14.810484
_cell_length_c 18.142187
_cell_angle_alpha 31.045061
_cell_angle_beta 158.650608
_cell_angle_gamma 159.943822
_cell_volume 793.491003
_symmetry_space_group_name_H-M "P -1"
_symmetry_group_IT_number 2
_symmetry_cell_setting 'triclinic'
loop_
_space_group_symop_operation_xyz
x,y,z
-x,-y,-z
loop_
_atom_site_type_symbol
_atom_site_label
_atom_site_fract_x
_atom_site_fract_y
_atom_site_fract_z
Si Si1 0.191675 0.516622 0.731050
Si Si2 0.084275 0.885115 0.207288
Si Si3 0.363377 0.884567 0.149469
Si Si4 0.867894 0.798598 0.704841
Si Si5 0.413899 0.265041 0.472515
Si Si6 0.253002 0.727617 0.415825
Si Si7 0.065173 0.588349 0.125229
Si Si8 0.741220 0.613510 0.238326
O O1 0.141325 0.346507 0.720824
O O2 0.000000 0.500000 0.500000
O O3 0.142278 0.378686 0.843071
O O4 0.463951 0.803058 0.861153
O O5 0.139991 0.789329 0.280270
O O6 0.315078 0.117801 0.375816
O O7 0.000000 0.000000 0.000000
O O8 0.498765 0.839328 0.308746
O O9 0.302537 0.784841 0.230214
O O10 0.122364 0.710103 0.931078
O O11 0.644495 0.587277 0.523532
O O12 0.784926 0.817145 0.665693
O O13 0.069824 0.082923 0.711742
O O14 0.973090 0.705728 0.923991
O O15 0.098852 0.560878 0.270356
O O16 0.284004 0.572680 0.607098
O O17 0.500000 0.000000 0.500000
O O18 0.500000 0.500000 0.000000
#
# Coordination Sequence:
#
# PCOD8044048 Si02
#       8
#     2   2   2   2   2   2   2   2
#     4  12  21  41  65  90 120 164 215 250 310 368
#     4  12  25  40  62  92 127 163 204 264 312 360
#     4  10  20  40  68  88 116 167 204 254 306 374
#     4  10  20  37  63  89 116 161 206 249 300 370
#     4  10  19  37  63  85 120 157 204 249 303 363
#     4  12  25  41  62  93 127 163 206 260 311 364
#     4  10  22  41  64  89 124 159 209 249 313 369
#     4  12  24  39  65  93 126 166 206 256 304 371
#
# _framework density 20.164059999999999
#
# number of rings (size 3 to 8) (size 9 to 14) (size 15 to 20)
#    0.000    1.000    3.750    3.750    1.750    0.000 
#    2.250    0.625    0.000    3.750    0.000    0.000 
#    0.000    0.000    0.000    0.000    0.000    0.000 
#
# Total GULP energy -198260.243590 kJ/mol
# GULP energy per Si atom -12391.265224 kJ/mol
# Density = 2.011817 g / cm^3
# Si number density = 20.164060 Si / 1000 Ang^3
#
#
#
# Elastic Constant Matrix: (Units=GPa)
#
#
# Indices 1 2 3 4 5 6 
#
# 1 105.9408 36.3157 36.9443 3.0903 -9.0827 2.7741
# 2 36.3157 156.9649 52.3303 17.5259 -15.7320 14.5392
# 3 36.9443 52.3303 100.1376 -6.8219 -0.7780 8.7576
# 4 3.0903 17.5259 -6.8219 39.1973 -2.1447 -3.1457
# 5 -9.0827 -15.7320 -0.7780 -2.1447 30.5573 3.4740
# 6 2.7741 14.5392 8.7576 -3.1457 3.4740 31.4303
#
#
#
# Elastic Compliance Matrix: (Units=1/GPa)
#
#
# Indices 1 2 3 4 5 6 
#
# 1 0.011333 -0.001032 -0.003695 -0.000920 0.002665 0.000120
# 2 -0.001032 0.009526 -0.004550 -0.005045 0.004589 -0.004060
# 3 -0.003695 -0.004550 0.014083 0.004571 -0.002677 -0.000739
# 4 -0.000920 -0.005045 0.004571 0.028904 -0.001199 0.004166
# 5 0.002665 0.004589 -0.002677 -0.001199 0.036382 -0.005753
# 6 0.000120 -0.004060 -0.000739 0.004166 -0.005753 0.034943
#
#
# Mechanical properties :
#
#
# Convention : Reuss Voigt Hill
#
# Bulk Modulus (GPa) = 61.01817 68.24709 64.63263
# Shear Modulus (GPa) = 31.40957 36.06720 33.73839
#
# Velocity S-wave (km/s) = 3.95105 4.23388 4.09491
# Velocity P-wave (km/s) = 7.15129 7.60397 7.38110
#
# Compressibility (1/GPa) = 0.01638856
#
# Stress axis : x y z
#
# Youngs Moduli (GPa) = 88.23400 104.97776 71.00982
#
# Poissons Ratio (x) = 0.10830 0.26236
# Poissons Ratio (y) = 0.09102 0.32312
# Poissons Ratio (z) = 0.32599 0.47769
#
# Static dielectric constant tensor:
#      x y z
#    x 3.856410 -0.190880 0.094230 
#    y -0.190880 3.713120 -0.068540 
#    z 0.094230 -0.068540 3.188290 
# 
# 
# High freq. dielectric constant tensor:
#      x y z
#    x 1.786430 -0.013990 0.027210 
#    y -0.013990 1.798450 0.015280 
#    z 0.027210 0.015280 1.782860 
# 
# From -- ./inp_files/331791.got.cif
#   From: 2010.06.25/outbox.cif.g09.slc.cpg/sg2_166_cif.got.tgz:331791.got - 2010.06.27 13:26:56.
