data_PCOD8044341
_publ_section_title
;
Structure prediction by ZEFSAII (Michael W. Deem and Ramdas Pophale) SiO2 
 PCOD8044341
Probable space group: P -1
;
_chemical_formula_sum "Si O2"
_cell_formula_units_Z 14
_cell_length_a 26.024703
_cell_length_b 25.602884
_cell_length_c 17.408832
_cell_angle_alpha 160.429379
_cell_angle_beta 160.714952
_cell_angle_gamma 10.934466
_cell_volume 704.155298
_symmetry_space_group_name_H-M "P -1"
_symmetry_group_IT_number 2
_symmetry_cell_setting 'triclinic'
loop_
_space_group_symop_operation_xyz
x,y,z
-x,-y,-z
loop_
_atom_site_type_symbol
_atom_site_label
_atom_site_fract_x
_atom_site_fract_y
_atom_site_fract_z
Si Si1 0.439041 0.615769 0.344159
Si Si2 0.869187 0.322521 0.312277
Si Si3 0.105227 0.391681 0.829111
Si Si4 0.056077 0.936674 0.621815
Si Si5 0.281048 0.714693 0.094479
Si Si6 0.594101 0.824490 0.815107
Si Si7 0.211043 0.639609 0.284765
O O1 0.634027 0.329815 0.270301
O O2 0.317785 0.629503 0.116775
O O3 0.617856 0.619309 0.579367
O O4 0.181315 0.897991 0.421390
O O5 0.921927 0.459152 0.597468
O O6 0.580428 0.504696 0.191552
O O7 0.866177 0.299911 0.183884
O O8 0.101834 0.021604 0.264420
O O9 0.904374 0.606994 0.916752
O O10 0.352850 0.063819 0.744673
O O11 0.261338 0.412676 0.043169
O O12 0.034430 0.826171 0.371075
O O13 0.984809 0.160816 0.789806
O O14 0.500000 0.000000 0.000000
O O15 0.500000 0.500000 0.500000
#
# Coordination Sequence:
#
# PCOD8044341 Si02
#       7
#     2   2   2   2   2   2   2
#     4  12  20  38  59  90 120 151 187 242 304 360
#     4  10  19  38  57  90 115 160 185 237 290 364
#     4  12  23  39  61  84 120 154 202 241 287 347
#     4  11  24  38  62  81 115 161 203 238 288 341
#     4  10  20  35  61  85 127 145 191 229 304 367
#     4  12  24  36  55  91 124 154 179 245 306 357
#     4  11  25  44  60  82 113 166 213 243 269 345
#
# _framework density 19.881976000000002
#
# number of rings (size 3 to 8) (size 9 to 14) (size 15 to 20)
#    0.000    0.857    4.286    3.857    4.000    0.000 
#    0.000    0.000    0.000    1.714    0.000    0.000 
#    0.000    0.000    0.000    0.000    0.000    0.000 
#
# Total GULP energy -173520.603771 kJ/mol
# GULP energy per Si atom -12394.328841 kJ/mol
# Density = 1.983672 g / cm^3
# Si number density = 19.881976 Si / 1000 Ang^3
#
#
#
# Elastic Constant Matrix: (Units=GPa)
#
#
# Indices 1 2 3 4 5 6 
#
# 1 102.9660 30.4428 44.0323 0.9264 -16.4166 15.9853
# 2 30.4428 108.8320 7.3827 4.6627 -1.6059 6.5204
# 3 44.0323 7.3827 90.3682 -0.8378 -3.6526 3.9282
# 4 0.9264 4.6627 -0.8378 18.4531 0.0381 -3.1900
# 5 -16.4166 -1.6059 -3.6526 0.0381 16.0036 -10.6534
# 6 15.9853 6.5204 3.9282 -3.1900 -10.6534 36.1486
#
#
#
# Elastic Compliance Matrix: (Units=1/GPa)
#
#
# Indices 1 2 3 4 5 6 
#
# 1 0.016244 -0.003739 -0.006990 -0.000531 0.013480 -0.001823
# 2 -0.003739 0.010332 0.000875 -0.002656 -0.003672 -0.001622
# 3 -0.006990 0.000875 0.014247 0.000855 -0.003559 0.000412
# 4 -0.000531 -0.002656 0.000855 0.056071 0.003680 0.006653
# 5 0.013480 -0.003672 -0.003559 0.003680 0.089660 0.021837
# 6 -0.001823 -0.001622 0.000412 0.006653 0.021837 0.035740
#
#
# Mechanical properties :
#
#
# Convention : Reuss Voigt Hill
#
# Bulk Modulus (GPa) = 47.36116 51.76467 49.56292
# Shear Modulus (GPa) = 20.07721 28.80829 24.44275
#
# Velocity S-wave (km/s) = 3.18121 3.81066 3.51007
# Velocity P-wave (km/s) = 6.11280 6.74196 6.43507
#
# Compressibility (1/GPa) = 0.02111435
#
# Stress axis : x y z
#
# Youngs Moduli (GPa) = 61.56272 96.78968 70.19257
#
# Poissons Ratio (x) = 0.36186 0.49066
# Poissons Ratio (y) = 0.23016 -0.06142
# Poissons Ratio (z) = 0.43033 -0.08470
#
# Static dielectric constant tensor:
#      x y z
#    x 3.890150 0.068140 -0.425210 
#    y 0.068140 3.807650 -0.002030 
#    z -0.425210 -0.002030 3.586800 
# 
# 
# High freq. dielectric constant tensor:
#      x y z
#    x 1.766910 0.000450 -0.022790 
#    y 0.000450 1.799430 0.003410 
#    z -0.022790 0.003410 1.740090 
# 
# From -- ./inp_files/453887.got.cif
#   From: 2010.06.25/outbox.cif.g09.slc.cpg/sg2_227_cif.got.tgz:453887.got - 2010.06.27 13:26:56.
