data_PCOD8044667
_publ_section_title
;
Structure prediction by ZEFSAII (Michael W. Deem and Ramdas Pophale) SiO2 
 PCOD8044667
Probable space group: P -1
;
_chemical_formula_sum "Si O2"
_cell_formula_units_Z 16
_cell_length_a 16.007422
_cell_length_b 9.185880
_cell_length_c 11.248780
_cell_angle_alpha 100.704588
_cell_angle_beta 132.399065
_cell_angle_gamma 116.799702
_cell_volume 729.665982
_symmetry_space_group_name_H-M "P -1"
_symmetry_group_IT_number 2
_symmetry_cell_setting 'triclinic'
loop_
_space_group_symop_operation_xyz
x,y,z
-x,-y,-z
loop_
_atom_site_type_symbol
_atom_site_label
_atom_site_fract_x
_atom_site_fract_y
_atom_site_fract_z
Si Si1 0.988542 0.249317 0.514152
Si Si2 0.457506 0.027311 0.729486
Si Si3 0.163757 0.606211 0.549041
Si Si4 0.220926 0.847261 0.013295
Si Si5 0.240475 0.158899 0.945443
Si Si6 0.959557 0.093537 0.712467
Si Si7 0.450949 0.361028 0.814595
Si Si8 0.840682 0.216687 0.788866
O O1 0.856154 0.256024 0.384665
O O2 0.048069 0.270306 0.708393
O O3 0.163633 0.475273 0.629630
O O4 0.868335 0.989841 0.304861
O O5 0.479840 0.214475 0.834830
O O6 0.358322 0.813329 0.696546
O O7 0.328771 0.900887 0.470620
O O8 0.657640 0.169427 0.909570
O O9 0.993397 0.406628 0.263288
O O10 0.300108 0.072449 0.055967
O O11 0.242766 0.908237 0.181896
O O12 0.098921 0.106734 0.883791
O O13 0.421806 0.446011 0.140485
O O14 0.941034 0.180785 0.820170
O O15 0.760197 0.819819 0.446688
O O16 0.500000 0.500000 0.000000
O O17 0.000000 0.500000 0.000000
#
# Coordination Sequence:
#
# PCOD8044667 Si02
#       8
#     2   2   2   2   2   2   2   2
#     4  10  19  38  64  95 128 168 211 260 317 384
#     4  11  23  41  69  98 126 169 217 264 321 381
#     4  10  20  39  63  97 132 159 214 268 319 371
#     4  11  25  43  65  97 128 168 222 266 317 372
#     4  11  25  41  63  95 133 173 209 260 324 386
#     4  11  23  42  65  93 130 173 215 257 323 386
#     4  11  23  40  65  97 133 170 211 255 322 391
#     4  11  22  44  71  91 124 167 219 273 318 370
#
# _framework density 21.927841999999998
#
# number of rings (size 3 to 8) (size 9 to 14) (size 15 to 20)
#    0.000    1.250    5.000    0.750    3.500    2.500 
#    0.000    8.750    0.000    0.000    0.000    0.000 
#    0.000    0.000    0.000    0.000    0.000    0.000 
#
# Total GULP energy -198400.179554 kJ/mol
# GULP energy per Si atom -12400.011222 kJ/mol
# Density = 2.187793 g / cm^3
# Si number density = 21.927842 Si / 1000 Ang^3
#
#
#
# Elastic Constant Matrix: (Units=GPa)
#
#
# Indices 1 2 3 4 5 6 
#
# 1 123.2932 45.4908 49.5803 3.8729 -3.4299 6.8287
# 2 45.4908 98.8022 40.3311 19.2375 7.3653 9.7089
# 3 49.5803 40.3311 71.7007 15.9510 -5.4047 -6.8285
# 4 3.8729 19.2375 15.9510 31.7754 -3.2728 3.2555
# 5 -3.4299 7.3653 -5.4047 -3.2728 28.7784 -2.2323
# 6 6.8287 9.7089 -6.8285 3.2555 -2.2323 36.3967
#
#
#
# Elastic Compliance Matrix: (Units=1/GPa)
#
#
# Indices 1 2 3 4 5 6 
#
# 1 0.012712 -0.003136 -0.008402 0.005034 0.001040 -0.003511
# 2 -0.003136 0.016576 -0.006707 -0.006501 -0.006998 -0.004939
# 3 -0.008402 -0.006707 0.026803 -0.008780 0.005488 0.009516
# 4 0.005034 -0.006501 -0.008780 0.040126 0.004856 -0.004149
# 5 0.001040 -0.006998 0.005488 0.004856 0.038606 0.004635
# 6 -0.003511 -0.004939 0.009516 -0.004149 0.004635 0.031892
#
#
# Mechanical properties :
#
#
# Convention : Reuss Voigt Hill
#
# Bulk Modulus (GPa) = 51.01942 62.73337 56.87639
# Shear Modulus (GPa) = 23.83945 29.94972 26.89458
#
# Velocity S-wave (km/s) = 3.30081 3.69972 3.50595
# Velocity P-wave (km/s) = 6.15180 6.84994 6.51024
#
# Compressibility (1/GPa) = 0.01960038
#
# Stress axis : x y z
#
# Youngs Moduli (GPa) = 78.66760 60.32992 37.30964
#
# Poissons Ratio (x) = 0.18917 0.31348
# Poissons Ratio (y) = 0.24666 0.25024
# Poissons Ratio (z) = 0.66098 0.40464
#
# Static dielectric constant tensor:
#      x y z
#    x 4.083540 0.111890 -0.067630 
#    y 0.111890 4.114740 0.206140 
#    z -0.067630 0.206140 3.881150 
# 
# 
# High freq. dielectric constant tensor:
#      x y z
#    x 1.866120 0.002300 -0.000140 
#    y 0.002300 1.861760 0.018870 
#    z -0.000140 0.018870 1.848790 
# 
# From -- ./inp_files/447906.got.cif
#   From: 2010.06.25/outbox.cif.g09.slc.cpg/sg2_224_cif.got.tgz:447906.got - 2010.06.27 13:26:56.
