data_PCOD8044797
_publ_section_title
;
Structure prediction by ZEFSAII (Michael W. Deem and Ramdas Pophale) SiO2 
 PCOD8044797
Probable space group: P -1
;
_chemical_formula_sum "Si O2"
_cell_formula_units_Z 16
_cell_length_a 11.993494
_cell_length_b 9.549897
_cell_length_c 14.289829
_cell_angle_alpha 69.332910
_cell_angle_beta 129.985261
_cell_angle_gamma 140.372181
_cell_volume 765.333268
_symmetry_space_group_name_H-M "P -1"
_symmetry_group_IT_number 2
_symmetry_cell_setting 'triclinic'
loop_
_space_group_symop_operation_xyz
x,y,z
-x,-y,-z
loop_
_atom_site_type_symbol
_atom_site_label
_atom_site_fract_x
_atom_site_fract_y
_atom_site_fract_z
Si Si1 0.970098 0.741165 0.493777
Si Si2 0.466459 0.729137 0.171901
Si Si3 0.492832 0.286017 0.277143
Si Si4 0.365162 0.624525 0.938305
Si Si5 0.377054 0.870727 0.730417
Si Si6 0.756633 0.790053 0.011416
Si Si7 0.816267 0.760746 0.788188
Si Si8 0.021072 0.940390 0.655504
O O1 0.754204 0.512955 0.378378
O O2 0.161293 0.765153 0.585798
O O3 0.916527 0.739458 0.573670
O O4 0.064049 0.960842 0.440146
O O5 0.317161 0.493374 0.201739
O O6 0.471517 0.882174 0.201296
O O7 0.711866 0.853922 0.258876
O O8 0.355722 0.686242 0.022925
O O9 0.467668 0.096997 0.269120
O O10 0.351147 0.223592 0.307349
O O11 0.389066 0.319694 0.136359
O O12 0.291259 0.691041 0.807694
O O13 0.203583 0.353382 0.906821
O O14 0.617336 0.764760 0.023240
O O15 0.995609 0.060002 0.072725
O O16 0.933840 0.830859 0.736066
#
# Coordination Sequence:
#
# PCOD8044797 Si02
#       8
#     2   2   2   2   2   2   2   2
#     4  10  21  44  66  91 130 169 219 260 313 382
#     4  11  21  43  66  99 129 166 214 266 324 380
#     4  11  22  41  62  99 126 168 213 263 317 377
#     4  10  19  38  67  95 130 167 211 259 326 380
#     4  10  24  39  66  92 136 176 204 259 326 385
#     4  10  21  37  68 101 125 160 218 271 316 375
#     4  12  23  39  72  98 127 161 219 275 315 374
#     4  10  22  41  70  98 118 169 222 269 314 366
#
# _framework density 20.905925
#
# number of rings (size 3 to 8) (size 9 to 14) (size 15 to 20)
#    0.000    1.500    3.750    1.125    3.500    0.500 
#    0.000    5.625    0.000    0.000    0.000    0.000 
#    0.000    0.000    0.000    0.000    0.000    0.000 
#
# Total GULP energy -198343.455854 kJ/mol
# GULP energy per Si atom -12396.465991 kJ/mol
# Density = 2.085834 g / cm^3
# Si number density = 20.905925 Si / 1000 Ang^3
#
#
#
# Elastic Constant Matrix: (Units=GPa)
#
#
# Indices 1 2 3 4 5 6 
#
# 1 66.7510 48.8712 13.1174 3.9678 -1.3288 -10.7264
# 2 48.8712 123.6560 44.9276 7.4227 6.0622 -5.7005
# 3 13.1174 44.9276 78.3789 0.7679 -2.2121 -3.5246
# 4 3.9678 7.4227 0.7679 28.5920 -6.8233 2.1429
# 5 -1.3288 6.0622 -2.2121 -6.8233 28.7675 -5.0307
# 6 -10.7264 -5.7005 -3.5246 2.1429 -5.0307 30.7938
#
#
#
# Elastic Compliance Matrix: (Units=1/GPa)
#
#
# Indices 1 2 3 4 5 6 
#
# 1 0.022936 -0.009741 0.002197 -0.000179 0.004495 0.007184
# 2 -0.009741 0.014894 -0.007117 -0.003436 -0.005314 -0.002080
# 3 0.002197 -0.007117 0.016637 0.001826 0.003632 0.001818
# 4 -0.000179 -0.003436 0.001826 0.038265 0.009657 -0.001574
# 5 0.004495 -0.005314 0.003632 0.009657 0.039854 0.006837
# 6 0.007184 -0.002080 0.001818 -0.001574 0.006837 0.036026
#
#
# Mechanical properties :
#
#
# Convention : Reuss Voigt Hill
#
# Bulk Modulus (GPa) = 39.77100 53.62423 46.69761
# Shear Modulus (GPa) = 24.23477 28.42196 26.32837
#
# Velocity S-wave (km/s) = 3.40844 3.69116 3.55262
# Velocity P-wave (km/s) = 5.87835 6.62361 6.26208
#
# Compressibility (1/GPa) = 0.02514395
#
# Stress axis : x y z
#
# Youngs Moduli (GPa) = 43.59957 67.14326 60.10862
#
# Poissons Ratio (x) = 0.65407 -0.13206
# Poissons Ratio (y) = 0.42472 0.42777
# Poissons Ratio (z) = -0.09579 0.47784
#
# Static dielectric constant tensor:
#      x y z
#    x 3.983230 -0.145110 -0.127180 
#    y -0.145110 3.594990 0.064830 
#    z -0.127180 0.064830 3.782350 
# 
# 
# High freq. dielectric constant tensor:
#      x y z
#    x 1.822210 -0.016530 -0.011420 
#    y -0.016530 1.800460 0.010500 
#    z -0.011420 0.010500 1.816270 
# 
# From -- ./inp_files/499752.got.cif
#   From: 2010.06.25/outbox.cif.g09.slc.cpg/sg2_250_cif.got.tgz:499752.got - 2010.06.27 13:26:56.
