data_PCOD8044758
_publ_section_title
;
Structure prediction by ZEFSAII (Michael W. Deem and Ramdas Pophale) SiO2 
 PCOD8044758
Probable space group: P -1
;
_chemical_formula_sum "Si O2"
_cell_formula_units_Z 16
_cell_length_a 15.303342
_cell_length_b 15.658063
_cell_length_c 15.058127
_cell_angle_alpha 28.101125
_cell_angle_beta 47.371463
_cell_angle_gamma 29.693039
_cell_volume 778.174069
_symmetry_space_group_name_H-M "P -1"
_symmetry_group_IT_number 2
_symmetry_cell_setting 'triclinic'
loop_
_space_group_symop_operation_xyz
x,y,z
-x,-y,-z
loop_
_atom_site_type_symbol
_atom_site_label
_atom_site_fract_x
_atom_site_fract_y
_atom_site_fract_z
Si Si1 0.355807 0.639244 0.795494
Si Si2 0.283513 0.312822 0.848790
Si Si3 0.211502 0.479617 0.944862
Si Si4 0.896864 0.209214 0.011795
Si Si5 0.726620 0.399429 0.770924
Si Si6 0.885453 0.847228 0.953909
Si Si7 0.611551 0.475959 0.517725
Si Si8 0.589945 0.093708 0.584975
O O1 0.236103 0.741525 0.872621
O O2 0.584667 0.392247 0.882859
O O3 0.278286 0.921714 0.547230
O O4 0.334916 0.511529 0.850216
O O5 0.254398 0.533472 0.612444
O O6 0.194886 0.443438 0.887330
O O7 0.190432 0.265572 0.897201
O O8 0.500000 0.000000 0.000000
O O9 0.300196 0.222086 0.185251
O O10 0.994406 0.767375 0.861035
O O11 0.974249 0.299753 0.922972
O O12 0.771032 0.417467 0.822925
O O13 0.075518 0.874036 0.165121
O O14 0.610874 0.693943 0.525947
O O15 0.727178 0.193841 0.756467
O O16 0.500000 0.500000 0.500000
O O17 0.456266 0.764032 0.418815
#
# Coordination Sequence:
#
# PCOD8044758 Si02
#       8
#     2   2   2   2   2   2   2   2
#     4   9  21  37  65  87 127 162 200 246 313 361
#     4  12  24  37  65  86 122 162 203 249 311 364
#     4  11  23  41  59  93 123 159 202 256 306 358
#     4  10  19  38  66  93 118 165 204 253 306 361
#     4   9  20  37  67  89 124 161 206 248 306 369
#     4  11  24  40  60  90 124 154 208 258 299 367
#     4  12  22  38  63  88 118 164 206 249 309 371
#     4  10  21  38  61  88 124 159 203 246 306 366
#
# _framework density 20.560952
#
# number of rings (size 3 to 8) (size 9 to 14) (size 15 to 20)
#    0.750    0.750    3.750    1.500    1.750    2.500 
#    0.000    2.500    2.750    2.250    0.000    0.000 
#    0.000    0.000    0.000    0.000    0.000    0.000 
#
# Total GULP energy -198267.750978 kJ/mol
# GULP energy per Si atom -12391.734436 kJ/mol
# Density = 2.051415 g / cm^3
# Si number density = 20.560952 Si / 1000 Ang^3
#
#
#
# Elastic Constant Matrix: (Units=GPa)
#
#
# Indices 1 2 3 4 5 6 
#
# 1 121.7277 18.1086 25.2436 19.7165 -3.5569 -7.9231
# 2 18.1086 77.1105 4.0230 8.3113 0.1267 4.3918
# 3 25.2436 4.0230 69.2174 16.8938 -9.0122 -5.4946
# 4 19.7165 8.3113 16.8938 27.1696 2.6553 3.3490
# 5 -3.5569 0.1267 -9.0122 2.6553 25.1254 4.4054
# 6 -7.9231 4.3918 -5.4946 3.3490 4.4054 31.7389
#
#
#
# Elastic Compliance Matrix: (Units=1/GPa)
#
#
# Indices 1 2 3 4 5 6 
#
# 1 0.010050 -0.001780 -0.001700 -0.006152 0.000950 0.002978
# 2 -0.001780 0.013803 0.000499 -0.003044 0.000533 -0.002021
# 3 -0.001700 0.000499 0.019147 -0.011919 0.007348 0.003059
# 4 -0.006152 -0.003044 -0.011919 0.051421 -0.009282 -0.007315
# 5 0.000950 0.000533 0.007348 -0.009282 0.044201 -0.003720
# 6 0.002978 -0.002021 0.003059 -0.007315 -0.003720 0.034348
#
#
# Mechanical properties :
#
#
# Convention : Reuss Voigt Hill
#
# Bulk Modulus (GPa) = 26.99973 40.31178 33.65576
# Shear Modulus (GPa) = 26.13986 31.51881 28.82933
#
# Velocity S-wave (km/s) = 3.56945 3.91953 3.74858
# Velocity P-wave (km/s) = 5.49072 6.33500 5.92791
#
# Compressibility (1/GPa) = 0.03703741
#
# Stress axis : x y z
#
# Youngs Moduli (GPa) = 99.49834 72.45006 52.22737
#
# Poissons Ratio (x) = 0.12894 0.08881
# Poissons Ratio (y) = 0.17707 -0.02605
# Poissons Ratio (z) = 0.16919 -0.03614
#
# Static dielectric constant tensor:
#      x y z
#    x 3.959910 -0.053020 0.262080 
#    y -0.053020 3.903870 -0.230490 
#    z 0.262080 -0.230490 4.709280 
# 
# 
# High freq. dielectric constant tensor:
#      x y z
#    x 1.809940 0.004090 0.005660 
#    y 0.004090 1.812960 0.001720 
#    z 0.005660 0.001720 1.778740 
# 
# From -- ./inp_files/534124.got.cif
#   From: 2010.06.25/outbox.cif.g09.slc.cpg/sg2_268_cif.got.tgz:534124.got - 2010.06.27 13:26:56.
