data_PCOD8044710
_publ_section_title
;
Structure prediction by ZEFSAII (Michael W. Deem and Ramdas Pophale) SiO2 
 PCOD8044710
Probable space group: P -1
;
_chemical_formula_sum "Si O2"
_cell_formula_units_Z 14
_cell_length_a 17.131125
_cell_length_b 10.947009
_cell_length_c 7.848045
_cell_angle_alpha 91.622703
_cell_angle_beta 116.390324
_cell_angle_gamma 36.238593
_cell_volume 609.312282
_symmetry_space_group_name_H-M "P -1"
_symmetry_group_IT_number 2
_symmetry_cell_setting 'triclinic'
loop_
_space_group_symop_operation_xyz
x,y,z
-x,-y,-z
loop_
_atom_site_type_symbol
_atom_site_label
_atom_site_fract_x
_atom_site_fract_y
_atom_site_fract_z
Si Si1 0.760218 0.577607 0.277071
Si Si2 0.324766 0.064171 0.913629
Si Si3 0.334098 0.607561 0.569189
Si Si4 0.261097 0.640032 0.880587
Si Si5 0.349844 0.859342 0.617034
Si Si6 0.277089 0.967495 0.187736
Si Si7 0.027015 0.810167 0.246970
O O1 0.820198 0.397662 0.191915
O O2 0.886707 0.404682 0.561471
O O3 0.799936 0.660760 0.237840
O O4 0.540872 0.835858 0.123346
O O5 0.281302 0.017833 0.722874
O O6 0.260430 0.094374 0.036299
O O7 0.353988 0.534406 0.778499
O O8 0.254319 0.844621 0.505545
O O9 0.540433 0.344107 0.677405
O O10 0.191159 0.695460 0.328892
O O11 0.104422 0.937652 0.757682
O O12 0.426163 0.446126 0.171330
O O13 0.295002 0.001948 0.396973
O O14 0.094644 0.104993 0.012473
#
# Coordination Sequence:
#
# PCOD8044710 Si02
#       7
#     2   2   2   2   2   2   2
#     4   9  19  39  64  89 120 163 201 248 306 351
#     4  10  21  42  66  83 127 164 198 254 296 357
#     4  11  20  39  60  87 132 154 194 259 300 350
#     4  10  19  38  65  93 121 156 207 247 304 363
#     4  11  22  38  62  94 120 163 203 242 308 363
#     4  12  23  39  64  91 124 162 201 247 305 358
#     4  11  22  36  65  96 119 158 206 248 304 364
#
# _framework density 22.976724000000001
#
# number of rings (size 3 to 8) (size 9 to 14) (size 15 to 20)
#    0.000    1.429    5.714    3.429    0.000    1.143 
#    0.000    7.143    0.000    0.000    0.000    0.000 
#    0.000    0.000    0.000    0.000    0.000    0.000 
#
# Total GULP energy -173524.234895 kJ/mol
# GULP energy per Si atom -12394.588207 kJ/mol
# Density = 2.292443 g / cm^3
# Si number density = 22.976724 Si / 1000 Ang^3
#
#
#
# Elastic Constant Matrix: (Units=GPa)
#
#
# Indices 1 2 3 4 5 6 
#
# 1 107.4063 22.8075 50.8545 6.2275 -11.8962 23.8160
# 2 22.8075 39.8506 32.7389 -0.8390 -19.9160 14.7186
# 3 50.8545 32.7389 118.5549 10.4033 0.6122 -1.2612
# 4 6.2275 -0.8390 10.4033 27.7531 -0.5171 -7.6542
# 5 -11.8962 -19.9160 0.6122 -0.5171 42.4859 -8.5417
# 6 23.8160 14.7186 -1.2612 -7.6542 -8.5417 25.4949
#
#
#
# Elastic Compliance Matrix: (Units=1/GPa)
#
#
# Indices 1 2 3 4 5 6 
#
# 1 0.017923 0.007756 -0.009540 -0.006236 0.004265 -0.022135
# 2 0.007756 0.065138 -0.021707 -0.001616 0.025378 -0.037906
# 3 -0.009540 -0.021707 0.018814 -0.000466 -0.009278 0.019126
# 4 -0.006236 -0.001616 -0.000466 0.043232 0.002137 0.020431
# 5 0.004265 0.025378 -0.009278 0.002137 0.035467 -0.006571
# 6 -0.022135 -0.037906 0.019126 0.020431 -0.006571 0.086663
#
#
# Mechanical properties :
#
#
# Convention : Reuss Voigt Hill
#
# Bulk Modulus (GPa) = 18.21770 53.17929 35.69849
# Shear Modulus (GPa) = 15.03686 29.77419 22.40553
#
# Velocity S-wave (km/s) = 2.56098 3.60368 3.12611
# Velocity P-wave (km/s) = 4.08543 6.36479 5.34796
#
# Compressibility (1/GPa) = 0.05489167
#
# Stress axis : x y z
#
# Youngs Moduli (GPa) = 55.79505 15.35205 53.15244
#
# Poissons Ratio (x) = -0.11907 0.50708
# Poissons Ratio (y) = -0.43273 1.15379
# Poissons Ratio (z) = 0.53229 0.33325
#
# Static dielectric constant tensor:
#      x y z
#    x 4.334850 0.327720 0.014230 
#    y 0.327720 3.735220 -0.111150 
#    z 0.014230 -0.111150 4.287430 
# 
# 
# High freq. dielectric constant tensor:
#      x y z
#    x 1.901100 0.018710 0.005370 
#    y 0.018710 1.865770 -0.008530 
#    z 0.005370 -0.008530 1.921500 
# 
# From -- ./inp_files/331956.got.cif
#   From: 2010.06.25/outbox.cif.g09.slc.cpg/sg2_166_cif.got.tgz:331956.got - 2010.06.27 13:26:56.
