data_PCOD8044773
_publ_section_title
;
Structure prediction by ZEFSAII (Michael W. Deem and Ramdas Pophale) SiO2 
 PCOD8044773
Probable space group: P -1
;
_chemical_formula_sum "Si O2"
_cell_formula_units_Z 16
_cell_length_a 8.803895
_cell_length_b 11.692312
_cell_length_c 12.371517
_cell_angle_alpha 129.340916
_cell_angle_beta 127.753262
_cell_angle_gamma 57.579919
_cell_volume 755.571964
_symmetry_space_group_name_H-M "P -1"
_symmetry_group_IT_number 2
_symmetry_cell_setting 'triclinic'
loop_
_space_group_symop_operation_xyz
x,y,z
-x,-y,-z
loop_
_atom_site_type_symbol
_atom_site_label
_atom_site_fract_x
_atom_site_fract_y
_atom_site_fract_z
Si Si1 0.630545 0.376100 0.165844
Si Si2 0.202443 0.874653 0.490059
Si Si3 0.203122 0.356977 0.692640
Si Si4 0.846244 0.123460 0.943197
Si Si5 0.822346 0.609565 0.053246
Si Si6 0.142523 0.774382 0.620891
Si Si7 0.504830 0.951369 0.351472
Si Si8 0.019672 0.136644 0.811123
O O1 0.724688 0.517337 0.268956
O O2 0.699879 0.316993 0.280284
O O3 0.716698 0.249776 0.038886
O O4 0.391861 0.424109 0.083851
O O5 0.240373 0.751836 0.529928
O O6 0.171031 0.806341 0.317853
O O7 0.386988 0.949176 0.615904
O O8 0.000000 0.000000 0.500000
O O9 0.118199 0.414611 0.808576
O O10 0.395024 0.225564 0.723629
O O11 0.052095 0.292671 0.512289
O O12 0.716692 0.020089 0.769420
O O13 0.951518 0.198643 0.938761
O O14 0.000000 0.000000 0.000000
O O15 0.811236 0.783246 0.111617
O O16 0.000000 0.500000 0.000000
O O17 0.092104 0.953327 0.736647
O O18 0.500000 0.000000 0.500000
#
# Coordination Sequence:
#
# PCOD8044773 Si02
#       8
#     2   2   2   2   2   2   2   2
#     4  12  28  43  68 102 144 184 221 283 358 405
#     4  10  19  38  66  96 126 169 230 278 321 395
#     4  12  23  47  70  98 139 184 234 280 337 422
#     4  12  25  43  66 108 142 170 226 291 347 407
#     4  12  27  45  70  99 138 186 232 280 343 416
#     4  11  22  44  71 101 135 175 228 290 344 398
#     4  12  23  40  74 104 130 182 234 280 341 406
#     4  11  21  42  72  97 136 174 228 285 335 403
#
# _framework density 21.176010000000002
#
# number of rings (size 3 to 8) (size 9 to 14) (size 15 to 20)
#    0.000    0.500    7.500    2.250    1.750    1.500 
#    0.000    0.625    0.000    0.000    0.000    0.000 
#    0.000    0.000    0.000    0.000    0.000    0.000 
#
# Total GULP energy -198347.880096 kJ/mol
# GULP energy per Si atom -12396.742506 kJ/mol
# Density = 2.112781 g / cm^3
# Si number density = 21.176010 Si / 1000 Ang^3
#
#
#
# Elastic Constant Matrix: (Units=GPa)
#
#
# Indices 1 2 3 4 5 6 
#
# 1 108.1769 52.2637 37.6081 -0.1043 3.2296 21.5264
# 2 52.2637 86.6891 50.3304 -5.3658 2.8096 20.8623
# 3 37.6081 50.3304 103.7998 -10.5567 5.5119 9.0307
# 4 -0.1043 -5.3658 -10.5567 38.8090 11.4899 -1.4055
# 5 3.2296 2.8096 5.5119 11.4899 47.6276 3.2581
# 6 21.5264 20.8623 9.0307 -1.4055 3.2581 44.4211
#
#
#
# Elastic Compliance Matrix: (Units=1/GPa)
#
#
# Indices 1 2 3 4 5 6 
#
# 1 0.013632 -0.006596 -0.001624 -0.001505 0.000238 -0.003243
# 2 -0.006596 0.021036 -0.007306 0.000640 0.000253 -0.005196
# 3 -0.001624 -0.007306 0.014087 0.003479 -0.002039 0.001614
# 4 -0.001505 0.000640 0.003479 0.029039 -0.007425 0.001185
# 5 0.000238 0.000253 -0.002039 -0.007425 0.023112 -0.001750
# 6 -0.003243 -0.005196 0.001614 0.001185 -0.001750 0.026361
#
#
# Mechanical properties :
#
#
# Convention : Reuss Voigt Hill
#
# Bulk Modulus (GPa) = 56.49191 64.34110 60.41651
# Shear Modulus (GPa) = 30.44654 36.73578 33.59116
#
# Velocity S-wave (km/s) = 3.79593 4.16959 3.98714
# Velocity P-wave (km/s) = 6.77844 7.32329 7.05613
#
# Compressibility (1/GPa) = 0.01770165
#
# Stress axis : x y z
#
# Youngs Moduli (GPa) = 73.35436 47.53761 70.98813
#
# Poissons Ratio (x) = 0.31356 0.11532
# Poissons Ratio (y) = 0.48385 0.51866
# Poissons Ratio (z) = 0.11916 0.34733
#
# Static dielectric constant tensor:
#      x y z
#    x 3.891520 0.262460 -0.606400 
#    y 0.262460 3.590280 -0.236380 
#    z -0.606400 -0.236380 3.657380 
# 
# 
# High freq. dielectric constant tensor:
#      x y z
#    x 1.842490 0.023220 -0.004240 
#    y 0.023220 1.807420 -0.000060 
#    z -0.004240 -0.000060 1.842970 
# 
# From -- ./inp_files/393216.got.cif
#   From: 2010.06.25/outbox.cif.g09.slc.cpg/sg2_197_cif.got.tgz:393216.got - 2010.06.27 13:26:56.
