data_PCOD8044119
_publ_section_title
;
Structure prediction by ZEFSAII (Michael W. Deem and Ramdas Pophale) SiO2 
 PCOD8044119
Probable space group: P -1
;
_chemical_formula_sum "Si O2"
_cell_formula_units_Z 16
_cell_length_a 9.211568
_cell_length_b 22.289580
_cell_length_c 9.224806
_cell_angle_alpha 143.612138
_cell_angle_beta 131.869250
_cell_angle_gamma 55.086601
_cell_volume 834.108430
_symmetry_space_group_name_H-M "P -1"
_symmetry_group_IT_number 2
_symmetry_cell_setting 'triclinic'
loop_
_space_group_symop_operation_xyz
x,y,z
-x,-y,-z
loop_
_atom_site_type_symbol
_atom_site_label
_atom_site_fract_x
_atom_site_fract_y
_atom_site_fract_z
Si Si1 0.211216 0.239347 0.861343
Si Si2 0.167691 0.621833 0.100056
Si Si3 0.163282 0.389931 0.623249
Si Si4 0.173202 0.697576 0.927149
Si Si5 0.031982 0.886777 0.358197
Si Si6 0.409613 0.240822 0.701722
Si Si7 0.562698 0.698174 0.604005
Si Si8 0.461758 0.886271 0.721129
O O1 0.320808 0.202308 0.716350
O O2 0.026352 0.316624 0.850440
O O3 0.143105 0.139434 0.702925
O O4 0.358965 0.298509 0.174120
O O5 0.348517 0.658981 0.383403
O O6 0.152529 0.504353 0.894200
O O7 0.194901 0.639316 0.981214
O O8 0.253592 0.320439 0.677193
O O9 0.294364 0.378635 0.543870
O O10 0.943551 0.362994 0.386328
O O11 0.049756 0.806719 0.081095
O O12 0.389984 0.707506 0.030306
O O13 0.232354 0.872171 0.553582
O O14 0.000000 0.000000 0.500000
O O15 0.458080 0.142651 0.441994
O O16 0.568745 0.811449 0.763371
O O17 0.500000 0.000000 0.000000
#
# Coordination Sequence:
#
# PCOD8044119 Si02
#       8
#     2   2   2   2   2   2   2   2
#     4  11  23  40  59  89 126 156 192 253 304 347
#     4  11  21  37  63  91 116 157 218 244 285 358
#     4  11  21  36  66  86 117 165 205 250 290 349
#     4  10  20  38  58  91 117 156 205 245 288 359
#     4  10  19  37  64  87 116 152 200 242 291 358
#     4  10  24  40  57  90 129 150 196 251 302 354
#     4  11  20  37  62  88 117 160 203 248 291 347
#     4  10  20  39  64  89 114 154 204 242 289 367
#
# _framework density 19.182157
#
# number of rings (size 3 to 8) (size 9 to 14) (size 15 to 20)
#    0.000    1.500    7.500    1.500    1.750    1.500 
#    0.000    7.500    0.000    0.000    0.000    0.000 
#    0.000    0.000    0.000    0.000    0.000    0.000 
#
# Total GULP energy -198429.682686 kJ/mol
# GULP energy per Si atom -12401.855168 kJ/mol
# Density = 1.913850 g / cm^3
# Si number density = 19.182157 Si / 1000 Ang^3
#
#
#
# Elastic Constant Matrix: (Units=GPa)
#
#
# Indices 1 2 3 4 5 6 
#
# 1 111.4928 32.2389 49.9133 -14.3732 8.4751 6.5941
# 2 32.2389 67.6717 43.9083 2.7663 6.5557 -4.2379
# 3 49.9133 43.9083 131.8931 0.5663 17.7166 -2.3044
# 4 -14.3732 2.7663 0.5663 37.3496 -4.7244 3.6522
# 5 8.4751 6.5557 17.7166 -4.7244 24.3099 -5.1824
# 6 6.5941 -4.2379 -2.3044 3.6522 -5.1824 22.0208
#
#
#
# Elastic Compliance Matrix: (Units=1/GPa)
#
#
# Indices 1 2 3 4 5 6 
#
# 1 0.013021 -0.004522 -0.003419 0.005887 -0.001037 -0.006348
# 2 -0.004522 0.020716 -0.005093 -0.003713 0.000144 0.005458
# 3 -0.003419 -0.005093 0.011399 -0.001892 -0.006084 0.000118
# 4 0.005887 -0.003713 -0.001892 0.030605 0.004868 -0.006606
# 5 -0.001037 0.000144 -0.006084 0.004868 0.049064 0.010441
# 6 -0.006348 0.005458 0.000118 -0.006606 0.010441 0.051928
#
#
# Mechanical properties :
#
#
# Convention : Reuss Voigt Hill
#
# Bulk Modulus (GPa) = 52.44747 62.57539 57.51143
# Shear Modulus (GPa) = 23.90551 29.06918 26.48735
#
# Velocity S-wave (km/s) = 3.53404 3.89707 3.71999
# Velocity P-wave (km/s) = 6.63730 7.27613 6.96404
#
# Compressibility (1/GPa) = 0.01906670
#
# Stress axis : x y z
#
# Youngs Moduli (GPa) = 76.80131 48.27191 87.72930
#
# Poissons Ratio (x) = 0.21831 0.29993
# Poissons Ratio (y) = 0.34733 0.44681
# Poissons Ratio (z) = 0.26257 0.24585
#
# Static dielectric constant tensor:
#      x y z
#    x 3.336620 -0.260970 0.143490 
#    y -0.260970 3.625640 0.152100 
#    z 0.143490 0.152100 3.924670 
# 
# 
# High freq. dielectric constant tensor:
#      x y z
#    x 1.724210 -0.019660 0.019210 
#    y -0.019660 1.744410 -0.005110 
#    z 0.019210 -0.005110 1.751590 
# 
# From -- ./inp_files/202291.got.cif
#   From: 2010.06.25/outbox.cif.g09.slc.cpg/sg2_102_cif.got.tgz:202291.got - 2010.06.27 13:26:56.
