data_PCOD8044889
_publ_section_title
;
Structure prediction by ZEFSAII (Michael W. Deem and Ramdas Pophale) SiO2 
 PCOD8044889
Probable space group: P 2
;
_chemical_formula_sum "Si O2"
_cell_formula_units_Z 12
_cell_length_a 11.813685
_cell_length_b 7.964647
_cell_length_c 11.229583
_cell_angle_alpha 90.000000
_cell_angle_beta 145.714615
_cell_angle_gamma 90.000000
_cell_volume 595.205729
_symmetry_space_group_name_H-M "P 2"
_symmetry_group_IT_number 3
_symmetry_cell_setting 'monoclinic'
loop_
_space_group_symop_operation_xyz
x,y,z
-x,y,-z
loop_
_atom_site_type_symbol
_atom_site_label
_atom_site_fract_x
_atom_site_fract_y
_atom_site_fract_z
Si Si1 0.500000 0.112360 0.000000
Si Si2 0.809743 0.904643 0.413978
Si Si3 0.715912 0.092759 0.559504
Si Si4 0.347173 0.610613 0.572080
Si Si5 0.500000 0.818907 0.500000
Si Si6 0.405900 0.294839 0.149604
Si Si7 0.032009 0.406640 0.159327
O O1 0.602105 0.227666 0.990289
O O2 0.332430 0.995744 0.800691
O O3 0.708546 0.733856 0.369954
O O4 0.000000 0.858987 0.500000
O O5 0.848490 0.024385 0.563076
O O6 0.495820 0.155274 0.319861
O O7 0.827209 0.242707 0.722597
O O8 0.687035 0.943349 0.631695
O O9 0.511512 0.696716 0.625336
O O10 0.445503 0.451500 0.718290
O O11 0.141067 0.555320 0.326631
O O12 0.181728 0.353825 0.977041
O O13 0.000000 0.478168 0.000000
#
# Coordination Sequence:
#
# PCOD8044889 Si02
#       7
#     1   2   2   2   1   2   2
#     4  10  22  38  62  82 106 154 192 226 280 330
#     4  10  21  39  58  83 115 144 186 235 279 331
#     4   9  20  37  59  82 109 148 188 233 277 319
#     4  10  23  37  56  84 117 149 179 232 288 323
#     4  10  18  38  56  76 116 148 176 224 282 330
#     4  10  21  39  58  83 113 145 191 233 271 334
#     4  11  21  36  59  84 110 149 191 226 275 337
#
# _framework density 20.161097000000002
#
# number of rings (size 3 to 8) (size 9 to 14) (size 15 to 20)
#    0.000    2.000    0.000    3.000    0.000    6.000 
#    0.000   20.000    0.000    0.000    0.000    0.000 
#    0.000    0.000    0.000    0.000    0.000    0.000 
#
# Total GULP energy -148731.771467 kJ/mol
# GULP energy per Si atom -12394.314289 kJ/mol
# Density = 2.011521 g / cm^3
# Si number density = 20.161097 Si / 1000 Ang^3
#
#
#
# Elastic Constant Matrix: (Units=GPa)
#
#
# Indices 1 2 3 4 5 6 
#
# 1 149.6697 51.5451 56.0410 0.0000 5.0797 0.0000
# 2 51.5451 108.4969 34.7352 0.0000 -9.4646 0.0000
# 3 56.0410 34.7352 88.8764 0.0000 -4.9343 0.0000
# 4 0.0000 0.0000 0.0000 15.3207 0.0000 -13.5480
# 5 5.0797 -9.4646 -4.9343 0.0000 26.4980 0.0000
# 6 0.0000 0.0000 0.0000 -13.5480 0.0000 47.3733
#
#
#
# Elastic Compliance Matrix: (Units=1/GPa)
#
#
# Indices 1 2 3 4 5 6 
#
# 1 0.009927 -0.003424 -0.005148 0.000000 -0.004085 0.000000
# 2 -0.003424 0.011962 -0.002266 0.000000 0.004507 0.000000
# 3 -0.005148 -0.002266 0.015554 0.000000 0.003074 0.000000
# 4 0.000000 0.000000 0.000000 0.087365 0.000000 0.024985
# 5 -0.004085 0.004507 0.003074 0.000000 0.040704 0.000000
# 6 0.000000 0.000000 0.000000 0.024985 0.000000 0.028254
#
#
# Mechanical properties :
#
#
# Convention : Reuss Voigt Hill
#
# Bulk Modulus (GPa) = 63.42338 70.18730 66.80534
# Shear Modulus (GPa) = 22.65542 31.48652 27.07097
#
# Velocity S-wave (km/s) = 3.35583 3.95618 3.66831
# Velocity P-wave (km/s) = 6.82217 7.46708 7.15190
#
# Compressibility (1/GPa) = 0.01576706
#
# Stress axis : x y z
#
# Youngs Moduli (GPa) = 100.73703 83.59636 64.29339
#
# Poissons Ratio (x) = 0.28626 0.33097
# Poissons Ratio (y) = 0.34496 0.14567
# Poissons Ratio (z) = 0.51858 0.18940
#
# Static dielectric constant tensor:
#      x y z
#    x 4.017510 0.000000 -0.326530 
#    y 0.000000 3.854580 0.000000 
#    z -0.326530 0.000000 3.789340 
# 
# 
# High freq. dielectric constant tensor:
#      x y z
#    x 1.797820 0.000000 -0.003690 
#    y 0.000000 1.801880 0.000000 
#    z -0.003690 0.000000 1.766680 
# 
# From -- ./inp_files/2112.got.cif
#   From: 2010.03.12/outbox.cif.g09.slc.cpg/sg3_2_cif.got.tgz:2112.got - 2010.03.31 09:20:49.
