data_PCOD8044185
_publ_section_title
;
Structure prediction by ZEFSAII (Michael W. Deem and Ramdas Pophale) SiO2 
 PCOD8044185
Probable space group: P -1
;
_chemical_formula_sum "Si O2"
_cell_formula_units_Z 16
_cell_length_a 9.028512
_cell_length_b 16.149848
_cell_length_c 13.472765
_cell_angle_alpha 50.075657
_cell_angle_beta 121.791768
_cell_angle_gamma 79.536239
_cell_volume 772.847853
_symmetry_space_group_name_H-M "P -1"
_symmetry_group_IT_number 2
_symmetry_cell_setting 'triclinic'
loop_
_space_group_symop_operation_xyz
x,y,z
-x,-y,-z
loop_
_atom_site_type_symbol
_atom_site_label
_atom_site_fract_x
_atom_site_fract_y
_atom_site_fract_z
Si Si1 0.745522 0.732425 0.985912
Si Si2 0.868949 0.003380 0.359981
Si Si3 0.838142 0.110484 0.632359
Si Si4 0.016047 0.301037 0.379173
Si Si5 0.337192 0.993828 0.214821
Si Si6 0.670978 0.015126 0.002244
Si Si7 0.253732 0.413419 0.085315
Si Si8 0.888870 0.585772 0.505700
O O1 0.031717 0.550057 0.285108
O O2 0.763057 0.850874 0.880644
O O3 0.691633 0.711613 0.874472
O O4 0.475046 0.836922 0.881264
O O5 0.012556 0.813906 0.540608
O O6 0.968305 0.029040 0.283477
O O7 0.000000 0.000000 0.500000
O O8 0.527762 0.303126 0.336017
O O9 0.812294 0.033732 0.766160
O O10 0.027280 0.116842 0.734455
O O11 0.978062 0.372441 0.422308
O O12 0.319773 0.189277 0.525861
O O13 0.793222 0.457496 0.098734
O O14 0.224973 0.063714 0.010245
O O15 0.457364 0.225408 0.768375
O O16 0.500000 0.000000 0.000000
O O17 0.000000 0.500000 0.000000
O O18 0.000000 0.500000 0.500000
#
# Coordination Sequence:
#
# PCOD8044185 Si02
#       8
#     2   2   2   2   2   2   2   2
#     4  10  22  41  66  88 127 168 214 266 322 383
#     4  11  22  40  60  95 127 166 218 265 314 384
#     4  12  23  38  66  95 128 166 214 266 324 384
#     4   9  21  39  63  91 126 169 212 259 323 382
#     4  10  21  40  66  91 124 170 212 261 323 384
#     4  11  23  43  67  92 125 170 217 266 324 383
#     4  11  22  40  64  95 130 169 210 263 327 383
#     4  10  19  37  65  89 120 162 209 262 313 376
#
# _framework density 20.702650999999999
#
# number of rings (size 3 to 8) (size 9 to 14) (size 15 to 20)
#    0.000    1.500    2.500    4.125    0.000    2.000 
#    2.250    0.625    5.500    0.000    0.000    0.000 
#    0.000    0.000    0.000    0.000    0.000    0.000 
#
# Total GULP energy -198251.149195 kJ/mol
# GULP energy per Si atom -12390.696825 kJ/mol
# Density = 2.065553 g / cm^3
# Si number density = 20.702651 Si / 1000 Ang^3
#
#
#
# Elastic Constant Matrix: (Units=GPa)
#
#
# Indices 1 2 3 4 5 6 
#
# 1 120.4050 52.1617 40.0169 12.2972 2.2443 -8.3711
# 2 52.1617 128.6271 45.7857 7.0115 -9.8036 6.6944
# 3 40.0169 45.7857 130.6398 18.5017 5.5829 8.9828
# 4 12.2972 7.0115 18.5017 38.9569 -0.0726 -1.0928
# 5 2.2443 -9.8036 5.5829 -0.0726 28.9682 2.4518
# 6 -8.3711 6.6944 8.9828 -1.0928 2.4518 30.0817
#
#
#
# Elastic Compliance Matrix: (Units=1/GPa)
#
#
# Indices 1 2 3 4 5 6 
#
# 1 0.011355 -0.004235 -0.001977 -0.001752 -0.002344 0.004820
# 2 -0.004235 0.010916 -0.002587 0.000519 0.004794 -0.003207
# 3 -0.001977 -0.002587 0.010000 -0.003745 -0.002413 -0.002900
# 4 -0.001752 0.000519 -0.003745 0.027950 0.000981 0.001451
# 5 -0.002344 0.004794 -0.002413 0.000981 0.037130 -0.003989
# 6 0.004820 -0.003207 -0.002900 0.001451 -0.003989 0.036542
#
#
# Mechanical properties :
#
#
# Convention : Reuss Voigt Hill
#
# Bulk Modulus (GPa) = 68.14809 72.84450 70.49630
# Shear Modulus (GPa) = 31.97314 35.71519 33.84416
#
# Velocity S-wave (km/s) = 3.93415 4.15800 4.04762
# Velocity P-wave (km/s) = 7.32296 7.63639 7.48131
#
# Compressibility (1/GPa) = 0.01467393
#
# Stress axis : x y z
#
# Youngs Moduli (GPa) = 88.06844 91.60452 100.00291
#
# Poissons Ratio (x) = 0.38794 0.19770
# Poissons Ratio (y) = 0.37297 0.25867
# Poissons Ratio (z) = 0.17411 0.23694
#
# Static dielectric constant tensor:
#      x y z
#    x 3.699270 -0.232080 -0.033730 
#    y -0.232080 4.185760 0.028420 
#    z -0.033730 0.028420 3.985530 
# 
# 
# High freq. dielectric constant tensor:
#      x y z
#    x 1.791620 -0.010310 -0.008380 
#    y -0.010310 1.819510 0.011260 
#    z -0.008380 0.011260 1.815160 
# 
# From -- ./inp_files/398820.got.cif
#   From: 2010.06.25/outbox.cif.g09.slc.cpg/sg2_200_cif.got.tgz:398820.got - 2010.06.27 13:26:56.
