data_PCOD8044598
_publ_section_title
;
Structure prediction by ZEFSAII (Michael W. Deem and Ramdas Pophale) SiO2 
 PCOD8044598
Probable space group: P -1
;
_chemical_formula_sum "Si O2"
_cell_formula_units_Z 16
_cell_length_a 8.708107
_cell_length_b 9.311217
_cell_length_c 12.246234
_cell_angle_alpha 101.373481
_cell_angle_beta 86.804162
_cell_angle_gamma 52.705203
_cell_volume 754.615828
_symmetry_space_group_name_H-M "P -1"
_symmetry_group_IT_number 2
_symmetry_cell_setting 'triclinic'
loop_
_space_group_symop_operation_xyz
x,y,z
-x,-y,-z
loop_
_atom_site_type_symbol
_atom_site_label
_atom_site_fract_x
_atom_site_fract_y
_atom_site_fract_z
Si Si1 0.766342 0.442624 0.338211
Si Si2 0.275821 0.111322 0.057599
Si Si3 0.185560 0.462750 0.432230
Si Si4 0.896862 0.980808 0.768923
Si Si5 0.953141 0.493380 0.776425
Si Si6 0.587761 0.157460 0.619075
Si Si7 0.892784 0.866602 0.158437
Si Si8 0.430670 0.942988 0.629877
O O1 0.749579 0.449884 0.472817
O O2 0.540300 0.612352 0.331190
O O3 0.880623 0.224792 0.269244
O O4 0.892499 0.497956 0.291102
O O5 0.253525 0.013555 0.144693
O O6 0.201279 0.316618 0.122562
O O7 0.154313 0.112688 0.963928
O O8 0.500000 0.000000 0.000000
O O9 0.146364 0.544338 0.323019
O O10 0.347792 0.238885 0.381538
O O11 0.000000 0.500000 0.500000
O O12 0.788051 0.046907 0.665686
O O13 0.926972 0.128000 0.831279
O O14 0.047249 0.330734 0.836128
O O15 0.654698 0.080326 0.480791
O O16 0.437222 0.115845 0.651326
O O17 0.705336 0.030102 0.261634
#
# Coordination Sequence:
#
# PCOD8044598 Si02
#       8
#     2   2   2   2   2   2   2   2
#     4   9  19  37  63  88 128 165 206 248 299 384
#     4  11  24  45  69  86 115 167 219 262 308 375
#     4   9  17  33  59  96 123 158 206 258 303 350
#     4  11  25  42  63  91 134 165 199 263 329 371
#     4  10  20  37  65  91 118 159 211 263 304 369
#     4  10  19  38  63  95 121 169 213 249 301 373
#     4  12  24  41  60  95 129 159 204 266 324 367
#     4  10  20  35  65  93 126 163 215 256 295 376
#
# _framework density 21.202843000000001
#
# number of rings (size 3 to 8) (size 9 to 14) (size 15 to 20)
#    0.000    1.750    1.250    4.500    3.500    0.500 
#    4.500    1.875    0.000    0.000    0.000    0.000 
#    0.000    0.000    0.000    0.000    0.000    0.000 
#
# Total GULP energy -198265.787627 kJ/mol
# GULP energy per Si atom -12391.611727 kJ/mol
# Density = 2.115458 g / cm^3
# Si number density = 21.202843 Si / 1000 Ang^3
#
#
#
# Elastic Constant Matrix: (Units=GPa)
#
#
# Indices 1 2 3 4 5 6 
#
# 1 54.4520 27.2559 23.4752 9.7723 8.5760 -7.0744
# 2 27.2559 82.4778 32.0846 3.3720 2.0704 -22.0541
# 3 23.4752 32.0846 102.1793 1.5121 8.2891 -11.8159
# 4 9.7723 3.3720 1.5121 29.9347 -13.6372 1.1752
# 5 8.5760 2.0704 8.2891 -13.6372 29.6566 1.9145
# 6 -7.0744 -22.0541 -11.8159 1.1752 1.9145 24.4384
#
#
#
# Elastic Compliance Matrix: (Units=1/GPa)
#
#
# Indices 1 2 3 4 5 6 
#
# 1 0.027941 -0.006513 -0.002733 -0.014622 -0.013757 0.002670
# 2 -0.006513 0.019154 -0.002925 -0.000281 0.000333 0.013973
# 3 -0.002733 -0.002925 0.011873 -0.000776 -0.002846 0.002570
# 4 -0.014622 -0.000281 -0.000776 0.051795 0.028903 -0.009616
# 5 -0.013757 0.000333 -0.002846 0.028903 0.052442 -0.010557
# 6 0.002670 0.013973 0.002570 -0.009616 -0.010557 0.056834
#
#
# Mechanical properties :
#
#
# Convention : Reuss Voigt Hill
#
# Bulk Modulus (GPa) = 28.88062 44.97114 36.92588
# Shear Modulus (GPa) = 19.53714 27.22549 23.38132
#
# Velocity S-wave (km/s) = 3.03882 3.58725 3.32436
# Velocity P-wave (km/s) = 5.09541 6.19789 5.67349
#
# Compressibility (1/GPa) = 0.03462529
#
# Stress axis : x y z
#
# Youngs Moduli (GPa) = 35.78974 52.20781 84.22714
#
# Poissons Ratio (x) = 0.34004 0.23019
# Poissons Ratio (y) = 0.23311 0.24637
# Poissons Ratio (z) = 0.09781 0.15271
#
# Static dielectric constant tensor:
#      x y z
#    x 3.461450 -0.163590 0.114390 
#    y -0.163590 4.083430 -0.191960 
#    z 0.114390 -0.191960 4.405860 
# 
# 
# High freq. dielectric constant tensor:
#      x y z
#    x 1.800240 -0.014440 -0.000170 
#    y -0.014440 1.834210 -0.001270 
#    z -0.000170 -0.001270 1.837630 
# 
# From -- ./inp_files/188170.got.cif
#   From: 2010.06.25/outbox.cif.g09.slc.cpg/sg2_95_cif.got.tgz:188170.got - 2010.06.27 13:26:56.
