data_PCOD8044536
_publ_section_title
;
Structure prediction by ZEFSAII (Michael W. Deem and Ramdas Pophale) SiO2 
 PCOD8044536
Probable space group: P -1
;
_chemical_formula_sum "Si O2"
_cell_formula_units_Z 16
_cell_length_a 18.243969
_cell_length_b 11.699185
_cell_length_c 21.094099
_cell_angle_alpha 37.640440
_cell_angle_beta 19.677549
_cell_angle_gamma 30.351806
_cell_volume 760.388437
_symmetry_space_group_name_H-M "P -1"
_symmetry_group_IT_number 2
_symmetry_cell_setting 'triclinic'
loop_
_space_group_symop_operation_xyz
x,y,z
-x,-y,-z
loop_
_atom_site_type_symbol
_atom_site_label
_atom_site_fract_x
_atom_site_fract_y
_atom_site_fract_z
Si Si1 0.445204 0.496555 0.253047
Si Si2 0.249288 0.861874 0.044358
Si Si3 0.021938 0.467252 0.890285
Si Si4 0.068386 0.891851 0.922122
Si Si5 0.358654 0.220541 0.832613
Si Si6 0.258239 0.492070 0.276080
Si Si7 0.723958 0.752425 0.903520
Si Si8 0.089927 0.124323 0.416052
O O1 0.607628 0.285314 0.263206
O O2 0.438793 0.406882 0.228905
O O3 0.146706 0.680812 0.435499
O O4 0.613914 0.600053 0.063635
O O5 0.179517 0.739132 0.207672
O O6 0.557298 0.695315 0.844896
O O7 0.041672 0.929168 0.125309
O O8 0.222459 0.080441 0.001724
O O9 0.277778 0.376861 0.766301
O O10 0.980356 0.638688 0.792068
O O11 0.062330 0.246058 0.922370
O O12 0.755486 0.613164 0.086693
O O13 0.000000 0.000000 0.000000
O O14 0.675870 0.059119 0.648123
O O15 0.000000 0.500000 0.500000
O O16 0.805860 0.756348 0.763782
O O17 0.500000 0.000000 0.000000
O O18 0.000000 0.000000 0.500000
#
# Coordination Sequence:
#
# PCOD8044536 Si02
#       8
#     2   2   2   2   2   2   2   2
#     4  11  23  39  63  89 123 163 206 261 305 371
#     4  10  22  40  66  85 123 170 205 256 316 366
#     4   9  20  35  62  93 120 160 209 251 302 379
#     4  10  19  41  64  88 123 168 207 256 312 369
#     4  10  19  38  62  92 124 161 205 253 316 367
#     4  11  23  40  59  94 123 158 217 253 307 378
#     4  11  20  39  63  90 125 162 204 249 315 372
#     4  12  22  36  61  93 126 159 202 254 310 369
#
# _framework density 21.041878000000001
#
# number of rings (size 3 to 8) (size 9 to 14) (size 15 to 20)
#    0.000    1.500    3.750    2.250    0.000    1.000 
#    0.000    6.250    0.000    0.000    0.000    0.000 
#    0.000    0.000    0.000    0.000    0.000    0.000 
#
# Total GULP energy -198294.085036 kJ/mol
# GULP energy per Si atom -12393.380315 kJ/mol
# Density = 2.099399 g / cm^3
# Si number density = 21.041878 Si / 1000 Ang^3
#
#
#
# Elastic Constant Matrix: (Units=GPa)
#
#
# Indices 1 2 3 4 5 6 
#
# 1 96.6063 27.1548 24.8193 7.1291 -14.4978 -13.5090
# 2 27.1548 76.3161 31.1575 10.7575 -9.0659 -13.5955
# 3 24.8193 31.1575 96.6181 11.3395 -1.9079 -16.5550
# 4 7.1291 10.7575 11.3395 33.1785 -6.5188 -5.9620
# 5 -14.4978 -9.0659 -1.9079 -6.5188 29.1002 13.2079
# 6 -13.5090 -13.5955 -16.5550 -5.9620 13.2079 53.7392
#
#
#
# Elastic Compliance Matrix: (Units=1/GPa)
#
#
# Indices 1 2 3 4 5 6 
#
# 1 0.012527 -0.002924 -0.002087 0.000042 0.004951 0.000554
# 2 -0.002924 0.016685 -0.004028 -0.002715 0.002236 0.001394
# 3 -0.002087 -0.004028 0.012958 -0.002812 -0.003427 0.002978
# 4 0.000042 -0.002715 -0.002812 0.033297 0.006160 0.000637
# 5 0.004951 0.002236 -0.003427 0.006160 0.042805 -0.009082
# 6 0.000554 0.001394 0.002978 0.000637 -0.009082 0.022321
#
#
# Mechanical properties :
#
#
# Convention : Reuss Voigt Hill
#
# Bulk Modulus (GPa) = 41.50845 48.42264 44.96554
# Shear Modulus (GPa) = 29.99374 35.63084 32.81229
#
# Velocity S-wave (km/s) = 3.77958 4.11947 3.95318
# Velocity P-wave (km/s) = 6.23028 6.75938 6.50022
#
# Compressibility (1/GPa) = 0.02409148
#
# Stress axis : x y z
#
# Youngs Moduli (GPa) = 79.82860 59.93386 77.17386
#
# Poissons Ratio (x) = 0.17526 0.16107
# Poissons Ratio (y) = 0.23344 0.31083
# Poissons Ratio (z) = 0.16661 0.24139
#
# Static dielectric constant tensor:
#      x y z
#    x 4.379020 -0.418950 0.030790 
#    y -0.418950 4.151710 0.236570 
#    z 0.030790 0.236570 3.059530 
# 
# 
# High freq. dielectric constant tensor:
#      x y z
#    x 1.849700 -0.008840 -0.010830 
#    y -0.008840 1.836340 0.025360 
#    z -0.010830 0.025360 1.777550 
# 
# From -- ./inp_files/531522.got.cif
#   From: 2010.06.25/outbox.cif.g09.slc.cpg/sg2_266_cif.got.tgz:531522.got - 2010.06.27 13:26:56.
