data_PCOD8044384
_publ_section_title
;
Structure prediction by ZEFSAII (Michael W. Deem and Ramdas Pophale) SiO2 
 PCOD8044384
Probable space group: P -1
;
_chemical_formula_sum "Si O2"
_cell_formula_units_Z 10
_cell_length_a 9.503481
_cell_length_b 8.808509
_cell_length_c 8.545321
_cell_angle_alpha 73.270950
_cell_angle_beta 130.781577
_cell_angle_gamma 89.671224
_cell_volume 499.876687
_symmetry_space_group_name_H-M "P -1"
_symmetry_group_IT_number 2
_symmetry_cell_setting 'triclinic'
loop_
_space_group_symop_operation_xyz
x,y,z
-x,-y,-z
loop_
_atom_site_type_symbol
_atom_site_label
_atom_site_fract_x
_atom_site_fract_y
_atom_site_fract_z
Si Si1 0.694330 0.704103 0.487380
Si Si2 0.106959 0.097606 0.656255
Si Si3 0.115321 0.216300 0.085614
Si Si4 0.736574 0.107989 0.883683
Si Si5 0.944063 0.398071 0.628338
O O1 0.763924 0.812484 0.376020
O O2 0.801874 0.716438 0.723429
O O3 0.467049 0.761147 0.327141
O O4 0.748011 0.512511 0.527779
O O5 0.936982 0.224170 0.596740
O O6 0.000000 0.000000 0.500000
O O7 0.251122 0.971674 0.912155
O O8 0.244458 0.033733 0.191407
O O9 0.896046 0.207864 0.953113
O O10 0.107433 0.346788 0.899166
O O11 0.000000 0.500000 0.500000
#
# Coordination Sequence:
#
# PCOD8044384 Si02
#       5
#     2   2   2   2   2
#     4  11  20  36  61  84 111 147 187 227 277 328
#     4  10  19  38  60  80 115 151 181 226 280 326
#     4  10  20  37  58  81 117 145 182 232 279 322
#     4  10  21  35  58  88 110 145 190 228 268 334
#     4   9  21  37  58  81 113 149 182 230 282 328
#
# _framework density 20.004935
#
# number of rings (size 3 to 8) (size 9 to 14) (size 15 to 20)
#    0.000    2.000    2.000    1.800    0.000    0.800 
#    0.000    1.000    4.400    0.000    0.000    0.000 
#    0.000    0.000    0.000    0.000    0.000    0.000 
#
# Total GULP energy -123922.876853 kJ/mol
# GULP energy per Si atom -12392.287685 kJ/mol
# Density = 1.995940 g / cm^3
# Si number density = 20.004935 Si / 1000 Ang^3
#
#
#
# Elastic Constant Matrix: (Units=GPa)
#
#
# Indices 1 2 3 4 5 6 
#
# 1 78.1482 38.1476 63.6476 -0.0133 5.5558 -23.9290
# 2 38.1476 100.1009 63.7083 1.8870 13.8495 -35.6290
# 3 63.6476 63.7083 117.5718 -6.1632 -1.0677 -19.2332
# 4 -0.0133 1.8870 -6.1632 31.8782 -5.3542 -1.2865
# 5 5.5558 13.8495 -1.0677 -5.3542 50.3190 -12.7094
# 6 -23.9290 -35.6290 -19.2332 -1.2865 -12.7094 34.2264
#
#
#
# Elastic Compliance Matrix: (Units=1/GPa)
#
#
# Indices 1 2 3 4 5 6 
#
# 1 0.027553 0.004767 -0.015173 -0.002783 -0.001140 0.015171
# 2 0.004767 0.023410 -0.012240 -0.003392 -0.002607 0.019728
# 3 -0.015173 -0.012240 0.022133 0.005244 0.003714 -0.009336
# 4 -0.002783 -0.003392 0.005244 0.033458 0.005066 0.000609
# 5 -0.001140 -0.002607 0.003714 0.005066 0.023199 0.007380
# 6 0.015171 0.019728 -0.009336 0.000609 0.007380 0.057878
#
#
# Mechanical properties :
#
#
# Convention : Reuss Voigt Hill
#
# Bulk Modulus (GPa) = 35.96662 69.64754 52.80708
# Shear Modulus (GPa) = 20.64485 31.97256 26.30870
#
# Velocity S-wave (km/s) = 3.21594 4.00213 3.63038
# Velocity P-wave (km/s) = 5.63982 7.49979 6.63530
#
# Compressibility (1/GPa) = 0.02780356
#
# Stress axis : x y z
#
# Youngs Moduli (GPa) = 36.29338 42.71751 45.18087
#
# Poissons Ratio (x) = -0.20363 0.68555
# Poissons Ratio (y) = -0.17300 0.55300
# Poissons Ratio (z) = 0.55069 0.52285
#
# Static dielectric constant tensor:
#      x y z
#    x 3.491610 -0.382350 -0.307960 
#    y -0.382350 3.935600 -0.303330 
#    z -0.307960 -0.303330 3.696400 
# 
# 
# High freq. dielectric constant tensor:
#      x y z
#    x 1.773660 -0.023200 -0.031780 
#    y -0.023200 1.783380 -0.018940 
#    z -0.031780 -0.018940 1.781950 
# 
# From -- ./inp_files/15191.got.cif
#   From: 2010.06.25/outbox.cif.g09.slc.cpg/sg2_8_cif.got.tgz:15191.got - 2010.06.27 13:26:56.
