data_PCOD8044772
_publ_section_title
;
Structure prediction by ZEFSAII (Michael W. Deem and Ramdas Pophale) SiO2 
 PCOD8044772
Probable space group: P -1
;
_chemical_formula_sum "Si O2"
_cell_formula_units_Z 16
_cell_length_a 10.133070
_cell_length_b 15.930610
_cell_length_c 19.287268
_cell_angle_alpha 34.229437
_cell_angle_beta 29.673095
_cell_angle_gamma 32.028408
_cell_volume 767.690045
_symmetry_space_group_name_H-M "P -1"
_symmetry_group_IT_number 2
_symmetry_cell_setting 'triclinic'
loop_
_space_group_symop_operation_xyz
x,y,z
-x,-y,-z
loop_
_atom_site_type_symbol
_atom_site_label
_atom_site_fract_x
_atom_site_fract_y
_atom_site_fract_z
Si Si1 0.215622 0.203457 0.419572
Si Si2 0.135442 0.837430 0.133481
Si Si3 0.801471 0.509531 0.867606
Si Si4 0.247792 0.781210 0.595661
Si Si5 0.703650 0.818765 0.447515
Si Si6 0.166798 0.160199 0.871882
Si Si7 0.223785 0.861774 0.406846
Si Si8 0.834969 0.618531 0.930985
O O1 0.229716 0.329212 0.270195
O O2 0.228355 0.261760 0.452003
O O3 0.884440 0.212521 0.557215
O O4 0.496055 0.019802 0.405543
O O5 0.020146 0.781864 0.292309
O O6 0.948923 0.814162 0.171445
O O7 0.488008 0.727464 0.034997
O O8 0.064836 0.032576 0.041740
O O9 0.859479 0.521429 0.914381
O O10 0.063931 0.335283 0.838865
O O11 0.500000 0.500000 0.000000
O O12 0.548113 0.718542 0.548047
O O13 0.339240 0.728149 0.509782
O O14 0.008562 0.727527 0.769953
O O15 0.089168 0.982907 0.533001
O O16 0.528332 0.079304 0.765359
O O17 0.000000 0.500000 0.000000
#
# Coordination Sequence:
#
# PCOD8044772 Si02
#       8
#     2   2   2   2   2   2   2   2
#     4  10  23  41  65  97 140 171 219 271 338 390
#     4  11  23  44  68 101 131 173 232 268 327 400
#     4  12  25  43  64  97 135 175 216 274 342 389
#     4  10  20  39  67  93 128 172 221 264 322 395
#     4  10  22  41  70  98 130 179 223 273 320 398
#     4  11  23  39  71 100 130 174 225 276 326 395
#     4  10  19  38  66  96 123 172 222 265 322 388
#     4  12  27  46  66  99 138 177 218 276 337 396
#
# _framework density 20.841746000000001
#
# number of rings (size 3 to 8) (size 9 to 14) (size 15 to 20)
#    0.000    1.250    5.000    0.750    3.500    1.500 
#    4.500    2.500    0.000    0.000    0.000    0.000 
#    0.000    0.000    0.000    0.000    0.000    0.000 
#
# Total GULP energy -198301.306414 kJ/mol
# GULP energy per Si atom -12393.831651 kJ/mol
# Density = 2.079431 g / cm^3
# Si number density = 20.841746 Si / 1000 Ang^3
#
#
#
# Elastic Constant Matrix: (Units=GPa)
#
#
# Indices 1 2 3 4 5 6 
#
# 1 164.7549 25.1650 56.4124 -5.0677 -4.8526 2.5147
# 2 25.1650 53.6633 11.4747 -2.1493 2.4986 6.0770
# 3 56.4124 11.4747 118.3947 13.5149 -17.1587 1.6072
# 4 -5.0677 -2.1493 13.5149 23.9767 -1.4422 1.1176
# 5 -4.8526 2.4986 -17.1587 -1.4422 36.3241 3.4519
# 6 2.5147 6.0770 1.6072 1.1176 3.4519 20.1722
#
#
#
# Elastic Compliance Matrix: (Units=1/GPa)
#
#
# Indices 1 2 3 4 5 6 
#
# 1 0.007958 -0.002704 -0.004023 0.003676 -0.000508 0.000026
# 2 -0.002704 0.020962 -0.001158 0.002123 -0.001723 -0.005708
# 3 -0.004023 -0.001158 0.012054 -0.007422 0.004994 -0.000553
# 4 0.003676 0.002123 -0.007422 0.046933 -0.001019 -0.002932
# 5 -0.000508 -0.001723 0.004994 -0.001019 0.030370 -0.004956
# 6 0.000026 -0.005708 -0.000553 -0.002932 -0.004956 0.052344
#
#
# Mechanical properties :
#
#
# Convention : Reuss Voigt Hill
#
# Bulk Modulus (GPa) = 39.67603 58.10192 48.88897
# Shear Modulus (GPa) = 25.66832 32.34533 29.00682
#
# Velocity S-wave (km/s) = 3.51320 3.94375 3.73468
# Velocity P-wave (km/s) = 5.96111 6.97680 6.48886
#
# Compressibility (1/GPa) = 0.02520414
#
# Stress axis : x y z
#
# Youngs Moduli (GPa) = 125.66220 47.70575 82.95905
#
# Poissons Ratio (x) = 0.12898 0.33377
# Poissons Ratio (y) = 0.33974 0.09607
# Poissons Ratio (z) = 0.50557 0.05524
#
# Static dielectric constant tensor:
#      x y z
#    x 4.053810 -0.132880 -0.119460 
#    y -0.132880 3.313150 0.003080 
#    z -0.119460 0.003080 3.611120 
# 
# 
# High freq. dielectric constant tensor:
#      x y z
#    x 1.827360 0.001060 -0.014500 
#    y 0.001060 1.790760 0.003330 
#    z -0.014500 0.003330 1.826200 
# 
# From -- ./inp_files/320928.got.cif
#   From: 2010.06.25/outbox.cif.g09.slc.cpg/sg2_161_cif.got.tgz:320928.got - 2010.06.27 13:26:56.
