data_PCOD8044402
_publ_section_title
;
Structure prediction by ZEFSAII (Michael W. Deem and Ramdas Pophale) SiO2 
 PCOD8044402
Probable space group: P -1
;
_chemical_formula_sum "Si O2"
_cell_formula_units_Z 16
_cell_length_a 19.079485
_cell_length_b 9.940808
_cell_length_c 12.555444
_cell_angle_alpha 124.509854
_cell_angle_beta 44.477705
_cell_angle_gamma 149.064937
_cell_volume 850.823469
_symmetry_space_group_name_H-M "P -1"
_symmetry_group_IT_number 2
_symmetry_cell_setting 'triclinic'
loop_
_space_group_symop_operation_xyz
x,y,z
-x,-y,-z
loop_
_atom_site_type_symbol
_atom_site_label
_atom_site_fract_x
_atom_site_fract_y
_atom_site_fract_z
Si Si1 0.896175 0.833278 0.933843
Si Si2 0.849777 0.308118 0.937031
Si Si3 0.040892 0.462594 0.609109
Si Si4 0.619786 0.256625 0.059788
Si Si5 0.559446 0.753146 0.581938
Si Si6 0.373038 0.956193 0.562951
Si Si7 0.174614 0.899590 0.916217
Si Si8 0.928061 0.180876 0.396562
O O1 0.025177 0.934606 0.752821
O O2 0.756010 0.519614 0.959491
O O3 0.814907 0.892433 0.004485
O O4 0.000000 0.000000 0.000000
O O5 0.903482 0.264506 0.759389
O O6 0.998839 0.615757 0.942941
O O7 0.697800 0.226551 0.041246
O O8 0.792827 0.117143 0.007098
O O9 0.015727 0.612217 0.657076
O O10 0.017683 0.305775 0.468680
O O11 0.217756 0.657105 0.554374
O O12 0.535268 0.288561 0.235786
O O13 0.500000 0.000000 0.000000
O O14 0.500000 0.500000 0.500000
O O15 0.542355 0.845683 0.538641
O O16 0.739831 0.962374 0.522097
O O17 0.500000 0.000000 0.500000
O O18 0.313918 0.012403 0.738234
#
# Coordination Sequence:
#
# PCOD8044402 Si02
#       8
#     2   2   2   2   2   2   2   2
#     4  12  21  40  64  89 119 160 209 248 302 366
#     4  10  19  38  60  87 119 152 205 248 299 355
#     4   9  18  36  60  85 112 156 202 244 287 364
#     4  12  24  37  63  95 124 156 203 256 311 361
#     4  11  23  37  59  91 123 152 197 259 305 351
#     4  10  20  37  59  83 115 156 196 238 303 361
#     4  10  21  36  62  88 113 159 204 250 290 367
#     4  10  20  36  63  85 117 155 201 242 299 357
#
# _framework density 18.805311
#
# number of rings (size 3 to 8) (size 9 to 14) (size 15 to 20)
#    0.000    1.500    2.500    4.500    3.500    0.000 
#    0.000    1.250    2.750    0.000    0.000    0.000 
#    0.000    0.000    0.000    0.000    0.000    0.000 
#
# Total GULP energy -198422.466079 kJ/mol
# GULP energy per Si atom -12401.404130 kJ/mol
# Density = 1.876251 g / cm^3
# Si number density = 18.805311 Si / 1000 Ang^3
#
#
#
# Elastic Constant Matrix: (Units=GPa)
#
#
# Indices 1 2 3 4 5 6 
#
# 1 125.9870 41.0487 51.3499 9.1406 -12.5986 7.1266
# 2 41.0487 73.9524 24.3872 10.4086 -3.3646 3.5655
# 3 51.3499 24.3872 117.0030 15.8943 -7.9343 11.7385
# 4 9.1406 10.4086 15.8943 31.0133 -1.2307 2.4109
# 5 -12.5986 -3.3646 -7.9343 -1.2307 32.4103 -0.4712
# 6 7.1266 3.5655 11.7385 2.4109 -0.4712 23.2311
#
#
#
# Elastic Compliance Matrix: (Units=1/GPa)
#
#
# Indices 1 2 3 4 5 6 
#
# 1 0.011398 -0.004976 -0.003734 0.000408 0.003003 -0.000828
# 2 -0.004976 0.017099 -0.000868 -0.003827 -0.000521 -0.000272
# 3 -0.003734 -0.000868 0.011398 -0.004095 0.001035 -0.004035
# 4 0.000408 -0.003827 -0.004095 0.035601 0.000094 -0.001162
# 5 0.003003 -0.000521 0.001035 0.000094 0.032214 -0.000720
# 6 -0.000828 -0.000272 -0.004035 -0.001162 -0.000720 0.045486
#
#
# Mechanical properties :
#
#
# Convention : Reuss Voigt Hill
#
# Bulk Modulus (GPa) = 48.22092 61.16820 54.69456
# Shear Modulus (GPa) = 27.89174 30.67471 29.28322
#
# Velocity S-wave (km/s) = 3.85539 4.04316 3.95039
# Velocity P-wave (km/s) = 6.74660 7.37522 7.06790
#
# Compressibility (1/GPa) = 0.02073789
#
# Stress axis : x y z
#
# Youngs Moduli (GPa) = 87.73394 58.48405 87.73774
#
# Poissons Ratio (x) = 0.29103 0.32760
# Poissons Ratio (y) = 0.43659 0.07617
# Poissons Ratio (z) = 0.32759 0.05077
#
# Static dielectric constant tensor:
#      x y z
#    x 3.477110 0.056200 0.069350 
#    y 0.056200 3.240110 0.012530 
#    z 0.069350 0.012530 3.610820 
# 
# 
# High freq. dielectric constant tensor:
#      x y z
#    x 1.727780 0.008190 0.001560 
#    y 0.008190 1.709810 -0.002850 
#    z 0.001560 -0.002850 1.749040 
# 
# From -- ./inp_files/257442.got.cif
#   From: 2010.06.25/outbox.cif.g09.slc.cpg/sg2_129_cif.got.tgz:257442.got - 2010.06.27 13:26:56.
