data_PCOD8044044
_publ_section_title
;
Structure prediction by ZEFSAII (Michael W. Deem and Ramdas Pophale) SiO2 
 PCOD8044044
Probable space group: P -1
;
_chemical_formula_sum "Si O2"
_cell_formula_units_Z 16
_cell_length_a 14.936976
_cell_length_b 18.877055
_cell_length_c 9.433252
_cell_angle_alpha 135.603512
_cell_angle_beta 24.825618
_cell_angle_gamma 138.264487
_cell_volume 736.789251
_symmetry_space_group_name_H-M "P -1"
_symmetry_group_IT_number 2
_symmetry_cell_setting 'triclinic'
loop_
_space_group_symop_operation_xyz
x,y,z
-x,-y,-z
loop_
_atom_site_type_symbol
_atom_site_label
_atom_site_fract_x
_atom_site_fract_y
_atom_site_fract_z
Si Si1 0.537849 0.941696 0.506607
Si Si2 0.084993 0.603932 0.727566
Si Si3 0.367194 0.221489 0.278488
Si Si4 0.595411 0.571588 0.332358
Si Si5 0.876995 0.181397 0.874965
Si Si6 0.355534 0.916678 0.199546
Si Si7 0.547605 0.723989 0.079423
Si Si8 0.307333 0.460136 0.331252
O O1 0.629617 0.844799 0.195986
O O2 0.500000 0.000000 0.500000
O O3 0.717559 0.023632 0.474857
O O4 0.307854 0.894139 0.860234
O O5 0.298094 0.653619 0.389870
O O6 0.094797 0.495156 0.636467
O O7 0.084652 0.692670 0.973486
O O8 0.850129 0.571601 0.930212
O O9 0.395944 0.307197 0.483970
O O10 0.103580 0.154832 0.541953
O O11 0.487275 0.139928 0.034793
O O12 0.477007 0.278810 0.057639
O O13 0.500000 0.500000 0.500000
O O14 0.409639 0.525219 0.416190
O O15 0.839531 0.162990 0.731730
O O16 0.500000 0.000000 0.000000
O O17 0.736070 0.667926 0.770375
O O18 0.500000 0.500000 0.000000
#
# Coordination Sequence:
#
# PCOD8044044 Si02
#       8
#     2   2   2   2   2   2   2   2
#     4  10  19  37  63  84 119 158 198 250 297 351
#     4   9  21  40  64  86 128 158 196 243 302 355
#     4  11  21  40  62  88 126 149 202 252 289 363
#     4  11  22  39  63  95 119 160 202 241 299 359
#     4   9  21  39  63  90 116 159 198 241 308 350
#     4  10  21  38  64  87 114 157 203 247 300 349
#     4  10  20  38  59  89 120 163 196 246 299 348
#     4  10  21  39  61  88 125 156 202 244 292 353
#
# _framework density 21.715844000000001
#
# number of rings (size 3 to 8) (size 9 to 14) (size 15 to 20)
#    0.000    2.000    2.500    0.750    0.000    5.500 
#    2.250    1.875    5.500    0.000    0.000    0.000 
#    0.000    0.000    0.000    0.000    0.000    0.000 
#
# Total GULP energy -198229.829625 kJ/mol
# GULP energy per Si atom -12389.364352 kJ/mol
# Density = 2.166642 g / cm^3
# Si number density = 21.715844 Si / 1000 Ang^3
#
#
#
# Elastic Constant Matrix: (Units=GPa)
#
#
# Indices 1 2 3 4 5 6 
#
# 1 82.9344 23.1211 5.4903 18.8727 19.6931 -6.7285
# 2 23.1211 77.5794 33.0449 32.7471 -5.7141 -9.8241
# 3 5.4903 33.0449 50.7362 16.0999 5.6083 -0.3332
# 4 18.8727 32.7471 16.0999 38.5763 -4.5237 -1.4514
# 5 19.6931 -5.7141 5.6083 -4.5237 25.0208 6.7030
# 6 -6.7285 -9.8241 -0.3332 -1.4514 6.7030 37.6095
#
#
#
# Elastic Compliance Matrix: (Units=1/GPa)
#
#
# Indices 1 2 3 4 5 6 
#
# 1 0.022219 -0.006119 0.008031 -0.011661 -0.024499 0.006364
# 2 -0.006119 0.027579 -0.014376 -0.012990 0.011048 0.003512
# 3 0.008031 -0.014376 0.032633 -0.007482 -0.018536 0.000986
# 4 -0.011661 -0.012990 -0.007482 0.047670 0.018377 -0.006981
# 5 -0.024499 0.011048 -0.018536 0.018377 0.072989 -0.013961
# 6 0.006364 0.003512 0.000986 -0.006981 -0.013961 0.030872
#
#
# Mechanical properties :
#
#
# Convention : Reuss Voigt Hill
#
# Bulk Modulus (GPa) = 17.39019 37.17361 27.28190
# Shear Modulus (GPa) = 17.98177 30.21424 24.09800
#
# Velocity S-wave (km/s) = 2.88070 3.73412 3.33483
# Velocity P-wave (km/s) = 4.36922 5.97887 5.23627
#
# Compressibility (1/GPa) = 0.05750369
#
# Stress axis : x y z
#
# Youngs Moduli (GPa) = 45.00575 36.25949 30.64337
#
# Poissons Ratio (x) = 0.22188 -0.24611
# Poissons Ratio (y) = 0.27540 0.44054
# Poissons Ratio (z) = -0.36146 0.52127
#
# Static dielectric constant tensor:
#      x y z
#    x 4.300830 0.062940 -0.047600 
#    y 0.062940 4.389300 0.595800 
#    z -0.047600 0.595800 4.325380 
# 
# 
# High freq. dielectric constant tensor:
#      x y z
#    x 1.857390 -0.002080 0.013330 
#    y -0.002080 1.855850 0.023140 
#    z 0.013330 0.023140 1.845610 
# 
# From -- ./inp_files/217424.got.cif
#   From: 2010.06.25/outbox.cif.g09.slc.cpg/sg2_109_cif.got.tgz:217424.got - 2010.06.27 13:26:56.
