data_PCOD8044542
_publ_section_title
;
Structure prediction by ZEFSAII (Michael W. Deem and Ramdas Pophale) SiO2 
 PCOD8044542
Probable space group: P -1
;
_chemical_formula_sum "Si O2"
_cell_formula_units_Z 12
_cell_length_a 9.481057
_cell_length_b 11.740452
_cell_length_c 9.753561
_cell_angle_alpha 91.240358
_cell_angle_beta 139.394204
_cell_angle_gamma 113.752406
_cell_volume 540.301206
_symmetry_space_group_name_H-M "P -1"
_symmetry_group_IT_number 2
_symmetry_cell_setting 'triclinic'
loop_
_space_group_symop_operation_xyz
x,y,z
-x,-y,-z
loop_
_atom_site_type_symbol
_atom_site_label
_atom_site_fract_x
_atom_site_fract_y
_atom_site_fract_z
Si Si1 0.826046 0.713704 0.140820
Si Si2 0.836055 0.213140 0.143026
Si Si3 0.739816 0.189960 0.769259
Si Si4 0.665784 0.911682 0.746923
Si Si5 0.170566 0.442748 0.614664
Si Si6 0.319522 0.093060 0.950098
O O1 0.938550 0.675372 0.346646
O O2 0.877849 0.864024 0.228272
O O3 0.985418 0.736276 0.119452
O O4 0.499019 0.579185 0.869385
O O5 0.106965 0.357577 0.422302
O O6 0.862763 0.084090 0.164450
O O7 0.832701 0.268006 0.989263
O O8 0.549394 0.155978 0.004166
O O9 0.510410 0.194445 0.519263
O O10 0.591485 0.020164 0.691227
O O11 0.537238 0.824306 0.794273
O O12 0.000000 0.000000 0.000000
O O13 0.000000 0.500000 0.500000
#
# Coordination Sequence:
#
# PCOD8044542 Si02
#       6
#     2   2   2   2   2   2
#     4  11  23  41  69  92 121 182 215 256 323 387
#     4  10  22  41  63  99 133 164 211 273 315 374
#     4  10  22  37  63  96 128 162 215 261 321 379
#     4  10  19  38  62  94 129 166 198 256 328 387
#     4  11  24  44  65  88 131 176 219 257 319 390
#     4  10  20  40  66  96 127 166 211 262 325 375
#
# _framework density 22.209833
#
# number of rings (size 3 to 8) (size 9 to 14) (size 15 to 20)
#    0.000    1.667    3.333    1.000    0.000    2.667 
#    6.000    0.833    0.000    0.000    0.000    0.000 
#    0.000    0.000    0.000    0.000    0.000    0.000 
#
# Total GULP energy -148680.994370 kJ/mol
# GULP energy per Si atom -12390.082864 kJ/mol
# Density = 2.215928 g / cm^3
# Si number density = 22.209833 Si / 1000 Ang^3
#
#
#
# Elastic Constant Matrix: (Units=GPa)
#
#
# Indices 1 2 3 4 5 6 
#
# 1 140.1729 42.8601 60.2523 -21.8201 -16.6927 12.6681
# 2 42.8601 90.7876 44.8991 -27.0038 -10.0780 -9.0656
# 3 60.2523 44.8991 118.2419 -20.3786 -15.0236 -16.0466
# 4 -21.8201 -27.0038 -20.3786 35.0223 1.7762 -4.1907
# 5 -16.6927 -10.0780 -15.0236 1.7762 43.7996 -3.6718
# 6 12.6681 -9.0656 -16.0466 -4.1907 -3.6718 29.0906
#
#
#
# Elastic Compliance Matrix: (Units=1/GPa)
#
#
# Indices 1 2 3 4 5 6 
#
# 1 0.011585 -0.003422 -0.005707 0.000120 0.000900 -0.009129
# 2 -0.003422 0.018005 -0.001663 0.011635 0.002481 0.008173
# 3 -0.005707 -0.001663 0.014791 0.004949 0.003258 0.011250
# 4 0.000120 0.011635 0.004949 0.041818 0.003798 0.012807
# 5 0.000900 0.002481 0.003258 0.003798 0.025204 0.005907
# 6 -0.009129 0.008173 0.011250 0.012807 0.005907 0.049694
#
#
# Mechanical properties :
#
#
# Convention : Reuss Voigt Hill
#
# Bulk Modulus (GPa) = 43.87096 71.69172 57.78134
# Shear Modulus (GPa) = 26.27691 34.99521 30.63606
#
# Velocity S-wave (km/s) = 3.44338 3.97377 3.71805
# Velocity P-wave (km/s) = 5.96699 7.30779 6.67116
#
# Compressibility (1/GPa) = 0.02279412
#
# Stress axis : x y z
#
# Youngs Moduli (GPa) = 86.32127 55.53926 67.60974
#
# Poissons Ratio (x) = 0.19008 0.38588
# Poissons Ratio (y) = 0.29543 0.11246
# Poissons Ratio (z) = 0.49268 0.09238
#
# Static dielectric constant tensor:
#      x y z
#    x 4.063630 0.083940 -0.331570 
#    y 0.083940 4.225000 -0.362500 
#    z -0.331570 -0.362500 4.473210 
# 
# 
# High freq. dielectric constant tensor:
#      x y z
#    x 1.873140 0.015340 -0.007060 
#    y 0.015340 1.858650 -0.024010 
#    z -0.007060 -0.024010 1.877300 
# 
# From -- ./inp_files/26121.got.cif
#   From: 2010.06.25/outbox.cif.g09.slc.cpg/sg2_14_cif.got.tgz:26121.got - 2010.06.27 13:26:56.
