data_PCOD8044774
_publ_section_title
;
Structure prediction by ZEFSAII (Michael W. Deem and Ramdas Pophale) SiO2 
 PCOD8044774
Probable space group: P -1
;
_chemical_formula_sum "Si O2"
_cell_formula_units_Z 16
_cell_length_a 8.409261
_cell_length_b 17.127779
_cell_length_c 9.983026
_cell_angle_alpha 56.957505
_cell_angle_beta 44.364116
_cell_angle_gamma 47.612924
_cell_volume 736.983079
_symmetry_space_group_name_H-M "P -1"
_symmetry_group_IT_number 2
_symmetry_cell_setting 'triclinic'
loop_
_space_group_symop_operation_xyz
x,y,z
-x,-y,-z
loop_
_atom_site_type_symbol
_atom_site_label
_atom_site_fract_x
_atom_site_fract_y
_atom_site_fract_z
Si Si1 0.917907 0.146559 0.639841
Si Si2 0.214695 0.799923 0.872651
Si Si3 0.698863 0.497111 0.491337
Si Si4 0.300292 0.002942 0.009791
Si Si5 0.902934 0.635270 0.825094
Si Si6 0.380330 0.664164 0.154694
Si Si7 0.282197 0.703957 0.632181
Si Si8 0.430981 0.126257 0.294601
O O1 0.849978 0.052672 0.779960
O O2 0.770468 0.230487 0.765824
O O3 0.826738 0.202431 0.498508
O O4 0.232443 0.094324 0.517658
O O5 0.269989 0.754932 0.733196
O O6 0.347158 0.875413 0.741875
O O7 0.321607 0.699413 0.002571
O O8 0.906905 0.874586 0.011302
O O9 0.500000 0.500000 0.500000
O O10 0.718613 0.419409 0.674292
O O11 0.586889 0.617795 0.499872
O O12 0.974878 0.448253 0.294477
O O13 0.443629 0.948233 0.838648
O O14 0.500000 0.000000 0.000000
O O15 0.743075 0.752371 0.754605
O O16 0.119092 0.638429 0.790269
O O17 0.693658 0.609565 0.049129
#
# Coordination Sequence:
#
# PCOD8044774 Si02
#       8
#     2   2   2   2   2   2   2   2
#     4  11  22  43  69  89 128 175 217 256 323 380
#     4  11  25  42  62  97 135 166 213 270 322 374
#     4  10  19  38  66  96 127 168 219 260 310 384
#     4  12  25  44  69  96 127 168 217 266 319 389
#     4   9  18  37  65  90 124 166 215 262 306 378
#     4  11  21  40  68  91 128 175 210 262 327 374
#     4  10  22  41  62  97 132 163 219 270 306 382
#     4  10  21  41  64  91 129 167 210 265 314 383
#
# _framework density 21.710132000000002
#
# number of rings (size 3 to 8) (size 9 to 14) (size 15 to 20)
#    0.000    1.500    6.250    1.875    0.000    5.000 
#    2.250    2.500    0.000    0.000    0.000    0.000 
#    0.000    0.000    0.000    0.000    0.000    0.000 
#
# Total GULP energy -198333.633461 kJ/mol
# GULP energy per Si atom -12395.852091 kJ/mol
# Density = 2.166072 g / cm^3
# Si number density = 21.710132 Si / 1000 Ang^3
#
#
#
# Elastic Constant Matrix: (Units=GPa)
#
#
# Indices 1 2 3 4 5 6 
#
# 1 85.5153 31.7275 49.6960 28.2431 3.6448 29.4267
# 2 31.7275 57.1132 24.7792 28.1568 -9.7721 -29.4328
# 3 49.6960 24.7792 112.7940 28.6746 -12.7289 -4.9012
# 4 28.2431 28.1568 28.6746 55.1932 -0.4614 -8.3936
# 5 3.6448 -9.7721 -12.7289 -0.4614 30.5985 -14.4320
# 6 29.4267 -29.4328 -4.9012 -8.3936 -14.4320 -38.6133
#
#
#
# Elastic Compliance Matrix: (Units=1/GPa)
#
#
# Indices 1 2 3 4 5 6 
#
# 1 0.011641 0.001527 -0.004107 -0.003306 0.001329 0.008451
# 2 0.001527 0.017605 -0.002463 -0.009956 -0.000294 -0.009668
# 3 -0.004107 -0.002463 0.012335 -0.003520 0.003241 -0.003265
# 4 -0.003306 -0.009956 -0.003520 0.026834 -0.003396 0.000952
# 5 0.001329 -0.000294 0.003241 -0.003396 0.029299 -0.009387
# 6 0.008451 -0.009668 -0.003265 0.000952 -0.009387 -0.008372
#
#
# Mechanical properties :
#
#
# Convention : Reuss Voigt Hill
#
# Bulk Modulus (GPa) = 31.75021 51.98089 41.86555
# Shear Modulus (GPa) = 45.48581 19.38366 32.43474
#
# Velocity S-wave (km/s) = 4.58224 2.99128 3.86941
# Velocity P-wave (km/s) = 6.53087 5.99379 6.26808
#
# Compressibility (1/GPa) = 0.03149585
#
# Stress axis : x y z
#
# Youngs Moduli (GPa) = 85.90253 56.80360 81.07078
#
# Poissons Ratio (x) = -0.08675 0.33294
# Poissons Ratio (y) = -0.13119 0.19965
# Poissons Ratio (z) = 0.35279 0.13989
#
# Static dielectric constant tensor:
#      x y z
#    x 4.082770 -0.021830 -0.468880 
#    y -0.021830 3.946860 -0.021170 
#    z -0.468880 -0.021170 4.463600 
# 
# 
# High freq. dielectric constant tensor:
#      x y z
#    x 1.831470 -0.016980 -0.007080 
#    y -0.016980 1.861990 0.016070 
#    z -0.007080 0.016070 1.858360 
# 
# From -- ./inp_files/217258.got.cif
#   From: 2010.06.25/outbox.cif.g09.slc.cpg/sg2_109_cif.got.tgz:217258.got - 2010.06.27 13:26:56.
