data_PCOD8044337
_publ_section_title
;
Structure prediction by ZEFSAII (Michael W. Deem and Ramdas Pophale) SiO2 
 PCOD8044337
Probable space group: P -1
;
_chemical_formula_sum "Si O2"
_cell_formula_units_Z 16
_cell_length_a 9.036537
_cell_length_b 16.791278
_cell_length_c 8.629677
_cell_angle_alpha 128.978769
_cell_angle_beta 52.932563
_cell_angle_gamma 112.556056
_cell_volume 812.203844
_symmetry_space_group_name_H-M "P -1"
_symmetry_group_IT_number 2
_symmetry_cell_setting 'triclinic'
loop_
_space_group_symop_operation_xyz
x,y,z
-x,-y,-z
loop_
_atom_site_type_symbol
_atom_site_label
_atom_site_fract_x
_atom_site_fract_y
_atom_site_fract_z
Si Si1 0.613767 0.653718 0.080669
Si Si2 0.701416 0.389317 0.192997
Si Si3 0.235573 0.085812 0.994039
Si Si4 0.972843 0.738396 0.093295
Si Si5 0.590190 0.206718 0.845100
Si Si6 0.489368 0.528258 0.287387
Si Si7 0.057559 0.923729 0.087277
Si Si8 0.990736 0.864899 0.522916
O O1 0.477513 0.739428 0.204330
O O2 0.548185 0.620209 0.251199
O O3 0.816610 0.702182 0.029081
O O4 0.626016 0.556572 0.839705
O O5 0.671179 0.478459 0.193171
O O6 0.641403 0.425962 0.443892
O O7 0.917256 0.360391 0.035058
O O8 0.587802 0.288833 0.086982
O O9 0.125869 0.159734 0.275818
O O10 0.450417 0.116100 0.875052
O O11 0.135061 0.094382 0.903794
O O12 0.218549 0.966904 0.921430
O O13 0.893695 0.801315 0.367401
O O14 0.110126 0.818075 0.011072
O O15 0.794230 0.165603 0.632791
O O16 0.020146 0.012358 0.348112
#
# Coordination Sequence:
#
# PCOD8044337 Si02
#       8
#     2   2   2   2   2   2   2   2
#     4  10  21  35  60  79 114 140 186 233 279 341
#     4   9  21  37  60  78 113 141 186 232 279 345
#     4   9  19  36  56  78 117 155 181 231 268 323
#     4  11  20  36  56  87 108 146 187 229 276 331
#     4  10  19  38  57  87 108 156 189 221 275 334
#     4   9  20  41  54  81 109 146 177 238 291 328
#     4   9  19  37  53  80 119 149 182 234 267 324
#     4   9  21  35  57  80 119 152 182 230 271 324
#
# _framework density 19.699487000000001
#
# number of rings (size 3 to 8) (size 9 to 14) (size 15 to 20)
#    0.750    1.750    1.250    0.375    1.750    2.500 
#    0.000    2.500    0.000    0.000    0.000    0.000 
#    0.000    0.000    0.000    0.000    0.000    0.000 
#
# Total GULP energy -198232.588314 kJ/mol
# GULP energy per Si atom -12389.536770 kJ/mol
# Density = 1.965465 g / cm^3
# Si number density = 19.699487 Si / 1000 Ang^3
#
#
#
# Elastic Constant Matrix: (Units=GPa)
#
#
# Indices 1 2 3 4 5 6 
#
# 1 78.4280 30.7240 19.2231 0.9459 4.0297 -1.9819
# 2 30.7240 89.7232 19.9798 -3.4669 -1.6006 -4.1196
# 3 19.2231 19.9798 64.5012 -4.6402 11.0367 -4.8376
# 4 0.9459 -3.4669 -4.6402 19.9754 -1.5959 3.0507
# 5 4.0297 -1.6006 11.0367 -1.5959 26.3086 -5.1306
# 6 -1.9819 -4.1196 -4.8376 3.0507 -5.1306 23.0965
#
#
#
# Elastic Compliance Matrix: (Units=1/GPa)
#
#
# Indices 1 2 3 4 5 6 
#
# 1 0.015461 -0.004741 -0.003057 -0.002360 -0.001555 -0.000193
# 2 -0.004741 0.013682 -0.003124 0.001854 0.003348 0.001878
# 3 -0.003057 -0.003124 0.018941 0.003254 -0.007254 0.001106
# 4 -0.002360 0.001854 0.003254 0.052233 0.001140 -0.005836
# 5 -0.001555 0.003348 -0.007254 0.001140 0.043201 0.008390
# 6 -0.000193 0.001878 0.001106 -0.005836 0.008390 0.046481
#
#
# Mechanical properties :
#
#
# Convention : Reuss Voigt Hill
#
# Bulk Modulus (GPa) = 38.11107 41.38955 39.75031
# Shear Modulus (GPa) = 22.66648 24.72447 23.69548
#
# Velocity S-wave (km/s) = 3.39575 3.54656 3.47197
# Velocity P-wave (km/s) = 5.89602 6.15035 6.02453
#
# Compressibility (1/GPa) = 0.02623909
#
# Stress axis : x y z
#
# Youngs Moduli (GPa) = 64.68001 73.08799 52.79633
#
# Poissons Ratio (x) = 0.34653 0.16141
# Poissons Ratio (y) = 0.30666 0.16492
# Poissons Ratio (z) = 0.19774 0.22831
#
# Static dielectric constant tensor:
#      x y z
#    x 3.532570 -0.147940 0.265580 
#    y -0.147940 3.563390 0.154820 
#    z 0.265580 0.154820 3.460960 
# 
# 
# High freq. dielectric constant tensor:
#      x y z
#    x 1.763970 -0.010640 0.026830 
#    y -0.010640 1.761540 0.008000 
#    z 0.026830 0.008000 1.754210 
# 
# From -- ./inp_files/213490.got.cif
#   From: 2010.06.25/outbox.cif.g09.slc.cpg/sg2_107_cif.got.tgz:213490.got - 2010.06.27 13:26:56.
