data_PCOD8044748
_publ_section_title
;
Structure prediction by ZEFSAII (Michael W. Deem and Ramdas Pophale) SiO2 
 PCOD8044748
Probable space group: P -1
;
_chemical_formula_sum "Si O2"
_cell_formula_units_Z 16
_cell_length_a 10.065955
_cell_length_b 10.019463
_cell_length_c 15.052871
_cell_angle_alpha 101.792394
_cell_angle_beta 50.030033
_cell_angle_gamma 67.653967
_cell_volume 833.189490
_symmetry_space_group_name_H-M "P -1"
_symmetry_group_IT_number 2
_symmetry_cell_setting 'triclinic'
loop_
_space_group_symop_operation_xyz
x,y,z
-x,-y,-z
loop_
_atom_site_type_symbol
_atom_site_label
_atom_site_fract_x
_atom_site_fract_y
_atom_site_fract_z
Si Si1 0.943719 0.052020 0.386488
Si Si2 0.269507 0.374306 0.394398
Si Si3 0.041763 0.783363 0.865079
Si Si4 0.983531 0.908487 0.160190
Si Si5 0.362018 0.829465 0.301461
Si Si6 0.252752 0.590152 0.577381
Si Si7 0.413909 0.579480 0.828167
Si Si8 0.361642 0.054500 0.807456
O O1 0.955759 0.946637 0.281933
O O2 0.205179 0.940934 0.296480
O O3 0.788581 0.061903 0.529905
O O4 0.825323 0.259638 0.442788
O O5 0.277121 0.431953 0.498342
O O6 0.398540 0.402468 0.271599
O O7 0.396833 0.160285 0.315934
O O8 0.000000 0.500000 0.500000
O O9 0.061304 0.685953 0.752487
O O10 0.256774 0.629167 0.816279
O O11 0.066051 0.929883 0.853678
O O12 0.790227 0.886887 0.030389
O O13 0.787994 0.905136 0.210393
O O14 0.248373 0.714804 0.999480
O O15 0.451711 0.627645 0.228426
O O16 0.579941 0.817267 0.207102
O O17 0.500000 0.500000 0.500000
#
# Coordination Sequence:
#
# PCOD8044748 Si02
#       8
#     2   2   2   2   2   2   2   2
#     4  10  22  40  58  84 122 167 187 235 306 359
#     4  12  22  36  60  93 117 153 203 245 289 342
#     4  10  19  38  66  91 115 151 203 252 299 333
#     4  10  20  39  66  87 114 152 208 249 290 338
#     4  11  24  39  58  83 130 161 190 229 308 368
#     4  11  19  38  66  90 113 155 208 246 288 349
#     4  11  20  40  63  86 119 162 192 240 300 361
#     4  11  22  39  61  93 118 152 197 255 293 343
#
# _framework density 19.203315
#
# number of rings (size 3 to 8) (size 9 to 14) (size 15 to 20)
#    0.000    1.250    5.000    2.250    1.750    3.000 
#    2.250    3.125    0.000    0.000    0.000    0.000 
#    0.000    0.000    0.000    0.000    0.000    0.000 
#
# Total GULP energy -198467.968740 kJ/mol
# GULP energy per Si atom -12404.248046 kJ/mol
# Density = 1.915961 g / cm^3
# Si number density = 19.203315 Si / 1000 Ang^3
#
#
#
# Elastic Constant Matrix: (Units=GPa)
#
#
# Indices 1 2 3 4 5 6 
#
# 1 81.2377 23.1488 46.0033 -3.5245 -1.8472 -11.6776
# 2 23.1488 77.5939 19.8931 9.6711 -1.9109 -8.0182
# 3 46.0033 19.8931 97.4365 9.6064 1.4545 -7.6027
# 4 -3.5245 9.6711 9.6064 26.7157 -2.5381 -0.9610
# 5 -1.8472 -1.9109 1.4545 -2.5381 35.2198 -0.1876
# 6 -11.6776 -8.0182 -7.6027 -0.9610 -0.1876 29.3870
#
#
#
# Elastic Compliance Matrix: (Units=1/GPa)
#
#
# Indices 1 2 3 4 5 6 
#
# 1 0.019433 -0.003961 -0.008769 0.007481 0.001730 0.004629
# 2 -0.003961 0.015146 -0.000486 -0.005728 0.000233 0.002247
# 3 -0.008769 -0.000486 0.015182 -0.006588 -0.001588 0.000085
# 4 0.007481 -0.005728 -0.006588 0.043232 0.003475 0.001142
# 5 0.001730 0.000233 -0.001588 0.003475 0.028816 0.000638
# 6 0.004629 0.002247 0.000085 0.001142 0.000638 0.036545
#
#
# Mechanical properties :
#
#
# Convention : Reuss Voigt Hill
#
# Bulk Modulus (GPa) = 42.86252 48.26207 45.56229
# Shear Modulus (GPa) = 25.96595 29.41270 27.68932
#
# Velocity S-wave (km/s) = 3.68116 3.91787 3.80136
# Velocity P-wave (km/s) = 6.35899 6.75670 6.56086
#
# Compressibility (1/GPa) = 0.02333041
#
# Stress axis : x y z
#
# Youngs Moduli (GPa) = 51.45885 66.02573 65.86718
#
# Poissons Ratio (x) = 0.26153 0.57756
# Poissons Ratio (y) = 0.20383 0.03198
# Poissons Ratio (z) = 0.45122 0.03206
#
# Static dielectric constant tensor:
#      x y z
#    x 3.386250 -0.056410 0.091070 
#    y -0.056410 3.350230 0.093360 
#    z 0.091070 0.093360 3.773590 
# 
# 
# High freq. dielectric constant tensor:
#      x y z
#    x 1.738190 -0.005930 0.005300 
#    y -0.005930 1.735820 0.013990 
#    z 0.005300 0.013990 1.763040 
# 
# From -- ./inp_files/273317.got.cif
#   From: 2010.06.25/outbox.cif.g09.slc.cpg/sg2_137_cif.got.tgz:273317.got - 2010.06.27 13:26:56.
