data_PCOD8044211
_publ_section_title
;
Structure prediction by ZEFSAII (Michael W. Deem and Ramdas Pophale) SiO2 
 PCOD8044211
Probable space group: P -1
;
_chemical_formula_sum "Si O2"
_cell_formula_units_Z 16
_cell_length_a 15.386231
_cell_length_b 16.313436
_cell_length_c 9.159683
_cell_angle_alpha 134.777318
_cell_angle_beta 141.445604
_cell_angle_gamma 36.221255
_cell_volume 829.707854
_symmetry_space_group_name_H-M "P -1"
_symmetry_group_IT_number 2
_symmetry_cell_setting 'triclinic'
loop_
_space_group_symop_operation_xyz
x,y,z
-x,-y,-z
loop_
_atom_site_type_symbol
_atom_site_label
_atom_site_fract_x
_atom_site_fract_y
_atom_site_fract_z
Si Si1 0.849275 0.852096 0.955478
Si Si2 0.797319 0.234999 0.728265
Si Si3 0.383412 0.238472 0.471984
Si Si4 0.396646 0.039494 0.764572
Si Si5 0.474703 0.438148 0.744689
Si Si6 0.465149 0.848637 0.125454
Si Si7 0.095057 0.079395 0.563956
Si Si8 0.710892 0.298411 0.372364
O O1 0.797009 0.742368 0.761870
O O2 0.696625 0.992321 0.847364
O O3 0.865536 0.901959 0.197058
O O4 0.028970 0.779877 0.016755
O O5 0.663263 0.315682 0.782287
O O6 0.725989 0.322285 0.592876
O O7 0.839799 0.081378 0.567787
O O8 0.366838 0.374867 0.558201
O O9 0.424864 0.225764 0.680660
O O10 0.533820 0.101118 0.412695
O O11 0.415057 0.148629 0.835123
O O12 0.197087 0.112890 0.628174
O O13 0.500000 0.000000 0.000000
O O14 0.369199 0.554087 0.628136
O O15 0.500000 0.500000 0.000000
O O16 0.410594 0.752691 0.869059
O O17 0.894711 0.183347 0.396728
#
# Coordination Sequence:
#
# PCOD8044211 Si02
#       8
#     2   2   2   2   2   2   2   2
#     4  10  19  37  65  96 121 150 201 261 307 351
#     4  11  21  41  67  91 118 163 204 252 305 358
#     4  11  23  39  59  86 132 166 195 244 313 358
#     4  11  19  35  64  98 121 150 202 257 305 357
#     4  12  26  44  58  86 129 169 205 243 299 372
#     4  11  20  37  60  91 130 155 195 248 313 355
#     4  11  19  37  67 100 120 146 206 264 299 351
#     4  11  22  41  64  92 123 158 203 253 304 363
#
# _framework density 19.283895999999999
#
# number of rings (size 3 to 8) (size 9 to 14) (size 15 to 20)
#    0.000    1.000    7.500    2.625    0.000    0.000 
#    4.500    6.250    0.000    0.000    0.000    0.000 
#    0.000    0.000    0.000    0.000    0.000    0.000 
#
# Total GULP energy -198436.934195 kJ/mol
# GULP energy per Si atom -12402.308387 kJ/mol
# Density = 1.924000 g / cm^3
# Si number density = 19.283896 Si / 1000 Ang^3
#
#
#
# Elastic Constant Matrix: (Units=GPa)
#
#
# Indices 1 2 3 4 5 6 
#
# 1 119.6575 43.9102 53.4521 -0.0836 24.5112 12.9695
# 2 43.9102 81.9914 33.8123 4.5818 19.3418 18.6468
# 3 53.4521 33.8123 77.7193 12.8562 25.3269 -5.6678
# 4 -0.0836 4.5818 12.8562 22.9862 5.4852 7.4915
# 5 24.5112 19.3418 25.3269 5.4852 33.9176 5.7675
# 6 12.9695 18.6468 -5.6678 7.4915 5.7675 29.3797
#
#
#
# Elastic Compliance Matrix: (Units=1/GPa)
#
#
# Indices 1 2 3 4 5 6 
#
# 1 0.016037 -0.000913 -0.013008 0.011636 -0.001242 -0.011733
# 2 -0.000913 0.020517 -0.009993 0.007188 -0.002022 -0.015982
# 3 -0.013008 -0.009993 0.036442 -0.024446 -0.012900 0.027881
# 4 0.011636 0.007188 -0.024446 0.065888 0.000412 -0.031296
# 5 -0.001242 -0.002022 -0.012900 0.000412 0.042654 -0.009135
# 6 -0.011733 -0.015982 0.027881 -0.031296 -0.009135 0.064512
#
#
# Mechanical properties :
#
#
# Convention : Reuss Voigt Hill
#
# Bulk Modulus (GPa) = 39.73539 60.19080 49.96309
# Shear Modulus (GPa) = 16.54164 27.13627 21.83895
#
# Velocity S-wave (km/s) = 2.93199 3.75533 3.36891
# Velocity P-wave (km/s) = 5.66677 7.07701 6.41079
#
# Compressibility (1/GPa) = 0.02516648
#
# Stress axis : x y z
#
# Youngs Moduli (GPa) = 62.35394 48.74064 27.44104
#
# Poissons Ratio (x) = 0.04451 0.35696
# Poissons Ratio (y) = 0.05695 0.27423
# Poissons Ratio (z) = 0.81111 0.48708
#
# Static dielectric constant tensor:
#      x y z
#    x 4.077890 -0.020940 0.296030 
#    y -0.020940 3.378780 -0.029490 
#    z 0.296030 -0.029490 3.678170 
# 
# 
# High freq. dielectric constant tensor:
#      x y z
#    x 1.761650 0.009750 0.012620 
#    y 0.009750 1.723150 0.003650 
#    z 0.012620 0.003650 1.757350 
# 
# From -- ./inp_files/180392.got.cif
#   From: 2010.06.25/outbox.cif.g09.slc.cpg/sg2_91_cif.got.tgz:180392.got - 2010.06.27 13:26:56.
