data_PCOD8044389
_publ_section_title
;
Structure prediction by ZEFSAII (Michael W. Deem and Ramdas Pophale) SiO2 
 PCOD8044389
Probable space group: P -1
;
_chemical_formula_sum "Si O2"
_cell_formula_units_Z 14
_cell_length_a 20.957101
_cell_length_b 20.168071
_cell_length_c 10.170171
_cell_angle_alpha 137.335389
_cell_angle_beta 146.020258
_cell_angle_gamma 18.983871
_cell_volume 752.849438
_symmetry_space_group_name_H-M "P -1"
_symmetry_group_IT_number 2
_symmetry_cell_setting 'triclinic'
loop_
_space_group_symop_operation_xyz
x,y,z
-x,-y,-z
loop_
_atom_site_type_symbol
_atom_site_label
_atom_site_fract_x
_atom_site_fract_y
_atom_site_fract_z
Si Si1 0.891613 0.813465 0.415721
Si Si2 0.792035 0.764483 0.672392
Si Si3 0.045098 0.035386 0.506307
Si Si4 0.676779 0.983488 0.022632
Si Si5 0.127657 0.330049 0.606774
Si Si6 0.359160 0.541158 0.714501
Si Si7 0.804952 0.102602 0.717213
O O1 0.756039 0.881721 0.151349
O O2 0.827704 0.783764 0.372795
O O3 0.184901 0.598802 0.580598
O O4 0.798053 0.991187 0.558137
O O5 0.926501 0.685775 0.647312
O O6 0.899242 0.574331 0.614152
O O7 0.500000 0.000000 0.500000
O O8 0.845585 0.797412 0.931927
O O9 0.254120 0.955192 0.786056
O O10 0.792225 0.279503 0.386959
O O11 0.135091 0.908389 0.345317
O O12 0.000000 0.000000 0.500000
O O13 0.380539 0.198406 0.818650
O O14 0.535095 0.343342 0.638683
O O15 0.500000 0.500000 0.000000
O O16 0.000000 0.000000 0.000000
#
# Coordination Sequence:
#
# PCOD8044389 Si02
#       7
#     2   2   2   2   2   2   2
#     4  10  22  34  60  90 108 147 199 233 282 345
#     4   9  20  38  55  78 119 151 184 233 286 336
#     4  10  23  39  58  91 116 151 200 236 287 351
#     4   9  20  38  56  81 120 145 181 243 286 332
#     4  10  20  38  58  84 112 149 193 230 285 345
#     4  10  19  39  58  83 119 153 190 240 287 336
#     4  10  19  38  60  81 119 153 188 242 286 337
#
# _framework density 18.596017
#
# number of rings (size 3 to 8) (size 9 to 14) (size 15 to 20)
#    0.000    2.571    2.857    0.429    0.000    9.143 
#    7.714    0.000    0.000    0.000    0.000    0.000 
#    0.000    0.000    0.000    0.000    0.000    0.000 
#
# Total GULP energy -173449.961433 kJ/mol
# GULP energy per Si atom -12389.282959 kJ/mol
# Density = 1.855369 g / cm^3
# Si number density = 18.596017 Si / 1000 Ang^3
#
#
#
# Elastic Constant Matrix: (Units=GPa)
#
#
# Indices 1 2 3 4 5 6 
#
# 1 144.0574 46.2895 47.2479 7.8870 -11.3637 6.6877
# 2 46.2895 147.3879 46.8603 7.1264 -3.7692 -23.2939
# 3 47.2479 46.8603 100.5955 13.5170 -12.8516 -3.3629
# 4 7.8870 7.1264 13.5170 33.1829 -11.0507 -5.6587
# 5 -11.3637 -3.7692 -12.8516 -11.0507 23.8263 -0.9277
# 6 6.6877 -23.2939 -3.3629 -5.6587 -0.9277 24.0266
#
#
#
# Elastic Compliance Matrix: (Units=1/GPa)
#
#
# Indices 1 2 3 4 5 6 
#
# 1 0.009255 -0.002827 -0.002885 -0.000812 0.001806 -0.005842
# 2 -0.002827 0.010359 -0.003398 0.001514 -0.000424 0.010695
# 3 -0.002885 -0.003398 0.013768 -0.003031 0.004063 -0.001121
# 4 -0.000812 0.001514 -0.003031 0.038632 0.016564 0.011008
# 5 0.001806 -0.000424 0.004063 0.016564 0.052857 0.005597
# 6 -0.005842 0.010695 -0.001121 0.011008 0.005597 0.056267
#
#
# Mechanical properties :
#
#
# Convention : Reuss Voigt Hill
#
# Bulk Modulus (GPa) = 65.95808 74.75959 70.35883
# Shear Modulus (GPa) = 24.46054 32.98336 28.72195
#
# Velocity S-wave (km/s) = 3.63073 4.21608 3.93430
# Velocity P-wave (km/s) = 7.28850 7.99935 7.65218
#
# Compressibility (1/GPa) = 0.01516114
#
# Stress axis : x y z
#
# Youngs Moduli (GPa) = 108.05497 96.53202 72.63433
#
# Poissons Ratio (x) = 0.27291 0.20956
# Poissons Ratio (y) = 0.30548 0.24680
# Poissons Ratio (z) = 0.31176 0.32800
#
# Static dielectric constant tensor:
#      x y z
#    x 3.235600 -0.211340 -0.226110 
#    y -0.211340 3.626910 0.130860 
#    z -0.226110 0.130860 3.704340 
# 
# 
# High freq. dielectric constant tensor:
#      x y z
#    x 1.703120 -0.013510 -0.018470 
#    y -0.013510 1.730060 0.002060 
#    z -0.018470 0.002060 1.732510 
# 
# From -- ./inp_files/313397.got.cif
#   From: 2010.06.25/outbox.cif.g09.slc.cpg/sg2_157_cif.got.tgz:313397.got - 2010.06.27 13:26:56.
