data_PCOD8044906
_publ_section_title
;
Structure prediction by ZEFSAII (Michael W. Deem and Ramdas Pophale) SiO2 
 PCOD8044906
Probable space group: P 2
;
_chemical_formula_sum "Si O2"
_cell_formula_units_Z 16
_cell_length_a 9.228347
_cell_length_b 12.126473
_cell_length_c 9.180396
_cell_angle_alpha 90.000000
_cell_angle_beta 124.967767
_cell_angle_gamma 90.000000
_cell_volume 841.889957
_symmetry_space_group_name_H-M "P 2"
_symmetry_group_IT_number 3
_symmetry_cell_setting 'monoclinic'
loop_
_space_group_symop_operation_xyz
x,y,z
-x,y,-z
loop_
_atom_site_type_symbol
_atom_site_label
_atom_site_fract_x
_atom_site_fract_y
_atom_site_fract_z
Si Si1 0.859537 0.957390 0.034744
Si Si2 0.143867 0.707375 0.967135
Si Si3 0.195619 0.333734 0.674808
Si Si4 0.174270 0.576697 0.696392
Si Si5 0.964895 0.137470 0.308236
Si Si6 0.487656 0.957847 0.665255
Si Si7 0.467765 0.744469 0.811391
Si Si8 0.653477 0.185990 0.471646
O O1 0.899556 0.832313 0.107889
O O2 0.674728 0.969269 0.849506
O O3 0.872565 0.031659 0.185710
O O4 0.000000 0.000723 0.000000
O O5 0.124170 0.624209 0.823316
O O6 0.343858 0.704954 0.147666
O O7 0.000000 0.666421 0.000000
O O8 0.256230 0.453668 0.765701
O O9 0.334292 0.288441 0.633555
O O10 0.000000 0.349534 0.500000
O O11 0.172638 0.240857 0.788248
O O12 0.325673 0.648642 0.706300
O O13 0.000000 0.577710 0.500000
O O14 0.154013 0.167676 0.341710
O O15 0.000000 0.115829 0.500000
O O16 0.500000 0.936405 0.500000
O O17 0.392436 0.852697 0.685340
O O18 0.385039 0.071569 0.636285
O O19 0.500000 0.772652 0.000000
O O20 0.500000 0.211610 0.500000
#
# Coordination Sequence:
#
# PCOD8044906 Si02
#       8
#     2   2   2   2   2   2   2   2
#     4  10  19  33  53  80 112 142 174 214 266 324
#     4   9  20  37  54  75 109 144 172 216 271 320
#     4   8  18  36  53  74 105 139 176 220 264 310
#     4  10  20  36  57  78 103 139 184 226 265 313
#     4   9  19  35  55  77 108 143 177 217 263 316
#     4  10  20  33  51  80 114 140 171 219 269 319
#     4   9  20  36  53  77 111 143 176 220 268 318
#     4   9  17  32  54  77 105 138 172 216 266 314
#
# _framework density 19.004857999999999
#
# number of rings (size 3 to 8) (size 9 to 14) (size 15 to 20)
#    0.000    3.000    0.000    1.500    0.000   10.500 
#    0.000    9.375    0.000    0.000    0.000    0.000 
#    0.000    0.000    0.000    0.000    0.000    0.000 
#
# Total GULP energy -198258.411231 kJ/mol
# GULP energy per Si atom -12391.150702 kJ/mol
# Density = 1.896160 g / cm^3
# Si number density = 19.004858 Si / 1000 Ang^3
#
#
#
# Elastic Constant Matrix: (Units=GPa)
#
#
# Indices 1 2 3 4 5 6 
#
# 1 132.2795 64.3048 25.9477 0.0000 0.3525 0.0000
# 2 64.3048 170.3692 56.6040 0.0000 -13.6619 0.0000
# 3 25.9477 56.6040 68.3253 0.0000 -4.0622 0.0000
# 4 0.0000 0.0000 0.0000 14.5980 0.0000 7.1243
# 5 0.3525 -13.6619 -4.0622 0.0000 16.4523 0.0000
# 6 0.0000 0.0000 0.0000 7.1243 0.0000 31.0100
#
#
#
# Elastic Compliance Matrix: (Units=1/GPa)
#
#
# Indices 1 2 3 4 5 6 
#
# 1 0.009466 -0.003563 -0.000844 0.000000 -0.003370 0.000000
# 2 -0.003563 0.009893 -0.006444 0.000000 0.006700 0.000000
# 3 -0.000844 -0.006444 0.020275 0.000000 -0.000327 0.000000
# 4 0.000000 0.000000 0.000000 0.077153 0.000000 -0.017725
# 5 -0.003370 0.006700 -0.000327 0.000000 0.066337 0.000000
# 6 0.000000 0.000000 0.000000 -0.017725 0.000000 0.036320
#
#
# Mechanical properties :
#
#
# Convention : Reuss Voigt Hill
#
# Bulk Modulus (GPa) = 55.76310 73.85411 64.80860
# Shear Modulus (GPa) = 20.23281 27.35323 23.79302
#
# Velocity S-wave (km/s) = 3.26638 3.79789 3.54212
# Velocity P-wave (km/s) = 6.60536 7.62739 7.13470
#
# Compressibility (1/GPa) = 0.01793301
#
# Stress axis : x y z
#
# Youngs Moduli (GPa) = 105.63854 101.08444 49.32065
#
# Poissons Ratio (x) = 0.36015 0.04161
# Poissons Ratio (y) = 0.37638 0.31783
# Poissons Ratio (z) = 0.08912 0.65141
#
# Static dielectric constant tensor:
#      x y z
#    x 3.648060 0.000000 0.181290 
#    y 0.000000 3.942320 0.000000 
#    z 0.181290 0.000000 3.043010 
# 
# 
# High freq. dielectric constant tensor:
#      x y z
#    x 1.747920 0.000000 0.008010 
#    y 0.000000 1.741700 0.000000 
#    z 0.008010 0.000000 1.705810 
# 
# From -- ./inp_files/6050.got.cif
#   From: 2010.03.12/outbox.cif.g09.slc.cpg/sg3_4_cif.got.tgz:6050.got - 2010.03.31 09:20:49.
