data_PCOD8044986
_publ_section_title
;
Structure prediction by ZEFSAII (Michael W. Deem and Ramdas Pophale) SiO2 
 PCOD8044986
Probable space group: P 2
;
_chemical_formula_sum "Si O2"
_cell_formula_units_Z 16
_cell_length_a 20.642634
_cell_length_b 7.904483
_cell_length_c 14.046742
_cell_angle_alpha 90.000000
_cell_angle_beta 159.738427
_cell_angle_gamma 90.000000
_cell_volume 793.733841
_symmetry_space_group_name_H-M "P 2"
_symmetry_group_IT_number 3
_symmetry_cell_setting 'monoclinic'
loop_
_space_group_symop_operation_xyz
x,y,z
-x,y,-z
loop_
_atom_site_type_symbol
_atom_site_label
_atom_site_fract_x
_atom_site_fract_y
_atom_site_fract_z
Si Si1 0.588544 0.093560 0.830067
Si Si2 0.345640 0.709837 0.855238
Si Si3 0.673858 0.399675 0.561635
Si Si4 0.958450 0.206683 0.252802
Si Si5 0.578191 0.710688 0.824943
Si Si6 0.347139 0.103929 0.862599
Si Si7 0.987201 0.278565 0.881300
Si Si8 0.040121 0.558331 0.665392
O O1 0.458265 0.235192 0.602550
O O2 0.507826 0.902206 0.706972
O O3 0.792856 0.087616 0.062525
O O4 0.595968 0.143132 0.951134
O O5 0.148970 0.632627 0.552236
O O6 0.323711 0.907863 0.809910
O O7 0.500000 0.629068 0.000000
O O8 0.417408 0.665295 0.058293
O O9 0.560171 0.574404 0.413335
O O10 0.789397 0.381415 0.619762
O O11 0.829064 0.401656 0.860905
O O12 0.003372 0.171330 0.202755
O O13 0.894256 0.397879 0.183136
O O14 0.146100 0.186545 0.571530
O O15 0.793545 0.692843 0.088868
O O16 0.500000 0.181062 0.000000
O O17 0.000000 0.167695 0.000000
O O18 0.000000 0.513654 0.500000
#
# Coordination Sequence:
#
# PCOD8044986 Si02
#       8
#     2   2   2   2   2   2   2   2
#     4  11  21  36  64  92 121 155 197 244 306 368
#     4   9  20  33  52  84 125 155 193 240 288 364
#     4   9  20  43  62  81 119 151 204 245 302 349
#     4  12  21  35  62  85 119 161 199 249 303 356
#     4  10  20  37  59  85 121 159 188 247 299 356
#     4  10  21  35  54  90 124 157 196 241 300 369
#     4   8  23  42  62  82 116 159 204 261 298 346
#     4  10  20  33  51  87 122 151 192 233 299 364
#
# _framework density 20.157889999999998
#
# number of rings (size 3 to 8) (size 9 to 14) (size 15 to 20)
#    0.750    1.250    1.250    2.625    3.500    3.000 
#    0.000    2.500    8.250    0.000    0.000    0.000 
#    0.000    0.000    0.000    0.000    0.000    0.000 
#
# Total GULP energy -198214.790392 kJ/mol
# GULP energy per Si atom -12388.424399 kJ/mol
# Density = 2.011201 g / cm^3
# Si number density = 20.157890 Si / 1000 Ang^3
#
#
#
# Elastic Constant Matrix: (Units=GPa)
#
#
# Indices 1 2 3 4 5 6 
#
# 1 69.6722 2.6631 12.3017 0.0000 18.7612 0.0000
# 2 2.6631 74.4369 36.5985 0.0000 0.3025 0.0000
# 3 12.3017 36.5985 97.9637 0.0000 29.5135 0.0000
# 4 0.0000 0.0000 0.0000 16.1347 0.0000 7.1163
# 5 18.7612 0.3025 29.5135 0.0000 31.5302 0.0000
# 6 0.0000 0.0000 0.0000 7.1163 0.0000 19.2323
#
#
#
# Elastic Compliance Matrix: (Units=1/GPa)
#
#
# Indices 1 2 3 4 5 6 
#
# 1 0.017352 -0.001620 0.002134 0.000000 -0.012307 0.000000
# 2 -0.001620 0.018110 -0.009471 0.000000 0.009655 0.000000
# 3 0.002134 -0.009471 0.019267 0.000000 -0.019213 0.000000
# 4 0.000000 0.000000 0.000000 0.074065 0.000000 -0.027405
# 5 -0.012307 0.009655 -0.019213 0.000000 0.056930 0.000000
# 6 0.000000 0.000000 0.000000 -0.027405 0.000000 0.062136
#
#
# Mechanical properties :
#
#
# Convention : Reuss Voigt Hill
#
# Bulk Modulus (GPa) = 27.16374 38.35549 32.75962
# Shear Modulus (GPa) = 17.98269 26.08009 22.03139
#
# Velocity S-wave (km/s) = 2.99003 3.60083 3.30955
# Velocity P-wave (km/s) = 5.04233 6.02966 5.55797
#
# Compressibility (1/GPa) = 0.03681378
#
# Stress axis : x y z
#
# Youngs Moduli (GPa) = 57.63036 55.21940 51.90343
#
# Poissons Ratio (x) = 0.08945 -0.11075
# Poissons Ratio (y) = 0.09336 0.49158
# Poissons Ratio (z) = -0.12298 0.52299
#
# Static dielectric constant tensor:
#      x y z
#    x 3.666200 0.000000 0.308610 
#    y 0.000000 3.394430 0.000000 
#    z 0.308610 0.000000 3.678320 
# 
# 
# High freq. dielectric constant tensor:
#      x y z
#    x 1.776590 0.000000 0.023770 
#    y 0.000000 1.762080 0.000000 
#    z 0.023770 0.000000 1.791800 
# 
# From -- ./inp_files/7183.got.cif
#   From: 2010.03.12/outbox.cif.g09.slc.cpg/sg3_4_cif.got.tgz:7183.got - 2010.03.31 09:20:49.
