data_PCOD8044583
_publ_section_title
;
Structure prediction by ZEFSAII (Michael W. Deem and Ramdas Pophale) SiO2 
 PCOD8044583
Probable space group: P -1
;
_chemical_formula_sum "Si O2"
_cell_formula_units_Z 12
_cell_length_a 11.869426
_cell_length_b 10.236339
_cell_length_c 10.765150
_cell_angle_alpha 142.768313
_cell_angle_beta 140.711764
_cell_angle_gamma 47.191543
_cell_volume 494.220400
_symmetry_space_group_name_H-M "P -1"
_symmetry_group_IT_number 2
_symmetry_cell_setting 'triclinic'
loop_
_space_group_symop_operation_xyz
x,y,z
-x,-y,-z
loop_
_atom_site_type_symbol
_atom_site_label
_atom_site_fract_x
_atom_site_fract_y
_atom_site_fract_z
Si Si1 0.974697 0.324261 0.650034
Si Si2 0.142060 0.095079 0.862194
Si Si3 0.494861 0.747305 0.325656
Si Si4 0.887794 0.093638 0.857066
Si Si5 0.832250 0.633138 0.384406
Si Si6 0.380125 0.361465 0.371739
O O1 0.822903 0.512722 0.710950
O O2 0.085518 0.211810 0.773699
O O3 0.120616 0.420453 0.760269
O O4 0.867430 0.161131 0.356081
O O5 0.007801 0.195265 0.935632
O O6 0.346233 0.134208 0.103128
O O7 0.283779 0.723087 0.105437
O O8 0.636305 0.590496 0.237090
O O9 0.542127 0.683200 0.459492
O O10 0.500000 0.000000 0.500000
O O11 0.813347 0.893767 0.578330
O O12 0.000000 0.000000 0.000000
O O13 0.000000 0.500000 0.500000
O O14 0.500000 0.500000 0.500000
#
# Coordination Sequence:
#
# PCOD8044583 Si02
#       6
#     2   2   2   2   2   2
#     4  10  22  40  67  97 131 178 215 271 337 397
#     4  10  22  42  65  93 134 176 218 271 343 389
#     4  10  21  39  66  95 129 172 224 269 331 401
#     4  10  21  39  66  91 123 174 219 269 338 388
#     4  10  19  38  63  91 130 166 208 273 328 390
#     4  12  24  41  67  96 133 173 228 276 332 398
#
# _framework density 24.280664000000002
#
# number of rings (size 3 to 8) (size 9 to 14) (size 15 to 20)
#    0.000    1.667    1.667    3.500    0.000    2.000 
#    0.000    4.167    0.000    0.000    0.000    0.000 
#    0.000    0.000    0.000    0.000    0.000    0.000 
#
# Total GULP energy -148685.145749 kJ/mol
# GULP energy per Si atom -12390.428812 kJ/mol
# Density = 2.422540 g / cm^3
# Si number density = 24.280664 Si / 1000 Ang^3
#
#
#
# Elastic Constant Matrix: (Units=GPa)
#
#
# Indices 1 2 3 4 5 6 
#
# 1 194.5416 31.5018 47.1985 -11.9453 11.5427 12.6136
# 2 31.5018 48.9020 -2.4167 -16.1178 16.5377 -3.9609
# 3 47.1985 -2.4167 87.7845 -12.9531 25.8162 -2.5834
# 4 -11.9453 -16.1178 -12.9531 33.3860 2.5994 -3.5697
# 5 11.5427 16.5377 25.8162 2.5994 37.5247 -4.3392
# 6 12.6136 -3.9609 -2.5834 -3.5697 -4.3392 44.6132
#
#
#
# Elastic Compliance Matrix: (Units=1/GPa)
#
#
# Indices 1 2 3 4 5 6 
#
# 1 0.008174 -0.010589 -0.007963 -0.006244 0.007663 -0.003467
# 2 -0.010589 0.053718 0.023900 0.035284 -0.038351 0.008240
# 3 -0.007963 0.023900 0.028130 0.022352 -0.028403 0.005028
# 4 -0.006244 0.035284 0.022352 0.056735 -0.032057 0.007614
# 5 0.007663 -0.038351 -0.028403 -0.032057 0.062528 -0.003700
# 6 -0.003467 0.008240 0.005028 0.007614 -0.003700 0.024667
#
#
# Mechanical properties :
#
#
# Convention : Reuss Voigt Hill
#
# Bulk Modulus (GPa) = 9.92885 53.75503 31.84194
# Shear Modulus (GPa) = 19.46822 40.10106 29.78464
#
# Velocity S-wave (km/s) = 2.83468 4.06835 3.50620
# Velocity P-wave (km/s) = 3.84863 6.65250 5.43451
#
# Compressibility (1/GPa) = 0.10071657
#
# Stress axis : x y z
#
# Youngs Moduli (GPa) = 122.34511 18.61575 35.54910
#
# Poissons Ratio (x) = 0.19712 0.28308
# Poissons Ratio (y) = 1.29552 -0.84961
# Poissons Ratio (z) = 0.97424 -0.44491
#
# Static dielectric constant tensor:
#      x y z
#    x 4.946920 -0.248550 0.223420 
#    y -0.248550 4.284260 0.290830 
#    z 0.223420 0.290830 4.494810 
# 
# 
# High freq. dielectric constant tensor:
#      x y z
#    x 1.986000 0.004600 0.009440 
#    y 0.004600 1.959900 0.014580 
#    z 0.009440 0.014580 1.967790 
# 
# From -- ./inp_files/196094.got.cif
#   From: 2010.06.25/outbox.cif.g09.slc.cpg/sg2_99_cif.got.tgz:196094.got - 2010.06.27 13:26:56.
