data_PCOD8044171
_publ_section_title
;
Structure prediction by ZEFSAII (Michael W. Deem and Ramdas Pophale) SiO2 
 PCOD8044171
Probable space group: P -1
;
_chemical_formula_sum "Si O2"
_cell_formula_units_Z 14
_cell_length_a 7.866109
_cell_length_b 12.806489
_cell_length_c 11.013542
_cell_angle_alpha 126.919787
_cell_angle_beta 135.399086
_cell_angle_gamma 65.077814
_cell_volume 622.779740
_symmetry_space_group_name_H-M "P -1"
_symmetry_group_IT_number 2
_symmetry_cell_setting 'triclinic'
loop_
_space_group_symop_operation_xyz
x,y,z
-x,-y,-z
loop_
_atom_site_type_symbol
_atom_site_label
_atom_site_fract_x
_atom_site_fract_y
_atom_site_fract_z
Si Si1 0.735863 0.830359 0.489150
Si Si2 0.839171 0.026762 0.314915
Si Si3 0.472596 0.360849 0.953083
Si Si4 0.841815 0.734075 0.069201
Si Si5 0.884918 0.359638 0.351144
Si Si6 0.455831 0.734281 0.694873
Si Si7 0.677268 0.182012 0.558007
O O1 0.600770 0.747438 0.258336
O O2 0.524555 0.887011 0.508814
O O3 0.899424 0.947499 0.600267
O O4 0.900040 0.742495 0.598545
O O5 0.634740 0.118719 0.214437
O O6 0.842883 0.074457 0.494145
O O7 0.748808 0.879139 0.155711
O O8 0.256868 0.364895 0.946699
O O9 0.500000 0.500000 0.000000
O O10 0.719996 0.324932 0.125109
O O11 0.133541 0.729967 0.205677
O O12 0.727430 0.704423 0.858135
O O13 0.727557 0.363239 0.397662
O O14 0.000000 0.500000 0.500000
O O15 0.445764 0.719357 0.533260
#
# Coordination Sequence:
#
# PCOD8044171 Si02
#       7
#     2   2   2   2   2   2   2
#     4  11  22  40  60  91 118 152 195 240 295 342
#     4   9  20  40  61  85 122 155 190 243 287 349
#     4  11  22  37  66  86 114 157 198 239 290 350
#     4  11  19  39  63  85 119 160 193 235 300 337
#     4  10  19  37  65  81 112 159 193 236 293 340
#     4   8  20  35  60  85 117 150 197 234 290 343
#     4  10  22  36  60  89 122 150 192 243 290 346
#
# _framework density 22.479858
#
# number of rings (size 3 to 8) (size 9 to 14) (size 15 to 20)
#    0.857    1.143    2.857    0.857    0.000    1.714 
#    0.000    2.143    0.000    0.000    0.000    0.000 
#    0.000    0.000    0.000    0.000    0.000    0.000 
#
# Total GULP energy -173464.336594 kJ/mol
# GULP energy per Si atom -12390.309757 kJ/mol
# Density = 2.242869 g / cm^3
# Si number density = 22.479858 Si / 1000 Ang^3
#
#
#
# Elastic Constant Matrix: (Units=GPa)
#
#
# Indices 1 2 3 4 5 6 
#
# 1 109.9472 23.6750 23.8209 -23.0484 18.0955 15.5371
# 2 23.6750 78.6451 23.0691 -8.8560 7.2540 36.8746
# 3 23.8209 23.0691 100.9849 -35.2040 12.3523 8.7688
# 4 -23.0484 -8.8560 -35.2040 39.9364 3.0818 -0.4018
# 5 18.0955 7.2540 12.3523 3.0818 23.8173 2.3809
# 6 15.5371 36.8746 8.7688 -0.4018 2.3809 31.5226
#
#
#
# Elastic Compliance Matrix: (Units=1/GPa)
#
#
# Indices 1 2 3 4 5 6 
#
# 1 0.013985 0.001257 0.002832 0.011785 -0.013202 -0.008004
# 2 0.001257 0.030846 -0.000939 0.006932 -0.007180 -0.035811
# 3 0.002832 -0.000939 0.017623 0.017918 -0.012925 -0.003995
# 4 0.011785 0.006932 0.017918 0.050963 -0.025318 -0.016340
# 5 -0.013202 -0.007180 -0.012925 -0.025318 0.062840 0.013432
# 6 -0.008004 -0.035811 -0.003995 -0.016340 0.013432 0.077448
#
#
# Mechanical properties :
#
#
# Convention : Reuss Voigt Hill
#
# Bulk Modulus (GPa) = 14.54457 47.85637 31.20047
# Shear Modulus (GPa) = 18.49640 33.65605 26.07623
#
# Velocity S-wave (km/s) = 2.87156 3.87352 3.40955
# Velocity P-wave (km/s) = 4.18074 6.42964 5.42305
#
# Compressibility (1/GPa) = 0.06875418
#
# Stress axis : x y z
#
# Youngs Moduli (GPa) = 71.50329 32.41918 56.74336
#
# Poissons Ratio (x) = -0.04074 -0.16070
# Poissons Ratio (y) = -0.08985 0.05327
# Poissons Ratio (z) = -0.20250 0.03043
#
# Static dielectric constant tensor:
#      x y z
#    x 3.776840 0.357160 0.204820 
#    y 0.357160 4.130260 -0.427380 
#    z 0.204820 -0.427380 4.151160 
# 
# 
# High freq. dielectric constant tensor:
#      x y z
#    x 1.860970 0.034910 0.023300 
#    y 0.034910 1.892780 -0.032210 
#    z 0.023300 -0.032210 1.889080 
# 
# From -- ./inp_files/391229.got.cif
#   From: 2010.06.25/outbox.cif.g09.slc.cpg/sg2_196_cif.got.tgz:391229.got - 2010.06.27 13:26:56.
