data_PCOD8044888
_publ_section_title
;
Structure prediction by ZEFSAII (Michael W. Deem and Ramdas Pophale) SiO2 
 PCOD8044888
Probable space group: P 2
;
_chemical_formula_sum "Si O2"
_cell_formula_units_Z 14
_cell_length_a 10.759835
_cell_length_b 9.637230
_cell_length_c 7.877970
_cell_angle_alpha 90.000000
_cell_angle_beta 55.903248
_cell_angle_gamma 90.000000
_cell_volume 676.473530
_symmetry_space_group_name_H-M "P 2"
_symmetry_group_IT_number 3
_symmetry_cell_setting 'monoclinic'
loop_
_space_group_symop_operation_xyz
x,y,z
-x,y,-z
loop_
_atom_site_type_symbol
_atom_site_label
_atom_site_fract_x
_atom_site_fract_y
_atom_site_fract_z
Si Si1 0.177610 0.604730 0.847964
Si Si2 0.820611 0.415561 0.448749
Si Si3 0.851677 0.511540 0.781024
Si Si4 0.140812 0.825819 0.296270
Si Si5 0.663739 0.144706 0.440169
Si Si6 0.576664 0.935190 0.771120
Si Si7 0.728076 0.900563 0.147371
O O1 0.242270 0.532979 0.630438
O O2 0.216787 0.766108 0.793489
O O3 0.243531 0.527016 0.969457
O O4 0.000000 0.587498 0.000000
O O5 0.760777 0.448165 0.687825
O O6 0.768809 0.272562 0.405243
O O7 0.001461 0.416045 0.309993
O O8 0.906400 0.668609 0.704751
O O9 0.000000 0.897534 0.500000
O O10 0.292105 0.823868 0.293758
O O11 0.174212 0.913900 0.099722
O O12 0.500000 0.193496 0.500000
O O13 0.649499 0.067571 0.628790
O O14 0.744723 0.042388 0.241733
O O15 0.448022 0.868655 0.751836
O O16 0.500000 0.991284 0.000000
#
# Coordination Sequence:
#
# PCOD8044888 Si02
#       7
#     2   2   2   2   2   2   2
#     4   9  19  36  61  92 122 158 203 265 319 364
#     4  10  19  38  60  81 124 163 197 254 311 368
#     4   9  19  37  60  86 123 160 198 257 315 367
#     4  10  18  36  63  96 122 152 206 264 318 366
#     4  10  22  41  58  87 122 169 215 250 306 380
#     4   9  20  39  61  85 123 165 201 260 312 368
#     4   9  20  38  61  88 126 163 205 258 312 372
#
# _framework density 20.695564000000001
#
# number of rings (size 3 to 8) (size 9 to 14) (size 15 to 20)
#    0.000    2.571    1.429    0.000    2.000    0.000 
#   12.857    5.000    0.000    0.000    0.000    0.000 
#    0.000    0.000    0.000    0.000    0.000    0.000 
#
# Total GULP energy -173443.903452 kJ/mol
# GULP energy per Si atom -12388.850247 kJ/mol
# Density = 2.064846 g / cm^3
# Si number density = 20.695564 Si / 1000 Ang^3
#
#
#
# Elastic Constant Matrix: (Units=GPa)
#
#
# Indices 1 2 3 4 5 6 
#
# 1 77.5307 58.1675 60.8828 0.0000 16.3293 0.0000
# 2 58.1675 113.9793 54.4520 0.0000 9.2489 0.0000
# 3 60.8828 54.4520 107.2138 0.0000 15.6577 0.0000
# 4 0.0000 0.0000 0.0000 17.9688 0.0000 6.2656
# 5 16.3293 9.2489 15.6577 0.0000 34.9308 0.0000
# 6 0.0000 0.0000 0.0000 6.2656 0.0000 39.3348
#
#
#
# Elastic Compliance Matrix: (Units=1/GPa)
#
#
# Indices 1 2 3 4 5 6 
#
# 1 0.030447 -0.009511 -0.011501 0.000000 -0.006560 0.000000
# 2 -0.009511 0.014562 -0.002227 0.000000 0.001589 0.000000
# 3 -0.011501 -0.002227 0.017247 0.000000 -0.001765 0.000000
# 4 0.000000 0.000000 0.000000 0.058925 0.000000 -0.009386
# 5 -0.006560 0.001589 -0.001765 0.000000 0.032065 0.000000
# 6 0.000000 0.000000 0.000000 -0.009386 0.000000 0.026918
#
#
# Mechanical properties :
#
#
# Convention : Reuss Voigt Hill
#
# Bulk Modulus (GPa) = 63.38066 71.74760 67.56413
# Shear Modulus (GPa) = 21.56079 26.79498 24.17788
#
# Velocity S-wave (km/s) = 3.23121 3.60213 3.42170
# Velocity P-wave (km/s) = 6.67927 7.21414 6.95185
#
# Compressibility (1/GPa) = 0.01577768
#
# Stress axis : x y z
#
# Youngs Moduli (GPa) = 32.84372 68.66971 57.98115
#
# Poissons Ratio (x) = 0.65315 0.66685
# Poissons Ratio (y) = 0.31239 0.12911
# Poissons Ratio (z) = 0.37774 0.15292
#
# Static dielectric constant tensor:
#      x y z
#    x 3.884210 0.000000 0.465050 
#    y 0.000000 3.373540 0.000000 
#    z 0.465050 0.000000 4.235190 
# 
# 
# High freq. dielectric constant tensor:
#      x y z
#    x 1.803190 0.000000 0.029340 
#    y 0.000000 1.777600 0.000000 
#    z 0.029340 0.000000 1.815720 
# 
# From -- ./inp_files/7117.got.cif
#   From: 2010.03.12/outbox.cif.g09.slc.cpg/sg3_4_cif.got.tgz:7117.got - 2010.03.31 09:20:49.
