data_PCOD8044417
_publ_section_title
;
Structure prediction by ZEFSAII (Michael W. Deem and Ramdas Pophale) SiO2 
 PCOD8044417
Probable space group: P -1
;
_chemical_formula_sum "Si O2"
_cell_formula_units_Z 16
_cell_length_a 9.655757
_cell_length_b 8.704839
_cell_length_c 11.980438
_cell_angle_alpha 77.790934
_cell_angle_beta 90.984042
_cell_angle_gamma 131.565273
_cell_volume 725.865713
_symmetry_space_group_name_H-M "P -1"
_symmetry_group_IT_number 2
_symmetry_cell_setting 'triclinic'
loop_
_space_group_symop_operation_xyz
x,y,z
-x,-y,-z
loop_
_atom_site_type_symbol
_atom_site_label
_atom_site_fract_x
_atom_site_fract_y
_atom_site_fract_z
Si Si1 0.143118 0.952548 0.885402
Si Si2 0.261225 0.081998 0.411632
Si Si3 0.545974 0.356677 0.050609
Si Si4 0.241870 0.898523 0.223193
Si Si5 0.105718 0.286159 0.884046
Si Si6 0.439152 0.742436 0.172570
Si Si7 0.542529 0.545820 0.364661
Si Si8 0.101944 0.013759 0.646717
O O1 0.348738 0.031553 0.875939
O O2 0.058246 0.865801 0.772674
O O3 0.009642 0.761661 0.997892
O O4 0.162010 0.147695 0.895698
O O5 0.254575 0.927810 0.353679
O O6 0.462289 0.318953 0.352126
O O7 0.223498 0.014058 0.552839
O O8 0.095526 0.078174 0.384638
O O9 0.359731 0.121722 0.124058
O O10 0.699903 0.468225 0.135881
O O11 0.500000 0.500000 0.000000
O O12 0.633220 0.356352 0.936747
O O13 0.021949 0.751807 0.214068
O O14 0.308184 0.776415 0.214961
O O15 0.435699 0.600116 0.285846
O O16 0.500000 0.500000 0.500000
O O17 0.767685 0.746512 0.331606
#
# Coordination Sequence:
#
# PCOD8044417 Si02
#       8
#     2   2   2   2   2   2   2   2
#     4  10  19  38  60  89 123 157 206 258 298 359
#     4  10  20  36  64  86 115 165 203 247 307 364
#     4  12  23  39  65  91 122 170 218 240 301 382
#     4  12  25  40  57  96 135 157 198 263 320 359
#     4  11  22  37  63  89 122 165 208 254 296 372
#     4  11  23  40  61  92 133 157 195 268 318 357
#     4   9  20  39  63  89 112 158 212 249 289 369
#     4   9  19  35  60  91 113 149 215 259 282 356
#
# _framework density 22.042645
#
# number of rings (size 3 to 8) (size 9 to 14) (size 15 to 20)
#    0.000    1.500    3.750    1.875    3.500    0.500 
#    0.000    5.625    0.000    6.750    0.000    0.000 
#    0.000    0.000    0.000    0.000    0.000    0.000 
#
# Total GULP energy -198219.255736 kJ/mol
# GULP energy per Si atom -12388.703483 kJ/mol
# Density = 2.199247 g / cm^3
# Si number density = 22.042645 Si / 1000 Ang^3
#
#
#
# Elastic Constant Matrix: (Units=GPa)
#
#
# Indices 1 2 3 4 5 6 
#
# 1 61.5423 19.7304 5.7151 12.5442 -13.8900 5.5127
# 2 19.7304 61.8857 29.7203 21.2308 -0.1575 14.9357
# 3 5.7151 29.7203 96.4334 14.4169 -8.8578 -5.2736
# 4 12.5442 21.2308 14.4169 33.1285 -0.6875 0.5799
# 5 -13.8900 -0.1575 -8.8578 -0.6875 31.6806 7.5494
# 6 5.5127 14.9357 -5.2736 0.5799 7.5494 30.2708
#
#
#
# Elastic Compliance Matrix: (Units=1/GPa)
#
#
# Indices 1 2 3 4 5 6 
#
# 1 0.021531 -0.004936 0.001848 -0.005506 0.010701 -0.003727
# 2 -0.004936 0.029551 -0.007683 -0.013492 -0.001000 -0.014512
# 3 0.001848 -0.007683 0.013452 -0.001649 0.003304 0.005006
# 4 -0.005506 -0.013492 -0.001649 0.041423 -0.003839 0.007536
# 5 0.010701 -0.001000 0.003304 -0.003839 0.039640 -0.010692
# 6 -0.003727 -0.014512 0.005006 0.007536 -0.010692 0.044268
#
#
# Mechanical properties :
#
#
# Convention : Reuss Voigt Hill
#
# Bulk Modulus (GPa) = 23.26108 36.68813 29.97461
# Shear Modulus (GPa) = 22.14938 29.99569 26.07254
#
# Velocity S-wave (km/s) = 3.17336 3.69291 3.44295
# Velocity P-wave (km/s) = 4.89925 5.90455 5.42524
#
# Compressibility (1/GPa) = 0.04299027
#
# Stress axis : x y z
#
# Youngs Moduli (GPa) = 46.44410 33.83978 74.33798
#
# Poissons Ratio (x) = 0.16704 -0.13734
# Poissons Ratio (y) = 0.22926 0.57117
# Poissons Ratio (z) = -0.08581 0.26000
#
# Static dielectric constant tensor:
#      x y z
#    x 3.617750 0.480460 -0.117900 
#    y 0.480460 4.376120 0.010770 
#    z -0.117900 0.010770 4.744690 
# 
# 
# High freq. dielectric constant tensor:
#      x y z
#    x 1.827620 0.037340 -0.009960 
#    y 0.037340 1.850980 0.019860 
#    z -0.009960 0.019860 1.893860 
# 
# From -- ./inp_files/382290.got.cif
#   From: 2010.06.25/outbox.cif.g09.slc.cpg/sg2_192_cif.got.tgz:382290.got - 2010.06.27 13:26:56.
