data_PCOD8044207
_publ_section_title
;
Structure prediction by ZEFSAII (Michael W. Deem and Ramdas Pophale) SiO2 
 PCOD8044207
Probable space group: P -1
;
_chemical_formula_sum "Si O2"
_cell_formula_units_Z 16
_cell_length_a 28.692177
_cell_length_b 9.529107
_cell_length_c 14.053524
_cell_angle_alpha 46.144104
_cell_angle_beta 20.863444
_cell_angle_gamma 36.075090
_cell_volume 769.293584
_symmetry_space_group_name_H-M "P -1"
_symmetry_group_IT_number 2
_symmetry_cell_setting 'triclinic'
loop_
_space_group_symop_operation_xyz
x,y,z
-x,-y,-z
loop_
_atom_site_type_symbol
_atom_site_label
_atom_site_fract_x
_atom_site_fract_y
_atom_site_fract_z
Si Si1 0.189559 0.660542 0.845974
Si Si2 0.640767 0.250610 0.286479
Si Si3 0.875686 0.360313 0.816358
Si Si4 0.494140 0.230167 0.384919
Si Si5 0.771734 0.853031 0.700241
Si Si6 0.510824 0.707997 0.845209
Si Si7 0.179480 0.092158 0.626333
Si Si8 0.808518 0.706681 0.304359
O O1 0.297289 0.463368 0.650127
O O2 0.251804 0.827959 0.661074
O O3 0.215622 0.525908 0.960316
O O4 0.003743 0.804708 0.099446
O O5 0.500000 0.500000 0.500000
O O6 0.576775 0.277965 0.288687
O O7 0.702990 0.985217 0.332013
O O8 0.808435 0.222749 0.965719
O O9 0.828795 0.577115 0.732832
O O10 0.076396 0.153985 0.546463
O O11 0.564807 0.218701 0.151813
O O12 0.500000 0.000000 0.500000
O O13 0.727362 0.933132 0.636760
O O14 0.603356 0.046462 0.988323
O O15 0.701664 0.611168 0.531425
O O16 0.500000 0.500000 0.000000
O O17 0.183352 0.267635 0.609449
O O18 0.000000 0.500000 0.000000
#
# Coordination Sequence:
#
# PCOD8044207 Si02
#       8
#     2   2   2   2   2   2   2   2
#     4  10  19  37  65  95 124 171 228 271 329 399
#     4  12  23  42  72 101 128 173 237 286 323 395
#     4  10  20  39  66  92 129 166 226 281 322 388
#     4  12  23  40  64  98 132 176 224 280 342 399
#     4  10  23  41  62  96 133 177 218 267 343 411
#     4  12  27  43  64  95 143 181 214 278 354 411
#     4  10  21  38  67  93 129 175 222 275 329 410
#     4  12  26  44  68 104 137 175 232 292 338 396
#
# _framework density 20.798300999999999
#
# number of rings (size 3 to 8) (size 9 to 14) (size 15 to 20)
#    0.000    1.000    3.750    3.000    1.750    1.500 
#    0.000    0.625    0.000    0.000    0.000    0.000 
#    0.000    0.000    0.000    0.000    0.000    0.000 
#
# Total GULP energy -198307.057402 kJ/mol
# GULP energy per Si atom -12394.191088 kJ/mol
# Density = 2.075096 g / cm^3
# Si number density = 20.798301 Si / 1000 Ang^3
#
#
#
# Elastic Constant Matrix: (Units=GPa)
#
#
# Indices 1 2 3 4 5 6 
#
# 1 133.8398 32.8389 48.2713 -11.6830 18.8023 9.2425
# 2 32.8389 92.9605 38.9584 -10.0582 2.5096 -1.5803
# 3 48.2713 38.9584 107.2484 -5.2170 6.2535 4.7107
# 4 -11.6830 -10.0582 -5.2170 44.0198 8.5104 3.2124
# 5 18.8023 2.5096 6.2535 8.5104 30.9679 -8.2405
# 6 9.2425 -1.5803 4.7107 3.2124 -8.2405 33.2839
#
#
#
# Elastic Compliance Matrix: (Units=1/GPa)
#
#
# Indices 1 2 3 4 5 6 
#
# 1 0.011040 -0.001910 -0.003363 0.004087 -0.008361 -0.005145
# 2 -0.001910 0.013314 -0.004021 0.001758 0.000883 0.001781
# 3 -0.003363 -0.004021 0.012357 -0.000199 -0.000359 -0.001076
# 4 0.004087 0.001758 -0.000199 0.026921 -0.011718 -0.006523
# 5 -0.008361 0.000883 -0.000359 -0.011718 0.044462 0.014554
# 6 -0.005145 0.001781 -0.001076 -0.006523 0.014554 0.035943
#
#
# Mechanical properties :
#
#
# Convention : Reuss Voigt Hill
#
# Bulk Modulus (GPa) = 55.17836 63.79845 59.48841
# Shear Modulus (GPa) = 29.64471 35.91966 32.78218
#
# Velocity S-wave (km/s) = 3.77947 4.16028 3.97444
# Velocity P-wave (km/s) = 6.75527 7.33612 7.05168
#
# Compressibility (1/GPa) = 0.01812305
#
# Stress axis : x y z
#
# Youngs Moduli (GPa) = 90.58177 75.11076 80.92752
#
# Poissons Ratio (x) = 0.14347 0.27213
# Poissons Ratio (y) = 0.17302 0.32539
# Poissons Ratio (z) = 0.30460 0.30200
#
# Static dielectric constant tensor:
#      x y z
#    x 3.789760 -0.408290 -0.208910 
#    y -0.408290 3.684220 -0.108600 
#    z -0.208910 -0.108600 3.848630 
# 
# 
# High freq. dielectric constant tensor:
#      x y z
#    x 1.823670 -0.005450 -0.002760 
#    y -0.005450 1.812220 -0.003740 
#    z -0.002760 -0.003740 1.811920 
# 
# From -- ./inp_files/544873.got.cif
#   From: 2010.06.25/outbox.cif.g09.slc.cpg/sg2_273_cif.got.tgz:544873.got - 2010.06.27 13:26:56.
