data_PCOD8044794
_publ_section_title
;
Structure prediction by ZEFSAII (Michael W. Deem and Ramdas Pophale) SiO2 
 PCOD8044794
Probable space group: P -1
;
_chemical_formula_sum "Si O2"
_cell_formula_units_Z 12
_cell_length_a 9.455137
_cell_length_b 21.424348
_cell_length_c 12.014177
_cell_angle_alpha 154.416421
_cell_angle_beta 144.504054
_cell_angle_gamma 26.104386
_cell_volume 462.310352
_symmetry_space_group_name_H-M "P -1"
_symmetry_group_IT_number 2
_symmetry_cell_setting 'triclinic'
loop_
_space_group_symop_operation_xyz
x,y,z
-x,-y,-z
loop_
_atom_site_type_symbol
_atom_site_label
_atom_site_fract_x
_atom_site_fract_y
_atom_site_fract_z
Si Si1 0.316781 0.668334 0.009541
Si Si2 0.471624 0.695246 0.707160
Si Si3 0.647302 0.576104 0.865687
Si Si4 0.133785 0.154115 0.543802
Si Si5 0.680763 0.781890 0.777215
Si Si6 0.225638 0.749563 0.317594
O O1 0.443307 0.721338 0.073951
O O2 0.642116 0.465464 0.934265
O O3 0.051587 0.656954 0.777981
O O4 0.143370 0.818407 0.245435
O O5 0.590170 0.689525 0.898777
O O6 0.544442 0.501968 0.405709
O O7 0.660741 0.735912 0.818132
O O8 0.082454 0.859678 0.701118
O O9 0.023868 0.371288 0.807270
O O10 0.069598 0.122739 0.578645
O O11 0.500000 0.000000 0.500000
O O12 0.524068 0.732510 0.512720
O O13 0.500000 0.000000 0.000000
#
# Coordination Sequence:
#
# PCOD8044794 Si02
#       6
#     2   2   2   2   2   2
#     4  10  19  38  67  92 125 166 214 264 322 379
#     4   8  17  35  60  94 122 164 217 259 308 391
#     4   8  16  34  65  93 121 164 219 264 316 377
#     4   8  14  30  60  94 126 161 203 271 327 359
#     4  11  22  38  64  94 130 170 211 260 329 377
#     4   9  20  37  65  94 126 164 217 267 307 396
#
# _framework density 25.956589000000001
#
# number of rings (size 3 to 8) (size 9 to 14) (size 15 to 20)
#    1.000    2.000    1.667    0.500    0.000    0.667 
#    3.000    0.833   18.333    8.000    0.000    0.000 
#    0.000    0.000    0.000    0.000    0.000    0.000 
#
# Total GULP energy -148671.515719 kJ/mol
# GULP energy per Si atom -12389.292977 kJ/mol
# Density = 2.589751 g / cm^3
# Si number density = 25.956589 Si / 1000 Ang^3
#
#
#
# Elastic Constant Matrix: (Units=GPa)
#
#
# Indices 1 2 3 4 5 6 
#
# 1 207.6371 94.7191 50.2495 -16.0914 -27.8961 -5.5039
# 2 94.7191 103.7938 18.6499 -18.6531 -21.2540 -16.6747
# 3 50.2495 18.6499 42.2630 -9.7932 -22.1662 4.4654
# 4 -16.0914 -18.6531 -9.7932 25.0087 7.8981 0.5608
# 5 -27.8961 -21.2540 -22.1662 7.8981 42.4552 2.2792
# 6 -5.5039 -16.6747 4.4654 0.5608 2.2792 53.4166
#
#
#
# Elastic Compliance Matrix: (Units=1/GPa)
#
#
# Indices 1 2 3 4 5 6 
#
# 1 0.011234 -0.009488 -0.011226 -0.003422 -0.002555 -0.000721
# 2 -0.009488 0.020772 0.006967 0.010228 0.005654 0.004576
# 3 -0.011226 0.006967 0.046537 0.010382 0.018680 -0.003778
# 4 -0.003422 0.010228 0.010382 0.049776 -0.001048 0.001495
# 5 -0.002555 0.005654 0.018680 -0.001048 0.034736 -0.001531
# 6 -0.000721 0.004576 -0.003778 0.001495 -0.001531 0.020440
#
#
# Mechanical properties :
#
#
# Convention : Reuss Voigt Hill
#
# Bulk Modulus (GPa) = 19.58957 75.65899 47.62428
# Shear Modulus (GPa) = 21.92911 36.84778 29.38844
#
# Velocity S-wave (km/s) = 2.90976 3.77184 3.36849
# Velocity P-wave (km/s) = 4.34193 6.94122 5.78934
#
# Compressibility (1/GPa) = 0.05104758
#
# Stress axis : x y z
#
# Youngs Moduli (GPa) = 89.01735 48.14059 21.48827
#
# Poissons Ratio (x) = 0.45678 0.24123
# Poissons Ratio (y) = 0.84463 -0.14970
# Poissons Ratio (z) = 0.99933 -0.33539
#
# Static dielectric constant tensor:
#      x y z
#    x 5.294280 0.260800 0.354020 
#    y 0.260800 4.592260 -0.434830 
#    z 0.354020 -0.434830 6.116870 
# 
# 
# High freq. dielectric constant tensor:
#      x y z
#    x 2.052720 0.000210 0.013430 
#    y 0.000210 2.028550 -0.018340 
#    z 0.013430 -0.018340 2.032180 
# 
# From -- ./inp_files/405169.got.cif
#   From: 2010.06.25/outbox.cif.g09.slc.cpg/sg2_203_cif.got.tgz:405169.got - 2010.06.27 13:26:56.
