data_PCOD8044024
_publ_section_title
;
Structure prediction by ZEFSAII (Michael W. Deem and Ramdas Pophale) SiO2 
 PCOD8044024
Probable space group: P -1
;
_chemical_formula_sum "Si O2"
_cell_formula_units_Z 16
_cell_length_a 8.277384
_cell_length_b 9.806174
_cell_length_c 13.264204
_cell_angle_alpha 109.592829
_cell_angle_beta 110.444405
_cell_angle_gamma 117.662500
_cell_volume 715.175677
_symmetry_space_group_name_H-M "P -1"
_symmetry_group_IT_number 2
_symmetry_cell_setting 'triclinic'
loop_
_space_group_symop_operation_xyz
x,y,z
-x,-y,-z
loop_
_atom_site_type_symbol
_atom_site_label
_atom_site_fract_x
_atom_site_fract_y
_atom_site_fract_z
Si Si1 0.163264 0.820885 0.839062
Si Si2 0.417566 0.111972 0.132448
Si Si3 0.551241 0.842231 0.502070
Si Si4 0.047810 0.573987 0.247787
Si Si5 0.682694 0.127488 0.768594
Si Si6 0.127677 0.216478 0.403932
Si Si7 0.702095 0.546961 0.306051
Si Si8 0.314790 0.143147 0.678744
O O1 0.358797 0.865940 0.819676
O O2 0.085411 0.650022 0.855640
O O3 0.948930 0.750597 0.707872
O O4 0.258332 0.005829 0.972796
O O5 0.486262 0.317764 0.208034
O O6 0.279790 0.977872 0.167572
O O7 0.289550 0.665882 0.373924
O O8 0.656110 0.766846 0.571660
O O9 0.712381 0.933135 0.459777
O O10 0.571761 0.001478 0.609324
O O11 0.079936 0.669719 0.169256
O O12 0.905875 0.596456 0.296397
O O13 0.517191 0.163934 0.782716
O O14 0.200224 0.377334 0.541261
O O15 0.918471 0.004373 0.348003
O O16 0.616941 0.649468 0.262341
#
# Coordination Sequence:
#
# PCOD8044024 Si02
#       8
#     2   2   2   2   2   2   2   2
#     4  10  23  41  61  87 123 163 201 249 292 363
#     4  10  23  42  63  87 121 160 207 245 299 354
#     4  10  21  34  59  93 126 150 194 253 301 353
#     4  10  21  36  61  91 124 153 200 247 304 353
#     4  11  20  38  63  89 122 161 196 246 307 354
#     4  11  20  37  65  91 123 158 202 243 302 353
#     4  10  21  38  66  95 117 154 203 252 292 359
#     4  10  19  37  62  94 123 154 200 248 298 357
#
# _framework density 22.372126000000002
#
# number of rings (size 3 to 8) (size 9 to 14) (size 15 to 20)
#    0.000    1.750    1.250    5.250    1.750    2.000 
#    4.500    1.250    2.750    0.000    0.000    0.000 
#    0.000    0.000    0.000    0.000    0.000    0.000 
#
# Total GULP energy -198355.320462 kJ/mol
# GULP energy per Si atom -12397.207529 kJ/mol
# Density = 2.232121 g / cm^3
# Si number density = 22.372126 Si / 1000 Ang^3
#
#
#
# Elastic Constant Matrix: (Units=GPa)
#
#
# Indices 1 2 3 4 5 6 
#
# 1 86.5581 40.7681 18.9437 6.2776 4.0842 -12.5536
# 2 40.7681 153.8292 44.3076 18.4606 -19.2092 -5.6516
# 3 18.9437 44.3076 60.4693 16.1241 -12.6693 -12.3792
# 4 6.2776 18.4606 16.1241 25.1950 -3.8932 -3.5550
# 5 4.0842 -19.2092 -12.6693 -3.8932 19.6333 4.4431
# 6 -12.5536 -5.6516 -12.3792 -3.5550 4.4431 31.4725
#
#
#
# Elastic Compliance Matrix: (Units=1/GPa)
#
#
# Indices 1 2 3 4 5 6 
#
# 1 0.015604 -0.004514 -0.002698 0.000329 -0.010672 0.005896
# 2 -0.004514 0.010163 -0.004176 -0.002800 0.008336 -0.003111
# 3 -0.002698 -0.004176 0.026728 -0.010950 0.010191 0.006012
# 4 0.000329 -0.002800 -0.010950 0.048729 -0.000411 0.000883
# 5 -0.010672 0.008336 0.010191 -0.000411 0.069762 -0.008647
# 6 0.005896 -0.003111 0.006012 0.000883 -0.008647 0.037252
#
#
# Mechanical properties :
#
#
# Convention : Reuss Voigt Hill
#
# Bulk Modulus (GPa) = 33.64787 56.54396 45.09591
# Shear Modulus (GPa) = 20.75389 28.38266 24.56827
#
# Velocity S-wave (km/s) = 3.04907 3.56569 3.31745
# Velocity P-wave (km/s) = 5.24104 6.50241 5.90550
#
# Compressibility (1/GPa) = 0.02971956
#
# Stress axis : x y z
#
# Youngs Moduli (GPa) = 64.08511 98.40094 37.41393
#
# Poissons Ratio (x) = 0.44418 0.10093
# Poissons Ratio (y) = 0.28928 0.15624
# Poissons Ratio (z) = 0.17287 0.41093
#
# Static dielectric constant tensor:
#      x y z
#    x 4.123800 -0.076520 0.011630 
#    y -0.076520 4.138820 0.094560 
#    z 0.011630 0.094560 3.631140 
# 
# 
# High freq. dielectric constant tensor:
#      x y z
#    x 1.879380 -0.004090 -0.001010 
#    y -0.004090 1.891960 0.005790 
#    z -0.001010 0.005790 1.845920 
# 
# From -- ./inp_files/495289.got.cif
#   From: 2010.06.25/outbox.cif.g09.slc.cpg/sg2_248_cif.got.tgz:495289.got - 2010.06.27 13:26:56.
