data_PCOD8044354
_publ_section_title
;
Structure prediction by ZEFSAII (Michael W. Deem and Ramdas Pophale) SiO2 
 PCOD8044354
Probable space group: P -1
;
_chemical_formula_sum "Si O2"
_cell_formula_units_Z 16
_cell_length_a 8.953534
_cell_length_b 11.461361
_cell_length_c 9.492753
_cell_angle_alpha 119.775965
_cell_angle_beta 101.731310
_cell_angle_gamma 77.949289
_cell_volume 821.181408
_symmetry_space_group_name_H-M "P -1"
_symmetry_group_IT_number 2
_symmetry_cell_setting 'triclinic'
loop_
_space_group_symop_operation_xyz
x,y,z
-x,-y,-z
loop_
_atom_site_type_symbol
_atom_site_label
_atom_site_fract_x
_atom_site_fract_y
_atom_site_fract_z
Si Si1 0.067424 0.628754 0.036578
Si Si2 0.996063 0.781912 0.368519
Si Si3 0.717886 0.928448 0.719945
Si Si4 0.188452 0.154250 0.014194
Si Si5 0.518094 0.815750 0.093839
Si Si6 0.380459 0.556781 0.894934
Si Si7 0.967177 0.019048 0.300552
Si Si8 0.676869 0.718794 0.354882
O O1 0.937550 0.722930 0.982365
O O2 0.213679 0.594922 0.950308
O O3 0.114353 0.698661 0.233838
O O4 0.000000 0.500000 0.000000
O O5 0.857374 0.699452 0.337511
O O6 0.081136 0.829271 0.553952
O O7 0.922322 0.915662 0.349626
O O8 0.793633 0.839798 0.811423
O O9 0.642070 0.824157 0.540553
O O10 0.849431 0.997317 0.704745
O O11 0.593874 0.044845 0.828117
O O12 0.348696 0.161338 0.973479
O O13 0.128131 0.010472 0.874606
O O14 0.577352 0.774773 0.235732
O O15 0.433882 0.696403 0.931489
O O16 0.367211 0.432885 0.706969
O O17 0.500000 0.500000 0.000000
#
# Coordination Sequence:
#
# PCOD8044354 Si02
#       8
#     2   2   2   2   2   2   2   2
#     4  11  18  35  63  84 111 148 195 234 289 338
#     4   9  16  31  56  87 106 143 184 248 271 333
#     4  11  23  36  59  85 119 153 190 242 292 337
#     4  11  22  38  57  85 117 153 190 237 290 347
#     4  11  20  38  59  83 115 159 195 232 285 344
#     4  10  21  36  58  88 113 147 190 245 284 337
#     4   9  18  33  55  79 115 141 190 231 288 329
#     4  10  19  38  58  87 116 146 199 240 282 337
#
# _framework density 19.484123
#
# number of rings (size 3 to 8) (size 9 to 14) (size 15 to 20)
#    0.000    1.750    3.750    3.375    0.000    0.000 
#    4.500    1.250    2.750    0.000    0.000    0.000 
#    0.000    0.000    0.000    0.000    0.000    0.000 
#
# Total GULP energy -198220.022057 kJ/mol
# GULP energy per Si atom -12388.751379 kJ/mol
# Density = 1.943978 g / cm^3
# Si number density = 19.484123 Si / 1000 Ang^3
#
#
#
# Elastic Constant Matrix: (Units=GPa)
#
#
# Indices 1 2 3 4 5 6 
#
# 1 87.2079 30.4988 23.5049 15.8382 2.2692 8.7957
# 2 30.4988 71.2699 49.0323 18.0205 6.3431 2.0567
# 3 23.5049 49.0323 104.7860 17.5152 16.7051 13.3580
# 4 15.8382 18.0205 17.5152 35.0021 6.0802 4.8241
# 5 2.2692 6.3431 16.7051 6.0802 26.7725 10.7394
# 6 8.7957 2.0567 13.3580 4.8241 10.7394 18.7860
#
#
#
# Elastic Compliance Matrix: (Units=1/GPa)
#
#
# Indices 1 2 3 4 5 6 
#
# 1 0.014706 -0.005796 0.000378 -0.003444 0.003807 -0.007811
# 2 -0.005796 0.025093 -0.010424 -0.006175 -0.001483 0.009812
# 3 0.000378 -0.010424 0.016198 -0.001087 -0.004283 -0.007826
# 4 -0.003444 -0.006175 -0.001087 0.035058 -0.004081 -0.003607
# 5 0.003807 -0.001483 -0.004283 -0.004081 0.051886 -0.027188
# 6 -0.007811 0.009812 -0.007826 -0.003607 -0.027188 0.077847
#
#
# Mechanical properties :
#
#
# Convention : Reuss Voigt Hill
#
# Bulk Modulus (GPa) = 41.12836 52.14841 46.63838
# Shear Modulus (GPa) = 19.18820 26.79398 22.99109
#
# Velocity S-wave (km/s) = 3.14158 3.71235 3.43883
# Velocity P-wave (km/s) = 5.85780 6.72295 6.30523
#
# Compressibility (1/GPa) = 0.02431412
#
# Stress axis : x y z
#
# Youngs Moduli (GPa) = 67.99829 39.85189 61.73477
#
# Poissons Ratio (x) = 0.23097 -0.02332
# Poissons Ratio (y) = 0.39410 0.64351
# Poissons Ratio (z) = -0.02569 0.41541
#
# Static dielectric constant tensor:
#      x y z
#    x 3.255500 0.300520 0.445030 
#    y 0.300520 3.509470 0.421760 
#    z 0.445030 0.421760 3.891160 
# 
# 
# High freq. dielectric constant tensor:
#      x y z
#    x 1.756340 0.017230 0.003970 
#    y 0.017230 1.733740 0.028770 
#    z 0.003970 0.028770 1.764430 
# 
# From -- ./inp_files/182681.got.cif
#   From: 2010.06.25/outbox.cif.g09.slc.cpg/sg2_92_cif.got.tgz:182681.got - 2010.06.27 13:26:56.
