data_PCOD8044920
_publ_section_title
;
Structure prediction by ZEFSAII (Michael W. Deem and Ramdas Pophale) SiO2 
 PCOD8044920
Probable space group: P 2
;
_chemical_formula_sum "Si O2"
_cell_formula_units_Z 13
_cell_length_a 7.872165
_cell_length_b 5.223653
_cell_length_c 22.566266
_cell_angle_alpha 90.000000
_cell_angle_beta 144.438674
_cell_angle_gamma 90.000000
_cell_volume 539.676114
_symmetry_space_group_name_H-M "P 2"
_symmetry_group_IT_number 3
_symmetry_cell_setting 'monoclinic'
loop_
_space_group_symop_operation_xyz
x,y,z
-x,y,-z
loop_
_atom_site_type_symbol
_atom_site_label
_atom_site_fract_x
_atom_site_fract_y
_atom_site_fract_z
Si Si1 0.813566 0.329540 0.198612
Si Si2 0.924076 0.777136 0.871960
Si Si3 0.824043 0.759234 0.511557
Si Si4 0.171564 0.818074 0.289197
Si Si5 0.072962 0.257474 0.590100
Si Si6 0.500000 0.545136 0.000000
Si Si7 0.380842 0.279948 0.181840
O O1 0.661806 0.357522 0.091610
O O2 0.579743 0.249232 0.180954
O O3 0.962810 0.600165 0.257948
O O4 0.048214 0.102900 0.262007
O O5 0.782272 0.762007 0.766887
O O6 0.789969 0.545866 0.872150
O O7 0.851475 0.047714 0.882149
O O8 0.272946 0.735559 0.968253
O O9 0.481931 0.797534 0.408456
O O10 0.898482 0.498561 0.568365
O O11 0.000000 0.728204 0.500000
O O12 0.950326 0.997391 0.585444
O O13 0.000000 0.226115 0.500000
O O14 0.417707 0.276880 0.701553
#
# Coordination Sequence:
#
# PCOD8044920 Si02
#       7
#     2   2   2   2   2   1   2
#     4  11  26  45  67  94 137 168 222 271 340 393
#     4  11  23  42  71  95 130 166 224 267 335 395
#     4  10  19  33  60  92 124 166 221 258 298 381
#     4  11  22  43  67  96 133 182 212 270 332 390
#     4  10  19  34  59  92 128 163 214 258 306 378
#     4  10  26  48  68  98 126 178 216 278 336 408
#     4  12  24  43  68 101 130 174 214 278 324 386
#
# _framework density 24.088525000000001
#
# number of rings (size 3 to 8) (size 9 to 14) (size 15 to 20)
#    0.000    1.231    0.000    8.308    0.000    6.154 
#    0.000    7.692    0.000    0.000    0.000    0.000 
#    0.000    0.000    0.000    0.000    0.000    0.000 
#
# Total GULP energy -161200.516813 kJ/mol
# GULP energy per Si atom -12400.039755 kJ/mol
# Density = 2.403370 g / cm^3
# Si number density = 24.088525 Si / 1000 Ang^3
#
#
#
# Elastic Constant Matrix: (Units=GPa)
#
#
# Indices 1 2 3 4 5 6 
#
# 1 84.8907 20.0261 12.8702 0.0000 17.6780 0.0000
# 2 20.0261 195.1113 30.3833 0.0000 21.3766 0.0000
# 3 12.8702 30.3833 91.5841 0.0000 30.0436 0.0000
# 4 0.0000 0.0000 0.0000 29.4935 0.0000 17.2515
# 5 17.6780 21.3766 30.0436 0.0000 34.0406 0.0000
# 6 0.0000 0.0000 0.0000 17.2515 0.0000 26.7645
#
#
#
# Elastic Compliance Matrix: (Units=1/GPa)
#
#
# Indices 1 2 3 4 5 6 
#
# 1 0.013315 -0.000697 0.000682 0.000000 -0.007079 0.000000
# 2 -0.000697 0.005603 -0.001021 0.000000 -0.002255 0.000000
# 3 0.000682 -0.001021 0.015578 0.000000 -0.013462 0.000000
# 4 0.000000 0.000000 0.000000 0.054425 0.000000 -0.035081
# 5 -0.007079 -0.002255 -0.013462 0.000000 0.046351 0.000000
# 6 0.000000 0.000000 0.000000 -0.035081 0.000000 0.059975
#
#
# Mechanical properties :
#
#
# Convention : Reuss Voigt Hill
#
# Bulk Modulus (GPa) = 30.84107 55.34946 43.09526
# Shear Modulus (GPa) = 24.02384 38.61349 31.31866
#
# Velocity S-wave (km/s) = 3.16145 4.00807 3.60967
# Velocity P-wave (km/s) = 5.11443 6.66685 5.94156
#
# Compressibility (1/GPa) = 0.03242430
#
# Stress axis : x y z
#
# Youngs Moduli (GPa) = 75.10272 178.47802 64.19366
#
# Poissons Ratio (x) = 0.12446 -0.04381
# Poissons Ratio (y) = 0.05237 0.06554
# Poissons Ratio (z) = -0.05126 0.18222
#
# Static dielectric constant tensor:
#      x y z
#    x 4.071740 0.000000 0.116110 
#    y 0.000000 5.775310 0.000000 
#    z 0.116110 0.000000 4.301080 
# 
# 
# High freq. dielectric constant tensor:
#      x y z
#    x 1.931830 0.000000 0.015130 
#    y 0.000000 1.985380 0.000000 
#    z 0.015130 0.000000 1.953180 
# 
# From -- ./inp_files/16467.got.cif
#   From: 2010.03.12/outbox.cif.g09.slc.cpg/sg3_9_cif.got.tgz:16467.got - 2010.03.31 09:20:49.
