data_PCOD8044104
_publ_section_title
;
Structure prediction by ZEFSAII (Michael W. Deem and Ramdas Pophale) SiO2 
 PCOD8044104
Probable space group: P -1
;
_chemical_formula_sum "Si O2"
_cell_formula_units_Z 14
_cell_length_a 10.924924
_cell_length_b 8.970320
_cell_length_c 10.719303
_cell_angle_alpha 138.854890
_cell_angle_beta 110.745384
_cell_angle_gamma 99.103971
_cell_volume 467.447970
_symmetry_space_group_name_H-M "P -1"
_symmetry_group_IT_number 2
_symmetry_cell_setting 'triclinic'
loop_
_space_group_symop_operation_xyz
x,y,z
-x,-y,-z
loop_
_atom_site_type_symbol
_atom_site_label
_atom_site_fract_x
_atom_site_fract_y
_atom_site_fract_z
Si Si1 0.265097 0.717753 0.493566
Si Si2 0.642706 0.351138 0.979513
Si Si3 0.330272 0.166331 0.284759
Si Si4 0.981851 0.224721 0.691699
Si Si5 0.529021 0.590672 0.261361
Si Si6 0.231345 0.920132 0.842610
Si Si7 0.987139 0.918223 0.119565
O O1 0.189904 0.840858 0.462978
O O2 0.485844 0.986633 0.738533
O O3 0.199788 0.663793 0.581270
O O4 0.195112 0.398862 0.212173
O O5 0.588720 0.381673 0.844583
O O6 0.828952 0.433290 0.074428
O O7 0.671893 0.608187 0.242425
O O8 0.500000 0.500000 0.500000
O O9 0.377928 0.146003 0.430749
O O10 0.154143 0.117830 0.208603
O O11 0.265808 0.900596 0.989698
O O12 0.971442 0.196877 0.820333
O O13 0.000000 0.000000 0.500000
O O14 0.407814 0.251189 0.062412
O O15 0.058391 0.878096 0.733128
#
# Coordination Sequence:
#
# PCOD8044104 Si02
#       7
#     2   2   2   2   2   2   2
#     4  11  25  40  63  98 134 160 210 265 311 383
#     4  10  19  37  63  96 132 164 202 260 320 373
#     4  10  22  39  66  90 120 169 216 262 316 371
#     4  12  21  39  68  97 128 172 208 253 324 382
#     4   9  17  36  64  93 122 163 211 255 308 379
#     4  10  21  42  63  87 124 171 209 257 317 362
#     4  12  23  41  63  94 126 165 213 261 318 375
#
# _framework density 29.949856
#
# number of rings (size 3 to 8) (size 9 to 14) (size 15 to 20)
#    0.000    1.429    2.857    4.286    0.000    1.143 
#    5.143    0.000    0.000    6.000    0.000    0.000 
#    0.000    0.000    0.000    0.000    0.000    0.000 
#
# Total GULP energy -173518.634778 kJ/mol
# GULP energy per Si atom -12394.188198 kJ/mol
# Density = 2.988169 g / cm^3
# Si number density = 29.949856 Si / 1000 Ang^3
#
#
#
# Elastic Constant Matrix: (Units=GPa)
#
#
# Indices 1 2 3 4 5 6 
#
# 1 95.8661 11.2591 23.3160 8.4561 21.2706 31.5344
# 2 11.2591 110.1027 38.9025 -30.3378 -2.8990 26.3229
# 3 23.3160 38.9025 113.4910 -27.8320 0.0845 25.5711
# 4 8.4561 -30.3378 -27.8320 60.2021 16.8130 -1.1702
# 5 21.2706 -2.8990 0.0845 16.8130 50.2706 -0.2179
# 6 31.5344 26.3229 25.5711 -1.1702 -0.2179 43.2052
#
#
#
# Elastic Compliance Matrix: (Units=1/GPa)
#
#
# Indices 1 2 3 4 5 6 
#
# 1 0.015935 0.001278 -0.001194 -0.000550 -0.006534 -0.011750
# 2 0.001278 0.012947 -0.001462 0.006032 -0.001843 -0.007801
# 3 -0.001194 -0.001462 0.012030 0.005278 -0.001387 -0.005221
# 4 -0.000550 0.006032 0.005278 0.024159 -0.007533 -0.005781
# 5 -0.006534 -0.001843 -0.001387 -0.007533 0.025101 0.006635
# 6 -0.011750 -0.007801 -0.005221 -0.005781 0.006635 0.039442
#
#
# Mechanical properties :
#
#
# Convention : Reuss Voigt Hill
#
# Bulk Modulus (GPa) = 26.20915 51.82390 39.01652
# Shear Modulus (GPa) = 34.46160 47.13440 40.79800
#
# Velocity S-wave (km/s) = 3.39579 3.97139 3.69482
# Velocity P-wave (km/s) = 4.91378 6.19438 5.59087
#
# Compressibility (1/GPa) = 0.03815462
#
# Stress axis : x y z
#
# Youngs Moduli (GPa) = 62.75541 77.23797 83.12729
#
# Poissons Ratio (x) = -0.09872 0.09929
# Poissons Ratio (y) = -0.08021 0.12155
# Poissons Ratio (z) = 0.07495 0.11294
#
# Static dielectric constant tensor:
#      x y z
#    x 5.769760 0.844300 0.206510 
#    y 0.844300 5.936860 -0.404850 
#    z 0.206510 -0.404850 6.219020 
# 
# 
# High freq. dielectric constant tensor:
#      x y z
#    x 2.230900 0.026730 0.009610 
#    y 0.026730 2.234950 -0.008620 
#    z 0.009610 -0.008620 2.233790 
# 
# From -- ./inp_files/426964.got.cif
#   From: 2010.06.25/outbox.cif.g09.slc.cpg/sg2_214_cif.got.tgz:426964.got - 2010.06.27 13:26:56.
