data_PCOD8044859
_publ_section_title
;
Structure prediction by ZEFSAII (Michael W. Deem and Ramdas Pophale) SiO2 
 PCOD8044859
Probable space group: P 2
;
_chemical_formula_sum "Si O2"
_cell_formula_units_Z 10
_cell_length_a 7.776833
_cell_length_b 11.068731
_cell_length_c 9.075942
_cell_angle_alpha 90.000000
_cell_angle_beta 32.853112
_cell_angle_gamma 90.000000
_cell_volume 423.820330
_symmetry_space_group_name_H-M "P 2"
_symmetry_group_IT_number 3
_symmetry_cell_setting 'monoclinic'
loop_
_space_group_symop_operation_xyz
x,y,z
-x,y,-z
loop_
_atom_site_type_symbol
_atom_site_label
_atom_site_fract_x
_atom_site_fract_y
_atom_site_fract_z
Si Si1 0.916913 0.811730 0.390346
Si Si2 0.372420 0.187562 0.425497
Si Si3 0.689937 0.944540 0.126026
Si Si4 0.130634 0.574240 0.750069
Si Si5 0.869789 0.317975 0.931128
O O1 0.952861 0.676144 0.307199
O O2 0.000000 0.816897 0.500000
O O3 0.170599 0.901214 0.130660
O O4 0.545638 0.845455 0.632346
O O5 0.500000 0.191675 0.500000
O O6 0.001986 0.220621 0.715037
O O7 0.498186 0.292752 0.223569
O O8 0.461910 0.061838 0.281881
O O9 0.000000 0.969385 0.000000
O O10 0.500000 0.542639 0.500000
O O11 0.945797 0.454557 0.829595
O O12 0.000000 0.620863 0.000000
O O13 0.000000 0.288481 0.000000
#
# Coordination Sequence:
#
# PCOD8044859 Si02
#       5
#     2   2   2   2   2
#     4  12  26  42  59  84 123 162 198 245 300 348
#     4  10  18  31  55  90 122 145 182 242 299 342
#     4  12  23  39  64  91 117 154 203 246 288 350
#     4  11  21  36  61  88 115 150 197 244 286 346
#     4   9  17  30  52  87 122 147 181 239 300 344
#
# _framework density 23.594906000000002
#
# number of rings (size 3 to 8) (size 9 to 14) (size 15 to 20)
#    0.000    1.200    0.000   11.400    0.000    0.000 
#    0.000    0.000    0.000    7.200    0.000    0.000 
#    0.000    0.000    0.000    0.000    0.000    0.000 
#
# Total GULP energy -123882.359664 kJ/mol
# GULP energy per Si atom -12388.235966 kJ/mol
# Density = 2.354120 g / cm^3
# Si number density = 23.594906 Si / 1000 Ang^3
#
#
#
# Elastic Constant Matrix: (Units=GPa)
#
#
# Indices 1 2 3 4 5 6 
#
# 1 27.9258 32.1307 19.1224 0.0000 9.8912 0.0000
# 2 32.1307 153.2968 71.2218 0.0000 22.5363 0.0000
# 3 19.1224 71.2218 168.3218 0.0000 14.5616 0.0000
# 4 0.0000 0.0000 0.0000 55.3135 0.0000 2.3279
# 5 9.8912 22.5363 14.5616 0.0000 26.7754 0.0000
# 6 0.0000 0.0000 0.0000 2.3279 0.0000 3.4432
#
#
#
# Elastic Compliance Matrix: (Units=1/GPa)
#
#
# Indices 1 2 3 4 5 6 
#
# 1 0.050069 -0.008335 -0.001226 0.000000 -0.010814 0.000000
# 2 -0.008335 0.010264 -0.003059 0.000000 -0.003897 0.000000
# 3 -0.001226 -0.003059 0.007464 0.000000 -0.001032 0.000000
# 4 0.000000 0.000000 0.000000 0.018608 0.000000 -0.012581
# 5 -0.010814 -0.003897 -0.001032 0.000000 0.045183 0.000000
# 6 0.000000 0.000000 0.000000 -0.012581 0.000000 0.298930
#
#
# Mechanical properties :
#
#
# Convention : Reuss Voigt Hill
#
# Bulk Modulus (GPa) = 23.49781 66.05494 44.77638
# Shear Modulus (GPa) = 10.63955 32.24439 21.44197
#
# Velocity S-wave (km/s) = 2.12580 3.70074 3.01783
# Velocity P-wave (km/s) = 4.00073 6.80565 5.58224
#
# Compressibility (1/GPa) = 0.04255715
#
# Stress axis : x y z
#
# Youngs Moduli (GPa) = 19.97249 97.42372 133.97781
#
# Poissons Ratio (x) = 0.81203 0.16423
# Poissons Ratio (y) = 0.16647 0.40986
# Poissons Ratio (z) = 0.02448 0.29804
#
# Static dielectric constant tensor:
#      x y z
#    x 3.467370 0.000000 -0.134540 
#    y 0.000000 4.244910 0.000000 
#    z -0.134540 0.000000 5.402200 
# 
# 
# High freq. dielectric constant tensor:
#      x y z
#    x 1.859920 0.000000 0.001490 
#    y 0.000000 1.940820 0.000000 
#    z 0.001490 0.000000 1.980810 
# 
# From -- ./inp_files/5698.got.cif
#   From: 2010.03.12/outbox.cif.g09.slc.cpg/sg3_3_cif.got.tgz:5698.got - 2010.03.31 09:20:49.
