data_PCOD8044923
_publ_section_title
;
Structure prediction by ZEFSAII (Michael W. Deem and Ramdas Pophale) SiO2 
 PCOD8044923
Probable space group: P 2
;
_chemical_formula_sum "Si O2"
_cell_formula_units_Z 16
_cell_length_a 18.659330
_cell_length_b 9.010345
_cell_length_c 8.307835
_cell_angle_alpha 90.000000
_cell_angle_beta 33.494127
_cell_angle_gamma 90.000000
_cell_volume 770.810391
_symmetry_space_group_name_H-M "P 2"
_symmetry_group_IT_number 3
_symmetry_cell_setting 'monoclinic'
loop_
_space_group_symop_operation_xyz
x,y,z
-x,y,-z
loop_
_atom_site_type_symbol
_atom_site_label
_atom_site_fract_x
_atom_site_fract_y
_atom_site_fract_z
Si Si1 0.280630 0.305220 0.105971
Si Si2 0.515179 0.821291 0.661557
Si Si3 0.529036 0.148952 0.761405
Si Si4 0.017153 0.808089 0.658894
Si Si5 0.028031 0.142861 0.636220
Si Si6 0.775845 0.308285 0.164323
Si Si7 0.765985 0.642302 0.168479
Si Si8 0.266573 0.638417 0.150779
O O1 0.168375 0.214623 0.409265
O O2 0.284338 0.469514 0.175971
O O3 0.419763 0.229095 0.860853
O O4 0.251823 0.306673 0.972212
O O5 0.500000 0.849243 0.500000
O O6 0.640745 0.725166 0.472470
O O7 0.527348 0.975593 0.728832
O O8 0.392433 0.733266 0.961240
O O9 0.669420 0.214076 0.457943
O O10 0.500000 0.180207 0.000000
O O11 0.144136 0.713473 0.468497
O O12 0.000000 0.809301 0.500000
O O13 0.030670 0.975461 0.698620
O O14 0.894359 0.733457 0.976453
O O15 0.000000 0.143430 0.500000
O O16 0.916519 0.236159 0.936175
O O17 0.774559 0.478031 0.228189
O O18 0.755710 0.634930 0.996852
#
# Coordination Sequence:
#
# PCOD8044923 Si02
#       8
#     2   2   2   2   2   2   2   2
#     4  10  19  35  58  84 110 140 177 221 268 319
#     4  10  19  34  54  76 102 138 179 222 266 312
#     4  12  25  38  52  76 108 146 185 224 268 318
#     4   9  15  25  43  77 116 139 160 206 264 317
#     4   9  17  29  54  87 114 139 172 214 266 319
#     4  10  19  35  58  84 110 140 177 221 268 319
#     4   9  17  29  51  80 108 135 170 215 265 314
#     4   9  17  29  51  80 108 135 170 215 265 314
#
# _framework density 20.757373999999999
#
# number of rings (size 3 to 8) (size 9 to 14) (size 15 to 20)
#    0.000    2.250    0.000    4.125    0.000    9.000 
#    0.000    3.125    0.000    0.000    0.000    1.750 
#    0.000    0.000    0.000    0.000    0.000    0.000 
#
# Total GULP energy -198429.265745 kJ/mol
# GULP energy per Si atom -12401.829109 kJ/mol
# Density = 2.071013 g / cm^3
# Si number density = 20.757374 Si / 1000 Ang^3
#
#
#
# Elastic Constant Matrix: (Units=GPa)
#
#
# Indices 1 2 3 4 5 6 
#
# 1 9.1848 15.7800 25.3248 0.0000 -9.3164 0.0000
# 2 15.7800 188.0969 67.5768 0.0000 -22.3142 0.0000
# 3 25.3248 67.5768 133.2203 0.0000 -40.9446 0.0000
# 4 0.0000 0.0000 0.0000 41.1809 0.0000 -17.0970
# 5 -9.3164 -22.3142 -40.9446 0.0000 26.8700 0.0000
# 6 0.0000 0.0000 0.0000 -17.0970 0.0000 11.5453
#
#
#
# Elastic Compliance Matrix: (Units=1/GPa)
#
#
# Indices 1 2 3 4 5 6 
#
# 1 0.240600 -0.004335 -0.035748 0.000000 0.025349 0.000000
# 2 -0.004335 0.006586 -0.002441 0.000000 0.000247 0.000000
# 3 -0.035748 -0.002441 0.020892 0.000000 0.017414 0.000000
# 4 0.000000 0.000000 0.000000 0.063042 0.000000 0.093356
# 5 0.025349 0.000247 0.017414 0.000000 0.072746 0.000000
# 6 0.000000 0.000000 0.000000 0.093356 0.000000 0.224862
#
#
# Mechanical properties :
#
#
# Convention : Reuss Voigt Hill
#
# Bulk Modulus (GPa) = 5.46351 60.87392 33.16871
# Shear Modulus (GPa) = 6.45340 30.70727 18.58033
#
# Velocity S-wave (km/s) = 1.76514 3.85040 2.99510
# Velocity P-wave (km/s) = 2.60616 7.01124 5.28912
#
# Compressibility (1/GPa) = 0.18303252
#
# Stress axis : x y z
#
# Youngs Moduli (GPa) = 4.15627 151.82941 47.86472
#
# Poissons Ratio (x) = 0.65811 1.71105
# Poissons Ratio (y) = 0.01802 0.11684
# Poissons Ratio (z) = 0.14858 0.37062
#
# Static dielectric constant tensor:
#      x y z
#    x 3.220880 0.000000 -0.379350 
#    y 0.000000 4.036720 0.000000 
#    z -0.379350 0.000000 3.878720 
# 
# 
# High freq. dielectric constant tensor:
#      x y z
#    x 1.762110 0.000000 -0.032840 
#    y 0.000000 1.832430 0.000000 
#    z -0.032840 0.000000 1.816330 
# 
# From -- ./inp_files/7437.got.cif
#   From: 2010.03.12/outbox.cif.g09.slc.cpg/sg3_4_cif.got.tgz:7437.got - 2010.03.31 09:20:49.
