data_PCOD8044723
_publ_section_title
;
Structure prediction by ZEFSAII (Michael W. Deem and Ramdas Pophale) SiO2 
 PCOD8044723
Probable space group: P -1
;
_chemical_formula_sum "Si O2"
_cell_formula_units_Z 16
_cell_length_a 8.396555
_cell_length_b 5.326009
_cell_length_c 15.890426
_cell_angle_alpha 63.079329
_cell_angle_beta 92.867651
_cell_angle_gamma 89.990076
_cell_volume 632.613476
_symmetry_space_group_name_H-M "P -1"
_symmetry_group_IT_number 2
_symmetry_cell_setting 'triclinic'
loop_
_space_group_symop_operation_xyz
x,y,z
-x,-y,-z
loop_
_atom_site_type_symbol
_atom_site_label
_atom_site_fract_x
_atom_site_fract_y
_atom_site_fract_z
Si Si1 0.101295 0.388723 0.442600
Si Si2 0.007454 0.985916 0.793662
Si Si3 0.337384 0.605007 0.108287
Si Si4 0.881956 0.091903 0.364301
Si Si5 0.572490 0.352257 0.605174
Si Si6 0.535437 0.279837 0.299049
Si Si7 0.753389 0.837988 0.935488
Si Si8 0.036238 0.364356 0.881933
O O1 0.239589 0.597116 0.389280
O O2 0.000000 0.500000 0.500000
O O3 0.000107 0.333414 0.363545
O O4 0.170570 0.091858 0.528229
O O5 0.022259 0.089326 0.680133
O O6 0.099675 0.680535 0.837245
O O7 0.826860 0.939114 0.831328
O O8 0.101069 0.194742 0.826845
O O9 0.463123 0.429967 0.192811
O O10 0.337366 0.454166 0.039459
O O11 0.154671 0.623435 0.133553
O O12 0.376698 0.938719 0.061944
O O13 0.723182 0.229432 0.299159
O O14 0.500000 0.500000 0.500000
O O15 0.486710 0.501328 0.658742
O O16 0.550149 0.018269 0.647553
O O17 0.904264 0.792445 0.008031
#
# Coordination Sequence:
#
# PCOD8044723 Si02
#       8
#     2   2   2   2   2   2   2   2
#     4  11  27  45  73  97 136 184 234 288 342 407
#     4  10  21  35  64  95 133 173 221 277 345 393
#     4  10  20  35  61  96 127 173 215 277 335 394
#     4  11  27  45  65 101 141 182 228 287 347 406
#     4  12  26  47  73  96 134 187 233 280 348 408
#     4  12  27  45  68 100 142 180 232 283 343 414
#     4  10  19  38  65  97 135 172 226 281 338 406
#     4  10  20  37  64  99 133 174 224 284 335 407
#
# _framework density 25.291906999999998
#
# number of rings (size 3 to 8) (size 9 to 14) (size 15 to 20)
#    0.000    1.250    1.250    5.625    8.750    1.000 
#    0.000    0.000    0.000    8.250    0.000    0.000 
#    0.000    0.000    0.000    0.000    0.000    0.000 
#
# Total GULP energy -198256.048391 kJ/mol
# GULP energy per Si atom -12391.003024 kJ/mol
# Density = 2.523434 g / cm^3
# Si number density = 25.291907 Si / 1000 Ang^3
#
#
#
# Elastic Constant Matrix: (Units=GPa)
#
#
# Indices 1 2 3 4 5 6 
#
# 1 109.3127 17.2735 32.4008 4.2456 25.1285 -3.4316
# 2 17.2735 193.7853 22.3430 26.6098 21.6216 8.3443
# 3 32.4008 22.3430 64.3872 22.5809 20.6945 4.1684
# 4 4.2456 26.6098 22.5809 43.2859 3.1131 10.8455
# 5 25.1285 21.6216 20.6945 3.1131 42.2055 -1.1947
# 6 -3.4316 8.3443 4.1684 10.8455 -1.1947 20.6892
#
#
#
# Elastic Compliance Matrix: (Units=1/GPa)
#
#
# Indices 1 2 3 4 5 6 
#
# 1 0.011700 -0.000256 -0.005010 0.001428 -0.004426 0.002049
# 2 -0.000256 0.005965 0.000164 -0.003301 -0.002767 -0.000911
# 3 -0.005010 0.000164 0.024912 -0.011966 -0.008438 -0.000131
# 4 0.001428 -0.003301 -0.011966 0.034433 0.003776 -0.013853
# 5 -0.004426 -0.002767 -0.008438 0.003776 0.031659 0.001931
# 6 0.002049 -0.000911 -0.000131 -0.013853 0.001931 0.056441
#
#
# Mechanical properties :
#
#
# Convention : Reuss Voigt Hill
#
# Bulk Modulus (GPa) = 30.88846 56.83553 43.86199
# Shear Modulus (GPa) = 26.86674 40.93398 33.90036
#
# Velocity S-wave (km/s) = 3.26278 4.02738 3.66507
# Velocity P-wave (km/s) = 5.14136 6.64432 5.94056
#
# Compressibility (1/GPa) = 0.03237455
#
# Stress axis : x y z
#
# Youngs Moduli (GPa) = 85.47297 167.63517 40.14164
#
# Poissons Ratio (x) = 0.04288 0.20110
# Poissons Ratio (y) = 0.02186 -0.00660
# Poissons Ratio (z) = 0.42820 -0.02756
#
# Static dielectric constant tensor:
#      x y z
#    x 4.114630 0.200270 0.134450 
#    y 0.200270 5.834170 -0.088960 
#    z 0.134450 -0.088960 4.830380 
# 
# 
# High freq. dielectric constant tensor:
#      x y z
#    x 1.973890 0.004890 0.016230 
#    y 0.004890 2.051030 0.003220 
#    z 0.016230 0.003220 2.004320 
# 
# From -- ./inp_files/488170.got.cif
#   From: 2010.06.25/outbox.cif.g09.slc.cpg/sg2_245_cif.got.tgz:488170.got - 2010.06.27 13:26:56.
