data_PCOD8044008
_publ_section_title
;
Structure prediction by ZEFSAII (Michael W. Deem and Ramdas Pophale) SiO2 
 PCOD8044008
Probable space group: P -1
;
_chemical_formula_sum "Si O2"
_cell_formula_units_Z 12
_cell_length_a 12.901694
_cell_length_b 5.223513
_cell_length_c 13.176946
_cell_angle_alpha 65.745559
_cell_angle_beta 39.065746
_cell_angle_gamma 77.342063
_cell_volume 502.484749
_symmetry_space_group_name_H-M "P -1"
_symmetry_group_IT_number 2
_symmetry_cell_setting 'triclinic'
loop_
_space_group_symop_operation_xyz
x,y,z
-x,-y,-z
loop_
_atom_site_type_symbol
_atom_site_label
_atom_site_fract_x
_atom_site_fract_y
_atom_site_fract_z
Si Si1 0.828773 0.778371 0.357943
Si Si2 0.463962 0.727287 0.642933
Si Si3 0.724594 0.779128 0.781386
Si Si4 0.593064 0.261658 0.087263
Si Si5 0.851029 0.441849 0.200185
Si Si6 0.128754 0.740857 0.269119
O O1 0.637708 0.610253 0.545349
O O2 0.897010 0.661930 0.221417
O O3 0.940787 0.708289 0.377095
O O4 0.832144 0.115458 0.302560
O O5 0.392233 0.797063 0.795418
O O6 0.321024 0.502186 0.731780
O O7 0.500000 0.000000 0.500000
O O8 0.592336 0.877749 0.788044
O O9 0.838853 0.574962 0.672321
O O10 0.845940 0.055490 0.685901
O O11 0.622696 0.600913 0.981368
O O12 0.737926 0.126721 0.941679
O O13 0.000000 0.500000 0.000000
#
# Coordination Sequence:
#
# PCOD8044008 Si02
#       6
#     2   2   2   2   2   2
#     4  11  23  40  58  89 129 156 196 255 306 361
#     4  10  23  43  59  92 129 164 196 248 312 366
#     4   9  20  37  64  92 113 154 211 258 286 352
#     4   9  20  38  64  87 121 158 207 247 303 349
#     4  11  23  41  62  87 117 166 212 245 290 359
#     4  10  19  37  62  90 118 152 208 249 304 346
#
# _framework density 23.881319000000001
#
# number of rings (size 3 to 8) (size 9 to 14) (size 15 to 20)
#    1.000    1.000    0.000    3.500    2.333    1.333 
#    6.000    1.667    0.000    0.000    0.000    0.000 
#    0.000    0.000    0.000    0.000    0.000    0.000 
#
# Total GULP energy -148739.786431 kJ/mol
# GULP energy per Si atom -12394.982203 kJ/mol
# Density = 2.382696 g / cm^3
# Si number density = 23.881319 Si / 1000 Ang^3
#
#
#
# Elastic Constant Matrix: (Units=GPa)
#
#
# Indices 1 2 3 4 5 6 
#
# 1 143.2187 36.4103 22.6983 -10.7610 -33.4295 11.4021
# 2 36.4103 99.7936 9.8075 10.8269 -11.0947 20.0894
# 3 22.6983 9.8075 40.1611 -4.9456 -21.7335 -12.5580
# 4 -10.7610 10.8269 -4.9456 16.5973 -9.8581 -7.0195
# 5 -33.4295 -11.0947 -21.7335 -9.8581 55.9043 7.4702
# 6 11.4021 20.0894 -12.5580 -7.0195 7.4702 38.2645
#
#
#
# Elastic Compliance Matrix: (Units=1/GPa)
#
#
# Indices 1 2 3 4 5 6 
#
# 1 0.011686 -0.006223 0.003918 0.020176 0.010469 0.002728
# 2 -0.006223 0.021152 -0.018539 -0.038330 -0.010782 -0.020261
# 3 0.003918 -0.018539 0.062589 0.066010 0.029909 0.035377
# 4 0.020176 -0.038330 0.066010 0.173777 0.053109 0.057286
# 5 0.010469 -0.010782 0.029909 0.053109 0.041120 0.014072
# 6 0.002728 -0.020261 0.035377 0.057286 0.014072 0.055331
#
#
# Mechanical properties :
#
#
# Convention : Reuss Voigt Hill
#
# Bulk Modulus (GPa) = 18.60842 46.77840 32.69341
# Shear Modulus (GPa) = 11.75765 36.43705 24.09735
#
# Velocity S-wave (km/s) = 2.22127 3.91033 3.17999
# Velocity P-wave (km/s) = 3.79311 6.32597 5.21563
#
# Compressibility (1/GPa) = 0.05373912
#
# Stress axis : x y z
#
# Youngs Moduli (GPa) = 85.57379 47.27742 15.97730
#
# Poissons Ratio (x) = 0.29420 -0.06260
# Poissons Ratio (y) = 0.53252 0.29620
# Poissons Ratio (z) = -0.33529 0.87647
#
# Static dielectric constant tensor:
#      x y z
#    x 4.458550 -0.026980 -0.472270 
#    y -0.026980 4.043700 0.203620 
#    z -0.472270 0.203620 4.338910 
# 
# 
# High freq. dielectric constant tensor:
#      x y z
#    x 1.956220 0.004430 -0.017080 
#    y 0.004430 1.919440 0.014220 
#    z -0.017080 0.014220 1.945480 
# 
# From -- ./inp_files/40649.got.cif
#   From: 2010.06.25/outbox.cif.g09.slc.cpg/sg2_21_cif.got.tgz:40649.got - 2010.06.27 13:26:56.
