data_PCOD8044693
_publ_section_title
;
Structure prediction by ZEFSAII (Michael W. Deem and Ramdas Pophale) SiO2 
 PCOD8044693
Probable space group: P -1
;
_chemical_formula_sum "Si O2"
_cell_formula_units_Z 16
_cell_length_a 5.195519
_cell_length_b 15.925371
_cell_length_c 16.571899
_cell_angle_alpha 41.290298
_cell_angle_beta 92.846389
_cell_angle_gamma 75.639037
_cell_volume 814.594512
_symmetry_space_group_name_H-M "P -1"
_symmetry_group_IT_number 2
_symmetry_cell_setting 'triclinic'
loop_
_space_group_symop_operation_xyz
x,y,z
-x,-y,-z
loop_
_atom_site_type_symbol
_atom_site_label
_atom_site_fract_x
_atom_site_fract_y
_atom_site_fract_z
Si Si1 0.204707 0.617605 0.937542
Si Si2 0.172784 0.347819 0.743588
Si Si3 0.976457 0.474901 0.150781
Si Si4 0.008868 0.874496 0.845134
Si Si5 0.889451 0.654947 0.584049
Si Si6 0.343485 0.658978 0.352393
Si Si7 0.396274 0.241439 0.995543
Si Si8 0.239645 0.801537 0.413452
O O1 0.163444 0.775993 0.840268
O O2 0.005314 0.624088 0.853668
O O3 0.500000 0.500000 0.000000
O O4 0.146908 0.563587 0.061850
O O5 0.426319 0.299487 0.717340
O O6 0.066939 0.513140 0.639412
O O7 0.910470 0.320004 0.727998
O O8 0.290121 0.256156 0.891676
O O9 0.125102 0.373696 0.300742
O O10 0.670681 0.602723 0.080260
O O11 0.261035 0.849563 0.931438
O O12 0.755686 0.841040 0.899812
O O13 0.869964 0.032755 0.696972
O O14 0.569258 0.725035 0.497186
O O15 0.048544 0.754682 0.502634
O O16 0.500000 0.500000 0.500000
O O17 0.203181 0.765428 0.346836
#
# Coordination Sequence:
#
# PCOD8044693 Si02
#       8
#     2   2   2   2   2   2   2   2
#     4  10  19  38  65  89 114 149 197 243 292 341
#     4  11  21  37  64  91 112 148 206 256 284 327
#     4   9  21  35  63  94 113 147 197 250 287 338
#     4  11  23  41  59  86 123 158 192 231 301 359
#     4  11  22  39  60  89 121 152 197 241 291 340
#     4  12  21  38  59  88 119 154 203 239 288 343
#     4  10  21  39  62  88 118 151 195 250 292 337
#     4  12  25  39  59  85 123 164 190 234 295 359
#
# _framework density 19.641674999999999
#
# number of rings (size 3 to 8) (size 9 to 14) (size 15 to 20)
#    0.000    1.250    3.750    2.625    1.750    2.000 
#    0.000    5.000    0.000    0.000    0.000    0.000 
#    0.000    0.000    0.000    0.000    0.000    0.000 
#
# Total GULP energy -198357.023543 kJ/mol
# GULP energy per Si atom -12397.313971 kJ/mol
# Density = 1.959697 g / cm^3
# Si number density = 19.641675 Si / 1000 Ang^3
#
#
#
# Elastic Constant Matrix: (Units=GPa)
#
#
# Indices 1 2 3 4 5 6 
#
# 1 94.5775 12.4600 22.8923 -4.1072 7.9451 1.2723
# 2 12.4600 92.9429 47.2567 0.0248 -7.8375 -0.5769
# 3 22.8923 47.2567 90.1213 -5.5979 3.0265 1.4156
# 4 -4.1072 0.0248 -5.5979 74.8655 -22.5327 34.2364
# 5 7.9451 -7.8375 3.0265 -22.5327 34.0390 -19.1704
# 6 1.2723 -0.5769 1.4156 34.2364 -19.1704 57.4712
#
#
#
# Elastic Compliance Matrix: (Units=1/GPa)
#
#
# Indices 1 2 3 4 5 6 
#
# 1 0.011553 -0.000565 -0.002502 0.000063 -0.003320 -0.001345
# 2 -0.000565 0.015509 -0.008214 0.000043 0.005733 0.002257
# 3 -0.002502 -0.008214 0.016250 0.001091 -0.003246 -0.002160
# 4 0.000063 0.000043 0.001091 0.020113 0.007940 -0.009361
# 5 -0.003320 0.005733 -0.003246 0.007940 0.042447 0.009640
# 6 -0.001345 0.002257 -0.002160 -0.009361 0.009640 0.026297
#
#
# Mechanical properties :
#
#
# Convention : Reuss Voigt Hill
#
# Bulk Modulus (GPa) = 48.19403 49.20664 48.70033
# Shear Modulus (GPa) = 30.93149 46.27732 38.60440
#
# Velocity S-wave (km/s) = 3.97267 4.85921 4.43813
# Velocity P-wave (km/s) = 6.75519 7.52257 7.14919
#
# Compressibility (1/GPa) = 0.02074946
#
# Stress axis : x y z
#
# Youngs Moduli (GPa) = 86.55709 64.47880 61.53973
#
# Poissons Ratio (x) = 0.03644 0.15396
# Poissons Ratio (y) = 0.04891 0.50550
# Poissons Ratio (z) = 0.21655 0.52964
#
# Static dielectric constant tensor:
#      x y z
#    x 3.735830 -0.093650 0.101740 
#    y -0.093650 2.277590 0.142200 
#    z 0.101740 0.142200 3.340530 
# 
# 
# High freq. dielectric constant tensor:
#      x y z
#    x 1.777380 0.000930 0.002020 
#    y 0.000930 1.761180 0.010080 
#    z 0.002020 0.010080 1.751610 
# 
# From -- ./inp_files/45777.got.cif
#   From: 2010.06.25/outbox.cif.g09.slc.cpg/sg2_23_cif.got.tgz:45777.got - 2010.06.27 13:26:56.
