data_PCOD8044963
_publ_section_title
;
Structure prediction by ZEFSAII (Michael W. Deem and Ramdas Pophale) SiO2 
 PCOD8044963
Probable space group: P 2
;
_chemical_formula_sum "Si O2"
_cell_formula_units_Z 16
_cell_length_a 20.428042
_cell_length_b 8.446179
_cell_length_c 5.102494
_cell_angle_alpha 90.000000
_cell_angle_beta 119.198215
_cell_angle_gamma 90.000000
_cell_volume 768.515383
_symmetry_space_group_name_H-M "P 2"
_symmetry_group_IT_number 3
_symmetry_cell_setting 'monoclinic'
loop_
_space_group_symop_operation_xyz
x,y,z
-x,y,-z
loop_
_atom_site_type_symbol
_atom_site_label
_atom_site_fract_x
_atom_site_fract_y
_atom_site_fract_z
Si Si1 0.584348 0.319140 0.623153
Si Si2 0.301744 0.582479 0.195589
Si Si3 0.911930 0.509566 0.856517
Si Si4 0.638013 0.155194 0.251186
Si Si5 0.684353 0.884601 0.040792
Si Si6 0.803153 0.780469 0.641549
Si Si7 0.835967 0.385675 0.217118
Si Si8 0.769326 0.087725 0.832122
O O1 0.500000 0.378030 0.500000
O O2 0.634900 0.458221 0.594298
O O3 0.583017 0.185918 0.390789
O O4 0.619295 0.266693 0.968377
O O5 0.260241 0.665047 0.357754
O O6 0.347812 0.718254 0.126060
O O7 0.238861 0.491542 0.901368
O O8 0.879601 0.685783 0.740240
O O9 0.877639 0.386498 0.578247
O O10 0.891754 0.455872 0.108549
O O11 0.000000 0.518030 0.000000
O O12 0.726500 0.180784 0.509288
O O13 0.631027 0.967872 0.154409
O O14 0.768499 0.841866 0.303302
O O15 0.697116 0.018841 0.846434
O O16 0.820590 0.938526 0.846193
O O17 0.817808 0.205451 0.103086
#
# Coordination Sequence:
#
# PCOD8044963 Si02
#       8
#     2   2   2   2   2   2   2   2
#     4  12  26  42  65  92 130 171 211 261 330 384
#     4  10  21  37  63  97 122 159 217 267 309 374
#     4  11  24  42  62  92 133 171 210 260 327 384
#     4  11  22  41  63  92 124 164 208 270 309 384
#     4  10  19  37  66  95 124 155 213 268 319 362
#     4   9  21  36  64  96 123 167 212 266 310 383
#     4  11  22  38  67  93 122 166 215 267 311 373
#     4  10  21  37  67  98 123 157 220 269 317 364
#
# _framework density 20.819361000000001
#
# number of rings (size 3 to 8) (size 9 to 14) (size 15 to 20)
#    0.000    1.500    3.750    0.750    7.000    0.000 
#    0.000    1.250    8.250    0.000    0.000    0.000 
#    0.000    0.000    0.000    0.000    0.000    0.000 
#
# Total GULP energy -198277.779553 kJ/mol
# GULP energy per Si atom -12392.361222 kJ/mol
# Density = 2.077198 g / cm^3
# Si number density = 20.819361 Si / 1000 Ang^3
#
#
#
# Elastic Constant Matrix: (Units=GPa)
#
#
# Indices 1 2 3 4 5 6 
#
# 1 85.0653 41.2257 27.0688 0.0000 12.0061 0.0000
# 2 41.2257 106.6063 36.7914 0.0000 11.0262 0.0000
# 3 27.0688 36.7914 83.0419 0.0000 -2.4471 0.0000
# 4 0.0000 0.0000 0.0000 23.0585 0.0000 -1.9906
# 5 12.0061 11.0262 -2.4471 0.0000 33.0812 0.0000
# 6 0.0000 0.0000 0.0000 -1.9906 0.0000 24.4626
#
#
#
# Elastic Compliance Matrix: (Units=1/GPa)
#
#
# Indices 1 2 3 4 5 6 
#
# 1 0.015561 -0.004447 -0.003232 0.000000 -0.004404 0.000000
# 2 -0.004447 0.012917 -0.004362 0.000000 -0.003014 0.000000
# 3 -0.003232 -0.004362 0.015139 0.000000 0.003747 0.000000
# 4 0.000000 0.000000 0.000000 0.043675 0.000000 0.003554
# 5 -0.004404 -0.003014 0.003747 0.000000 0.033109 0.000000
# 6 0.000000 0.000000 0.000000 0.003554 0.000000 0.041168
#
#
# Mechanical properties :
#
#
# Convention : Reuss Voigt Hill
#
# Bulk Modulus (GPa) = 51.19044 53.87613 52.53328
# Shear Modulus (GPa) = 26.01977 27.42895 26.72436
#
# Velocity S-wave (km/s) = 3.53907 3.63364 3.58667
# Velocity P-wave (km/s) = 6.42972 6.59837 6.51459
#
# Compressibility (1/GPa) = 0.01953490
#
# Stress axis : x y z
#
# Youngs Moduli (GPa) = 64.26428 77.41695 66.05566
#
# Poissons Ratio (x) = 0.34424 0.21349
# Poissons Ratio (y) = 0.28575 0.28815
# Poissons Ratio (z) = 0.20770 0.33771
#
# Static dielectric constant tensor:
#      x y z
#    x 3.569720 0.000000 -0.304430 
#    y 0.000000 3.965360 0.000000 
#    z -0.304430 0.000000 3.712970 
# 
# 
# High freq. dielectric constant tensor:
#      x y z
#    x 1.784660 0.000000 -0.033980 
#    y 0.000000 1.822120 0.000000 
#    z -0.033980 0.000000 1.807540 
# 
# From -- ./inp_files/3941.got.cif
#   From: 2010.03.12/outbox.cif.g09.slc.cpg/sg3_2_cif.got.tgz:3941.got - 2010.03.31 09:20:49.
