data_PCOD8044021
_publ_section_title
;
Structure prediction by ZEFSAII (Michael W. Deem and Ramdas Pophale) SiO2 
 PCOD8044021
Probable space group: P -1
;
_chemical_formula_sum "Si O2"
_cell_formula_units_Z 16
_cell_length_a 10.994468
_cell_length_b 9.892906
_cell_length_c 7.917599
_cell_angle_alpha 90.569285
_cell_angle_beta 57.000594
_cell_angle_gamma 82.971032
_cell_volume 713.778812
_symmetry_space_group_name_H-M "P -1"
_symmetry_group_IT_number 2
_symmetry_cell_setting 'triclinic'
loop_
_space_group_symop_operation_xyz
x,y,z
-x,-y,-z
loop_
_atom_site_type_symbol
_atom_site_label
_atom_site_fract_x
_atom_site_fract_y
_atom_site_fract_z
Si Si1 0.869112 0.892011 0.268606
Si Si2 0.671835 0.980078 0.723367
Si Si3 0.790409 0.634907 0.187641
Si Si4 0.268785 0.557660 0.503313
Si Si5 0.860039 0.976425 0.910153
Si Si6 0.345931 0.314226 0.210051
Si Si7 0.950517 0.677981 0.745400
Si Si8 0.498942 0.738233 0.235339
O O1 0.855620 0.730039 0.279456
O O2 0.041411 0.902971 0.156231
O O3 0.794833 0.972139 0.486650
O O4 0.798937 0.959443 0.146624
O O5 0.734262 0.007106 0.863578
O O6 0.544664 0.103257 0.776835
O O7 0.599877 0.840738 0.770102
O O8 0.757428 0.491134 0.286515
O O9 0.638041 0.726928 0.251083
O O10 0.903263 0.599424 0.946797
O O11 0.360961 0.428060 0.338539
O O12 0.365008 0.679226 0.425507
O O13 0.106975 0.609399 0.550347
O O14 0.963135 0.833491 0.786844
O O15 0.172966 0.324510 0.301619
O O16 0.446419 0.345432 0.976901
#
# Coordination Sequence:
#
# PCOD8044021 Si02
#       8
#     2   2   2   2   2   2   2   2
#     4  10  19  37  62  93 127 162 208 256 316 369
#     4  11  21  41  65  91 125 169 207 254 323 368
#     4  10  22  41  60  90 127 165 203 262 307 372
#     4  12  21  40  63  92 119 166 212 251 313 375
#     4   9  20  37  62  96 134 154 202 272 314 364
#     4  10  22  41  62  90 125 160 206 260 311 371
#     4   9  20  38  64  90 123 159 206 258 314 371
#     4  11  25  41  62  88 130 166 207 255 312 373
#
# _framework density 22.415908999999999
#
# number of rings (size 3 to 8) (size 9 to 14) (size 15 to 20)
#    0.000    1.750    1.250    3.750    0.000    1.500 
#    4.500    0.000    8.250    0.000    0.000    0.000 
#    0.000    0.000    0.000    0.000    0.000    0.000 
#
# Total GULP energy -198345.747171 kJ/mol
# GULP energy per Si atom -12396.609198 kJ/mol
# Density = 2.236489 g / cm^3
# Si number density = 22.415909 Si / 1000 Ang^3
#
#
#
# Elastic Constant Matrix: (Units=GPa)
#
#
# Indices 1 2 3 4 5 6 
#
# 1 29.2559 19.2135 12.8281 -6.9137 2.1606 -0.2581
# 2 19.2135 95.5529 18.6766 -12.2453 -5.9411 -2.9240
# 3 12.8281 18.6766 80.8762 -11.3683 -7.3945 5.8470
# 4 -6.9137 -12.2453 -11.3683 27.8180 2.7964 -0.4521
# 5 2.1606 -5.9411 -7.3945 2.7964 35.1954 -0.8467
# 6 -0.2581 -2.9240 5.8470 -0.4521 -0.8467 26.3801
#
#
#
# Elastic Compliance Matrix: (Units=1/GPa)
#
#
# Indices 1 2 3 4 5 6 
#
# 1 0.042859 -0.007213 -0.004813 0.006055 -0.005326 0.000619
# 2 -0.007213 0.012753 -0.001297 0.003106 0.002118 0.001752
# 3 -0.004813 -0.001297 0.014447 0.003810 0.002731 -0.003240
# 4 0.006055 0.003106 0.003810 0.040608 -0.002269 0.000182
# 5 -0.005326 0.002118 0.002731 -0.002269 0.029863 0.000497
# 6 0.000619 0.001752 -0.003240 0.000182 0.000497 0.038845
#
#
# Mechanical properties :
#
#
# Convention : Reuss Voigt Hill
#
# Bulk Modulus (GPa) = 23.03530 34.12460 28.57995
# Shear Modulus (GPa) = 22.67657 28.20983 25.44320
#
# Velocity S-wave (km/s) = 3.18406 3.55135 3.37271
# Velocity P-wave (km/s) = 4.88019 5.66326 5.28625
#
# Compressibility (1/GPa) = 0.04341163
#
# Stress axis : x y z
#
# Youngs Moduli (GPa) = 23.33254 78.41422 69.21869
#
# Poissons Ratio (x) = 0.56563 0.33313
# Poissons Ratio (y) = 0.16831 0.08979
# Poissons Ratio (z) = 0.11229 0.10172
#
# Static dielectric constant tensor:
#      x y z
#    x 3.748120 0.002440 0.091270 
#    y 0.002440 4.002750 -0.193830 
#    z 0.091270 -0.193830 4.134860 
# 
# 
# High freq. dielectric constant tensor:
#      x y z
#    x 1.861290 0.002070 0.001010 
#    y 0.002070 1.876020 -0.016540 
#    z 0.001010 -0.016540 1.889900 
# 
# From -- ./inp_files/243317.got.cif
#   From: 2010.06.25/outbox.cif.g09.slc.cpg/sg2_122_cif.got.tgz:243317.got - 2010.06.27 13:26:56.
