data_PCOD8044695
_publ_section_title
;
Structure prediction by ZEFSAII (Michael W. Deem and Ramdas Pophale) SiO2 
 PCOD8044695
Probable space group: P -1
;
_chemical_formula_sum "Si O2"
_cell_formula_units_Z 16
_cell_length_a 10.618622
_cell_length_b 6.921841
_cell_length_c 17.069019
_cell_angle_alpha 58.911730
_cell_angle_beta 132.445249
_cell_angle_gamma 97.304176
_cell_volume 742.590852
_symmetry_space_group_name_H-M "P -1"
_symmetry_group_IT_number 2
_symmetry_cell_setting 'triclinic'
loop_
_space_group_symop_operation_xyz
x,y,z
-x,-y,-z
loop_
_atom_site_type_symbol
_atom_site_label
_atom_site_fract_x
_atom_site_fract_y
_atom_site_fract_z
Si Si1 0.420266 0.450318 0.699644
Si Si2 0.130203 0.166032 0.195273
Si Si3 0.361277 0.373917 0.992863
Si Si4 0.959183 0.221944 0.276365
Si Si5 0.755076 0.454965 0.921657
Si Si6 0.273224 0.994375 0.564690
Si Si7 0.694514 0.963773 0.247576
Si Si8 0.538943 0.266874 0.616048
O O1 0.588997 0.370056 0.847224
O O2 0.275091 0.319526 0.689381
O O3 0.503272 0.348871 0.672595
O O4 0.316648 0.735652 0.596000
O O5 0.226783 0.358022 0.174804
O O6 0.101187 0.176953 0.274205
O O7 0.251979 0.900319 0.274326
O O8 0.941122 0.227296 0.055271
O O9 0.180249 0.496623 0.837188
O O10 0.500000 0.500000 0.000000
O O11 0.288974 0.411767 0.042471
O O12 0.486618 0.092198 0.099209
O O13 0.069666 0.159428 0.417311
O O14 0.843500 0.044920 0.247632
O O15 0.288035 0.960943 0.670939
O O16 0.412205 0.118782 0.566066
O O17 0.500000 0.500000 0.500000
#
# Coordination Sequence:
#
# PCOD8044695 Si02
#       8
#     2   2   2   2   2   2   2   2
#     4  11  22  38  68  86 119 169 205 250 309 361
#     4  10  21  39  61  89 126 156 208 250 300 372
#     4   9  18  39  64  88 122 158 203 254 303 359
#     4  10  22  37  65  91 124 166 198 256 315 354
#     4  10  19  38  65  89 119 165 199 250 312 358
#     4  11  22  41  65  88 124 165 202 255 312 361
#     4  10  21  41  64  92 120 160 213 251 300 375
#     4  11  24  39  59  91 125 159 208 250 301 374
#
# _framework density 21.546184
#
# number of rings (size 3 to 8) (size 9 to 14) (size 15 to 20)
#    0.000    1.750    2.500    1.875    1.750    2.000 
#    2.250    6.875    0.000    0.000    0.000    0.000 
#    0.000    0.000    0.000    0.000    0.000    0.000 
#
# Total GULP energy -198293.847109 kJ/mol
# GULP energy per Si atom -12393.365444 kJ/mol
# Density = 2.149714 g / cm^3
# Si number density = 21.546184 Si / 1000 Ang^3
#
#
#
# Elastic Constant Matrix: (Units=GPa)
#
#
# Indices 1 2 3 4 5 6 
#
# 1 79.5019 5.2340 16.6379 -15.0564 -2.1328 10.2164
# 2 5.2340 65.0349 35.5064 -16.3846 5.3648 9.0986
# 3 16.6379 35.5064 141.4281 -5.8823 15.5424 4.2601
# 4 -15.0564 -16.3846 -5.8823 27.5774 6.3482 1.3185
# 5 -2.1328 5.3648 15.5424 6.3482 33.1357 -3.5695
# 6 10.2164 9.0986 4.2601 1.3185 -3.5695 23.1247
#
#
#
# Elastic Compliance Matrix: (Units=1/GPa)
#
#
# Indices 1 2 3 4 5 6 
#
# 1 0.016097 0.004224 -0.001961 0.011789 -0.001998 -0.009393
# 2 0.004224 0.024429 -0.004831 0.017813 -0.006182 -0.012558
# 3 -0.001961 -0.004831 0.008776 -0.001388 -0.003114 0.000749
# 4 0.011789 0.017813 -0.001388 0.057108 -0.014292 -0.017424
# 5 -0.001998 -0.006182 -0.003114 -0.014292 0.036361 0.010317
# 6 -0.009393 -0.012558 0.000749 -0.017424 0.010317 0.054783
#
#
# Mechanical properties :
#
#
# Convention : Reuss Voigt Hill
#
# Bulk Modulus (GPa) = 22.64233 44.52460 33.58347
# Shear Modulus (GPa) = 22.99778 32.00667 27.50222
#
# Velocity S-wave (km/s) = 3.27061 3.85839 3.57659
# Velocity P-wave (km/s) = 4.97936 6.36861 5.71635
#
# Compressibility (1/GPa) = 0.04416506
#
# Stress axis : x y z
#
# Youngs Moduli (GPa) = 62.12442 40.93526 113.94318
#
# Poissons Ratio (x) = -0.17292 0.22348
# Poissons Ratio (y) = -0.26243 0.55050
# Poissons Ratio (z) = 0.12185 0.19777
#
# Static dielectric constant tensor:
#      x y z
#    x 4.180010 0.191530 -0.024620 
#    y 0.191530 3.502140 -0.177670 
#    z -0.024620 -0.177670 4.468490 
# 
# 
# High freq. dielectric constant tensor:
#      x y z
#    x 1.857710 0.008100 -0.003700 
#    y 0.008100 1.804460 -0.006730 
#    z -0.003700 -0.006730 1.866550 
# 
# From -- ./inp_files/118819.got.cif
#   From: 2010.06.25/outbox.cif.g09.slc.cpg/sg2_60_cif.got.tgz:118819.got - 2010.06.27 13:26:56.
