data_PCOD8044260
_publ_section_title
;
Structure prediction by ZEFSAII (Michael W. Deem and Ramdas Pophale) SiO2 
 PCOD8044260
Probable space group: P -1
;
_chemical_formula_sum "Si O2"
_cell_formula_units_Z 12
_cell_length_a 7.344857
_cell_length_b 9.768901
_cell_length_c 17.647890
_cell_angle_alpha 48.566032
_cell_angle_beta 45.172260
_cell_angle_gamma 42.741007
_cell_volume 581.590741
_symmetry_space_group_name_H-M "P -1"
_symmetry_group_IT_number 2
_symmetry_cell_setting 'triclinic'
loop_
_space_group_symop_operation_xyz
x,y,z
-x,-y,-z
loop_
_atom_site_type_symbol
_atom_site_label
_atom_site_fract_x
_atom_site_fract_y
_atom_site_fract_z
Si Si1 0.335659 0.510750 0.858770
Si Si2 0.519881 0.239054 0.760836
Si Si3 0.646580 0.756128 0.635522
Si Si4 0.767598 0.529830 0.388101
Si Si5 0.147467 0.214867 0.599168
Si Si6 0.332283 0.157703 0.058970
O O1 0.320906 0.387809 0.833381
O O2 0.578918 0.576023 0.749484
O O3 0.023325 0.718476 0.892139
O O4 0.427221 0.339401 0.964378
O O5 0.315853 0.332548 0.712923
O O6 0.831823 0.236045 0.664879
O O7 0.583783 0.996973 0.836301
O O8 0.715736 0.737027 0.532423
O O9 0.938269 0.705362 0.618985
O O10 0.373065 0.984203 0.650688
O O11 0.500000 0.500000 0.500000
O O12 0.872379 0.626450 0.388832
O O13 0.500000 0.000000 0.000000
#
# Coordination Sequence:
#
# PCOD8044260 Si02
#       6
#     2   2   2   2   2   2
#     4  10  19  37  67  87 119 162 204 246 301 361
#     4  11  21  39  64  91 123 159 202 249 302 355
#     4  11  22  39  61  91 125 164 200 246 302 358
#     4  12  24  38  60  93 127 162 199 246 302 361
#     4  11  23  40  61  90 127 161 200 249 297 363
#     4   9  20  37  64  93 114 159 207 248 304 358
#
# _framework density 20.633064000000001
#
# number of rings (size 3 to 8) (size 9 to 14) (size 15 to 20)
#    0.000    1.333    5.000    1.500    0.000    2.000 
#    0.000    0.833    0.000    6.000    0.000    0.000 
#    0.000    0.000    0.000    0.000    0.000    0.000 
#
# Total GULP energy -148659.395083 kJ/mol
# GULP energy per Si atom -12388.282924 kJ/mol
# Density = 2.058610 g / cm^3
# Si number density = 20.633064 Si / 1000 Ang^3
#
#
#
# Elastic Constant Matrix: (Units=GPa)
#
#
# Indices 1 2 3 4 5 6 
#
# 1 65.9120 32.5934 23.1485 -16.4690 1.1325 -26.6593
# 2 32.5934 110.4412 31.6090 -1.9439 -0.9225 -29.6538
# 3 23.1485 31.6090 123.4161 -21.7324 -8.6591 -11.3942
# 4 -16.4690 -1.9439 -21.7324 41.1939 -6.8923 4.3030
# 5 1.1325 -0.9225 -8.6591 -6.8923 21.0015 -2.6391
# 6 -26.6593 -29.6538 -11.3942 4.3030 -2.6391 30.5833
#
#
#
# Elastic Compliance Matrix: (Units=1/GPa)
#
#
# Indices 1 2 3 4 5 6 
#
# 1 0.026688 -0.002072 -0.000871 0.008598 0.003448 0.020018
# 2 -0.002072 0.013106 -0.002453 -0.002564 0.000136 0.010360
# 3 -0.000871 -0.002453 0.010442 0.006050 0.006286 0.000443
# 4 0.008598 -0.002564 0.006050 0.032576 0.013088 0.003810
# 5 0.003448 0.000136 0.006286 0.013088 0.055380 0.008417
# 6 0.020018 0.010360 0.000443 0.003810 0.008417 0.060548
#
#
# Mechanical properties :
#
#
# Convention : Reuss Voigt Hill
#
# Bulk Modulus (GPa) = 25.35277 52.71900 39.03588
# Shear Modulus (GPa) = 22.45374 32.71695 27.58534
#
# Velocity S-wave (km/s) = 3.30243 3.98635 3.66040
# Velocity P-wave (km/s) = 5.18223 6.84063 6.06835
#
# Compressibility (1/GPa) = 0.03944343
#
# Stress axis : x y z
#
# Youngs Moduli (GPa) = 37.46992 76.30130 95.77000
#
# Poissons Ratio (x) = 0.15808 0.08341
# Poissons Ratio (y) = 0.07763 0.23496
# Poissons Ratio (z) = 0.03263 0.18720
#
# Static dielectric constant tensor:
#      x y z
#    x 3.495660 -0.408460 0.150240 
#    y -0.408460 4.322730 -0.261350 
#    z 0.150240 -0.261350 4.336140 
# 
# 
# High freq. dielectric constant tensor:
#      x y z
#    x 1.752900 -0.028990 0.001770 
#    y -0.028990 1.832050 -0.006120 
#    z 0.001770 -0.006120 1.834110 
# 
# From -- ./inp_files/29914.got.cif
#   From: 2010.06.25/outbox.cif.g09.slc.cpg/sg2_15_cif.got.tgz:29914.got - 2010.06.27 13:26:56.
