data_PCOD8044167
_publ_section_title
;
Structure prediction by ZEFSAII (Michael W. Deem and Ramdas Pophale) SiO2 
 PCOD8044167
Probable space group: P -1
;
_chemical_formula_sum "Si O2"
_cell_formula_units_Z 16
_cell_length_a 8.936545
_cell_length_b 11.864134
_cell_length_c 13.404136
_cell_angle_alpha 131.789001
_cell_angle_beta 57.951542
_cell_angle_gamma 129.443090
_cell_volume 803.976489
_symmetry_space_group_name_H-M "P -1"
_symmetry_group_IT_number 2
_symmetry_cell_setting 'triclinic'
loop_
_space_group_symop_operation_xyz
x,y,z
-x,-y,-z
loop_
_atom_site_type_symbol
_atom_site_label
_atom_site_fract_x
_atom_site_fract_y
_atom_site_fract_z
Si Si1 0.805660 0.246201 0.331531
Si Si2 0.783913 0.913689 0.072719
Si Si3 0.620092 0.324544 0.626793
Si Si4 0.429220 0.338711 0.172007
Si Si5 0.016976 0.425227 0.656521
Si Si6 0.900458 0.785086 0.641843
Si Si7 0.872388 0.551311 0.147288
Si Si8 0.202557 0.159225 0.754865
O O1 0.650951 0.275009 0.474015
O O2 0.875173 0.377482 0.293396
O O3 0.999856 0.280678 0.346915
O O4 0.712216 0.056887 0.208340
O O5 0.791419 0.816953 0.113702
O O6 0.628708 0.778642 0.974184
O O7 0.000000 0.000000 0.000000
O O8 0.612097 0.501570 0.737514
O O9 0.792636 0.332738 0.642927
O O10 0.413934 0.178998 0.653851
O O11 0.305675 0.234383 0.250557
O O12 0.657731 0.395315 0.146663
O O13 0.139406 0.333475 0.510270
O O14 0.014197 0.399498 0.759646
O O15 0.038234 0.975621 0.673826
O O16 0.855837 0.709270 0.199380
O O17 0.000000 0.500000 0.000000
#
# Coordination Sequence:
#
# PCOD8044167 Si02
#       8
#     2   2   2   2   2   2   2   2
#     4  10  19  37  65 102 121 150 214 262 298 356
#     4  11  21  36  69  95 124 158 205 259 311 357
#     4  10  20  39  69  94 121 157 212 261 303 353
#     4  11  21  42  65  92 118 166 211 248 309 368
#     4  11  21  39  66  90 127 166 202 251 306 371
#     4  10  19  39  70  92 120 155 216 260 297 356
#     4  11  29  42  56  89 135 166 200 250 315 375
#     4  10  24  41  62  95 126 156 205 262 307 368
#
# _framework density 19.901078999999999
#
# number of rings (size 3 to 8) (size 9 to 14) (size 15 to 20)
#    0.000    1.500    5.000    0.750    5.250    6.500 
#    0.000    2.500    0.000    0.000    0.000    0.000 
#    0.000    0.000    0.000    0.000    0.000    0.000 
#
# Total GULP energy -198437.714279 kJ/mol
# GULP energy per Si atom -12402.357142 kJ/mol
# Density = 1.985578 g / cm^3
# Si number density = 19.901079 Si / 1000 Ang^3
#
#
#
# Elastic Constant Matrix: (Units=GPa)
#
#
# Indices 1 2 3 4 5 6 
#
# 1 74.8262 48.4954 47.6581 -8.0434 -6.6147 -0.3420
# 2 48.4954 131.9952 53.5638 -11.9392 -3.4987 4.2759
# 3 47.6581 53.5638 155.2557 0.1694 -0.2730 -2.8068
# 4 -8.0434 -11.9392 0.1694 39.9835 4.9470 -0.0974
# 5 -6.6147 -3.4987 -0.2730 4.9470 23.5815 -9.5451
# 6 -0.3420 4.2759 -2.8068 -0.0974 -9.5451 31.8227
#
#
#
# Elastic Compliance Matrix: (Units=1/GPa)
#
#
# Indices 1 2 3 4 5 6 
#
# 1 0.020342 -0.005493 -0.004302 0.001814 0.005346 0.002186
# 2 -0.005493 0.010653 -0.002031 0.002238 -0.001282 -0.002047
# 3 -0.004302 -0.002031 0.008475 -0.001404 -0.000823 0.000723
# 4 0.001814 0.002238 -0.001404 0.026737 -0.005594 -0.002001
# 5 0.005346 -0.001282 -0.000823 -0.005594 0.051146 0.015481
# 6 0.002186 -0.002047 0.000723 -0.002001 0.015481 0.036424
#
#
# Mechanical properties :
#
#
# Convention : Reuss Voigt Hill
#
# Bulk Modulus (GPa) = 63.21764 73.50130 68.35947
# Shear Modulus (GPa) = 27.36695 33.23485 30.30090
#
# Velocity S-wave (km/s) = 3.71232 4.09100 3.90625
# Velocity P-wave (km/s) = 7.08590 7.70250 7.40063
#
# Compressibility (1/GPa) = 0.01581837
#
# Stress axis : x y z
#
# Youngs Moduli (GPa) = 49.15933 93.86950 117.98748
#
# Poissons Ratio (x) = 0.51561 0.50762
# Poissons Ratio (y) = 0.27003 0.23962
# Poissons Ratio (z) = 0.21150 0.19064
#
# Static dielectric constant tensor:
#      x y z
#    x 1.038780 2.074070 2.195740 
#    y 2.074070 2.155970 -2.007910 
#    z 2.195740 -2.007910 1.670480 
# 
# 
# High freq. dielectric constant tensor:
#      x y z
#    x 1.744090 0.005060 -0.007670 
#    y 0.005060 1.785980 -0.004360 
#    z -0.007670 -0.004360 1.790400 
# 
# From -- ./inp_files/187681.got.cif
#   From: 2010.06.25/outbox.cif.g09.slc.cpg/sg2_94_cif.got.tgz:187681.got - 2010.06.27 13:26:56.
