data_PCOD8044805
_publ_section_title
;
Structure prediction by ZEFSAII (Michael W. Deem and Ramdas Pophale) SiO2 
 PCOD8044805
Probable space group: P -1
;
_chemical_formula_sum "Si O2"
_cell_formula_units_Z 16
_cell_length_a 5.164799
_cell_length_b 15.067841
_cell_length_c 8.418895
_cell_angle_alpha 75.419858
_cell_angle_beta 102.950378
_cell_angle_gamma 78.772162
_cell_volume 595.644807
_symmetry_space_group_name_H-M "P -1"
_symmetry_group_IT_number 2
_symmetry_cell_setting 'triclinic'
loop_
_space_group_symop_operation_xyz
x,y,z
-x,-y,-z
loop_
_atom_site_type_symbol
_atom_site_label
_atom_site_fract_x
_atom_site_fract_y
_atom_site_fract_z
Si Si1 0.871726 0.868280 0.575968
Si Si2 0.237533 0.886977 0.023100
Si Si3 0.138498 0.960551 0.298202
Si Si4 0.010004 0.742002 0.207129
Si Si5 0.388787 0.740782 0.872705
Si Si6 0.216791 0.585150 0.074401
Si Si7 0.409379 0.254025 0.584873
Si Si8 0.232466 0.389092 0.243958
O O1 0.605931 0.833833 0.498957
O O2 0.036035 0.892572 0.435043
O O3 0.081368 0.784425 0.739992
O O4 0.749781 0.961090 0.627929
O O5 0.349181 0.900943 0.214475
O O6 0.004036 0.828568 0.043536
O O7 0.463762 0.820495 0.962873
O O8 0.119969 0.987024 0.873911
O O9 0.017080 0.645353 0.155464
O O10 0.284491 0.733556 0.356428
O O11 0.735644 0.762642 0.264501
O O12 0.597390 0.708817 0.772463
O O13 0.427608 0.646158 0.029523
O O14 0.366459 0.479257 0.207796
O O15 0.066051 0.574699 0.892159
O O16 0.225953 0.354424 0.440027
#
# Coordination Sequence:
#
# PCOD8044805 Si02
#       8
#     2   2   2   2   2   2   2   2
#     4  10  19  38  67  99 138 179 231 277 348 405
#     4   9  19  38  67  98 136 178 224 279 348 403
#     4   9  18  36  69  98 139 174 230 285 338 413
#     4  11  26  45  71 101 143 185 228 284 351 414
#     4  10  20  40  67  99 132 179 226 282 341 411
#     4  10  24  44  66 103 131 184 227 286 343 410
#     4  12  25  45  70 101 139 187 230 283 347 416
#     4  11  24  42  72  96 139 175 236 284 340 414
#
# _framework density 26.861643999999998
#
# number of rings (size 3 to 8) (size 9 to 14) (size 15 to 20)
#    0.000    1.750    2.500    1.125    3.500    1.000 
#    0.000    1.250    0.000    0.000    0.000    0.000 
#    0.000    0.000    0.000    0.000    0.000    0.000 
#
# Total GULP energy -198209.460379 kJ/mol
# GULP energy per Si atom -12388.091274 kJ/mol
# Density = 2.680051 g / cm^3
# Si number density = 26.861644 Si / 1000 Ang^3
#
#
#
# Elastic Constant Matrix: (Units=GPa)
#
#
# Indices 1 2 3 4 5 6 
#
# 1 44.8523 15.5505 3.8474 3.8441 -5.2652 -0.7373
# 2 15.5505 125.3775 48.0079 -1.0160 -12.2879 -5.4523
# 3 3.8474 48.0079 119.1162 -1.0726 -6.0686 15.9254
# 4 3.8441 -1.0160 -1.0726 35.5212 6.2810 -9.6289
# 5 -5.2652 -12.2879 -6.0686 6.2810 39.5935 14.8540
# 6 -0.7373 -5.4523 15.9254 -9.6289 14.8540 35.1716
#
#
#
# Elastic Compliance Matrix: (Units=1/GPa)
#
#
# Indices 1 2 3 4 5 6 
#
# 1 0.024150 -0.003205 0.001184 -0.004442 0.004464 -0.003628
# 2 -0.003205 0.010328 -0.004534 0.001463 0.000424 0.003808
# 3 0.001184 -0.004534 0.011496 -0.002929 0.004142 -0.008435
# 4 -0.004442 0.001463 -0.002929 0.035165 -0.012268 0.016268
# 5 0.004464 0.000424 0.004142 -0.012268 0.036202 -0.020364
# 6 -0.003628 0.003808 -0.008435 0.016268 -0.020364 0.045820
#
#
# Mechanical properties :
#
#
# Convention : Reuss Voigt Hill
#
# Bulk Modulus (GPa) = 30.42637 47.12864 38.77750
# Shear Modulus (GPa) = 26.70563 36.85327 31.77945
#
# Velocity S-wave (km/s) = 3.15650 3.70802 3.44332
# Velocity P-wave (km/s) = 4.96350 5.99297 5.50236
#
# Compressibility (1/GPa) = 0.03286623
#
# Stress axis : x y z
#
# Youngs Moduli (GPa) = 41.40752 96.82098 86.98379
#
# Poissons Ratio (x) = 0.31032 -0.10301
# Poissons Ratio (y) = 0.13271 0.39435
# Poissons Ratio (z) = -0.04904 0.43894
#
# Static dielectric constant tensor:
#      x y z
#    x 4.076600 -0.013190 -0.173960 
#    y -0.013190 5.490240 0.087570 
#    z -0.173960 0.087570 5.359330 
# 
# 
# High freq. dielectric constant tensor:
#      x y z
#    x 2.035090 -0.001900 -0.008570 
#    y -0.001900 2.094660 -0.002470 
#    z -0.008570 -0.002470 2.108690 
# 
# From -- ./inp_files/135182.got.cif
#   From: 2010.06.25/outbox.cif.g09.slc.cpg/sg2_68_cif.got.tgz:135182.got - 2010.06.27 13:26:56.
