data_PCOD8044489
_publ_section_title
;
Structure prediction by ZEFSAII (Michael W. Deem and Ramdas Pophale) SiO2 
 PCOD8044489
Probable space group: P -1
;
_chemical_formula_sum "Si O2"
_cell_formula_units_Z 16
_cell_length_a 11.788056
_cell_length_b 8.849602
_cell_length_c 11.930255
_cell_angle_alpha 48.874648
_cell_angle_beta 112.164059
_cell_angle_gamma 126.015871
_cell_volume 758.202813
_symmetry_space_group_name_H-M "P -1"
_symmetry_group_IT_number 2
_symmetry_cell_setting 'triclinic'
loop_
_space_group_symop_operation_xyz
x,y,z
-x,-y,-z
loop_
_atom_site_type_symbol
_atom_site_label
_atom_site_fract_x
_atom_site_fract_y
_atom_site_fract_z
Si Si1 0.330054 0.988840 0.515720
Si Si2 0.549263 0.354931 0.667034
Si Si3 0.936505 0.940977 0.314613
Si Si4 0.108331 0.747107 0.373628
Si Si5 0.464331 0.701100 0.730859
Si Si6 0.667802 0.810918 0.139206
Si Si7 0.172539 0.239295 0.410493
Si Si8 0.660376 0.038929 0.804428
O O1 0.467234 0.215704 0.408341
O O2 0.230972 0.054692 0.520492
O O3 0.248157 0.840284 0.451467
O O4 0.370204 0.816206 0.678557
O O5 0.500000 0.500000 0.500000
O O6 0.447093 0.232192 0.790485
O O7 0.702196 0.516774 0.698932
O O8 0.564218 0.163408 0.693448
O O9 0.817071 0.944240 0.192973
O O10 0.868687 0.747351 0.481976
O O11 0.032433 0.898969 0.283438
O O12 0.041211 0.173201 0.310073
O O13 0.000000 0.500000 0.500000
O O14 0.175943 0.784906 0.255875
O O15 0.366392 0.426585 0.820898
O O16 0.589112 0.798762 0.823332
O O17 0.666348 0.984551 0.962973
#
# Coordination Sequence:
#
# PCOD8044489 Si02
#       8
#     2   2   2   2   2   2   2   2
#     4   9  18  32  60  94 119 156 219 266 298 370
#     4  12  23  40  71  96 122 169 221 264 316 382
#     4  10  22  36  62  91 129 168 212 261 318 375
#     4  10  20  37  61  87 123 165 218 264 308 374
#     4  10  20  36  61  92 127 166 207 262 324 369
#     4  12  24  41  64  97 134 171 207 263 333 387
#     4  10  19  38  61  96 125 167 214 271 311 360
#     4  11  26  41  62  96 134 166 212 269 327 384
#
# _framework density 21.102533999999999
#
# number of rings (size 3 to 8) (size 9 to 14) (size 15 to 20)
#    0.000    1.500    2.500    3.000    3.500    0.500 
#    0.000    0.625    0.000    0.000    0.000    0.000 
#    0.000    0.000    0.000    0.000    0.000    0.000 
#
# Total GULP energy -198235.938840 kJ/mol
# GULP energy per Si atom -12389.746178 kJ/mol
# Density = 2.105450 g / cm^3
# Si number density = 21.102534 Si / 1000 Ang^3
#
#
#
# Elastic Constant Matrix: (Units=GPa)
#
#
# Indices 1 2 3 4 5 6 
#
# 1 123.7684 34.3229 48.2740 4.6129 -14.6483 2.1004
# 2 34.3229 88.2821 29.0522 4.7884 3.5366 13.3998
# 3 48.2740 29.0522 98.1450 7.0589 -11.9507 0.3918
# 4 4.6129 4.7884 7.0589 24.6564 1.0090 0.7975
# 5 -14.6483 3.5366 -11.9507 1.0090 29.4255 2.5037
# 6 2.1004 13.3998 0.3918 0.7975 2.5037 37.0884
#
#
#
# Elastic Compliance Matrix: (Units=1/GPa)
#
#
# Indices 1 2 3 4 5 6 
#
# 1 0.011008 -0.003177 -0.003920 -0.000504 0.004262 0.000289
# 2 -0.003177 0.014543 -0.003160 -0.001001 -0.004175 -0.004738
# 3 -0.003920 -0.003160 0.013738 -0.002783 0.004018 0.001007
# 4 -0.000504 -0.001001 -0.002783 0.041762 -0.002667 -0.000298
# 5 0.004262 -0.004175 0.004018 -0.002667 0.038443 -0.001313
# 6 0.000289 -0.004738 0.001007 -0.000298 -0.001313 0.028742
#
#
# Mechanical properties :
#
#
# Convention : Reuss Voigt Hill
#
# Bulk Modulus (GPa) = 53.26127 59.27708 56.26917
# Shear Modulus (GPa) = 28.57031 31.47049 30.02040
#
# Velocity S-wave (km/s) = 3.68350 3.86594 3.77582
# Velocity P-wave (km/s) = 6.58673 6.93386 6.76252
#
# Compressibility (1/GPa) = 0.01877537
#
# Stress axis : x y z
#
# Youngs Moduli (GPa) = 90.84415 68.76167 72.79248
#
# Poissons Ratio (x) = 0.21846 0.28533
# Poissons Ratio (y) = 0.28862 0.23000
# Poissons Ratio (z) = 0.35609 0.21727
#
# Static dielectric constant tensor:
#      x y z
#    x 3.613430 0.284040 0.328860 
#    y 0.284040 3.926420 -0.089050 
#    z 0.328860 -0.089050 3.002450 
# 
# 
# High freq. dielectric constant tensor:
#      x y z
#    x 1.841570 0.005310 -0.007040 
#    y 0.005310 1.833910 0.011130 
#    z -0.007040 0.011130 1.780070 
# 
# From -- ./inp_files/218275.got.cif
#   From: 2010.06.25/outbox.cif.g09.slc.cpg/sg2_110_cif.got.tgz:218275.got - 2010.06.27 13:26:56.
