data_PCOD8044782
_publ_section_title
;
Structure prediction by ZEFSAII (Michael W. Deem and Ramdas Pophale) SiO2 
 PCOD8044782
Probable space group: P -1
;
_chemical_formula_sum "Si O2"
_cell_formula_units_Z 16
_cell_length_a 14.256760
_cell_length_b 10.685314
_cell_length_c 9.061225
_cell_angle_alpha 134.846246
_cell_angle_beta 100.688920
_cell_angle_gamma 52.449466
_cell_volume 698.790328
_symmetry_space_group_name_H-M "P -1"
_symmetry_group_IT_number 2
_symmetry_cell_setting 'triclinic'
loop_
_space_group_symop_operation_xyz
x,y,z
-x,-y,-z
loop_
_atom_site_type_symbol
_atom_site_label
_atom_site_fract_x
_atom_site_fract_y
_atom_site_fract_z
Si Si1 0.060618 0.688641 0.602011
Si Si2 0.030488 0.262187 0.832351
Si Si3 0.343900 0.831852 0.040597
Si Si4 0.180717 0.935321 0.333299
Si Si5 0.508205 0.949560 0.134446
Si Si6 0.688444 0.534369 0.338846
Si Si7 0.744022 0.526216 0.020215
Si Si8 0.888941 0.742936 0.845492
O O1 0.187734 0.635225 0.652447
O O2 0.097446 0.487905 0.327021
O O3 0.950946 0.951369 0.708121
O O4 0.001170 0.670007 0.710542
O O5 0.138904 0.068177 0.585326
O O6 0.893446 0.335483 0.846696
O O7 0.000000 0.500000 0.000000
O O8 0.098174 0.158114 0.922619
O O9 0.365647 0.595767 0.815554
O O10 0.472011 0.793030 0.039911
O O11 0.267396 0.959941 0.280306
O O12 0.257986 0.033109 0.058556
O O13 0.282844 0.647354 0.153017
O O14 0.656344 0.767415 0.093073
O O15 0.424551 0.205160 0.404199
O O16 0.500000 0.000000 0.000000
O O17 0.727856 0.584677 0.239771
#
# Coordination Sequence:
#
# PCOD8044782 Si02
#       8
#     2   2   2   2   2   2   2   2
#     4  10  19  38  67 102 137 184 222 282 353 410
#     4  12  24  38  66 107 139 179 224 290 352 410
#     4  10  25  46  73 106 131 194 235 282 351 424
#     4  10  24  42  70 103 143 181 226 295 348 415
#     4  12  29  50  72  98 144 188 239 292 346 418
#     4  11  24  46  76 100 142 187 238 290 343 422
#     4  11  27  47  66 105 142 190 231 285 352 417
#     4  10  20  37  66 101 144 173 230 281 348 416
#
# _framework density 22.896711
#
# number of rings (size 3 to 8) (size 9 to 14) (size 15 to 20)
#    0.000    1.250    3.750    0.750    7.000    5.000 
#    2.250    0.000    0.000    0.000    0.000    0.000 
#    0.000    0.000    0.000    0.000    0.000    0.000 
#
# Total GULP energy -198230.897578 kJ/mol
# GULP energy per Si atom -12389.431099 kJ/mol
# Density = 2.284460 g / cm^3
# Si number density = 22.896711 Si / 1000 Ang^3
#
#
#
# Elastic Constant Matrix: (Units=GPa)
#
#
# Indices 1 2 3 4 5 6 
#
# 1 63.7344 8.6021 41.4821 -6.5390 -3.2399 5.5014
# 2 8.6021 95.1543 39.3624 2.2433 -14.4846 8.4899
# 3 41.4821 39.3624 152.9174 -9.0027 -13.8875 7.0437
# 4 -6.5390 2.2433 -9.0027 38.7585 5.5637 1.6400
# 5 -3.2399 -14.4846 -13.8875 5.5637 29.3714 -0.8445
# 6 5.5014 8.4899 7.0437 1.6400 -0.8445 19.8637
#
#
#
# Elastic Compliance Matrix: (Units=1/GPa)
#
#
# Indices 1 2 3 4 5 6 
#
# 1 0.019541 0.000600 -0.005183 0.002309 -0.000553 -0.004044
# 2 0.000600 0.012890 -0.002917 -0.001900 0.005281 -0.004260
# 3 -0.005183 -0.002917 0.008967 0.001111 0.002005 -0.000504
# 4 0.002309 -0.001900 0.001111 0.027454 -0.005436 -0.002719
# 5 -0.000553 0.005281 0.002005 -0.005436 0.038547 -0.000727
# 6 -0.004044 -0.004260 -0.000504 -0.002719 -0.000727 0.053656
#
#
# Mechanical properties :
#
#
# Convention : Reuss Voigt Hill
#
# Bulk Modulus (GPa) = 37.88217 54.52215 46.20216
# Shear Modulus (GPa) = 27.04833 32.42270 29.73552
#
# Velocity S-wave (km/s) = 3.44076 3.76712 3.60763
# Velocity P-wave (km/s) = 5.68910 6.54106 6.12990
#
# Compressibility (1/GPa) = 0.02639764
#
# Stress axis : x y z
#
# Youngs Moduli (GPa) = 51.17561 77.57673 111.51951
#
# Poissons Ratio (x) = -0.04654 0.57803
# Poissons Ratio (y) = -0.03070 0.32529
# Poissons Ratio (z) = 0.26526 0.22628
#
# Static dielectric constant tensor:
#      x y z
#    x 3.797320 0.081270 -0.189180 
#    y 0.081270 4.076120 0.087240 
#    z -0.189180 0.087240 3.652980 
# 
# 
# High freq. dielectric constant tensor:
#      x y z
#    x 1.887160 0.007650 -0.003480 
#    y 0.007650 1.910930 0.000010 
#    z -0.003480 0.000010 1.905780 
# 
# From -- ./inp_files/308826.got.cif
#   From: 2010.06.25/outbox.cif.g09.slc.cpg/sg2_155_cif.got.tgz:308826.got - 2010.06.27 13:26:56.
