data_PCOD8044243
_publ_section_title
;
Structure prediction by ZEFSAII (Michael W. Deem and Ramdas Pophale) SiO2 
 PCOD8044243
Probable space group: P -1
;
_chemical_formula_sum "Si O2"
_cell_formula_units_Z 16
_cell_length_a 15.456755
_cell_length_b 9.509742
_cell_length_c 13.286191
_cell_angle_alpha 66.607780
_cell_angle_beta 66.416609
_cell_angle_gamma 24.932625
_cell_volume 751.537089
_symmetry_space_group_name_H-M "P -1"
_symmetry_group_IT_number 2
_symmetry_cell_setting 'triclinic'
loop_
_space_group_symop_operation_xyz
x,y,z
-x,-y,-z
loop_
_atom_site_type_symbol
_atom_site_label
_atom_site_fract_x
_atom_site_fract_y
_atom_site_fract_z
Si Si1 0.470808 0.492302 0.804566
Si Si2 0.574107 0.660238 0.747477
Si Si3 0.060735 0.245619 0.168003
Si Si4 0.354311 0.600391 0.602559
Si Si5 0.708312 0.650204 0.362059
Si Si6 0.394231 0.349789 0.034819
Si Si7 0.171712 0.407601 0.018449
Si Si8 0.918347 0.229965 0.559356
O O1 0.411882 0.756785 0.770736
O O2 0.414335 0.511564 0.716341
O O3 0.714853 0.143893 0.807125
O O4 0.359827 0.546709 0.923527
O O5 0.643728 0.547410 0.862559
O O6 0.777949 0.347753 0.673351
O O7 0.469389 0.973057 0.684711
O O8 0.064631 0.425178 0.125798
O O9 0.910186 0.389198 0.277348
O O10 0.985384 0.306154 0.074525
O O11 0.500000 0.500000 0.500000
O O12 0.380608 0.389733 0.609963
O O13 0.120948 0.002594 0.585667
O O14 0.779825 0.557439 0.472556
O O15 0.223357 0.469967 0.052350
O O16 0.622715 0.951352 0.030158
O O17 0.000000 0.000000 0.500000
#
# Coordination Sequence:
#
# PCOD8044243 Si02
#       8
#     2   2   2   2   2   2   2   2
#     4  11  23  39  65  94 138 177 213 256 323 381
#     4  12  24  42  63 101 132 166 213 273 319 378
#     4  10  19  37  66  94 126 177 215 247 318 387
#     4  11  23  44  69  96 123 173 220 262 319 395
#     4  11  22  41  71  94 129 165 217 269 321 373
#     4  10  21  39  63  95 136 170 215 262 320 372
#     4   9  19  37  63  94 128 173 214 259 305 385
#     4  10  23  45  67  90 124 170 213 262 330 389
#
# _framework density 21.2897
#
# number of rings (size 3 to 8) (size 9 to 14) (size 15 to 20)
#    0.000    1.500    1.250    5.250    3.500    0.000 
#    2.250    2.500    0.000    0.000    0.000    0.000 
#    0.000    0.000    0.000    0.000    0.000    0.000 
#
# Total GULP energy -198403.608838 kJ/mol
# GULP energy per Si atom -12400.225552 kJ/mol
# Density = 2.124124 g / cm^3
# Si number density = 21.289700 Si / 1000 Ang^3
#
#
#
# Elastic Constant Matrix: (Units=GPa)
#
#
# Indices 1 2 3 4 5 6 
#
# 1 119.5102 35.1680 40.5625 -18.3026 -7.2775 2.8346
# 2 35.1680 45.0389 36.0052 -10.1533 8.3903 0.0770
# 3 40.5625 36.0052 143.4927 -12.5003 -1.5215 4.0143
# 4 -18.3026 -10.1533 -12.5003 34.2725 -6.7287 6.9626
# 5 -7.2775 8.3903 -1.5215 -6.7287 40.0448 -5.7247
# 6 2.8346 0.0770 4.0143 6.9626 -5.7247 26.8581
#
#
#
# Elastic Compliance Matrix: (Units=1/GPa)
#
#
# Indices 1 2 3 4 5 6 
#
# 1 0.012258 -0.008724 -0.000761 0.004887 0.004643 -0.001432
# 2 -0.008724 0.036464 -0.006581 0.002075 -0.009228 -0.000705
# 3 -0.000761 -0.006581 0.009022 0.001522 0.001654 -0.001291
# 4 0.004887 0.002075 0.001522 0.035799 0.005253 -0.008910
# 5 0.004643 -0.009228 0.001654 0.005253 0.029291 0.004171
# 6 -0.001432 -0.000705 -0.001291 -0.008910 0.004171 0.040778
#
#
# Mechanical properties :
#
#
# Convention : Reuss Voigt Hill
#
# Bulk Modulus (GPa) = 39.04455 59.05702 49.05079
# Shear Modulus (GPa) = 24.47628 33.32214 28.89921
#
# Velocity S-wave (km/s) = 3.39437 3.96052 3.68832
# Velocity P-wave (km/s) = 5.80877 6.97956 6.42090
#
# Compressibility (1/GPa) = 0.02561177
#
# Stress axis : x y z
#
# Youngs Moduli (GPa) = 81.57898 27.42442 110.84504
#
# Poissons Ratio (x) = 0.23925 0.08436
# Poissons Ratio (y) = 0.71169 0.72945
# Poissons Ratio (z) = 0.06209 0.18047
#
# Static dielectric constant tensor:
#      x y z
#    x 3.980860 -0.149700 -0.068230 
#    y -0.149700 3.829530 -0.291790 
#    z -0.068230 -0.291790 4.161500 
# 
# 
# High freq. dielectric constant tensor:
#      x y z
#    x 1.837480 -0.011870 -0.009050 
#    y -0.011870 1.818350 -0.014790 
#    z -0.009050 -0.014790 1.854170 
# 
# From -- ./inp_files/447143.got.cif
#   From: 2010.06.25/outbox.cif.g09.slc.cpg/sg2_224_cif.got.tgz:447143.got - 2010.06.27 13:26:56.
