data_PCOD8044438
_publ_section_title
;
Structure prediction by ZEFSAII (Michael W. Deem and Ramdas Pophale) SiO2 
 PCOD8044438
Probable space group: P -1
;
_chemical_formula_sum "Si O2"
_cell_formula_units_Z 16
_cell_length_a 21.150250
_cell_length_b 10.068544
_cell_length_c 8.770294
_cell_angle_alpha 30.277427
_cell_angle_beta 119.310315
_cell_angle_gamma 119.466360
_cell_volume 810.878858
_symmetry_space_group_name_H-M "P -1"
_symmetry_group_IT_number 2
_symmetry_cell_setting 'triclinic'
loop_
_space_group_symop_operation_xyz
x,y,z
-x,-y,-z
loop_
_atom_site_type_symbol
_atom_site_label
_atom_site_fract_x
_atom_site_fract_y
_atom_site_fract_z
Si Si1 0.950063 0.996902 0.591555
Si Si2 0.353413 0.608421 0.775052
Si Si3 0.581465 0.851838 0.536439
Si Si4 0.785440 0.365034 0.236343
Si Si5 0.633278 0.838247 0.266483
Si Si6 0.586054 0.312479 0.553766
Si Si7 0.048560 0.495787 0.709933
Si Si8 0.216773 0.143613 0.454113
O O1 0.865321 0.927387 0.504931
O O2 0.966131 0.284986 0.402312
O O3 0.969635 0.787461 0.946885
O O4 0.000000 0.000000 0.500000
O O5 0.268243 0.609445 0.712013
O O6 0.358268 0.637447 0.570725
O O7 0.404800 0.846116 0.686987
O O8 0.376939 0.329098 0.126594
O O9 0.611139 0.843080 0.410623
O O10 0.495471 0.747730 0.548528
O O11 0.868225 0.453071 0.303695
O O12 0.772550 0.060331 0.466983
O O13 0.768550 0.554977 0.889767
O O14 0.593421 0.565623 0.419796
O O15 0.722283 0.870539 0.328824
O O16 0.604200 0.071121 0.913351
O O17 0.000000 0.500000 0.500000
#
# Coordination Sequence:
#
# PCOD8044438 Si02
#       8
#     2   2   2   2   2   2   2   2
#     4  10  21  39  62  90 119 153 196 234 284 347
#     4  12  22  41  61  85 116 154 200 237 291 348
#     4  12  23  41  65  80 113 162 199 231 292 366
#     4  10  19  38  61  85 111 159 200 228 274 358
#     4  12  22  41  59  85 120 151 196 238 298 342
#     4  12  26  38  57  93 120 143 191 262 297 325
#     4  10  21  38  62  89 121 151 194 238 286 341
#     4  10  20  38  63  83 114 159 198 228 276 357
#
# _framework density 19.731677999999999
#
# number of rings (size 3 to 8) (size 9 to 14) (size 15 to 20)
#    0.000    1.000    2.500    5.250    0.000    0.000 
#    4.500    0.000    0.000    0.000    0.000    0.000 
#    0.000    0.000    0.000    0.000    0.000    0.000 
#
# Total GULP energy -198489.438277 kJ/mol
# GULP energy per Si atom -12405.589892 kJ/mol
# Density = 1.968677 g / cm^3
# Si number density = 19.731678 Si / 1000 Ang^3
#
#
#
# Elastic Constant Matrix: (Units=GPa)
#
#
# Indices 1 2 3 4 5 6 
#
# 1 102.5178 19.5812 2.8658 -9.5927 8.7233 14.7379
# 2 19.5812 40.5720 57.6364 45.2518 -16.5129 -15.6487
# 3 2.8658 57.6364 -21.1463 -137.9376 53.2643 61.4491
# 4 -9.5927 45.2518 -137.9376 -116.9075 51.4603 68.6868
# 5 8.7233 -16.5129 53.2643 51.4603 10.5108 -17.4638
# 6 14.7379 -15.6487 61.4491 68.6868 -17.4638 -0.2736
#
#
#
# Elastic Compliance Matrix: (Units=1/GPa)
#
#
# Indices 1 2 3 4 5 6 
#
# 1 0.010434 -0.002307 -0.001311 -0.001762 -0.000635 -0.002178
# 2 -0.002307 0.018890 -0.001045 0.005748 0.000135 -0.005185
# 3 -0.001311 -0.001045 0.007839 -0.006852 0.000395 0.004289
# 4 -0.001762 0.005748 -0.006852 0.010014 0.008523 0.007425
# 5 -0.000635 0.000135 0.000395 0.008523 0.034424 -0.010667
# 6 -0.002178 -0.005185 0.004289 0.007425 -0.010667 0.032354
#
#
# Mechanical properties :
#
#
# Convention : Reuss Voigt Hill
#
# Bulk Modulus (GPa) = 35.92413 31.34559 33.63486
# Shear Modulus (GPa) = 37.71861 -18.54340 9.58760
#
# Velocity S-wave (km/s) = 4.37690 -3.06891 2.20670
# Velocity P-wave (km/s) = 6.61732 1.83380 4.85550
#
# Compressibility (1/GPa) = 0.02783644
#
# Stress axis : x y z
#
# Youngs Moduli (GPa) = 95.84028 52.93676 127.57029
#
# Poissons Ratio (x) = 0.12213 0.16722
# Poissons Ratio (y) = 0.22112 0.13337
# Poissons Ratio (z) = 0.12563 0.05534
#
# Static dielectric constant tensor:
#      x y z
#    x 3.586060 0.113930 0.355910 
#    y 0.113930 3.510160 -0.086250 
#    z 0.355910 -0.086250 3.568140 
# 
# 
# High freq. dielectric constant tensor:
#      x y z
#    x 1.776260 0.008860 0.007550 
#    y 0.008860 1.759850 -0.013910 
#    z 0.007550 -0.013910 1.788320 
# 
# From -- ./inp_files/51921.got.cif
#   From: 2010.06.25/outbox.cif.g09.slc.cpg/sg2_26_cif.got.tgz:51921.got - 2010.06.27 13:26:56.
