data_PCOD8044352
_publ_section_title
;
Structure prediction by ZEFSAII (Michael W. Deem and Ramdas Pophale) SiO2 
 PCOD8044352
Probable space group: P -1
;
_chemical_formula_sum "Si O2"
_cell_formula_units_Z 14
_cell_length_a 9.328775
_cell_length_b 7.924430
_cell_length_c 11.852117
_cell_angle_alpha 59.669641
_cell_angle_beta 102.536336
_cell_angle_gamma 70.104847
_cell_volume 624.156895
_symmetry_space_group_name_H-M "P -1"
_symmetry_group_IT_number 2
_symmetry_cell_setting 'triclinic'
loop_
_space_group_symop_operation_xyz
x,y,z
-x,-y,-z
loop_
_atom_site_type_symbol
_atom_site_label
_atom_site_fract_x
_atom_site_fract_y
_atom_site_fract_z
Si Si1 0.250825 0.380776 0.353883
Si Si2 0.939758 0.807221 0.252134
Si Si3 0.046997 0.770238 0.901245
Si Si4 0.908760 0.070018 0.577789
Si Si5 0.734525 0.744247 0.843454
Si Si6 0.376648 0.171840 0.692836
Si Si7 0.538527 0.463255 0.388968
O O1 0.263081 0.222927 0.303934
O O2 0.311026 0.241108 0.528988
O O3 0.368800 0.483025 0.300054
O O4 0.050810 0.592954 0.259389
O O5 0.758813 0.838972 0.244937
O O6 0.053029 0.756096 0.404294
O O7 0.914311 0.038407 0.109054
O O8 0.873351 0.788566 0.915427
O O9 0.215070 0.516489 0.033499
O O10 0.996126 0.827558 0.740946
O O11 0.701783 0.204854 0.480147
O O12 0.000000 0.000000 0.500000
O O13 0.546801 0.916334 0.804907
O O14 0.424082 0.340699 0.708222
O O15 0.500000 0.500000 0.500000
#
# Coordination Sequence:
#
# PCOD8044352 Si02
#       7
#     2   2   2   2   2   2   2
#     4  11  22  36  61  91 112 153 195 236 285 339
#     4  10  22  38  57  87 120 146 187 244 290 332
#     4   9  22  42  56  84 116 156 189 240 283 338
#     4  10  21  36  64  85 114 150 190 239 291 338
#     4  11  23  37  63  82 116 156 198 230 279 351
#     4  11  21  36  59  89 120 150 185 242 291 333
#     4  10  19  38  58  85 121 146 186 244 283 333
#
# _framework density 22.430256
#
# number of rings (size 3 to 8) (size 9 to 14) (size 15 to 20)
#    0.857    0.857    2.857    3.429    4.000    1.143 
#    0.000    0.000    0.000    5.143    0.000    0.000 
#    0.000    0.000    0.000    0.000    0.000    0.000 
#
# Total GULP energy -173436.999324 kJ/mol
# GULP energy per Si atom -12388.357095 kJ/mol
# Density = 2.237920 g / cm^3
# Si number density = 22.430256 Si / 1000 Ang^3
#
#
#
# Elastic Constant Matrix: (Units=GPa)
#
#
# Indices 1 2 3 4 5 6 
#
# 1 154.2540 35.6418 30.1669 -22.8480 10.5691 -10.0901
# 2 35.6418 51.3183 14.3667 -12.0656 9.4015 -14.3210
# 3 30.1669 14.3667 88.6735 -33.0131 10.5755 -15.5019
# 4 -22.8480 -12.0656 -33.0131 28.6490 -4.6791 5.9248
# 5 10.5691 9.4015 10.5755 -4.6791 23.3433 -11.1605
# 6 -10.0901 -14.3210 -15.5019 5.9248 -11.1605 43.1255
#
#
#
# Elastic Compliance Matrix: (Units=1/GPa)
#
#
# Indices 1 2 3 4 5 6 
#
# 1 0.008287 -0.004639 -0.000580 0.003934 -0.001141 -0.000646
# 2 -0.004639 0.026567 0.001653 0.007331 -0.004995 0.006031
# 3 -0.000580 0.001653 0.020790 0.022836 -0.003394 0.003871
# 4 0.003934 0.007331 0.022836 0.066887 -0.000613 0.002216
# 5 -0.001141 -0.004995 -0.003394 -0.000613 0.051717 0.010322
# 6 -0.000646 0.006031 0.003871 0.002216 0.010322 0.028798
#
#
# Mechanical properties :
#
#
# Convention : Reuss Voigt Hill
#
# Bulk Modulus (GPa) = 20.61299 50.51072 35.56185
# Shear Modulus (GPa) = 22.08984 33.29493 27.69239
#
# Velocity S-wave (km/s) = 3.14159 3.85694 3.51750
# Velocity P-wave (km/s) = 4.72961 6.51172 5.69086
#
# Compressibility (1/GPa) = 0.04851310
#
# Stress axis : x y z
#
# Youngs Moduli (GPa) = 120.67381 37.64020 48.10003
#
# Poissons Ratio (x) = 0.17462 0.02788
# Poissons Ratio (y) = 0.55984 -0.07953
# Poissons Ratio (z) = 0.06995 -0.06223
#
# Static dielectric constant tensor:
#      x y z
#    x 4.670490 0.598550 0.062550 
#    y 0.598550 4.142440 -0.192540 
#    z 0.062550 -0.192540 3.766690 
# 
# 
# High freq. dielectric constant tensor:
#      x y z
#    x 1.889300 0.006220 0.006690 
#    y 0.006220 1.869590 -0.022340 
#    z 0.006690 -0.022340 1.859610 
# 
# From -- ./inp_files/494395.got.cif
#   From: 2010.06.25/outbox.cif.g09.slc.cpg/sg2_248_cif.got.tgz:494395.got - 2010.06.27 13:26:56.
