data_PCOD8044295
_publ_section_title
;
Structure prediction by ZEFSAII (Michael W. Deem and Ramdas Pophale) SiO2 
 PCOD8044295
Probable space group: P -1
;
_chemical_formula_sum "Si O2"
_cell_formula_units_Z 16
_cell_length_a 16.443977
_cell_length_b 7.240927
_cell_length_c 8.858922
_cell_angle_alpha 53.920435
_cell_angle_beta 132.579312
_cell_angle_gamma 100.283128
_cell_volume 583.292393
_symmetry_space_group_name_H-M "P -1"
_symmetry_group_IT_number 2
_symmetry_cell_setting 'triclinic'
loop_
_space_group_symop_operation_xyz
x,y,z
-x,-y,-z
loop_
_atom_site_type_symbol
_atom_site_label
_atom_site_fract_x
_atom_site_fract_y
_atom_site_fract_z
Si Si1 0.000985 0.438434 0.204298
Si Si2 0.194416 0.176380 0.781028
Si Si3 0.436302 0.091189 0.664228
Si Si4 0.622036 0.203190 0.009237
Si Si5 0.758696 0.796368 0.855255
Si Si6 0.398221 0.414113 0.975022
Si Si7 0.817973 0.244051 0.626656
Si Si8 0.021138 0.958518 0.804697
O O1 0.993639 0.167616 0.310740
O O2 0.121756 0.404933 0.468162
O O3 0.890725 0.622249 0.064944
O O4 0.000000 0.500000 0.000000
O O5 0.095230 0.127598 0.782132
O O6 0.266648 0.249089 0.975504
O O7 0.271492 0.932258 0.906977
O O8 0.493817 0.266378 0.736601
O O9 0.339382 0.257663 0.343102
O O10 0.368346 0.982655 0.750950
O O11 0.544357 0.882256 0.813203
O O12 0.635959 0.452334 0.967603
O O13 0.744851 0.078028 0.673030
O O14 0.284577 0.493352 0.676679
O O15 0.500000 0.500000 0.000000
O O16 0.909897 0.245903 0.877470
O O17 0.892262 0.123027 0.628085
#
# Coordination Sequence:
#
# PCOD8044295 Si02
#       8
#     2   2   2   2   2   2   2   2
#     4  12  23  40  68  98 128 175 224 269 333 403
#     4  11  25  44  64  96 140 170 214 282 339 398
#     4  10  22  42  69  96 128 178 233 272 328 402
#     4  10  21  41  67  97 127 175 224 278 323 401
#     4  11  22  42  64  92 139 167 218 278 331 390
#     4  10  19  37  69  94 130 169 226 276 324 384
#     4  10  19  40  64  97 129 179 216 267 330 402
#     4  10  23  40  67  94 137 174 220 269 336 404
#
# _framework density 27.430493999999999
#
# number of rings (size 3 to 8) (size 9 to 14) (size 15 to 20)
#    0.000    1.500    3.750    2.250    0.000    4.500 
#    4.500    0.625    0.000    0.000    0.000    0.000 
#    0.000    0.000    0.000    0.000    0.000    0.000 
#
# Total GULP energy -198424.448587 kJ/mol
# GULP energy per Si atom -12401.528037 kJ/mol
# Density = 2.736806 g / cm^3
# Si number density = 27.430494 Si / 1000 Ang^3
#
#
#
# Elastic Constant Matrix: (Units=GPa)
#
#
# Indices 1 2 3 4 5 6 
#
# 1 105.4901 12.9591 52.6868 5.3463 -4.8158 -22.0350
# 2 12.9591 122.1876 50.9936 37.0302 10.3207 -25.2031
# 3 52.6868 50.9936 168.0640 45.9505 10.8516 -6.4831
# 4 5.3463 37.0302 45.9505 42.8799 2.4970 2.7605
# 5 -4.8158 10.3207 10.8516 2.4970 45.0813 1.0068
# 6 -22.0350 -25.2031 -6.4831 2.7605 1.0068 39.1936
#
#
#
# Elastic Compliance Matrix: (Units=1/GPa)
#
#
# Indices 1 2 3 4 5 6 
#
# 1 0.013332 0.001486 -0.004956 0.001768 0.002013 0.007455
# 2 0.001486 0.014676 -0.000931 -0.012426 -0.002536 0.011059
# 3 -0.004956 -0.000931 0.010550 -0.009692 -0.002299 -0.000899
# 4 0.001768 -0.012426 -0.009692 0.044795 0.003150 -0.011835
# 5 0.002013 -0.002536 -0.002299 0.003150 0.023395 -0.001702
# 6 0.007455 0.011059 -0.000899 -0.011835 -0.001702 0.037546
#
#
# Mechanical properties :
#
#
# Convention : Reuss Voigt Hill
#
# Bulk Modulus (GPa) = 33.60728 69.89119 51.74924
# Shear Modulus (GPa) = 30.67215 44.03778 37.35497
#
# Velocity S-wave (km/s) = 3.34754 4.01113 3.69427
# Velocity P-wave (km/s) = 5.21726 6.85470 6.09125
#
# Compressibility (1/GPa) = 0.02975545
#
# Stress axis : x y z
#
# Youngs Moduli (GPa) = 75.00851 68.13748 94.78705
#
# Poissons Ratio (x) = -0.10127 0.46979
# Poissons Ratio (y) = -0.11148 0.08828
# Poissons Ratio (z) = 0.37176 0.06346
#
# Static dielectric constant tensor:
#      x y z
#    x 5.157180 0.429900 0.030700 
#    y 0.429900 5.237270 0.258020 
#    z 0.030700 0.258020 5.055080 
# 
# 
# High freq. dielectric constant tensor:
#      x y z
#    x 2.127190 0.018970 0.003380 
#    y 0.018970 2.121740 0.025030 
#    z 0.003380 0.025030 2.109530 
# 
# From -- ./inp_files/328616.got.cif
#   From: 2010.06.25/outbox.cif.g09.slc.cpg/sg2_165_cif.got.tgz:328616.got - 2010.06.27 13:26:56.
