data_PCOD8044054
_publ_section_title
;
Structure prediction by ZEFSAII (Michael W. Deem and Ramdas Pophale) SiO2 
 PCOD8044054
Probable space group: P -1
;
_chemical_formula_sum "Si O2"
_cell_formula_units_Z 16
_cell_length_a 16.614560
_cell_length_b 13.723173
_cell_length_c 24.132128
_cell_angle_alpha 21.260940
_cell_angle_beta 157.753188
_cell_angle_gamma 147.944036
_cell_volume 750.831617
_symmetry_space_group_name_H-M "P -1"
_symmetry_group_IT_number 2
_symmetry_cell_setting 'triclinic'
loop_
_space_group_symop_operation_xyz
x,y,z
-x,-y,-z
loop_
_atom_site_type_symbol
_atom_site_label
_atom_site_fract_x
_atom_site_fract_y
_atom_site_fract_z
Si Si1 0.116556 0.441995 0.433055
Si Si2 0.026867 0.101612 0.376046
Si Si3 0.817532 0.667641 0.759749
Si Si4 0.266284 0.491474 0.380784
Si Si5 0.496514 0.897178 0.614669
Si Si6 0.050023 0.019689 0.086366
Si Si7 0.445148 0.751657 0.151240
Si Si8 0.430512 0.706813 0.041097
O O1 0.247009 0.514416 0.422448
O O2 0.298557 0.313711 0.658902
O O3 0.003612 0.724370 0.236686
O O4 0.943002 0.227039 0.429618
O O5 0.097699 0.234784 0.294828
O O6 0.179265 0.203183 0.466240
O O7 0.779858 0.207005 0.175606
O O8 0.644915 0.452403 0.754231
O O9 0.710636 0.937498 0.578454
O O10 0.000000 0.500000 0.000000
O O11 0.500000 0.500000 0.500000
O O12 0.113253 0.734942 0.124007
O O13 0.708441 0.934491 0.766082
O O14 0.460127 0.580891 0.758018
O O15 0.500000 0.000000 0.500000
O O16 0.000000 0.000000 0.000000
O O17 0.348890 0.702218 0.055479
O O18 0.403167 0.064356 0.979473
#
# Coordination Sequence:
#
# PCOD8044054 Si02
#       8
#     2   2   2   2   2   2   2   2
#     4  10  21  41  62  90 123 174 206 251 317 384
#     4  11  22  39  63  89 128 165 213 259 316 375
#     4  12  23  38  61  95 129 167 210 270 320 373
#     4  11  23  40  66  94 123 161 216 265 313 379
#     4  12  21  40  66  95 123 169 217 260 318 389
#     4  10  22  40  65  91 128 169 209 258 325 382
#     4  10  19  37  63  86 128 155 212 248 325 366
#     4  10  20  37  63  91 117 171 205 259 312 385
#
# _framework density 21.309704
#
# number of rings (size 3 to 8) (size 9 to 14) (size 15 to 20)
#    0.000    1.250    5.000    1.125    1.750    0.000 
#    0.000    5.000    0.000    0.000    0.000    0.000 
#    0.000    0.000    0.000    0.000    0.000    0.000 
#
# Total GULP energy -198228.549612 kJ/mol
# GULP energy per Si atom -12389.284351 kJ/mol
# Density = 2.126120 g / cm^3
# Si number density = 21.309704 Si / 1000 Ang^3
#
#
#
# Elastic Constant Matrix: (Units=GPa)
#
#
# Indices 1 2 3 4 5 6 
#
# 1 45.0182 9.7250 4.0676 -0.9848 -3.8553 3.5576
# 2 9.7250 150.3479 56.0113 -32.5801 5.1491 -0.4342
# 3 4.0676 56.0113 114.3762 -22.3331 8.6186 -4.3964
# 4 -0.9848 -32.5801 -22.3331 55.4238 -3.6744 -10.3453
# 5 -3.8553 5.1491 8.6186 -3.6744 26.6896 -0.0392
# 6 3.5576 -0.4342 -4.3964 -10.3453 -0.0392 31.7602
#
#
#
# Elastic Compliance Matrix: (Units=1/GPa)
#
#
# Indices 1 2 3 4 5 6 
#
# 1 0.023161 -0.001643 -0.000639 -0.001139 0.003708 -0.003072
# 2 -0.001643 0.008933 -0.003466 0.004018 -0.000287 0.001135
# 3 -0.000639 -0.003466 0.011308 0.002795 -0.002687 0.002497
# 4 -0.001139 0.004018 0.002795 0.023112 0.001351 0.008100
# 5 0.003708 -0.000287 -0.002687 0.001351 0.039112 -0.000303
# 6 -0.003072 0.001135 0.002497 0.008100 -0.000303 0.034829
#
#
# Mechanical properties :
#
#
# Convention : Reuss Voigt Hill
#
# Bulk Modulus (GPa) = 31.34304 49.92779 40.63541
# Shear Modulus (GPa) = 30.75303 38.77059 34.76181
#
# Velocity S-wave (km/s) = 3.80300 4.27005 4.04328
# Velocity P-wave (km/s) = 5.83301 6.91315 6.39592
#
# Compressibility (1/GPa) = 0.03190501
#
# Stress axis : x y z
#
# Youngs Moduli (GPa) = 43.17565 111.94989 88.43688
#
# Poissons Ratio (x) = 0.18391 0.05652
# Poissons Ratio (y) = 0.07093 0.30654
# Poissons Ratio (z) = 0.02759 0.38805
#
# Static dielectric constant tensor:
#      x y z
#    x 4.026550 -0.255690 0.412070 
#    y -0.255690 4.781150 0.176120 
#    z 0.412070 0.176120 6.002460 
# 
# 
# High freq. dielectric constant tensor:
#      x y z
#    x 1.796130 -0.013090 -0.023130 
#    y -0.013090 1.854480 -0.014290 
#    z -0.023130 -0.014290 1.843120 
# 
# From -- ./inp_files/205778.got.cif
#   From: 2010.06.25/outbox.cif.g09.slc.cpg/sg2_103_cif.got.tgz:205778.got - 2010.06.27 13:26:56.
