data_PCOD8044991
_publ_section_title
;
Structure prediction by ZEFSAII (Michael W. Deem and Ramdas Pophale) SiO2 
 PCOD8044991
Probable space group: P 2
;
_chemical_formula_sum "Si O2"
_cell_formula_units_Z 14
_cell_length_a 7.527612
_cell_length_b 5.220912
_cell_length_c 15.445834
_cell_angle_alpha 90.000000
_cell_angle_beta 109.744693
_cell_angle_gamma 90.000000
_cell_volume 571.347398
_symmetry_space_group_name_H-M "P 2"
_symmetry_group_IT_number 3
_symmetry_cell_setting 'monoclinic'
loop_
_space_group_symop_operation_xyz
x,y,z
-x,y,-z
loop_
_atom_site_type_symbol
_atom_site_label
_atom_site_fract_x
_atom_site_fract_y
_atom_site_fract_z
Si Si1 0.665357 0.313650 0.233146
Si Si2 0.493620 0.806835 0.853951
Si Si3 0.992727 0.330525 0.597635
Si Si4 0.962212 0.286258 0.128417
Si Si5 0.648975 0.623295 0.599065
Si Si6 0.259217 0.130902 0.310364
Si Si7 0.803813 0.794267 0.040573
O O1 0.524820 0.553118 0.206048
O O2 0.799815 0.299638 0.173026
O O3 0.789980 0.362932 0.338817
O O4 0.534176 0.056641 0.213171
O O5 0.337990 0.805473 0.903060
O O6 0.698035 0.790619 0.931340
O O7 0.860307 0.582696 0.592861
O O8 0.901676 0.105083 0.640966
O O9 0.000000 0.247816 0.500000
O O10 0.949788 0.555316 0.074279
O O11 0.164224 0.223370 0.205151
O O12 0.923494 0.054322 0.056800
O O13 0.500000 0.691850 0.500000
O O14 0.591409 0.356056 0.638330
O O15 0.648157 0.848648 0.671999
#
# Coordination Sequence:
#
# PCOD8044991 Si02
#       7
#     2   2   2   2   2   2   2
#     4   9  17  26  40  56  87 119 159 185 230 278
#     4   9  16  25  35  57  84 122 156 179 225 282
#     4   9  21  34  51  72  96 130 174 204 243 291
#     4   9  15  24  39  60  83 119 157 183 224 281
#     4  10  20  34  51  70  94 130 169 205 251 290
#     4   9  19  31  49  68  97 126 168 197 247 291
#     4   9  15  22  37  55  85 117 159 179 217 282
#
# _framework density 24.503478999999999
#
# number of rings (size 3 to 8) (size 9 to 14) (size 15 to 20)
#    0.857    2.000    0.000    2.143    6.000    4.000 
#    0.000    0.000    0.000    0.000    0.000    0.000 
#    0.000    0.000    0.000   19.286   17.429    0.000 
#
# Total GULP energy -173445.446368 kJ/mol
# GULP energy per Si atom -12388.960455 kJ/mol
# Density = 2.444771 g / cm^3
# Si number density = 24.503479 Si / 1000 Ang^3
#
#
#
# Elastic Constant Matrix: (Units=GPa)
#
#
# Indices 1 2 3 4 5 6 
#
# 1 31.8654 11.0664 14.8472 0.0000 9.0704 0.0000
# 2 11.0664 203.5289 82.2231 0.0000 31.7881 0.0000
# 3 14.8472 82.2231 187.4851 0.0000 44.8928 0.0000
# 4 0.0000 0.0000 0.0000 53.3644 0.0000 -14.7815
# 5 9.0704 31.7881 44.8928 0.0000 24.9660 0.0000
# 6 0.0000 0.0000 0.0000 -14.7815 0.0000 62.9471
#
#
#
# Elastic Compliance Matrix: (Units=1/GPa)
#
#
# Indices 1 2 3 4 5 6 
#
# 1 0.035027 0.000031 0.000473 0.000000 -0.013615 0.000000
# 2 0.000031 0.006363 -0.001493 0.000000 -0.005427 0.000000
# 3 0.000473 -0.001493 0.009724 0.000000 -0.015755 0.000000
# 4 0.000000 0.000000 0.000000 0.020043 0.000000 0.004707
# 5 -0.013615 -0.005427 -0.015755 0.000000 0.080242 0.000000
# 6 0.000000 0.000000 0.000000 0.004707 0.000000 0.016992
#
#
# Mechanical properties :
#
#
# Convention : Reuss Voigt Hill
#
# Bulk Modulus (GPa) = 20.35261 71.01698 45.68479
# Shear Modulus (GPa) = 26.77430 49.23833 38.00632
#
# Velocity S-wave (km/s) = 3.30915 4.48754 3.94262
# Velocity P-wave (km/s) = 4.78797 7.47637 6.27777
#
# Compressibility (1/GPa) = 0.04913375
#
# Stress axis : x y z
#
# Youngs Moduli (GPa) = 28.54980 157.16997 102.84073
#
# Poissons Ratio (x) = -0.00488 -0.04861
# Poissons Ratio (y) = -0.00089 0.15357
# Poissons Ratio (z) = -0.01349 0.23469
#
# Static dielectric constant tensor:
#      x y z
#    x 3.940740 0.000000 0.193600 
#    y 0.000000 4.462510 0.000000 
#    z 0.193600 0.000000 4.291150 
# 
# 
# High freq. dielectric constant tensor:
#      x y z
#    x 1.955760 0.000000 0.003150 
#    y 0.000000 1.971670 0.000000 
#    z 0.003150 0.000000 1.975880 
# 
# From -- ./inp_files/15226.got.cif
#   From: 2010.03.12/outbox.cif.g09.slc.cpg/sg3_8_cif.got.tgz:15226.got - 2010.03.31 09:20:49.
