data_PCOD8044701
_publ_section_title
;
Structure prediction by ZEFSAII (Michael W. Deem and Ramdas Pophale) SiO2 
 PCOD8044701
Probable space group: P -1
;
_chemical_formula_sum "Si O2"
_cell_formula_units_Z 12
_cell_length_a 8.880690
_cell_length_b 9.380040
_cell_length_c 12.078307
_cell_angle_alpha 114.518437
_cell_angle_beta 140.625937
_cell_angle_gamma 92.224812
_cell_volume 454.225982
_symmetry_space_group_name_H-M "P -1"
_symmetry_group_IT_number 2
_symmetry_cell_setting 'triclinic'
loop_
_space_group_symop_operation_xyz
x,y,z
-x,-y,-z
loop_
_atom_site_type_symbol
_atom_site_label
_atom_site_fract_x
_atom_site_fract_y
_atom_site_fract_z
Si Si1 0.131676 0.394509 0.493022
Si Si2 0.687540 0.894013 0.662548
Si Si3 0.337477 0.062879 0.579206
Si Si4 0.262028 0.305597 0.186031
Si Si5 0.156086 0.321281 0.719680
Si Si6 0.881415 0.364156 0.123728
O O1 0.485953 0.557087 0.717411
O O2 0.110811 0.264330 0.543305
O O3 0.000000 0.500000 0.500000
O O4 0.935810 0.269188 0.230674
O O5 0.482551 0.955354 0.598618
O O6 0.592094 0.702902 0.619377
O O7 0.654870 0.829495 0.493906
O O8 0.041123 0.081610 0.940109
O O9 0.993833 0.885121 0.366680
O O10 0.525670 0.222073 0.838063
O O11 0.070370 0.383313 0.130660
O O12 0.990683 0.414770 0.694319
O O13 0.500000 0.500000 0.000000
#
# Coordination Sequence:
#
# PCOD8044701 Si02
#       6
#     2   2   2   2   2   2
#     4  10  21  38  59  89 126 160 197 249 308 363
#     4   9  19  36  63  92 124 161 200 263 306 344
#     4  10  21  40  61  92 127 158 206 252 306 369
#     4  10  19  38  65  91 120 162 214 251 299 364
#     4  11  24  42  63  90 128 163 197 256 319 367
#     4  10  23  40  64  92 118 165 213 252 301 362
#
# _framework density 26.418568
#
# number of rings (size 3 to 8) (size 9 to 14) (size 15 to 20)
#    0.000    2.000    0.000    3.500    0.000    2.667 
#    0.000   20.833    0.000    0.000    0.000    0.000 
#    0.000    0.000    0.000    0.000    0.000    0.000 
#
# Total GULP energy -148778.489318 kJ/mol
# GULP energy per Si atom -12398.207443 kJ/mol
# Density = 2.635844 g / cm^3
# Si number density = 26.418568 Si / 1000 Ang^3
#
#
#
# Elastic Constant Matrix: (Units=GPa)
#
#
# Indices 1 2 3 4 5 6 
#
# 1 113.4683 9.4319 19.8704 16.1494 -11.8343 21.4342
# 2 9.4319 106.2728 19.7042 -0.5588 2.4181 42.3946
# 3 19.8704 19.7042 116.9305 -6.3869 0.3981 27.3889
# 4 16.1494 -0.5588 -6.3869 39.9893 8.6344 -2.9342
# 5 -11.8343 2.4181 0.3981 8.6344 46.9016 2.1230
# 6 21.4342 42.3946 27.3889 -2.9342 2.1230 30.1787
#
#
#
# Elastic Compliance Matrix: (Units=1/GPa)
#
#
# Indices 1 2 3 4 5 6 
#
# 1 0.014039 0.007397 0.001205 -0.008267 0.005698 -0.022660
# 2 0.007397 0.027349 0.005355 -0.006192 0.003787 -0.049401
# 3 0.001205 0.005355 0.011957 -0.000094 0.000817 -0.019296
# 4 -0.008267 -0.006192 -0.000094 0.031394 -0.008374 0.018297
# 5 0.005698 0.003787 0.000817 -0.008374 0.024671 -0.012658
# 6 -0.022660 -0.049401 -0.019296 0.018297 -0.012658 0.138809
#
#
# Mechanical properties :
#
#
# Convention : Reuss Voigt Hill
#
# Bulk Modulus (GPa) = 12.30664 48.29829 30.30247
# Shear Modulus (GPa) = 20.21085 42.59160 31.40122
#
# Velocity S-wave (km/s) = 2.76891 4.01956 3.45135
# Velocity P-wave (km/s) = 3.85887 6.31380 5.23235
#
# Compressibility (1/GPa) = 0.08125694
#
# Stress axis : x y z
#
# Youngs Moduli (GPa) = 71.23248 36.56460 83.63426
#
# Poissons Ratio (x) = -0.27047 -0.10075
# Poissons Ratio (y) = -0.52692 -0.44782
# Poissons Ratio (z) = -0.08581 -0.19579
#
# Static dielectric constant tensor:
#      x y z
#    x 5.296680 -0.007920 -0.153100 
#    y -0.007920 4.921730 -0.429610 
#    z -0.153100 -0.429610 4.760750 
# 
# 
# High freq. dielectric constant tensor:
#      x y z
#    x 2.094180 -0.009120 0.000050 
#    y -0.009120 2.046920 -0.013880 
#    z 0.000050 -0.013880 2.052600 
# 
# From -- ./inp_files/238973.got.cif
#   From: 2010.06.25/outbox.cif.g09.slc.cpg/sg2_120_cif.got.tgz:238973.got - 2010.06.27 13:26:56.
