data_PCOD8044057
_publ_section_title
;
Structure prediction by ZEFSAII (Michael W. Deem and Ramdas Pophale) SiO2 
 PCOD8044057
Probable space group: P -1
;
_chemical_formula_sum "Si O2"
_cell_formula_units_Z 16
_cell_length_a 8.670595
_cell_length_b 11.280046
_cell_length_c 13.652701
_cell_angle_alpha 60.645733
_cell_angle_beta 131.293064
_cell_angle_gamma 89.472859
_cell_volume 753.203856
_symmetry_space_group_name_H-M "P -1"
_symmetry_group_IT_number 2
_symmetry_cell_setting 'triclinic'
loop_
_space_group_symop_operation_xyz
x,y,z
-x,-y,-z
loop_
_atom_site_type_symbol
_atom_site_label
_atom_site_fract_x
_atom_site_fract_y
_atom_site_fract_z
Si Si1 0.030783 0.774456 0.443439
Si Si2 0.305648 0.133717 0.004385
Si Si3 0.453864 0.023797 0.320726
Si Si4 0.442859 0.476979 0.639019
Si Si5 0.154278 0.028218 0.359430
Si Si6 0.151597 0.545591 0.299367
Si Si7 0.919967 0.729920 0.624767
Si Si8 0.544808 0.809931 0.149274
O O1 0.275638 0.642559 0.552819
O O2 0.998628 0.944129 0.334441
O O3 0.055475 0.744846 0.581832
O O4 0.807349 0.767083 0.311338
O O5 0.386909 0.128970 0.152216
O O6 0.336572 0.964757 0.054720
O O7 0.470695 0.162950 0.985784
O O8 0.032594 0.272743 0.824498
O O9 0.217662 0.044174 0.266858
O O10 0.632643 0.839545 0.442087
O O11 0.595658 0.077294 0.432790
O O12 0.322019 0.459877 0.497364
O O13 0.693974 0.463506 0.726074
O O14 0.495037 0.334768 0.790664
O O15 0.007436 0.202522 0.277667
O O16 0.014922 0.450060 0.257365
#
# Coordination Sequence:
#
# PCOD8044057 Si02
#       8
#     2   2   2   2   2   2   2   2
#     4  12  19  36  66  92 117 152 206 246 289 358
#     4  11  22  39  60  88 127 158 190 250 309 354
#     4   9  19  40  60  87 117 156 201 250 290 348
#     4  11  23  38  60  90 120 161 206 237 293 362
#     4   9  21  37  66  88 113 160 209 247 285 352
#     4  11  22  38  61  89 121 162 199 245 294 355
#     4  10  19  37  63  88 113 156 203 245 288 346
#     4  11  22  39  58  92 127 157 189 247 308 361
#
# _framework density 21.24259
#
# number of rings (size 3 to 8) (size 9 to 14) (size 15 to 20)
#    0.750    0.750    3.750    2.250    0.000    1.500 
#    4.500    0.625    0.000    2.250    0.000    0.000 
#    0.000    0.000    0.000    0.000    0.000    0.000 
#
# Total GULP energy -198349.186939 kJ/mol
# GULP energy per Si atom -12396.824184 kJ/mol
# Density = 2.119424 g / cm^3
# Si number density = 21.242590 Si / 1000 Ang^3
#
#
#
# Elastic Constant Matrix: (Units=GPa)
#
#
# Indices 1 2 3 4 5 6 
#
# 1 133.5236 48.4880 24.1759 -7.3494 -16.7094 -16.0093
# 2 48.4880 85.1599 15.1140 -23.0803 -5.9637 -4.4603
# 3 24.1759 15.1140 60.0421 -12.7500 -15.9756 -5.0909
# 4 -7.3494 -23.0803 -12.7500 25.8583 -11.9885 -0.0153
# 5 -16.7094 -5.9637 -15.9756 -11.9885 40.2030 -5.6078
# 6 -16.0093 -4.4603 -5.0909 -0.0153 -5.6078 33.0593
#
#
#
# Elastic Compliance Matrix: (Units=1/GPa)
#
#
# Indices 1 2 3 4 5 6 
#
# 1 0.010800 -0.005831 -0.002117 -0.001842 0.002876 0.004605
# 2 -0.005831 0.022044 0.005526 0.025929 0.011181 0.002910
# 3 -0.002117 0.005526 0.028025 0.027588 0.020349 0.007501
# 4 -0.001842 0.025929 0.027588 0.095561 0.044556 0.014457
# 5 0.002876 0.011181 0.020349 0.044556 0.051156 0.014733
# 6 0.004605 0.002910 0.007501 0.014457 0.014733 0.036532
#
#
# Mechanical properties :
#
#
# Convention : Reuss Voigt Hill
#
# Bulk Modulus (GPa) = 17.84820 50.47574 34.16197
# Shear Modulus (GPa) = 18.68208 32.55397 25.61803
#
# Velocity S-wave (km/s) = 2.96879 3.91894 3.47648
# Velocity P-wave (km/s) = 4.49132 6.65512 5.67726
#
# Compressibility (1/GPa) = 0.05602805
#
# Stress axis : x y z
#
# Youngs Moduli (GPa) = 92.58861 45.36309 35.68250
#
# Poissons Ratio (x) = 0.26449 0.07553
# Poissons Ratio (y) = 0.53984 -0.19719
# Poissons Ratio (z) = 0.19598 -0.25069
#
# Static dielectric constant tensor:
#      x y z
#    x 3.969220 -0.233870 -0.185680 
#    y -0.233870 3.538020 -0.137370 
#    z -0.185680 -0.137370 3.549350 
# 
# 
# High freq. dielectric constant tensor:
#      x y z
#    x 1.847220 -0.018680 -0.016200 
#    y -0.018680 1.812640 -0.016820 
#    z -0.016200 -0.016820 1.800110 
# 
# From -- ./inp_files/500079.got.cif
#   From: 2010.06.25/outbox.cif.g09.slc.cpg/sg2_251_cif.got.tgz:500079.got - 2010.06.27 13:26:56.
