data_PCOD8044248
_publ_section_title
;
Structure prediction by ZEFSAII (Michael W. Deem and Ramdas Pophale) SiO2 
 PCOD8044248
Probable space group: P -1
;
_chemical_formula_sum "Si O2"
_cell_formula_units_Z 16
_cell_length_a 9.481519
_cell_length_b 12.414112
_cell_length_c 12.713238
_cell_angle_alpha 87.547877
_cell_angle_beta 123.464327
_cell_angle_gamma 52.077389
_cell_volume 802.191118
_symmetry_space_group_name_H-M "P -1"
_symmetry_group_IT_number 2
_symmetry_cell_setting 'triclinic'
loop_
_space_group_symop_operation_xyz
x,y,z
-x,-y,-z
loop_
_atom_site_type_symbol
_atom_site_label
_atom_site_fract_x
_atom_site_fract_y
_atom_site_fract_z
Si Si1 0.031451 0.358563 0.519558
Si Si2 0.707501 0.051820 0.130486
Si Si3 0.376790 0.217849 0.182235
Si Si4 0.515857 0.444416 0.628647
Si Si5 0.137904 0.935072 0.176344
Si Si6 0.848472 0.467846 0.821972
Si Si7 0.203050 0.238482 0.809321
Si Si8 0.508494 0.952373 0.388431
O O1 0.239180 0.230638 0.701364
O O2 0.000000 0.500000 0.500000
O O3 0.766970 0.425251 0.437505
O O4 0.188687 0.238428 0.487944
O O5 0.630491 0.117414 0.216547
O O6 0.811193 0.880015 0.159613
O O7 0.439862 0.193189 0.951375
O O8 0.911634 0.037377 0.167963
O O9 0.322933 0.343899 0.231669
O O10 0.451490 0.079554 0.285380
O O11 0.111735 0.323982 0.004058
O O12 0.500000 0.500000 0.500000
O O13 0.660316 0.260078 0.708751
O O14 0.664624 0.455077 0.765508
O O15 0.293559 0.968034 0.265824
O O16 0.000000 0.000000 0.000000
O O17 0.936672 0.424956 0.736761
O O18 0.500000 0.000000 0.500000
#
# Coordination Sequence:
#
# PCOD8044248 Si02
#       8
#     2   2   2   2   2   2   2   2
#     4  12  24  41  62  94 133 177 216 267 340 398
#     4  10  20  38  69  95 121 170 224 276 315 394
#     4  10  23  43  67  92 133 178 217 263 342 404
#     4  12  24  40  69  99 128 169 227 276 319 388
#     4  12  25  44  70 103 134 171 230 285 331 391
#     4  10  21  40  68  96 125 167 223 274 317 392
#     4  10  19  37  66  95 125 163 228 268 319 386
#     4  12  28  45  64  98 144 178 212 278 354 397
#
# _framework density 19.945371999999999
#
# number of rings (size 3 to 8) (size 9 to 14) (size 15 to 20)
#    0.000    1.000    5.000    1.500    5.250    1.000 
#    0.000    1.250    0.000    4.500    0.000    0.000 
#    0.000    0.000    0.000    0.000    0.000    0.000 
#
# Total GULP energy -198240.940546 kJ/mol
# GULP energy per Si atom -12390.058784 kJ/mol
# Density = 1.989998 g / cm^3
# Si number density = 19.945372 Si / 1000 Ang^3
#
#
#
# Elastic Constant Matrix: (Units=GPa)
#
#
# Indices 1 2 3 4 5 6 
#
# 1 136.1282 68.2222 46.6793 -3.9639 11.9949 -20.7572
# 2 68.2222 156.4357 41.6611 -1.3129 9.6798 -21.0052
# 3 46.6793 41.6611 67.6159 -0.5334 -2.9395 -0.3715
# 4 -3.9639 -1.3129 -0.5334 29.3190 5.6006 -0.4556
# 5 11.9949 9.6798 -2.9395 5.6006 28.6013 -2.7033
# 6 -20.7572 -21.0052 -0.3715 -0.4556 -2.7033 32.4464
#
#
#
# Elastic Compliance Matrix: (Units=1/GPa)
#
#
# Indices 1 2 3 4 5 6 
#
# 1 0.012474 -0.002344 -0.007337 0.002519 -0.005120 0.005988
# 2 -0.002344 0.009233 -0.004142 0.000520 -0.002268 0.004248
# 3 -0.007337 -0.004142 0.022640 -0.002129 0.006599 -0.006596
# 4 0.002519 0.000520 -0.002129 0.036054 -0.008347 0.001735
# 5 -0.005120 -0.002268 0.006599 -0.008347 0.040054 -0.001448
# 6 0.005988 0.004248 -0.006596 0.001735 -0.001448 0.037229
#
#
# Mechanical properties :
#
#
# Convention : Reuss Voigt Hill
#
# Bulk Modulus (GPa) = 59.87444 74.81167 67.34306
# Shear Modulus (GPa) = 26.19206 31.64782 28.91994
#
# Velocity S-wave (km/s) = 3.62773 3.98769 3.81196
# Velocity P-wave (km/s) = 6.90156 7.66759 7.29464
#
# Compressibility (1/GPa) = 0.01670162
#
# Stress axis : x y z
#
# Youngs Moduli (GPa) = 80.16507 108.30953 44.16889
#
# Poissons Ratio (x) = 0.25390 0.32408
# Poissons Ratio (y) = 0.18792 0.18293
# Poissons Ratio (z) = 0.58819 0.44857
#
# Static dielectric constant tensor:
#      x y z
#    x 3.910290 -0.251780 0.054580 
#    y -0.251780 3.802100 0.075450 
#    z 0.054580 0.075450 3.868460 
# 
# 
# High freq. dielectric constant tensor:
#      x y z
#    x 1.786170 -0.010910 0.003470 
#    y -0.010910 1.784170 -0.008690 
#    z 0.003470 -0.008690 1.775880 
# 
# From -- ./inp_files/392621.got.cif
#   From: 2010.06.25/outbox.cif.g09.slc.cpg/sg2_197_cif.got.tgz:392621.got - 2010.06.27 13:26:56.
