data_PCOD8044921
_publ_section_title
;
Structure prediction by ZEFSAII (Michael W. Deem and Ramdas Pophale) SiO2 
 PCOD8044921
Probable space group: P 2
;
_chemical_formula_sum "Si O2"
_cell_formula_units_Z 13
_cell_length_a 14.857366
_cell_length_b 8.183811
_cell_length_c 14.897782
_cell_angle_alpha 90.000000
_cell_angle_beta 160.372961
_cell_angle_gamma 90.000000
_cell_volume 608.448745
_symmetry_space_group_name_H-M "P 2"
_symmetry_group_IT_number 3
_symmetry_cell_setting 'monoclinic'
loop_
_space_group_symop_operation_xyz
x,y,z
-x,y,-z
loop_
_atom_site_type_symbol
_atom_site_label
_atom_site_fract_x
_atom_site_fract_y
_atom_site_fract_z
Si Si1 0.500000 0.068950 0.500000
Si Si2 0.996566 0.172503 0.752960
Si Si3 0.957173 0.984219 0.557562
Si Si4 0.452615 0.300994 0.294741
Si Si5 0.180108 0.852932 0.324861
Si Si6 0.546947 0.761115 0.942035
Si Si7 0.339321 0.657634 0.142707
O O1 0.372619 0.188969 0.304795
O O2 0.260855 0.950888 0.309942
O O3 0.772569 0.290945 0.583632
O O4 0.290327 0.231986 0.056772
O O5 0.953147 0.158508 0.605708
O O6 0.957748 0.982616 0.740089
O O7 0.701419 0.867691 0.324361
O O8 0.000000 0.052153 0.500000
O O9 0.204668 0.878668 0.822215
O O10 0.382995 0.490556 0.239002
O O11 0.453903 0.789912 0.625722
O O12 0.960882 0.709928 0.109094
O O13 0.614108 0.633981 0.922442
O O14 0.500000 0.684130 0.000000
#
# Coordination Sequence:
#
# PCOD8044921 Si02
#       7
#     1   2   2   2   2   2   2
#     4  10  26  48  60  98 116 178 204 282 320 382
#     4  11  20  41  61  93 120 176 198 263 307 393
#     4  10  19  33  61  94 125 161 216 265 296 361
#     4  11  26  40  66  86 140 158 208 256 346 368
#     4  11  23  40  71  83 125 154 232 253 313 373
#     4  10  19  34  60  95 131 162 211 264 302 360
#     4  12  22  42  63 101 119 176 201 269 308 392
#
# _framework density 21.365808999999999
#
# number of rings (size 3 to 8) (size 9 to 14) (size 15 to 20)
#    0.000    1.231    3.077    3.692    0.000    6.154 
#    0.000    4.615    0.000    0.000    0.000    0.000 
#    0.000    0.000    0.000    0.000    0.000    0.000 
#
# Total GULP energy -161065.786138 kJ/mol
# GULP energy per Si atom -12389.675857 kJ/mol
# Density = 2.131718 g / cm^3
# Si number density = 21.365809 Si / 1000 Ang^3
#
#
#
# Elastic Constant Matrix: (Units=GPa)
#
#
# Indices 1 2 3 4 5 6 
#
# 1 122.6955 38.6865 16.7162 0.0000 1.8466 0.0000
# 2 38.6865 82.3183 11.4234 0.0000 -3.1078 0.0000
# 3 16.7162 11.4234 106.8083 0.0000 4.1803 0.0000
# 4 0.0000 0.0000 0.0000 44.6000 0.0000 0.1830
# 5 1.8466 -3.1078 4.1803 0.0000 25.5657 0.0000
# 6 0.0000 0.0000 0.0000 0.1830 0.0000 25.0428
#
#
#
# Elastic Compliance Matrix: (Units=1/GPa)
#
#
# Indices 1 2 3 4 5 6 
#
# 1 0.009711 -0.004466 -0.001000 0.000000 -0.001081 0.000000
# 2 -0.004466 0.014461 -0.000935 0.000000 0.002233 0.000000
# 3 -0.001000 -0.000935 0.009683 0.000000 -0.001625 0.000000
# 4 0.000000 0.000000 0.000000 0.022422 0.000000 -0.000164
# 5 -0.001081 0.002233 -0.001625 0.000000 0.039730 0.000000
# 6 0.000000 0.000000 0.000000 -0.000164 0.000000 0.039933
#
#
# Mechanical properties :
#
#
# Convention : Reuss Voigt Hill
#
# Bulk Modulus (GPa) = 47.49970 49.49714 48.49842
# Shear Modulus (GPa) = 32.10099 35.37478 33.73789
#
# Velocity S-wave (km/s) = 3.88035 4.07341 3.97805
# Velocity P-wave (km/s) = 6.50815 6.73353 6.62180
#
# Compressibility (1/GPa) = 0.02105277
#
# Stress axis : x y z
#
# Youngs Moduli (GPa) = 102.97787 69.15253 103.27746
#
# Poissons Ratio (x) = 0.30882 0.10327
# Poissons Ratio (y) = 0.45987 0.09657
# Poissons Ratio (z) = 0.10297 0.06466
#
# Static dielectric constant tensor:
#      x y z
#    x 3.997760 0.000000 0.060660 
#    y 0.000000 3.554380 0.000000 
#    z 0.060660 0.000000 3.838040 
# 
# 
# High freq. dielectric constant tensor:
#      x y z
#    x 1.846370 0.000000 0.000010 
#    y 0.000000 1.805200 0.000000 
#    z 0.000010 0.000000 1.855860 
# 
# From -- ./inp_files/13970.got.cif
#   From: 2010.03.12/outbox.cif.g09.slc.cpg/sg3_7_cif.got.tgz:13970.got - 2010.03.31 09:20:49.
