data_PCOD8044126
_publ_section_title
;
Structure prediction by ZEFSAII (Michael W. Deem and Ramdas Pophale) SiO2 
 PCOD8044126
Probable space group: P -1
;
_chemical_formula_sum "Si O2"
_cell_formula_units_Z 14
_cell_length_a 12.392570
_cell_length_b 8.897220
_cell_length_c 11.023167
_cell_angle_alpha 119.958847
_cell_angle_beta 69.467562
_cell_angle_gamma 139.867130
_cell_volume 677.680063
_symmetry_space_group_name_H-M "P -1"
_symmetry_group_IT_number 2
_symmetry_cell_setting 'triclinic'
loop_
_space_group_symop_operation_xyz
x,y,z
-x,-y,-z
loop_
_atom_site_type_symbol
_atom_site_label
_atom_site_fract_x
_atom_site_fract_y
_atom_site_fract_z
Si Si1 0.170798 0.622930 0.745813
Si Si2 0.383392 0.021344 0.606099
Si Si3 0.586351 0.608105 0.138690
Si Si4 0.978633 0.056305 0.191861
Si Si5 0.955145 0.676744 0.956341
Si Si6 0.636916 0.296510 0.081889
Si Si7 0.057875 0.735292 0.505360
O O1 0.286351 0.623582 0.780492
O O2 0.089027 0.669277 0.891131
O O3 0.020185 0.347022 0.631821
O O4 0.279344 0.836594 0.687230
O O5 0.487659 0.305270 0.724163
O O6 0.500000 0.000000 0.500000
O O7 0.260427 0.950150 0.516592
O O8 0.552907 0.393615 0.138488
O O9 0.500000 0.500000 0.000000
O O10 0.784624 0.857448 0.146733
O O11 0.083272 0.284351 0.145783
O O12 0.008598 0.166713 0.357948
O O13 0.031888 0.912159 0.108561
O O14 0.779347 0.417481 0.973577
O O15 0.500000 0.000000 0.000000
O O16 0.000000 0.500000 0.500000
#
# Coordination Sequence:
#
# PCOD8044126 Si02
#       7
#     2   2   2   2   2   2   2
#     4  11  21  40  59  91 126 157 206 252 309 372
#     4  10  21  39  63  92 120 162 211 252 304 359
#     4  10  20  40  63  88 123 158 207 259 303 367
#     4   9  18  35  62  95 111 152 214 256 292 359
#     4  10  19  37  64  87 122 155 205 252 302 362
#     4  11  25  39  59  95 129 162 200 258 322 366
#     4   9  17  35  58  85 123 151 198 249 295 366
#
# _framework density 20.658715999999998
#
# number of rings (size 3 to 8) (size 9 to 14) (size 15 to 20)
#    0.000    2.000    4.286    1.286    0.000    3.429 
#    2.571    7.143    0.000    1.714    0.000    0.000 
#    0.000    0.000    0.000    0.000    0.000    0.000 
#
# Total GULP energy -173517.535682 kJ/mol
# GULP energy per Si atom -12394.109692 kJ/mol
# Density = 2.061170 g / cm^3
# Si number density = 20.658716 Si / 1000 Ang^3
#
#
#
# Elastic Constant Matrix: (Units=GPa)
#
#
# Indices 1 2 3 4 5 6 
#
# 1 114.2398 30.3424 91.2411 15.8280 1.7650 -13.4117
# 2 30.3424 93.2422 37.0567 4.5290 -0.9789 -9.8622
# 3 91.2411 37.0567 169.9032 28.6461 -13.4393 -0.2844
# 4 15.8280 4.5290 28.6461 29.2873 5.5061 -4.8925
# 5 1.7650 -0.9789 -13.4393 5.5061 51.4145 0.8341
# 6 -13.4117 -9.8622 -0.2844 -4.8925 0.8341 21.1317
#
#
#
# Elastic Compliance Matrix: (Units=1/GPa)
#
#
# Indices 1 2 3 4 5 6 
#
# 1 0.018431 -0.000706 -0.010590 0.003280 -0.003963 0.012142
# 2 -0.000706 0.012581 -0.002814 0.002338 -0.000819 0.005959
# 3 -0.010590 -0.002814 0.014399 -0.010698 0.005390 -0.010530
# 4 0.003280 0.002338 -0.010698 0.046340 -0.008055 0.014075
# 5 -0.003963 -0.000819 0.005390 -0.008055 0.021932 -0.005555
# 6 0.012142 0.005959 -0.010530 0.014075 -0.005555 0.061146
#
#
# Mechanical properties :
#
#
# Convention : Reuss Voigt Hill
#
# Bulk Modulus (GPa) = 58.16771 77.18507 67.67639
# Shear Modulus (GPa) = 23.94884 34.94971 29.44927
#
# Velocity S-wave (km/s) = 3.40849 4.11757 3.77969
# Velocity P-wave (km/s) = 6.61120 7.74913 7.20267
#
# Compressibility (1/GPa) = 0.01719167
#
# Stress axis : x y z
#
# Youngs Moduli (GPa) = 54.25552 79.48563 69.44980
#
# Poissons Ratio (x) = 0.05610 0.73548
# Poissons Ratio (y) = 0.03829 0.19542
# Poissons Ratio (z) = 0.57457 0.22366
#
# Static dielectric constant tensor:
#      x y z
#    x 3.916110 0.026000 -0.162070 
#    y 0.026000 3.727310 0.235680 
#    z -0.162070 0.235680 4.233420 
# 
# 
# High freq. dielectric constant tensor:
#      x y z
#    x 1.794600 -0.001940 -0.012900 
#    y -0.001940 1.787250 0.015820 
#    z -0.012900 0.015820 1.812570 
# 
# From -- ./inp_files/376209.got.cif
#   From: 2010.06.25/outbox.cif.g09.slc.cpg/sg2_189_cif.got.tgz:376209.got - 2010.06.27 13:26:56.
