data_PCOD8044232
_publ_section_title
;
Structure prediction by ZEFSAII (Michael W. Deem and Ramdas Pophale) SiO2 
 PCOD8044232
Probable space group: P -1
;
_chemical_formula_sum "Si O2"
_cell_formula_units_Z 16
_cell_length_a 11.162904
_cell_length_b 11.491324
_cell_length_c 8.485250
_cell_angle_alpha 113.995626
_cell_angle_beta 51.229246
_cell_angle_gamma 98.290279
_cell_volume 765.902974
_symmetry_space_group_name_H-M "P -1"
_symmetry_group_IT_number 2
_symmetry_cell_setting 'triclinic'
loop_
_space_group_symop_operation_xyz
x,y,z
-x,-y,-z
loop_
_atom_site_type_symbol
_atom_site_label
_atom_site_fract_x
_atom_site_fract_y
_atom_site_fract_z
Si Si1 0.095235 0.603508 0.168935
Si Si2 0.002621 0.888813 0.306276
Si Si3 0.247872 0.793656 0.806199
Si Si4 0.178701 0.532424 0.710361
Si Si5 0.405468 0.629662 0.090167
Si Si6 0.546017 0.692780 0.692956
Si Si7 0.441565 0.847502 0.407361
Si Si8 0.335468 0.110126 0.508313
O O1 0.237172 0.595101 0.167808
O O2 0.022186 0.752711 0.300891
O O3 0.957254 0.528779 0.301073
O O4 0.155524 0.537790 0.919933
O O5 0.844128 0.905306 0.345862
O O6 0.000000 0.000000 0.500000
O O7 0.142634 0.889721 0.066138
O O8 0.162915 0.679781 0.739571
O O9 0.388679 0.702490 0.728534
O O10 0.310934 0.882921 0.672375
O O11 0.343959 0.443114 0.497019
O O12 0.394078 0.723608 0.298595
O O13 0.500000 0.500000 0.000000
O O14 0.492881 0.699512 0.921871
O O15 0.629833 0.814930 0.639247
O O16 0.610445 0.817229 0.339841
O O17 0.435340 0.966066 0.355753
#
# Coordination Sequence:
#
# PCOD8044232 Si02
#       8
#     2   2   2   2   2   2   2   2
#     4  10  22  38  61  98 123 167 208 262 317 365
#     4  11  21  41  68  96 124 166 216 266 304 377
#     4  10  22  39  67  93 124 172 212 253 321 376
#     4  10  19  37  66  91 125 159 219 257 304 389
#     4  12  25  39  63  96 133 165 206 269 324 365
#     4  11  21  39  65  97 120 172 218 251 319 380
#     4  10  24  45  59  96 132 164 212 265 311 386
#     4  10  23  42  68  87 128 170 211 257 317 373
#
# _framework density 20.890374999999999
#
# number of rings (size 3 to 8) (size 9 to 14) (size 15 to 20)
#    0.000    1.500    3.750    1.875    3.500    1.000 
#    4.500    3.750    0.000    0.000    0.000    0.000 
#    0.000    0.000    0.000    0.000    0.000    0.000 
#
# Total GULP energy -198278.539799 kJ/mol
# GULP energy per Si atom -12392.408737 kJ/mol
# Density = 2.084283 g / cm^3
# Si number density = 20.890375 Si / 1000 Ang^3
#
#
#
# Elastic Constant Matrix: (Units=GPa)
#
#
# Indices 1 2 3 4 5 6 
#
# 1 150.9839 29.2479 46.8943 11.3939 -7.2050 19.3302
# 2 29.2479 85.8522 35.4839 0.3150 8.3064 2.3085
# 3 46.8943 35.4839 110.8753 8.6242 -3.2488 15.1119
# 4 11.3939 0.3150 8.6242 26.2673 3.8288 3.5550
# 5 -7.2050 8.3064 -3.2488 3.8288 26.6496 2.1487
# 6 19.3302 2.3085 15.1119 3.5550 2.1487 35.9086
#
#
#
# Elastic Compliance Matrix: (Units=1/GPa)
#
#
# Indices 1 2 3 4 5 6 
#
# 1 0.008553 -0.002292 -0.002069 -0.003039 0.003493 -0.003494
# 2 -0.002292 0.014837 -0.004503 0.002920 -0.006395 0.002268
# 3 -0.002069 -0.004503 0.012147 -0.002994 0.003045 -0.003595
# 4 -0.003039 0.002920 -0.002994 0.041629 -0.008002 -0.000934
# 5 0.003493 -0.006395 0.003045 -0.008002 0.042345 -0.004492
# 6 -0.003494 0.002268 -0.003595 -0.000934 -0.004492 0.031458
#
#
# Mechanical properties :
#
#
# Convention : Reuss Voigt Hill
#
# Bulk Modulus (GPa) = 56.14674 63.44043 59.79359
# Shear Modulus (GPa) = 28.63153 33.50412 31.06783
#
# Velocity S-wave (km/s) = 3.70612 4.00910 3.86059
# Velocity P-wave (km/s) = 6.72674 7.20171 6.96827
#
# Compressibility (1/GPa) = 0.01781047
#
# Stress axis : x y z
#
# Youngs Moduli (GPa) = 116.91517 67.40058 82.32252
#
# Poissons Ratio (x) = 0.15445 0.17034
# Poissons Ratio (y) = 0.26791 0.37067
# Poissons Ratio (z) = 0.24192 0.30349
#
# Static dielectric constant tensor:
#      x y z
#    x 3.589750 0.374840 -0.308450 
#    y 0.374840 3.923180 -0.163950 
#    z -0.308450 -0.163950 3.804810 
# 
# 
# High freq. dielectric constant tensor:
#      x y z
#    x 1.817780 0.014440 -0.012830 
#    y 0.014440 1.824630 0.000730 
#    z -0.012830 0.000730 1.799720 
# 
# From -- ./inp_files/262933.got.cif
#   From: 2010.06.25/outbox.cif.g09.slc.cpg/sg2_132_cif.got.tgz:262933.got - 2010.06.27 13:26:56.
