data_PCOD8044600
_publ_section_title
;
Structure prediction by ZEFSAII (Michael W. Deem and Ramdas Pophale) SiO2 
 PCOD8044600
Probable space group: P -1
;
_chemical_formula_sum "Si O2"
_cell_formula_units_Z 16
_cell_length_a 8.602474
_cell_length_b 11.578812
_cell_length_c 13.356051
_cell_angle_alpha 121.963102
_cell_angle_beta 75.082231
_cell_angle_gamma 138.628342
_cell_volume 722.406823
_symmetry_space_group_name_H-M "P -1"
_symmetry_group_IT_number 2
_symmetry_cell_setting 'triclinic'
loop_
_space_group_symop_operation_xyz
x,y,z
-x,-y,-z
loop_
_atom_site_type_symbol
_atom_site_label
_atom_site_fract_x
_atom_site_fract_y
_atom_site_fract_z
Si Si1 0.297638 0.766467 0.519979
Si Si2 0.662821 0.751500 0.708442
Si Si3 0.028346 0.090250 0.641709
Si Si4 0.321065 0.957027 0.085451
Si Si5 0.289297 0.857145 0.264417
Si Si6 0.827115 0.444411 0.356668
Si Si7 0.057729 0.435931 0.144647
Si Si8 0.418330 0.567236 0.304139
O O1 0.183309 0.668978 0.603284
O O2 0.415615 0.702750 0.430943
O O3 0.088019 0.688602 0.442663
O O4 0.512982 0.012424 0.617012
O O5 0.398743 0.595426 0.626001
O O6 0.679352 0.615385 0.692937
O O7 0.684027 0.882283 0.850379
O O8 0.879385 0.908316 0.664704
O O9 0.310293 0.282941 0.713498
O O10 0.934143 0.185304 0.692384
O O11 0.000000 0.000000 0.500000
O O12 0.403964 0.980718 0.197004
O O13 0.053840 0.727933 0.999880
O O14 0.500000 0.000000 0.000000
O O15 0.208286 0.651975 0.167175
O O16 0.843799 0.367829 0.216432
O O17 0.237247 0.457340 0.190028
#
# Coordination Sequence:
#
# PCOD8044600 Si02
#       8
#     2   2   2   2   2   2   2   2
#     4  10  20  39  62  98 132 160 217 265 325 389
#     4  11  23  43  67  97 132 177 217 263 332 389
#     4  11  22  42  64  98 135 174 213 257 329 401
#     4  11  22  44  69  94 118 168 229 272 321 379
#     4  11  22  42  66  97 126 167 219 271 323 387
#     4  10  19  38  63  95 125 166 213 266 314 390
#     4  11  24  42  66  94 128 170 223 273 322 372
#     4  11  25  43  61  98 139 173 212 263 330 400
#
# _framework density 22.148185999999999
#
# number of rings (size 3 to 8) (size 9 to 14) (size 15 to 20)
#    0.000    1.250    5.000    1.125    0.000    5.500 
#   11.250    2.500    0.000    0.000    0.000    0.000 
#    0.000    0.000    0.000    0.000    0.000    0.000 
#
# Total GULP energy -198396.381128 kJ/mol
# GULP energy per Si atom -12399.773820 kJ/mol
# Density = 2.209778 g / cm^3
# Si number density = 22.148186 Si / 1000 Ang^3
#
#
#
# Elastic Constant Matrix: (Units=GPa)
#
#
# Indices 1 2 3 4 5 6 
#
# 1 94.7353 45.4481 34.4045 12.1056 13.1021 -3.6771
# 2 45.4481 95.2037 24.2715 12.6892 -8.9979 10.7624
# 3 34.4045 24.2715 128.9547 17.5546 10.4480 7.2201
# 4 12.1056 12.6892 17.5546 41.0721 9.8901 -4.4304
# 5 13.1021 -8.9979 10.4480 9.8901 25.3670 6.0231
# 6 -3.6771 10.7624 7.2201 -4.4304 6.0231 32.9911
#
#
#
# Elastic Compliance Matrix: (Units=1/GPa)
#
#
# Indices 1 2 3 4 5 6 
#
# 1 0.019634 -0.012131 -0.002735 0.004502 -0.017580 0.010558
# 2 -0.012131 0.021040 -0.000416 -0.009112 0.020564 -0.013103
# 3 -0.002735 -0.000416 0.009178 -0.003077 -0.000732 -0.002458
# 4 0.004502 -0.009112 -0.003077 0.033348 -0.020216 0.012317
# 5 -0.017580 0.020564 -0.000732 -0.020216 0.069663 -0.023941
# 6 0.010558 -0.013103 -0.002458 0.012317 -0.023941 0.042325
#
#
# Mechanical properties :
#
#
# Convention : Reuss Voigt Hill
#
# Bulk Modulus (GPa) = 51.83997 58.57133 55.20565
# Shear Modulus (GPa) = 21.53489 34.20402 27.86945
#
# Velocity S-wave (km/s) = 3.12157 3.93405 3.55113
# Velocity P-wave (km/s) = 6.03730 6.86574 6.46480
#
# Compressibility (1/GPa) = 0.01929014
#
# Stress axis : x y z
#
# Youngs Moduli (GPa) = 50.93084 47.52842 108.95229
#
# Poissons Ratio (x) = 0.57656 0.29796
# Poissons Ratio (y) = 0.61784 0.04528
# Poissons Ratio (z) = 0.13929 0.01975
#
# Static dielectric constant tensor:
#      x y z
#    x 3.943710 0.240990 0.233200 
#    y 0.240990 4.109120 0.180080 
#    z 0.233200 0.180080 4.287580 
# 
# 
# High freq. dielectric constant tensor:
#      x y z
#    x 1.857000 0.011390 0.011410 
#    y 0.011390 1.885450 0.008810 
#    z 0.011410 0.008810 1.871070 
# 
# From -- ./inp_files/500832.got.cif
#   From: 2010.06.25/outbox.cif.g09.slc.cpg/sg2_251_cif.got.tgz:500832.got - 2010.06.27 13:26:56.
