data_PCOD8044841
_publ_section_title
;
Structure prediction by ZEFSAII (Michael W. Deem and Ramdas Pophale) SiO2 
 PCOD8044841
Probable space group: P 2
;
_chemical_formula_sum "Si O2"
_cell_formula_units_Z 15
_cell_length_a 10.248923
_cell_length_b 8.420084
_cell_length_c 9.528056
_cell_angle_alpha 90.000000
_cell_angle_beta 79.027304
_cell_angle_gamma 90.000000
_cell_volume 807.208469
_symmetry_space_group_name_H-M "P 2"
_symmetry_group_IT_number 3
_symmetry_cell_setting 'monoclinic'
loop_
_space_group_symop_operation_xyz
x,y,z
-x,y,-z
loop_
_atom_site_type_symbol
_atom_site_label
_atom_site_fract_x
_atom_site_fract_y
_atom_site_fract_z
Si Si1 0.912022 0.062650 0.282214
Si Si2 0.143107 0.797222 0.490045
Si Si3 0.794273 0.978065 0.786651
Si Si4 0.500000 0.845966 0.500000
Si Si5 0.324496 0.275943 0.639766
Si Si6 0.409647 0.125025 0.354269
Si Si7 0.307310 0.637363 0.687035
Si Si8 0.148129 0.822079 0.940975
O O1 0.827970 0.225616 0.298287
O O2 0.872681 0.965504 0.428022
O O3 0.864970 0.972667 0.154584
O O4 0.071441 0.085905 0.243368
O O5 0.202015 0.834029 0.325160
O O6 0.225162 0.669235 0.561477
O O7 0.000000 0.715694 0.500000
O O8 0.671930 0.098896 0.774052
O O9 0.775364 0.886848 0.937449
O O10 0.440228 0.740922 0.638765
O O11 0.391659 0.960213 0.447421
O O12 0.349901 0.263681 0.466256
O O13 0.433891 0.166664 0.701629
O O14 0.343721 0.453738 0.689691
O O15 0.233383 0.686025 0.845954
O O16 0.000000 0.752441 0.000000
#
# Coordination Sequence:
#
# PCOD8044841 Si02
#       8
#     2   2   2   1   2   2   2   2
#     4   9  17  34  55  80 108 148 189 227 283 337
#     4   9  16  31  55  81 105 140 193 246 270 315
#     4  10  17  32  61  84 107 133 200 251 268 315
#     4  10  18  34  60  80 104 148 204 242 266 332
#     4  10  20  33  54  82 117 150 184 230 296 352
#     4  10  18  33  56  86 105 144 199 243 277 320
#     4  11  20  36  56  84 117 156 185 226 299 354
#     4   9  19  35  60  83 110 151 192 236 284 340
#
# _framework density 18.582557999999999
#
# number of rings (size 3 to 8) (size 9 to 14) (size 15 to 20)
#    0.000    2.400    2.667    4.000    0.000    0.000 
#    2.400    4.667    2.933    1.600    0.000    0.000 
#    0.000    0.000    0.000    0.000    0.000    0.000 
#
# Total GULP energy -185872.122853 kJ/mol
# GULP energy per Si atom -12391.474857 kJ/mol
# Density = 1.854026 g / cm^3
# Si number density = 18.582558 Si / 1000 Ang^3
#
#
#
# Elastic Constant Matrix: (Units=GPa)
#
#
# Indices 1 2 3 4 5 6 
#
# 1 96.2723 37.0285 36.0055 0.0000 9.0531 0.0000
# 2 37.0285 88.2229 32.0778 0.0000 -4.1114 0.0000
# 3 36.0055 32.0778 107.4837 0.0000 8.2408 0.0000
# 4 0.0000 0.0000 0.0000 16.4461 0.0000 -5.8013
# 5 9.0531 -4.1114 8.2408 0.0000 35.8294 0.0000
# 6 0.0000 0.0000 0.0000 -5.8013 0.0000 19.3329
#
#
#
# Elastic Compliance Matrix: (Units=1/GPa)
#
#
# Indices 1 2 3 4 5 6 
#
# 1 0.013634 -0.004835 -0.002868 0.000000 -0.003340 0.000000
# 2 -0.004835 0.014631 -0.003022 0.000000 0.003596 0.000000
# 3 -0.002868 -0.003022 0.011337 0.000000 -0.002230 0.000000
# 4 0.000000 0.000000 0.000000 0.068003 0.000000 0.020406
# 5 -0.003340 0.003596 -0.002230 0.000000 0.029679 0.000000
# 6 0.000000 0.000000 0.000000 0.020406 0.000000 0.057849
#
#
# Mechanical properties :
#
#
# Convention : Reuss Voigt Hill
#
# Bulk Modulus (GPa) = 55.09399 55.80028 55.44714
# Shear Modulus (GPa) = 22.45839 26.77951 24.61895
#
# Velocity S-wave (km/s) = 3.48023 3.80031 3.64379
# Velocity P-wave (km/s) = 6.77214 7.02496 6.89971
#
# Compressibility (1/GPa) = 0.01815080
#
# Stress axis : x y z
#
# Youngs Moduli (GPa) = 73.34833 68.34888 88.20320
#
# Poissons Ratio (x) = 0.33047 0.25296
# Poissons Ratio (y) = 0.35465 0.26659
# Poissons Ratio (z) = 0.21036 0.20658
#
# Static dielectric constant tensor:
#      x y z
#    x 3.695830 0.000000 -0.025060 
#    y 0.000000 2.981940 0.000000 
#    z -0.025060 0.000000 3.520010 
# 
# 
# High freq. dielectric constant tensor:
#      x y z
#    x 1.735030 0.000000 -0.000970 
#    y 0.000000 1.677990 0.000000 
#    z -0.000970 0.000000 1.703090 
# 
# From -- ./inp_files/7001.got.cif
#   From: 2010.03.12/outbox.cif.g09.slc.cpg/sg3_4_cif.got.tgz:7001.got - 2010.03.31 09:20:49.
