data_PCOD8044844
_publ_section_title
;
Structure prediction by ZEFSAII (Michael W. Deem and Ramdas Pophale) SiO2 
 PCOD8044844
Probable space group: P 2
;
_chemical_formula_sum "Si O2"
_cell_formula_units_Z 16
_cell_length_a 8.860097
_cell_length_b 11.806706
_cell_length_c 9.055605
_cell_angle_alpha 90.000000
_cell_angle_beta 60.935869
_cell_angle_gamma 90.000000
_cell_volume 828.007264
_symmetry_space_group_name_H-M "P 2"
_symmetry_group_IT_number 3
_symmetry_cell_setting 'monoclinic'
loop_
_space_group_symop_operation_xyz
x,y,z
-x,y,-z
loop_
_atom_site_type_symbol
_atom_site_label
_atom_site_fract_x
_atom_site_fract_y
_atom_site_fract_z
Si Si1 0.322694 0.359970 0.497473
Si Si2 0.348476 0.763757 0.186779
Si Si3 0.157003 0.230371 0.827628
Si Si4 0.024443 0.775808 0.663431
Si Si5 0.488706 0.229467 0.170170
Si Si6 0.665679 0.619437 0.523393
Si Si7 0.075100 0.020477 0.688906
Si Si8 0.722948 0.017654 0.696952
O O1 0.500000 0.348297 0.500000
O O2 0.172434 0.302915 0.668583
O O3 0.341799 0.297014 0.331312
O O4 0.277636 0.489777 0.486129
O O5 0.383496 0.672041 0.296544
O O6 0.165251 0.735440 0.193247
O O7 0.343495 0.889323 0.257743
O O8 0.500000 0.750346 0.000000
O O9 0.326867 0.241889 0.843131
O O10 0.121443 0.098499 0.806103
O O11 0.000000 0.278962 0.000000
O O12 0.166465 0.680535 0.625148
O O13 0.000000 0.808700 0.500000
O O14 0.083834 0.887092 0.725266
O O15 0.437090 0.097663 0.186992
O O16 0.500000 0.280387 0.000000
O O17 0.500000 0.634712 0.500000
O O18 0.218816 0.044270 0.496887
O O19 0.880265 0.047280 0.731178
#
# Coordination Sequence:
#
# PCOD8044844 Si02
#       8
#     2   2   2   2   2   2   2   2
#     4   9  21  40  59  79 114 155 193 241 295 337
#     4  10  20  36  59  86 118 151 185 238 286 337
#     4  11  23  39  58  86 117 151 194 241 290 344
#     4   9  17  37  57  82 117 149 185 229 281 343
#     4  11  22  38  58  86 118 151 193 238 288 352
#     4  10  20  38  60  83 109 152 198 237 286 345
#     4  10  17  34  59  84 115 150 185 233 283 345
#     4  10  18  34  58  86 116 153 187 227 290 341
#
# _framework density 19.323502000000001
#
# number of rings (size 3 to 8) (size 9 to 14) (size 15 to 20)
#    0.000    2.000    5.000    1.125    0.000    2.500 
#    0.000   11.875    0.000    0.000    0.000    0.000 
#    0.000    0.000    0.000    0.000    0.000    0.000 
#
# Total GULP energy -198380.404880 kJ/mol
# GULP energy per Si atom -12398.775305 kJ/mol
# Density = 1.927952 g / cm^3
# Si number density = 19.323502 Si / 1000 Ang^3
#
#
#
# Elastic Constant Matrix: (Units=GPa)
#
#
# Indices 1 2 3 4 5 6 
#
# 1 76.1434 45.8826 50.4444 0.0000 -11.8620 0.0000
# 2 45.8826 129.4050 60.6792 0.0000 -2.7576 0.0000
# 3 50.4444 60.6792 144.9486 0.0000 -17.3120 0.0000
# 4 0.0000 0.0000 0.0000 15.4490 0.0000 -0.4941
# 5 -11.8620 -2.7576 -17.3120 0.0000 33.7198 0.0000
# 6 0.0000 0.0000 0.0000 -0.4941 0.0000 25.3418
#
#
#
# Elastic Compliance Matrix: (Units=1/GPa)
#
#
# Indices 1 2 3 4 5 6 
#
# 1 0.019541 -0.004838 -0.004263 0.000000 0.004290 0.000000
# 2 -0.004838 0.010872 -0.003158 0.000000 -0.002434 0.000000
# 3 -0.004263 -0.003158 0.010115 0.000000 0.003435 0.000000
# 4 0.000000 0.000000 0.000000 0.064770 0.000000 0.001263
# 5 0.004290 -0.002434 0.003435 0.000000 0.032730 0.000000
# 6 0.000000 0.000000 0.000000 0.001263 0.000000 0.039485
#
#
# Mechanical properties :
#
#
# Convention : Reuss Voigt Hill
#
# Bulk Modulus (GPa) = 62.46351 73.83437 68.14894
# Shear Modulus (GPa) = 24.11173 27.80151 25.95662
#
# Velocity S-wave (km/s) = 3.53624 3.79719 3.66904
# Velocity P-wave (km/s) = 7.00490 7.58402 7.30021
#
# Compressibility (1/GPa) = 0.01600935
#
# Stress axis : x y z
#
# Youngs Moduli (GPa) = 51.17473 91.97705 98.86341
#
# Poissons Ratio (x) = 0.44501 0.42143
# Poissons Ratio (y) = 0.24760 0.31225
# Poissons Ratio (z) = 0.21814 0.29050
#
# Static dielectric constant tensor:
#      x y z
#    x 3.415200 0.000000 -0.235310 
#    y 0.000000 3.497370 0.000000 
#    z -0.235310 0.000000 3.640590 
# 
# 
# High freq. dielectric constant tensor:
#      x y z
#    x 1.739790 0.000000 -0.017480 
#    y 0.000000 1.746660 0.000000 
#    z -0.017480 0.000000 1.748310 
# 
# From -- ./inp_files/5797.got.cif
#   From: 2010.03.12/outbox.cif.g09.slc.cpg/sg3_3_cif.got.tgz:5797.got - 2010.03.31 09:20:49.
