data_PCOD8044276
_publ_section_title
;
Structure prediction by ZEFSAII (Michael W. Deem and Ramdas Pophale) SiO2 
 PCOD8044276
Probable space group: P -1
;
_chemical_formula_sum "Si O2"
_cell_formula_units_Z 14
_cell_length_a 9.569610
_cell_length_b 9.774768
_cell_length_c 7.750358
_cell_angle_alpha 101.665720
_cell_angle_beta 84.057827
_cell_angle_gamma 112.529701
_cell_volume 655.540615
_symmetry_space_group_name_H-M "P -1"
_symmetry_group_IT_number 2
_symmetry_cell_setting 'triclinic'
loop_
_space_group_symop_operation_xyz
x,y,z
-x,-y,-z
loop_
_atom_site_type_symbol
_atom_site_label
_atom_site_fract_x
_atom_site_fract_y
_atom_site_fract_z
Si Si1 0.265308 0.211172 0.388079
Si Si2 0.436309 0.643390 0.782613
Si Si3 0.728393 0.696266 0.226689
Si Si4 0.665025 0.069282 0.584803
Si Si5 0.056655 0.174486 0.078025
Si Si6 0.534108 0.856851 0.141442
Si Si7 0.756669 0.182432 0.247935
O O1 0.435826 0.333596 0.372791
O O2 0.199737 0.264859 0.580648
O O3 0.162800 0.213809 0.240848
O O4 0.269124 0.045899 0.368952
O O5 0.378112 0.477334 0.825169
O O6 0.295242 0.677264 0.733459
O O7 0.522634 0.763718 0.947541
O O8 0.629448 0.800667 0.251307
O O9 0.857682 0.733706 0.075923
O O10 0.634125 0.168882 0.769309
O O11 0.779313 0.163388 0.445604
O O12 0.500000 0.000000 0.500000
O O13 0.915660 0.223102 0.143139
O O14 0.000000 0.000000 0.000000
O O15 0.630110 0.033982 0.140087
#
# Coordination Sequence:
#
# PCOD8044276 Si02
#       7
#     2   2   2   2   2   2   2
#     4  12  23  43  70  98 129 171 216 272 329 372
#     4  12  24  40  70  97 132 171 215 273 327 376
#     4  12  25  43  65 101 134 168 219 265 327 393
#     4  10  19  37  67  98 123 159 225 272 308 376
#     4  12  26  43  66  96 135 171 219 266 322 394
#     4  11  20  40  68  98 128 164 221 273 313 375
#     4  11  22  43  64  98 130 170 222 266 318 388
#
# _framework density 21.356418999999999
#
# number of rings (size 3 to 8) (size 9 to 14) (size 15 to 20)
#    0.000    0.571    8.571    1.286    2.000    2.857 
#    0.000    0.714    0.000    0.000    0.000    0.000 
#    0.000    0.000    0.000    0.000    0.000    0.000 
#
# Total GULP energy -173613.597280 kJ/mol
# GULP energy per Si atom -12400.971234 kJ/mol
# Density = 2.130781 g / cm^3
# Si number density = 21.356419 Si / 1000 Ang^3
#
#
#
# Elastic Constant Matrix: (Units=GPa)
#
#
# Indices 1 2 3 4 5 6 
#
# 1 100.7547 17.9468 42.0232 -10.2629 -14.8690 13.3943
# 2 17.9468 71.2862 21.0125 -13.7429 -7.5843 6.2609
# 3 42.0232 21.0125 126.4861 -20.4118 -15.6027 17.6666
# 4 -10.2629 -13.7429 -20.4118 27.5336 7.9009 -9.0735
# 5 -14.8690 -7.5843 -15.6027 7.9009 28.6659 -7.8548
# 6 13.3943 6.2609 17.6666 -9.0735 -7.8548 17.7961
#
#
#
# Elastic Compliance Matrix: (Units=1/GPa)
#
#
# Indices 1 2 3 4 5 6 
#
# 1 0.012496 -0.001675 -0.002924 -0.000925 0.003359 -0.004903
# 2 -0.001675 0.016076 -0.000981 0.006465 0.001177 0.000394
# 3 -0.002924 -0.000981 0.010619 0.004155 0.001420 -0.005251
# 4 -0.000925 0.006465 0.004155 0.049489 -0.005457 0.017121
# 5 0.003359 0.001177 0.001420 -0.005457 0.042387 0.011575
# 6 -0.004903 0.000394 -0.005251 0.017121 0.011575 0.078795
#
#
# Mechanical properties :
#
#
# Convention : Reuss Voigt Hill
#
# Bulk Modulus (GPa) = 35.67210 51.16578 43.41894
# Shear Modulus (GPa) = 21.70479 29.30211 25.50345
#
# Velocity S-wave (km/s) = 3.19142 3.70814 3.45944
# Velocity P-wave (km/s) = 5.50634 6.50721 6.02758
#
# Compressibility (1/GPa) = 0.02803311
#
# Stress axis : x y z
#
# Youngs Moduli (GPa) = 80.02566 62.20631 94.16686
#
# Poissons Ratio (x) = 0.10417 0.27530
# Poissons Ratio (y) = 0.13401 0.09236
# Poissons Ratio (z) = 0.23396 0.06101
#
# Static dielectric constant tensor:
#      x y z
#    x 3.968490 -0.071980 -0.388070 
#    y -0.071980 3.658970 -0.266260 
#    z -0.388070 -0.266260 4.286090 
# 
# 
# High freq. dielectric constant tensor:
#      x y z
#    x 1.828900 -0.014580 -0.016030 
#    y -0.014580 1.810640 -0.018760 
#    z -0.016030 -0.018760 1.857410 
# 
# From -- ./inp_files/159260.got.cif
#   From: 2010.06.25/outbox.cif.g09.slc.cpg/sg2_80_cif.got.tgz:159260.got - 2010.06.27 13:26:56.
