data_PCOD8044714
_publ_section_title
;
Structure prediction by ZEFSAII (Michael W. Deem and Ramdas Pophale) SiO2 
 PCOD8044714
Probable space group: P -1
;
_chemical_formula_sum "Si O2"
_cell_formula_units_Z 16
_cell_length_a 14.474227
_cell_length_b 9.400224
_cell_length_c 12.113262
_cell_angle_alpha 56.388431
_cell_angle_beta 74.980449
_cell_angle_gamma 120.091094
_cell_volume 792.457189
_symmetry_space_group_name_H-M "P -1"
_symmetry_group_IT_number 2
_symmetry_cell_setting 'triclinic'
loop_
_space_group_symop_operation_xyz
x,y,z
-x,-y,-z
loop_
_atom_site_type_symbol
_atom_site_label
_atom_site_fract_x
_atom_site_fract_y
_atom_site_fract_z
Si Si1 0.048179 0.272574 0.508498
Si Si2 0.907324 0.305244 0.354125
Si Si3 0.930536 0.735635 0.819367
Si Si4 0.623985 0.150602 0.494930
Si Si5 0.860010 0.745610 0.074919
Si Si6 0.415117 0.848076 0.906036
Si Si7 0.108932 0.856420 0.172542
Si Si8 0.660450 0.092620 0.894298
O O1 0.927200 0.207839 0.495150
O O2 0.028028 0.297782 0.630680
O O3 0.232484 0.579987 0.291578
O O4 0.014382 0.021905 0.616608
O O5 0.724861 0.115379 0.476111
O O6 0.966588 0.284556 0.237231
O O7 0.022487 0.636506 0.191352
O O8 0.919067 0.719951 0.962441
O O9 0.750348 0.474058 0.940851
O O10 0.741350 0.476991 0.306188
O O11 0.500000 0.000000 0.500000
O O12 0.530562 0.040507 0.684777
O O13 0.789995 0.828383 0.022645
O O14 0.000000 0.000000 0.000000
O O15 0.505648 0.862447 0.963610
O O16 0.384128 0.978796 0.929531
O O17 0.236429 0.920812 0.166249
#
# Coordination Sequence:
#
# PCOD8044714 Si02
#       8
#     2   2   2   2   2   2   2   2
#     4  10  20  37  67  99 126 162 210 261 312 379
#     4  11  21  40  68  92 124 168 214 254 313 382
#     4  11  23  41  67  98 125 160 217 267 310 375
#     4  12  25  44  62  90 133 169 211 260 324 365
#     4  11  24  44  65  89 124 171 219 263 306 377
#     4  11  22  40  63  95 133 167 195 270 325 369
#     4  10  19  38  65  94 120 166 219 252 304 379
#     4  10  21  38  66  93 131 166 208 253 330 378
#
# _framework density 20.190365
#
# number of rings (size 3 to 8) (size 9 to 14) (size 15 to 20)
#    0.000    1.250    5.000    3.375    1.750    0.500 
#    4.500    2.500    0.000    0.000    0.000    0.000 
#    0.000    0.000    0.000    0.000    0.000    0.000 
#
# Total GULP energy -198221.337970 kJ/mol
# GULP energy per Si atom -12388.833623 kJ/mol
# Density = 2.014441 g / cm^3
# Si number density = 20.190365 Si / 1000 Ang^3
#
#
#
# Elastic Constant Matrix: (Units=GPa)
#
#
# Indices 1 2 3 4 5 6 
#
# 1 79.3118 44.6808 47.3220 -3.0702 -14.7703 0.3914
# 2 44.6808 130.5049 47.5648 16.2517 -7.4177 -0.0247
# 3 47.3220 47.5648 104.9290 7.9546 -6.6619 -13.5258
# 4 -3.0702 16.2517 7.9546 29.5329 1.7783 -4.3725
# 5 -14.7703 -7.4177 -6.6619 1.7783 27.6366 -6.5609
# 6 0.3914 -0.0247 -13.5258 -4.3725 -6.5609 40.0409
#
#
#
# Elastic Compliance Matrix: (Units=1/GPa)
#
#
# Indices 1 2 3 4 5 6 
#
# 1 0.021675 -0.005013 -0.007601 0.006471 0.007801 -0.000798
# 2 -0.005013 0.011032 -0.002486 -0.006127 -0.000279 -0.001499
# 3 -0.007601 -0.002486 0.014930 -0.002737 0.000197 0.004850
# 4 0.006471 -0.006127 -0.002737 0.039150 -0.000609 0.003184
# 5 0.007801 -0.000279 0.000197 -0.000609 0.041979 0.006802
# 6 -0.000798 -0.001499 0.004850 0.003184 0.006802 0.028082
#
#
# Mechanical properties :
#
#
# Convention : Reuss Voigt Hill
#
# Bulk Modulus (GPa) = 57.35113 65.98675 61.66894
# Shear Modulus (GPa) = 25.92526 31.12061 28.52294
#
# Velocity S-wave (km/s) = 3.58724 3.93027 3.76267
# Velocity P-wave (km/s) = 6.75460 7.30406 7.03470
#
# Compressibility (1/GPa) = 0.01743645
#
# Stress axis : x y z
#
# Youngs Moduli (GPa) = 46.13620 90.64528 66.97752
#
# Poissons Ratio (x) = 0.45443 0.50909
# Poissons Ratio (y) = 0.23129 0.16653
# Poissons Ratio (z) = 0.35067 0.22538
#
# Static dielectric constant tensor:
#      x y z
#    x 11.139710 -6.707550 3.196720 
#    y -6.707550 10.050600 -2.859350 
#    z 3.196720 -2.859350 5.084280 
# 
# 
# High freq. dielectric constant tensor:
#      x y z
#    x 1.783100 0.003290 -0.005470 
#    y 0.003290 1.798400 0.013130 
#    z -0.005470 0.013130 1.781730 
# 
# From -- ./inp_files/217841.got.cif
#   From: 2010.06.25/outbox.cif.g09.slc.cpg/sg2_109_cif.got.tgz:217841.got - 2010.06.27 13:26:56.
