data_PCOD8044942
_publ_section_title
;
Structure prediction by ZEFSAII (Michael W. Deem and Ramdas Pophale) SiO2 
 PCOD8044942
Probable space group: P 2
;
_chemical_formula_sum "Si O2"
_cell_formula_units_Z 16
_cell_length_a 8.546278
_cell_length_b 11.785424
_cell_length_c 9.038232
_cell_angle_alpha 90.000000
_cell_angle_beta 119.162778
_cell_angle_gamma 90.000000
_cell_volume 794.948055
_symmetry_space_group_name_H-M "P 2"
_symmetry_group_IT_number 3
_symmetry_cell_setting 'monoclinic'
loop_
_space_group_symop_operation_xyz
x,y,z
-x,y,-z
loop_
_atom_site_type_symbol
_atom_site_label
_atom_site_fract_x
_atom_site_fract_y
_atom_site_fract_z
Si Si1 0.226110 0.353680 0.787168
Si Si2 0.528179 0.105396 0.682676
Si Si3 0.963851 0.587577 0.318571
Si Si4 0.307408 0.730848 0.981809
Si Si5 0.181099 0.977830 0.996281
Si Si6 0.596294 0.348673 0.815790
Si Si7 0.157179 0.108735 0.677703
Si Si8 0.192451 0.560970 0.165035
O O1 0.086612 0.455585 0.718601
O O2 0.390850 0.382314 0.753655
O O3 0.120374 0.241364 0.689961
O O4 0.298115 0.330931 0.983924
O O5 0.500000 0.069254 0.500000
O O6 0.605708 0.233085 0.726096
O O7 0.343369 0.092846 0.682084
O O8 0.661009 0.020319 0.825669
O O9 0.000000 0.625798 0.500000
O O10 0.145558 0.607356 0.306949
O O11 0.802419 0.665791 0.193170
O O12 0.209985 0.846282 0.977479
O O13 0.311426 0.652204 0.130306
O O14 0.500000 0.754100 0.000000
O O15 0.000000 0.997076 0.000000
O O16 0.167584 0.042881 0.835897
O O17 0.691692 0.446782 0.765551
O O18 0.000000 0.060482 0.500000
O O19 0.000000 0.537034 0.000000
#
# Coordination Sequence:
#
# PCOD8044942 Si02
#       8
#     2   2   2   2   2   2   2   2
#     4  10  19  36  60  91 128 168 206 251 312 375
#     4  11  24  42  63  96 131 166 214 264 315 380
#     4  11  23  38  61  94 128 158 204 262 308 368
#     4  11  23  44  67  87 116 164 210 254 313 384
#     4  12  25  43  68  93 122 167 213 264 325 376
#     4  10  19  35  62  90 125 167 208 253 310 376
#     4  11  23  41  63  94 131 170 213 261 313 378
#     4  10  20  36  60  90 122 159 204 249 303 374
#
# _framework density 20.127102000000001
#
# number of rings (size 3 to 8) (size 9 to 14) (size 15 to 20)
#    0.000    1.250    3.750    4.125    0.000    5.000 
#    0.000    5.625    0.000    0.000    0.000    0.000 
#    0.000    0.000    0.000    0.000    0.000    0.000 
#
# Total GULP energy -198437.063415 kJ/mol
# GULP energy per Si atom -12402.316463 kJ/mol
# Density = 2.008129 g / cm^3
# Si number density = 20.127102 Si / 1000 Ang^3
#
#
#
# Elastic Constant Matrix: (Units=GPa)
#
#
# Indices 1 2 3 4 5 6 
#
# 1 77.3553 25.3710 25.7773 0.0000 -15.5178 0.0000
# 2 25.3710 92.2474 35.9733 0.0000 -3.6642 0.0000
# 3 25.7773 35.9733 116.4884 0.0000 -21.1415 0.0000
# 4 0.0000 0.0000 0.0000 -21.6551 0.0000 -14.2947
# 5 -15.5178 -3.6642 -21.1415 0.0000 30.6844 0.0000
# 6 0.0000 0.0000 0.0000 -14.2947 0.0000 32.0032
#
#
#
# Elastic Compliance Matrix: (Units=1/GPa)
#
#
# Indices 1 2 3 4 5 6 
#
# 1 0.015871 -0.003645 -0.001153 0.000000 0.006797 0.000000
# 2 -0.003645 0.013209 -0.003795 0.000000 -0.002881 0.000000
# 3 -0.001153 -0.003795 0.011228 0.000000 0.006700 0.000000
# 4 0.000000 0.000000 0.000000 -0.035663 0.000000 -0.015930
# 5 0.006797 -0.002881 0.006700 0.000000 0.040299 0.000000
# 6 0.000000 0.000000 0.000000 -0.015930 0.000000 0.024132
#
#
# Mechanical properties :
#
#
# Convention : Reuss Voigt Hill
#
# Bulk Modulus (GPa) = 43.25252 51.14826 47.20039
# Shear Modulus (GPa) = 53.20997 21.47114 37.34055
#
# Velocity S-wave (km/s) = 5.14727 3.26970 4.31192
# Velocity P-wave (km/s) = 7.54070 6.30257 6.94926
#
# Compressibility (1/GPa) = 0.02312004
#
# Stress axis : x y z
#
# Youngs Moduli (GPa) = 63.00993 75.70837 89.06666
#
# Poissons Ratio (x) = 0.27599 0.10266
# Poissons Ratio (y) = 0.22970 0.33803
# Poissons Ratio (z) = 0.07263 0.28733
#
# Static dielectric constant tensor:
#      x y z
#    x 3.874790 0.000000 -0.109230 
#    y 0.000000 3.666090 0.000000 
#    z -0.109230 0.000000 3.814950 
# 
# 
# High freq. dielectric constant tensor:
#      x y z
#    x 1.799660 0.000000 -0.007920 
#    y 0.000000 1.782430 0.000000 
#    z -0.007920 0.000000 1.779730 
# 
# From -- ./inp_files/6023.got.cif
#   From: 2010.03.12/outbox.cif.g09.slc.cpg/sg3_4_cif.got.tgz:6023.got - 2010.03.31 09:20:49.
