data_PCOD8044644
_publ_section_title
;
Structure prediction by ZEFSAII (Michael W. Deem and Ramdas Pophale) SiO2 
 PCOD8044644
Probable space group: P -1
;
_chemical_formula_sum "Si O2"
_cell_formula_units_Z 16
_cell_length_a 11.960735
_cell_length_b 18.556974
_cell_length_c 22.429209
_cell_angle_alpha 27.372231
_cell_angle_beta 151.273442
_cell_angle_gamma 159.865806
_cell_volume 758.015865
_symmetry_space_group_name_H-M "P -1"
_symmetry_group_IT_number 2
_symmetry_cell_setting 'triclinic'
loop_
_space_group_symop_operation_xyz
x,y,z
-x,-y,-z
loop_
_atom_site_type_symbol
_atom_site_label
_atom_site_fract_x
_atom_site_fract_y
_atom_site_fract_z
Si Si1 0.785189 0.766204 0.953854
Si Si2 0.845063 0.779432 0.262379
Si Si3 0.347307 0.558360 0.298034
Si Si4 0.352075 0.447732 0.786999
Si Si5 0.583443 0.361547 0.592755
Si Si6 0.675895 0.356575 0.075945
Si Si7 0.291908 0.906475 0.176374
Si Si8 0.766606 0.259113 0.454067
O O1 0.632105 0.804071 0.904192
O O2 0.500000 0.500000 0.000000
O O3 0.908053 0.948575 0.827381
O O4 0.110002 0.831070 0.082494
O O5 0.610975 0.721203 0.249753
O O6 0.632804 0.620620 0.221813
O O7 0.046750 0.720971 0.416051
O O8 0.320112 0.356377 0.444094
O O9 0.466354 0.678438 0.329976
O O10 0.013613 0.485444 0.175085
O O11 0.399655 0.658543 0.661468
O O12 0.989606 0.219715 0.811006
O O13 0.661956 0.519213 0.916823
O O14 0.502095 0.154638 0.677942
O O15 0.974789 0.592242 0.589589
O O16 0.585501 0.178815 0.116678
O O17 0.500000 0.000000 0.500000
#
# Coordination Sequence:
#
# PCOD8044644 Si02
#       8
#     2   2   2   2   2   2   2   2
#     4  11  22  37  66  94 122 160 208 259 307 363
#     4  11  22  41  62  92 128 161 204 256 308 369
#     4  10  23  41  62  87 130 171 198 250 312 372
#     4  10  20  40  61  91 128 154 205 265 306 359
#     4   9  21  43  61  84 132 163 208 252 304 374
#     4  11  21  38  65  91 121 168 205 249 316 370
#     4  10  19  38  64  92 118 163 208 259 304 357
#     4  10  23  37  66  96 117 159 212 264 304 354
#
# _framework density 21.107737
#
# number of rings (size 3 to 8) (size 9 to 14) (size 15 to 20)
#    0.000    1.750    2.500    1.875    7.000    1.000 
#    0.000    6.250    0.000    0.000    0.000    0.000 
#    0.000    0.000    0.000    0.000    0.000    0.000 
#
# Total GULP energy -198221.189088 kJ/mol
# GULP energy per Si atom -12388.824318 kJ/mol
# Density = 2.105969 g / cm^3
# Si number density = 21.107737 Si / 1000 Ang^3
#
#
#
# Elastic Constant Matrix: (Units=GPa)
#
#
# Indices 1 2 3 4 5 6 
#
# 1 96.4666 20.2215 48.6879 -10.5018 -11.4840 -2.3243
# 2 20.2215 49.2330 42.8005 -15.3051 2.2267 -18.6861
# 3 48.6879 42.8005 155.1158 2.3067 5.0183 0.1695
# 4 -10.5018 -15.3051 2.3067 38.8291 -2.5914 2.4916
# 5 -11.4840 2.2267 5.0183 -2.5914 37.6903 -2.0363
# 6 -2.3243 -18.6861 0.1695 2.4916 -2.0363 19.1805
#
#
#
# Elastic Compliance Matrix: (Units=1/GPa)
#
#
# Indices 1 2 3 4 5 6 
#
# 1 0.013789 0.000116 -0.004594 0.004278 0.005199 0.001821
# 2 0.000116 0.070051 -0.019930 0.024871 0.003805 0.065608
# 3 -0.004594 -0.019930 0.013661 -0.008916 -0.003699 -0.019328
# 4 0.004278 0.024871 -0.008916 0.036230 0.004626 0.020612
# 5 0.005199 0.003805 -0.003699 0.004626 0.029072 0.006855
# 6 0.001821 0.065608 -0.019328 0.020612 0.006855 0.114495
#
#
# Mechanical properties :
#
#
# Convention : Reuss Voigt Hill
#
# Bulk Modulus (GPa) = 20.53998 58.24835 39.39416
# Shear Modulus (GPa) = 14.60524 31.74701 23.17613
#
# Velocity S-wave (km/s) = 2.63332 3.88241 3.31719
# Velocity P-wave (km/s) = 4.35867 6.91036 5.77716
#
# Compressibility (1/GPa) = 0.04868554
#
# Stress axis : x y z
#
# Youngs Moduli (GPa) = 72.52106 14.27536 73.19949
#
# Poissons Ratio (x) = -0.00166 0.33628
# Poissons Ratio (y) = -0.00842 1.45886
# Poissons Ratio (z) = 0.33316 0.28451
#
# Static dielectric constant tensor:
#      x y z
#    x 3.865850 -0.082120 0.025010 
#    y -0.082120 3.387800 0.020280 
#    z 0.025010 0.020280 4.267420 
# 
# 
# High freq. dielectric constant tensor:
#      x y z
#    x 1.824000 -0.014270 0.005320 
#    y -0.014270 1.788860 -0.003510 
#    z 0.005320 -0.003510 1.851690 
# 
# From -- ./inp_files/239694.got.cif
#   From: 2010.06.25/outbox.cif.g09.slc.cpg/sg2_120_cif.got.tgz:239694.got - 2010.06.27 13:26:56.
