data_PCOD8044270
_publ_section_title
;
Structure prediction by ZEFSAII (Michael W. Deem and Ramdas Pophale) SiO2 
 PCOD8044270
Probable space group: P -1
;
_chemical_formula_sum "Si O2"
_cell_formula_units_Z 16
_cell_length_a 10.056164
_cell_length_b 12.668108
_cell_length_c 11.206879
_cell_angle_alpha 69.770753
_cell_angle_beta 129.169290
_cell_angle_gamma 132.990687
_cell_volume 800.495999
_symmetry_space_group_name_H-M "P -1"
_symmetry_group_IT_number 2
_symmetry_cell_setting 'triclinic'
loop_
_space_group_symop_operation_xyz
x,y,z
-x,-y,-z
loop_
_atom_site_type_symbol
_atom_site_label
_atom_site_fract_x
_atom_site_fract_y
_atom_site_fract_z
Si Si1 0.184453 0.256452 0.832558
Si Si2 0.583982 0.941227 0.772218
Si Si3 0.988967 0.819667 0.972521
Si Si4 0.641507 0.324816 0.093920
Si Si5 0.819079 0.329846 0.951500
Si Si6 0.992399 0.583398 0.352260
Si Si7 0.195629 0.065298 0.315894
Si Si8 0.572703 0.194263 0.638084
O O1 0.132818 0.354042 0.699303
O O2 0.443150 0.329762 0.949353
O O3 0.037762 0.099000 0.744264
O O4 0.120777 0.253345 0.934796
O O5 0.401030 0.781041 0.782311
O O6 0.631918 0.934716 0.664736
O O7 0.522698 0.045370 0.705421
O O8 0.803235 0.010441 0.950213
O O9 0.825216 0.818956 0.794788
O O10 0.059302 0.736660 0.977676
O O11 0.858604 0.481538 0.200911
O O12 0.684475 0.268897 0.022409
O O13 0.652128 0.291791 0.763898
O O14 0.000000 0.500000 0.000000
O O15 0.000000 0.500000 0.500000
O O16 0.241790 0.715995 0.396248
O O17 0.328978 0.139408 0.485852
#
# Coordination Sequence:
#
# PCOD8044270 Si02
#       8
#     2   2   2   2   2   2   2   2
#     4  11  21  41  63  97 125 163 205 270 305 365
#     4  10  19  37  67  95 120 163 209 258 310 363
#     4  10  19  38  67  90 123 164 212 251 310 376
#     4  12  23  40  69  94 124 164 219 255 305 377
#     4  11  23  45  62  84 131 177 205 246 315 386
#     4  12  25  39  62  99 131 160 211 258 318 368
#     4  11  19  37  66  95 126 157 211 261 322 358
#     4  11  23  40  63  91 129 172 200 256 320 374
#
# _framework density 19.987608000000002
#
# number of rings (size 3 to 8) (size 9 to 14) (size 15 to 20)
#    0.000    1.000    7.500    2.250    1.750    2.000 
#    0.000    2.500    0.000    0.000    0.000    0.000 
#    0.000    0.000    0.000    0.000    0.000    0.000 
#
# Total GULP energy -198338.288972 kJ/mol
# GULP energy per Si atom -12396.143061 kJ/mol
# Density = 1.994211 g / cm^3
# Si number density = 19.987608 Si / 1000 Ang^3
#
#
#
# Elastic Constant Matrix: (Units=GPa)
#
#
# Indices 1 2 3 4 5 6 
#
# 1 65.4815 7.4568 18.0466 7.3344 3.6167 -13.6680
# 2 7.4568 77.8331 40.0897 -0.8947 7.9792 -11.4257
# 3 18.0466 40.0897 147.1957 7.1836 8.9784 -13.3656
# 4 7.3344 -0.8947 7.1836 36.4654 -2.1825 -3.3797
# 5 3.6167 7.9792 8.9784 -2.1825 22.3234 4.5234
# 6 -13.6680 -11.4257 -13.3656 -3.3797 4.5234 21.5527
#
#
#
# Elastic Compliance Matrix: (Units=1/GPa)
#
#
# Indices 1 2 3 4 5 6 
#
# 1 0.018678 0.001134 -0.000958 -0.002719 -0.005877 0.012659
# 2 0.001134 0.016508 -0.003511 0.001308 -0.006333 0.008827
# 3 -0.000958 -0.003511 0.008382 -0.001423 -0.002724 0.003078
# 4 -0.002719 0.001308 -0.001423 0.028640 0.002948 0.001959
# 5 -0.005877 -0.006333 -0.002724 0.002948 0.053348 -0.019507
# 6 0.012659 0.008827 0.003078 0.001959 -0.019507 0.065415
#
#
# Mechanical properties :
#
#
# Convention : Reuss Voigt Hill
#
# Bulk Modulus (GPa) = 27.10253 46.85515 36.97884
# Shear Modulus (GPa) = 23.81607 31.06279 27.43943
#
# Velocity S-wave (km/s) = 3.45562 3.94649 3.70918
# Velocity P-wave (km/s) = 5.43239 6.65277 6.07331
#
# Compressibility (1/GPa) = 0.03689692
#
# Stress axis : x y z
#
# Youngs Moduli (GPa) = 53.53952 60.57715 119.29672
#
# Poissons Ratio (x) = -0.06867 0.11430
# Poissons Ratio (y) = -0.06069 0.41886
# Poissons Ratio (z) = 0.05130 0.21269
#
# Static dielectric constant tensor:
#      x y z
#    x 3.932960 -0.463380 -0.261170 
#    y -0.463380 4.119740 0.422070 
#    z -0.261170 0.422070 4.028550 
# 
# 
# High freq. dielectric constant tensor:
#      x y z
#    x 1.744800 -0.005720 0.005570 
#    y -0.005720 1.788450 0.004070 
#    z 0.005570 0.004070 1.788380 
# 
# From -- ./inp_files/226356.got.cif
#   From: 2010.06.25/outbox.cif.g09.slc.cpg/sg2_114_cif.got.tgz:226356.got - 2010.06.27 13:26:56.
