data_PCOD8044120
_publ_section_title
;
Structure prediction by ZEFSAII (Michael W. Deem and Ramdas Pophale) SiO2 
 PCOD8044120
Probable space group: P -1
;
_chemical_formula_sum "Si O2"
_cell_formula_units_Z 16
_cell_length_a 9.496883
_cell_length_b 27.678260
_cell_length_c 9.608233
_cell_angle_alpha 133.297585
_cell_angle_beta 46.932976
_cell_angle_gamma 153.988125
_cell_volume 788.417698
_symmetry_space_group_name_H-M "P -1"
_symmetry_group_IT_number 2
_symmetry_cell_setting 'triclinic'
loop_
_space_group_symop_operation_xyz
x,y,z
-x,-y,-z
loop_
_atom_site_type_symbol
_atom_site_label
_atom_site_fract_x
_atom_site_fract_y
_atom_site_fract_z
Si Si1 0.232379 0.368771 0.916984
Si Si2 0.248895 0.189268 0.890868
Si Si3 0.258014 0.009757 0.954865
Si Si4 0.768380 0.338792 0.059915
Si Si5 0.510194 0.780059 0.506507
Si Si6 0.797506 0.436583 0.650276
Si Si7 0.211166 0.148763 0.254740
Si Si8 0.139704 0.796385 0.912651
O O1 0.420593 0.355079 0.712132
O O2 0.500000 0.500000 0.000000
O O3 0.944975 0.315493 0.904439
O O4 0.082791 0.313803 0.061656
O O5 0.302362 0.171009 0.668887
O O6 0.020397 0.076074 0.908473
O O7 0.600977 0.296984 0.939777
O O8 0.084623 0.216157 0.047607
O O9 0.295923 0.096533 0.056949
O O10 0.614236 0.089016 0.932419
O O11 0.142433 0.935159 0.748047
O O12 0.498197 0.272225 0.233540
O O13 0.032794 0.471654 0.162625
O O14 0.222249 0.644373 0.441745
O O15 0.781553 0.839564 0.561160
O O16 0.350648 0.808291 0.690221
O O17 0.000000 0.500000 0.500000
#
# Coordination Sequence:
#
# PCOD8044120 Si02
#       8
#     2   2   2   2   2   2   2   2
#     4  10  19  37  64  87 116 157 204 245 296 357
#     4  11  24  39  59  92 127 162 192 255 306 351
#     4   9  19  36  63  85 121 161 203 246 302 347
#     4  10  20  39  61  88 124 155 202 249 299 355
#     4  11  21  38  61  88 125 156 204 242 305 357
#     4  11  20  37  66  90 117 160 202 249 299 358
#     4   9  17  35  62  88 114 159 206 249 288 357
#     4  11  21  41  63  88 121 164 202 245 301 364
#
# _framework density 20.293811000000002
#
# number of rings (size 3 to 8) (size 9 to 14) (size 15 to 20)
#    0.000    1.750    5.000    1.125    0.000    2.500 
#    2.250    1.250    0.000    0.000    0.000    0.000 
#    0.000    0.000    0.000    0.000    0.000    0.000 
#
# Total GULP energy -198273.297134 kJ/mol
# GULP energy per Si atom -12392.081071 kJ/mol
# Density = 2.024762 g / cm^3
# Si number density = 20.293811 Si / 1000 Ang^3
#
#
#
# Elastic Constant Matrix: (Units=GPa)
#
#
# Indices 1 2 3 4 5 6 
#
# 1 114.4891 30.0453 44.3564 4.9608 6.7664 20.1438
# 2 30.0453 85.1067 21.2403 6.7739 9.7782 5.2309
# 3 44.3564 21.2403 93.1564 -7.6644 11.5814 8.3025
# 4 4.9608 6.7739 -7.6644 27.1714 -2.0986 5.3597
# 5 6.7664 9.7782 11.5814 -2.0986 37.7892 -0.0624
# 6 20.1438 5.2309 8.3025 5.3597 -0.0624 31.5167
#
#
#
# Elastic Compliance Matrix: (Units=1/GPa)
#
#
# Indices 1 2 3 4 5 6 
#
# 1 0.012473 -0.002641 -0.004944 -0.001858 -0.000148 -0.005916
# 2 -0.002641 0.013736 -0.001899 -0.003795 -0.002709 0.000548
# 3 -0.004944 -0.001899 0.014426 0.005483 -0.002742 -0.001263
# 4 -0.001858 -0.003795 0.005483 0.041086 0.001905 -0.006610
# 5 -0.000148 -0.002709 -0.002742 0.001905 0.028138 0.000998
# 6 -0.005916 0.000548 -0.001263 -0.006610 0.000998 0.036878
#
#
# Mechanical properties :
#
#
# Convention : Reuss Voigt Hill
#
# Bulk Modulus (GPa) = 46.15196 53.78179 49.96687
# Shear Modulus (GPa) = 28.91379 32.43612 30.67496
#
# Velocity S-wave (km/s) = 3.77869 4.00224 3.89207
# Velocity P-wave (km/s) = 6.46756 6.92217 6.69872
#
# Compressibility (1/GPa) = 0.02166755
#
# Stress axis : x y z
#
# Youngs Moduli (GPa) = 80.17228 72.80236 69.31786
#
# Poissons Ratio (x) = 0.19227 0.34272
# Poissons Ratio (y) = 0.21174 0.13161
# Poissons Ratio (z) = 0.39639 0.13823
#
# Static dielectric constant tensor:
#      x y z
#    x 3.970990 0.277560 -0.049140 
#    y 0.277560 4.006240 0.148670 
#    z -0.049140 0.148670 3.585560 
# 
# 
# High freq. dielectric constant tensor:
#      x y z
#    x 1.788360 -0.001140 0.003880 
#    y -0.001140 1.807240 0.006990 
#    z 0.003880 0.006990 1.757910 
# 
# From -- ./inp_files/200373.got.cif
#   From: 2010.06.25/outbox.cif.g09.slc.cpg/sg2_101_cif.got.tgz:200373.got - 2010.06.27 13:26:56.
