data_PCOD8044994
_publ_section_title
;
Structure prediction by ZEFSAII (Michael W. Deem and Ramdas Pophale) SiO2 
 PCOD8044994
Probable space group: P 2
;
_chemical_formula_sum "Si O2"
_cell_formula_units_Z 16
_cell_length_a 11.909500
_cell_length_b 13.913840
_cell_length_c 12.182113
_cell_angle_alpha 90.000000
_cell_angle_beta 23.639915
_cell_angle_gamma 90.000000
_cell_volume 809.457021
_symmetry_space_group_name_H-M "P 2"
_symmetry_group_IT_number 3
_symmetry_cell_setting 'monoclinic'
loop_
_space_group_symop_operation_xyz
x,y,z
-x,y,-z
loop_
_atom_site_type_symbol
_atom_site_label
_atom_site_fract_x
_atom_site_fract_y
_atom_site_fract_z
Si Si1 0.843948 0.134890 0.033084
Si Si2 0.764127 0.850918 0.492765
Si Si3 0.699115 0.346199 0.723914
Si Si4 0.286450 0.174862 0.451190
Si Si5 0.177658 0.912764 0.943466
Si Si6 0.581991 0.532656 0.051950
Si Si7 0.290865 0.006995 0.286592
Si Si8 0.090913 0.650995 0.544653
O O1 0.024243 0.149353 0.761650
O O2 0.561087 0.197921 0.277428
O O3 0.000000 0.175857 0.000000
O O4 0.754452 0.024594 0.135896
O O5 0.464539 0.851481 0.698205
O O6 0.900670 0.747016 0.391184
O O7 0.730077 0.902065 0.640577
O O8 0.992412 0.907877 0.218412
O O9 0.788346 0.262701 0.561028
O O10 0.513575 0.426094 0.822285
O O11 0.000000 0.387895 0.500000
O O12 0.500000 0.305651 0.000000
O O13 0.389047 0.083058 0.288872
O O14 0.000000 0.870699 0.000000
O O15 0.406296 0.613913 0.270292
O O16 0.500000 0.526681 0.000000
O O17 0.902190 0.568299 0.773004
O O18 0.000000 0.044637 0.500000
O O19 0.500000 0.998444 0.000000
O O20 0.000000 0.671062 0.500000
#
# Coordination Sequence:
#
# PCOD8044994 Si02
#       8
#     2   2   2   2   2   2   2   2
#     4  11  22  39  59  80 110 153 203 255 290 326
#     4  12  22  37  56  83 112 154 192 234 289 345
#     4  11  21  36  58  87 120 157 193 235 286 351
#     4  12  22  38  56  85 116 156 197 237 289 348
#     4  11  22  39  58  79 108 149 201 252 287 327
#     4   9  18  34  54  78 111 147 187 234 277 324
#     4  12  23  35  50  78 121 161 187 220 273 350
#     4  10  20  34  54  82 114 147 185 229 279 345
#
# _framework density 19.766337
#
# number of rings (size 3 to 8) (size 9 to 14) (size 15 to 20)
#    0.000    1.000    2.500    6.750    0.000    3.500 
#    0.000    0.000    0.000    0.000    0.000   13.125 
#    0.000    0.000    0.000    0.000    0.000    0.000 
#
# Total GULP energy -198342.567496 kJ/mol
# GULP energy per Si atom -12396.410468 kJ/mol
# Density = 1.972135 g / cm^3
# Si number density = 19.766337 Si / 1000 Ang^3
#
#
#
# Elastic Constant Matrix: (Units=GPa)
#
#
# Indices 1 2 3 4 5 6 
#
# 1 60.1707 17.7187 9.5028 0.0000 -11.4233 0.0000
# 2 17.7187 73.0718 4.5217 0.0000 1.1367 0.0000
# 3 9.5028 4.5217 81.6943 0.0000 -8.5628 0.0000
# 4 0.0000 0.0000 0.0000 31.1804 0.0000 -3.4683
# 5 -11.4233 1.1367 -8.5628 0.0000 35.3999 0.0000
# 6 0.0000 0.0000 0.0000 -3.4683 0.0000 16.6882
#
#
#
# Elastic Compliance Matrix: (Units=1/GPa)
#
#
# Indices 1 2 3 4 5 6 
#
# 1 0.019373 -0.004708 -0.001356 0.000000 0.006075 0.000000
# 2 -0.004708 0.014891 -0.000499 0.000000 -0.002118 0.000000
# 3 -0.001356 -0.000499 0.012704 0.000000 0.002651 0.000000
# 4 0.000000 0.000000 0.000000 0.032830 0.000000 0.006823
# 5 0.006075 -0.002118 0.002651 0.000000 0.030918 0.000000
# 6 0.000000 0.000000 0.000000 0.006823 0.000000 0.061341
#
#
# Mechanical properties :
#
#
# Convention : Reuss Voigt Hill
#
# Bulk Modulus (GPa) = 29.54913 30.93592 30.24252
# Shear Modulus (GPa) = 25.44995 28.86661 27.15828
#
# Velocity S-wave (km/s) = 3.59212 3.82565 3.71073
# Velocity P-wave (km/s) = 5.67328 5.93287 5.80453
#
# Compressibility (1/GPa) = 0.03384195
#
# Stress axis : x y z
#
# Youngs Moduli (GPa) = 51.61738 67.15623 78.71538
#
# Poissons Ratio (x) = 0.31619 0.10675
# Poissons Ratio (y) = 0.24303 0.03924
# Poissons Ratio (z) = 0.07000 0.03348
#
# Static dielectric constant tensor:
#      x y z
#    x 3.567700 0.000000 -0.174050 
#    y 0.000000 3.748310 0.000000 
#    z -0.174050 0.000000 3.934780 
# 
# 
# High freq. dielectric constant tensor:
#      x y z
#    x 1.742900 0.000000 -0.009770 
#    y 0.000000 1.749270 0.000000 
#    z -0.009770 0.000000 1.794320 
# 
# From -- ./inp_files/11936.got.cif
#   From: 2010.03.12/outbox.cif.g09.slc.cpg/sg3_6_cif.got.tgz:11936.got - 2010.03.31 09:20:49.
