data_PCOD8044135
_publ_section_title
;
Structure prediction by ZEFSAII (Michael W. Deem and Ramdas Pophale) SiO2 
 PCOD8044135
Probable space group: P -1
;
_chemical_formula_sum "Si O2"
_cell_formula_units_Z 16
_cell_length_a 21.386269
_cell_length_b 11.511337
_cell_length_c 8.897114
_cell_angle_alpha 77.106385
_cell_angle_beta 76.076725
_cell_angle_gamma 21.012079
_cell_volume 762.293691
_symmetry_space_group_name_H-M "P -1"
_symmetry_group_IT_number 2
_symmetry_cell_setting 'triclinic'
loop_
_space_group_symop_operation_xyz
x,y,z
-x,-y,-z
loop_
_atom_site_type_symbol
_atom_site_label
_atom_site_fract_x
_atom_site_fract_y
_atom_site_fract_z
Si Si1 0.854133 0.806263 0.313884
Si Si2 0.035626 0.753261 0.762691
Si Si3 0.159223 0.364337 0.052480
Si Si4 0.321937 0.232299 0.250352
Si Si5 0.972491 0.358753 0.496032
Si Si6 0.298448 0.535867 0.253886
Si Si7 0.416546 0.758246 0.899031
Si Si8 0.373132 0.302682 0.580124
O O1 0.864718 0.884722 0.420468
O O2 0.022357 0.534234 0.189480
O O3 0.858634 0.668347 0.423605
O O4 0.673367 0.131284 0.235403
O O5 0.221818 0.492060 0.698475
O O6 0.954480 0.833773 0.636218
O O7 0.055794 0.616883 0.914695
O O8 0.894183 0.094032 0.799256
O O9 0.282373 0.242915 0.109251
O O10 0.270632 0.067427 0.000403
O O11 0.352013 0.323350 0.195287
O O12 0.159169 0.501327 0.380523
O O13 0.498443 0.863576 0.318065
O O14 0.436319 0.398754 0.172035
O O15 0.294143 0.531654 0.440294
O O16 0.500000 0.500000 0.000000
O O17 0.500000 0.000000 0.500000
#
# Coordination Sequence:
#
# PCOD8044135 Si02
#       8
#     2   2   2   2   2   2   2   2
#     4  10  22  41  65  90 120 169 212 254 305 369
#     4  12  22  38  65  95 123 168 203 254 317 364
#     4  11  24  42  67  89 126 166 211 257 310 378
#     4  10  22  42  65  97 122 164 208 257 317 362
#     4  10  20  38  68  89 124 158 214 252 303 370
#     4  11  24  39  64  94 129 161 208 260 306 371
#     4  12  25  42  62  91 130 166 206 255 315 373
#     4  10  19  37  64  89 125 157 203 254 307 369
#
# _framework density 20.989286
#
# number of rings (size 3 to 8) (size 9 to 14) (size 15 to 20)
#    0.000    1.250    3.750    3.750    1.750    2.500 
#    2.250    0.625    0.000    0.000    0.000    0.000 
#    0.000    0.000    0.000    0.000    0.000    0.000 
#
# Total GULP energy -198403.321536 kJ/mol
# GULP energy per Si atom -12400.207596 kJ/mol
# Density = 2.094151 g / cm^3
# Si number density = 20.989286 Si / 1000 Ang^3
#
#
#
# Elastic Constant Matrix: (Units=GPa)
#
#
# Indices 1 2 3 4 5 6 
#
# 1 102.7829 28.2214 38.1167 -21.9184 0.8252 -14.7321
# 2 28.2214 86.6300 20.7285 -26.2864 1.5942 -2.6293
# 3 38.1167 20.7285 88.1675 -20.9028 4.0124 0.6146
# 4 -21.9184 -26.2864 -20.9028 32.6268 -6.0366 -4.9948
# 5 0.8252 1.5942 4.0124 -6.0366 41.7094 -4.8991
# 6 -14.7321 -2.6293 0.6146 -4.9948 -4.8991 31.7838
#
#
#
# Elastic Compliance Matrix: (Units=1/GPa)
#
#
# Indices 1 2 3 4 5 6 
#
# 1 0.014447 -0.001124 -0.004312 0.007717 0.002258 0.008247
# 2 -0.001124 0.015870 -0.000362 0.012562 0.001624 0.003023
# 3 -0.004312 -0.000362 0.014730 0.005904 -0.000638 -0.001484
# 4 0.007717 0.012562 0.005904 0.053421 0.008194 0.014160
# 5 0.002258 0.001624 -0.000638 0.008194 0.025876 0.006469
# 6 0.008247 0.003023 -0.001484 0.014160 0.006469 0.038786
#
#
# Mechanical properties :
#
#
# Convention : Reuss Voigt Hill
#
# Bulk Modulus (GPa) = 29.89446 50.19039 40.04243
# Shear Modulus (GPa) = 26.89963 33.92492 30.41227
#
# Velocity S-wave (km/s) = 3.58381 4.02468 3.81063
# Velocity P-wave (km/s) = 5.60344 6.74994 6.20324
#
# Compressibility (1/GPa) = 0.03345101
#
# Stress axis : x y z
#
# Youngs Moduli (GPa) = 69.22022 63.01304 67.88732
#
# Poissons Ratio (x) = 0.07083 0.29273
# Poissons Ratio (y) = 0.07781 0.02456
# Poissons Ratio (z) = 0.29847 0.02280
#
# Static dielectric constant tensor:
#      x y z
#    x 4.085800 -0.089040 0.101800 
#    y -0.089040 3.962520 -0.380670 
#    z 0.101800 -0.380670 4.127870 
# 
# 
# High freq. dielectric constant tensor:
#      x y z
#    x 1.824810 -0.021580 -0.006150 
#    y -0.021580 1.808600 -0.011070 
#    z -0.006150 -0.011070 1.831320 
# 
# From -- ./inp_files/257610.got.cif
#   From: 2010.06.25/outbox.cif.g09.slc.cpg/sg2_129_cif.got.tgz:257610.got - 2010.06.27 13:26:56.
