data_PCOD8044760
_publ_section_title
;
Structure prediction by ZEFSAII (Michael W. Deem and Ramdas Pophale) SiO2 
 PCOD8044760
Probable space group: P -1
;
_chemical_formula_sum "Si O2"
_cell_formula_units_Z 16
_cell_length_a 8.830763
_cell_length_b 9.107986
_cell_length_c 11.631426
_cell_angle_alpha 91.583727
_cell_angle_beta 78.588950
_cell_angle_gamma 128.886773
_cell_volume 708.064242
_symmetry_space_group_name_H-M "P -1"
_symmetry_group_IT_number 2
_symmetry_cell_setting 'triclinic'
loop_
_space_group_symop_operation_xyz
x,y,z
-x,-y,-z
loop_
_atom_site_type_symbol
_atom_site_label
_atom_site_fract_x
_atom_site_fract_y
_atom_site_fract_z
Si Si1 0.908551 0.103881 0.872117
Si Si2 0.628054 0.111301 0.756526
Si Si3 0.546088 0.277050 0.321456
Si Si4 0.849897 0.914412 0.347423
Si Si5 0.543810 0.745950 0.052439
Si Si6 0.813524 0.735781 0.573772
Si Si7 0.287990 0.450868 0.900168
Si Si8 0.392687 0.690705 0.425817
O O1 0.816878 0.163914 0.797860
O O2 0.057328 0.079938 0.786583
O O3 0.050396 0.275424 0.945907
O O4 0.740464 0.908576 0.955945
O O5 0.510500 0.156861 0.852272
O O6 0.706074 0.235097 0.629382
O O7 0.473158 0.889150 0.743945
O O8 0.325912 0.213701 0.363419
O O9 0.684206 0.468309 0.230591
O O10 0.643421 0.311596 0.433099
O O11 0.853143 0.779548 0.432997
O O12 0.625893 0.834511 0.360189
O O13 0.980372 0.128581 0.383443
O O14 0.580312 0.617706 0.112605
O O15 0.360314 0.610675 0.988331
O O16 0.707485 0.518466 0.608876
#
# Coordination Sequence:
#
# PCOD8044760 Si02
#       8
#     2   2   2   2   2   2   2   2
#     4  12  23  42  68  96 131 169 214 270 323 376
#     4  12  25  43  64  95 141 171 205 265 334 379
#     4  11  21  44  67  94 135 170 209 268 326 379
#     4  10  20  37  67  92 122 167 221 264 307 375
#     4  11  25  46  67  96 130 165 220 272 316 383
#     4  10  19  38  66  93 121 169 222 261 307 373
#     4  11  24  44  74  94 120 172 227 263 316 381
#     4  11  24  42  67  96 131 174 215 260 318 386
#
# _framework density 22.596820000000001
#
# number of rings (size 3 to 8) (size 9 to 14) (size 15 to 20)
#    0.000    1.000    2.500    5.625    0.000    1.500 
#    2.250    1.250    0.000    0.000    0.000    0.000 
#    0.000    0.000    0.000    0.000    0.000    0.000 
#
# Total GULP energy -198452.562992 kJ/mol
# GULP energy per Si atom -12403.285187 kJ/mol
# Density = 2.254539 g / cm^3
# Si number density = 22.596820 Si / 1000 Ang^3
#
#
#
# Elastic Constant Matrix: (Units=GPa)
#
#
# Indices 1 2 3 4 5 6 
#
# 1 51.1086 42.4919 31.0658 5.0580 15.2990 -5.6976
# 2 42.4919 154.2438 44.1400 10.0336 9.5604 7.6952
# 3 31.0658 44.1400 101.0589 6.8125 18.9183 -11.8810
# 4 5.0580 10.0336 6.8125 21.0092 -10.8228 1.4155
# 5 15.2990 9.5604 18.9183 -10.8228 29.4789 2.4616
# 6 -5.6976 7.6952 -11.8810 1.4155 2.4616 37.2080
#
#
#
# Elastic Compliance Matrix: (Units=1/GPa)
#
#
# Indices 1 2 3 4 5 6 
#
# 1 0.035852 -0.007432 -0.001534 -0.016491 -0.021986 0.008619
# 2 -0.007432 0.009368 -0.002881 0.000108 0.003058 -0.004202
# 3 -0.001534 -0.002881 0.015379 -0.010050 -0.012369 0.006472
# 4 -0.016491 0.000108 -0.010050 0.078659 0.044830 -0.011715
# 5 -0.021986 0.003058 -0.012369 0.044830 0.069930 -0.014281
# 6 0.008619 -0.004202 0.006472 -0.011715 -0.014281 0.032522
#
#
# Mechanical properties :
#
#
# Convention : Reuss Voigt Hill
#
# Bulk Modulus (GPa) = 27.09670 60.20072 43.64871
# Shear Modulus (GPa) = 18.00467 30.12014 24.06240
#
# Velocity S-wave (km/s) = 2.82579 3.65490 3.26676
# Velocity P-wave (km/s) = 4.76069 6.67159 5.79544
#
# Compressibility (1/GPa) = 0.03690486
#
# Stress axis : x y z
#
# Youngs Moduli (GPa) = 27.89238 106.74421 65.02391
#
# Poissons Ratio (x) = 0.79335 0.09975
# Poissons Ratio (y) = 0.20730 0.18733
# Poissons Ratio (z) = 0.04279 0.30752
#
# Static dielectric constant tensor:
#      x y z
#    x 3.873740 0.094890 0.252450 
#    y 0.094890 4.207850 0.045320 
#    z 0.252450 0.045320 4.156660 
# 
# 
# High freq. dielectric constant tensor:
#      x y z
#    x 1.866960 0.005320 0.016930 
#    y 0.005320 1.906510 0.004330 
#    z 0.016930 0.004330 1.895510 
# 
# From -- ./inp_files/382287.got.cif
#   From: 2010.06.25/outbox.cif.g09.slc.cpg/sg2_192_cif.got.tgz:382287.got - 2010.06.27 13:26:56.
