data_PCOD8044046
_publ_section_title
;
Structure prediction by ZEFSAII (Michael W. Deem and Ramdas Pophale) SiO2 
 PCOD8044046
Probable space group: P -1
;
_chemical_formula_sum "Si O2"
_cell_formula_units_Z 16
_cell_length_a 10.303716
_cell_length_b 13.887337
_cell_length_c 15.900697
_cell_angle_alpha 141.230006
_cell_angle_beta 144.124496
_cell_angle_gamma 61.415744
_cell_volume 758.589221
_symmetry_space_group_name_H-M "P -1"
_symmetry_group_IT_number 2
_symmetry_cell_setting 'triclinic'
loop_
_space_group_symop_operation_xyz
x,y,z
-x,-y,-z
loop_
_atom_site_type_symbol
_atom_site_label
_atom_site_fract_x
_atom_site_fract_y
_atom_site_fract_z
Si Si1 0.317301 0.119014 0.405875
Si Si2 0.732444 0.282192 0.166087
Si Si3 0.545996 0.187232 0.744399
Si Si4 0.606364 0.654844 0.095157
Si Si5 0.198067 0.552240 0.517009
Si Si6 0.007814 0.460225 0.773573
Si Si7 0.508515 0.647967 0.503064
Si Si8 0.831103 0.974541 0.975344
O O1 0.408859 0.208390 0.603927
O O2 0.418948 0.263780 0.488609
O O3 0.020799 0.022258 0.185521
O O4 0.433773 0.988158 0.360377
O O5 0.695497 0.292989 0.254914
O O6 0.680621 0.091322 0.980523
O O7 0.012017 0.390982 0.361306
O O8 0.558546 0.356760 0.080496
O O9 0.376306 0.182949 0.731923
O O10 0.813384 0.340788 0.996308
O O11 0.863729 0.657640 0.202708
O O12 0.500000 0.500000 0.000000
O O13 0.067118 0.598526 0.402134
O O14 0.405216 0.503708 0.551582
O O15 0.781545 0.432766 0.695430
O O16 0.632063 0.780322 0.735161
O O17 0.000000 0.000000 0.000000
#
# Coordination Sequence:
#
# PCOD8044046 Si02
#       8
#     2   2   2   2   2   2   2   2
#     4  10  21  36  63  90 114 162 203 255 287 362
#     4  11  21  36  62  92 114 153 215 254 286 344
#     4  10  21  38  60  90 122 153 210 247 298 348
#     4  10  20  35  59  83 119 157 198 243 296 350
#     4  11  22  36  62  91 119 154 207 258 290 350
#     4  11  24  39  61  89 129 160 190 251 311 367
#     4  11  23  39  63  89 125 160 203 240 318 359
#     4  10  19  37  63  85 116 156 209 245 293 353
#
# _framework density 21.091785000000002
#
# number of rings (size 3 to 8) (size 9 to 14) (size 15 to 20)
#    0.000    1.500    5.000    2.625    5.250    0.500 
#    0.000    3.125    2.750    0.000    0.000    0.000 
#    0.000    0.000    0.000    0.000    0.000    0.000 
#
# Total GULP energy -198335.734498 kJ/mol
# GULP energy per Si atom -12395.983406 kJ/mol
# Density = 2.104378 g / cm^3
# Si number density = 21.091785 Si / 1000 Ang^3
#
#
#
# Elastic Constant Matrix: (Units=GPa)
#
#
# Indices 1 2 3 4 5 6 
#
# 1 56.2123 20.7150 41.4318 -7.3014 -2.8184 -27.6742
# 2 20.7150 86.9271 30.2508 -18.6723 -6.9106 -22.5489
# 3 41.4318 30.2508 86.7025 -20.3992 -16.4588 -9.2990
# 4 -7.3014 -18.6723 -20.3992 37.4615 -0.8171 -4.3761
# 5 -2.8184 -6.9106 -16.4588 -0.8171 36.9552 -8.9911
# 6 -27.6742 -22.5489 -9.2990 -4.3761 -8.9911 36.9101
#
#
#
# Elastic Compliance Matrix: (Units=1/GPa)
#
#
# Indices 1 2 3 4 5 6 
#
# 1 0.050055 0.007146 -0.019157 0.007645 0.006410 0.039537
# 2 0.007146 0.019122 -0.004061 0.011099 0.007201 0.019087
# 3 -0.019157 -0.004061 0.023954 0.006441 0.006533 -0.008454
# 4 0.007645 0.011099 0.006441 0.040017 0.011699 0.021729
# 5 0.006410 0.007201 0.006533 0.011699 0.037249 0.021312
# 6 0.039537 0.019087 -0.008454 0.021729 0.021312 0.074035
#
#
# Mechanical properties :
#
#
# Convention : Reuss Voigt Hill
#
# Bulk Modulus (GPa) = 16.39684 46.07079 31.23382
# Shear Modulus (GPa) = 16.84043 31.42831 24.13437
#
# Velocity S-wave (km/s) = 2.82873 3.86433 3.38635
# Velocity P-wave (km/s) = 4.29649 6.46538 5.48913
#
# Compressibility (1/GPa) = 0.06098734
#
# Stress axis : x y z
#
# Youngs Moduli (GPa) = 19.97800 52.29567 41.74718
#
# Poissons Ratio (x) = -0.37370 0.79974
# Poissons Ratio (y) = -0.14276 0.16953
# Poissons Ratio (z) = 0.38271 0.21237
#
# Static dielectric constant tensor:
#      x y z
#    x 3.772680 -0.360010 -0.212340 
#    y -0.360010 3.948710 -0.260810 
#    z -0.212340 -0.260810 4.122570 
# 
# 
# High freq. dielectric constant tensor:
#      x y z
#    x 1.803800 -0.023410 -0.023400 
#    y -0.023410 1.832030 -0.017560 
#    z -0.023400 -0.017560 1.816700 
# 
# From -- ./inp_files/504565.got.cif
#   From: 2010.06.25/outbox.cif.g09.slc.cpg/sg2_253_cif.got.tgz:504565.got - 2010.06.27 13:26:56.
