data_PCOD8044562
_publ_section_title
;
Structure prediction by ZEFSAII (Michael W. Deem and Ramdas Pophale) SiO2 
 PCOD8044562
Probable space group: P -1
;
_chemical_formula_sum "Si O2"
_cell_formula_units_Z 16
_cell_length_a 17.038262
_cell_length_b 7.526053
_cell_length_c 9.842889
_cell_angle_alpha 95.554185
_cell_angle_beta 121.854321
_cell_angle_gamma 41.579146
_cell_volume 603.938066
_symmetry_space_group_name_H-M "P -1"
_symmetry_group_IT_number 2
_symmetry_cell_setting 'triclinic'
loop_
_space_group_symop_operation_xyz
x,y,z
-x,-y,-z
loop_
_atom_site_type_symbol
_atom_site_label
_atom_site_fract_x
_atom_site_fract_y
_atom_site_fract_z
Si Si1 0.695637 0.488954 0.796045
Si Si2 0.746132 0.128627 0.588558
Si Si3 0.259540 0.481796 0.733593
Si Si4 0.924539 0.300210 0.679399
Si Si5 0.502665 0.272067 0.779484
Si Si6 0.630821 0.955802 0.595612
Si Si7 0.271302 0.794094 0.940768
Si Si8 0.917902 0.326633 0.164679
O O1 0.764018 0.229916 0.740777
O O2 0.544757 0.837366 0.610776
O O3 0.649415 0.462214 0.891709
O O4 0.828760 0.432750 0.947103
O O5 0.655033 0.374273 0.400384
O O6 0.644741 0.115434 0.533445
O O7 0.935228 0.761391 0.705188
O O8 0.132650 0.601133 0.520928
O O9 0.439452 0.199441 0.804285
O O10 0.244061 0.718790 0.774400
O O11 0.224248 0.418074 0.831463
O O12 0.779455 0.585128 0.671370
O O13 0.089295 0.155760 0.842177
O O14 0.972794 0.020679 0.728431
O O15 0.624898 0.016835 0.753395
O O16 0.608188 0.231082 0.973128
#
# Coordination Sequence:
#
# PCOD8044562 Si02
#       8
#     2   2   2   2   2   2   2   2
#     4   9  18  37  58  88 114 152 197 232 289 352
#     4  11  19  36  63  85 118 153 195 238 287 353
#     4  10  21  39  60  85 113 160 203 235 276 349
#     4  10  22  38  58  89 122 151 189 247 294 337
#     4  11  20  36  62  89 115 153 198 238 285 351
#     4  11  22  38  59  92 124 146 185 248 309 334
#     4  10  19  38  63  87 112 154 205 238 274 353
#     4  10  21  39  65  84 110 159 208 234 273 353
#
# _framework density 26.492782999999999
#
# number of rings (size 3 to 8) (size 9 to 14) (size 15 to 20)
#    0.000    2.000    3.750    3.000    0.000    1.000 
#    0.000    4.375    0.000    0.000    0.000    0.000 
#    0.000    0.000    0.000    0.000    0.000    0.000 
#
# Total GULP energy -198214.936409 kJ/mol
# GULP energy per Si atom -12388.433526 kJ/mol
# Density = 2.643248 g / cm^3
# Si number density = 26.492783 Si / 1000 Ang^3
#
#
#
# Elastic Constant Matrix: (Units=GPa)
#
#
# Indices 1 2 3 4 5 6 
#
# 1 45.4822 21.0846 9.0406 -1.5546 12.2128 -17.4960
# 2 21.0846 84.6815 40.1013 -2.4392 -12.2347 -23.7084
# 3 9.0406 40.1013 135.5719 0.0972 29.9638 -13.6617
# 4 -1.5546 -2.4392 0.0972 38.3078 -7.0983 -2.7434
# 5 12.2128 -12.2347 29.9638 -7.0983 31.0903 -6.6722
# 6 -17.4960 -23.7084 -13.6617 -2.7434 -6.6722 35.9461
#
#
#
# Elastic Compliance Matrix: (Units=1/GPa)
#
#
# Indices 1 2 3 4 5 6 
#
# 1 0.038680 -0.018378 0.010565 -0.005433 -0.032950 0.004190
# 2 -0.018378 0.036624 -0.017817 0.011268 0.045170 0.017683
# 3 0.010565 -0.017817 0.018357 -0.007074 -0.031771 -0.006069
# 4 -0.005433 0.011268 -0.007074 0.031392 0.022410 0.008654
# 5 -0.032950 0.045170 -0.031771 0.022410 0.103469 0.022596
# 6 0.004190 0.017683 -0.006069 0.008654 0.022596 0.044070
#
#
# Mechanical properties :
#
#
# Convention : Reuss Voigt Hill
#
# Bulk Modulus (GPa) = 23.58406 45.13208 34.35807
# Shear Modulus (GPa) = 14.79355 34.10278 24.44816
#
# Velocity S-wave (km/s) = 2.36561 3.59172 3.04110
# Velocity P-wave (km/s) = 4.04758 5.85433 5.03270
#
# Compressibility (1/GPa) = 0.04240151
#
# Stress axis : x y z
#
# Youngs Moduli (GPa) = 25.85309 27.30469 54.47411
#
# Poissons Ratio (x) = 0.50181 -0.57554
# Poissons Ratio (y) = 0.47513 0.97057
# Poissons Ratio (z) = -0.27315 0.48649
#
# Static dielectric constant tensor:
#      x y z
#    x 5.277260 -0.644210 0.414110 
#    y -0.644210 4.931530 -0.177850 
#    z 0.414110 -0.177850 5.071550 
# 
# 
# High freq. dielectric constant tensor:
#      x y z
#    x 2.061650 -0.027860 0.013370 
#    y -0.027860 2.045020 -0.000510 
#    z 0.013370 -0.000510 2.079990 
# 
# From -- ./inp_files/474681.got.cif
#   From: 2010.06.25/outbox.cif.g09.slc.cpg/sg2_238_cif.got.tgz:474681.got - 2010.06.27 13:26:56.
