data_PCOD8044075
_publ_section_title
;
Structure prediction by ZEFSAII (Michael W. Deem and Ramdas Pophale) SiO2 
 PCOD8044075
Probable space group: P -1
;
_chemical_formula_sum "Si O2"
_cell_formula_units_Z 16
_cell_length_a 16.861748
_cell_length_b 13.748651
_cell_length_c 7.542552
_cell_angle_alpha 125.564605
_cell_angle_beta 40.447842
_cell_angle_gamma 140.757374
_cell_volume 717.493015
_symmetry_space_group_name_H-M "P -1"
_symmetry_group_IT_number 2
_symmetry_cell_setting 'triclinic'
loop_
_space_group_symop_operation_xyz
x,y,z
-x,-y,-z
loop_
_atom_site_type_symbol
_atom_site_label
_atom_site_fract_x
_atom_site_fract_y
_atom_site_fract_z
Si Si1 0.436128 0.043173 0.813595
Si Si2 0.238622 0.693676 0.494430
Si Si3 0.853805 0.701002 0.489761
Si Si4 0.377654 0.645429 0.545816
Si Si5 0.293945 0.154246 0.946908
Si Si6 0.989090 0.655730 0.545582
Si Si7 0.661474 0.166481 0.949795
Si Si8 0.943280 0.180299 0.063219
O O1 0.607202 0.186000 0.772650
O O2 0.500000 0.000000 0.500000
O O3 0.350301 0.110950 0.972749
O O4 0.308545 0.891769 0.982096
O O5 0.317007 0.682274 0.520083
O O6 0.155556 0.764510 0.771714
O O7 0.110549 0.526453 0.449562
O O8 0.715608 0.534841 0.469870
O O9 0.782970 0.772490 0.777968
O O10 0.955844 0.691224 0.449305
O O11 0.956780 0.803643 0.256423
O O12 0.357966 0.707299 0.826603
O O13 0.560679 0.725010 0.299017
O O14 0.170416 0.999262 0.880177
O O15 0.177782 0.746515 0.348827
O O16 0.948490 0.721376 0.845514
O O17 0.500000 0.000000 0.000000
#
# Coordination Sequence:
#
# PCOD8044075 Si02
#       8
#     2   2   2   2   2   2   2   2
#     4  11  19  38  65  88 115 156 198 252 305 352
#     4  10  19  37  63  90 119 154 199 255 310 352
#     4  11  25  40  61  87 122 170 204 238 303 367
#     4  10  20  39  62  88 122 158 201 255 302 359
#     4  11  21  39  64  88 118 164 207 242 298 367
#     4  11  25  39  60  94 123 159 203 251 308 365
#     4  12  22  37  62  97 122 151 204 257 314 355
#     4  12  22  39  61  86 126 156 201 257 299 355
#
# _framework density 22.299868
#
# number of rings (size 3 to 8) (size 9 to 14) (size 15 to 20)
#    0.000    1.000    3.750    4.875    0.000    3.500 
#    0.000    1.250    0.000    8.250    0.000    0.000 
#    0.000    0.000    0.000    0.000    0.000    0.000 
#
# Total GULP energy -198343.411915 kJ/mol
# GULP energy per Si atom -12396.463245 kJ/mol
# Density = 2.224911 g / cm^3
# Si number density = 22.299868 Si / 1000 Ang^3
#
#
#
# Elastic Constant Matrix: (Units=GPa)
#
#
# Indices 1 2 3 4 5 6 
#
# 1 9.0716 28.7636 21.9353 -1.7594 1.3884 -0.8181
# 2 28.7636 163.4727 48.0124 9.5326 -6.8339 18.5970
# 3 21.9353 48.0124 111.5502 6.1007 -2.9620 12.5510
# 4 -1.7594 9.5326 6.1007 44.8566 -4.8716 5.4745
# 5 1.3884 -6.8339 -2.9620 -4.8716 25.9897 4.8606
# 6 -0.8181 18.5970 12.5510 5.4745 4.8606 21.8497
#
#
#
# Elastic Compliance Matrix: (Units=1/GPa)
#
#
# Indices 1 2 3 4 5 6 
#
# 1 -59.422121 10.216205 9.721216 -2.547853 9.868879-18.061440
# 2 10.216205 -1.748797 -1.673903 0.437739 -1.694023 3.099688
# 3 9.721216 -1.673903 -1.579770 0.416562 -1.613260 2.950677
# 4 -2.547853 0.437739 0.416562 -0.085408 0.428784 -0.781244
# 5 9.868879 -1.694023 -1.613260 0.428784 -1.596033 2.985673
# 6 -18.061440 3.099688 2.950677 -0.781244 2.985673 -5.432141
#
#
# Mechanical properties :
#
#
# Convention : Reuss Voigt Hill
#
# Bulk Modulus (GPa) = -0.03813 53.50191 26.73189
# Shear Modulus (GPa) = -0.04343 30.89809 15.42733
#
# Velocity S-wave (km/s) = -0.13970 3.72637 2.63309
# Velocity P-wave (km/s) = 0.20775 6.52369 4.61061
#
# Compressibility (1/GPa) = -26.22365304
#
# Stress axis : x y z
#
# Youngs Moduli (GPa) = -0.01683 -0.57182 -0.63300
#
# Poissons Ratio (x) = 5.84185 6.15356
# Poissons Ratio (y) = 0.17193 -1.05959
# Poissons Ratio (z) = 0.16360 -0.95717
#
# Static dielectric constant tensor:
#      x y z
#    x 4.324730 -0.051420 0.363160 
#    y -0.051420 4.977830 -0.376040 
#    z 0.363160 -0.376040 4.029760 
# 
# 
# High freq. dielectric constant tensor:
#      x y z
#    x 1.872470 0.010480 0.014270 
#    y 0.010480 1.911440 -0.007960 
#    z 0.014270 -0.007960 1.864340 
# 
# From -- ./inp_files/348648.got.cif
#   From: 2010.06.25/outbox.cif.g09.slc.cpg/sg2_175_cif.got.tgz:348648.got - 2010.06.27 13:26:56.
