data_PCOD8044502
_publ_section_title
;
Structure prediction by ZEFSAII (Michael W. Deem and Ramdas Pophale) SiO2 
 PCOD8044502
Probable space group: P -1
;
_chemical_formula_sum "Si O2"
_cell_formula_units_Z 16
_cell_length_a 23.322790
_cell_length_b 9.089460
_cell_length_c 9.322439
_cell_angle_alpha 73.923584
_cell_angle_beta 61.965407
_cell_angle_gamma 127.554043
_cell_volume 820.216018
_symmetry_space_group_name_H-M "P -1"
_symmetry_group_IT_number 2
_symmetry_cell_setting 'triclinic'
loop_
_space_group_symop_operation_xyz
x,y,z
-x,-y,-z
loop_
_atom_site_type_symbol
_atom_site_label
_atom_site_fract_x
_atom_site_fract_y
_atom_site_fract_z
Si Si1 0.372086 0.833309 0.861821
Si Si2 0.137536 0.199107 0.799233
Si Si3 0.866529 0.130734 0.616649
Si Si4 0.632759 0.185591 0.456194
Si Si5 0.728638 0.144575 0.810623
Si Si6 0.473068 0.265030 0.089020
Si Si7 0.740209 0.653780 0.676952
Si Si8 0.021706 0.735921 0.270996
O O1 0.325702 0.750719 0.774515
O O2 0.527238 0.107698 0.615939
O O3 0.343520 0.938766 0.940363
O O4 0.284533 0.526961 0.127580
O O5 0.238488 0.511101 0.684816
O O6 0.188894 0.271924 0.561716
O O7 0.111926 0.988460 0.971010
O O8 0.000000 0.000000 0.000000
O O9 0.742628 0.987770 0.845334
O O10 0.897832 0.079817 0.724086
O O11 0.997102 0.503966 0.331253
O O12 0.833385 0.972258 0.554359
O O13 0.570438 0.896463 0.663109
O O14 0.876993 0.521524 0.512861
O O15 0.641263 0.012991 0.813150
O O16 0.500000 0.500000 0.000000
O O17 0.606100 0.454609 0.830086
#
# Coordination Sequence:
#
# PCOD8044502 Si02
#       8
#     2   2   2   2   2   2   2   2
#     4  10  21  40  63  85 113 153 198 244 287 343
#     4  12  24  38  58  90 121 156 193 241 285 350
#     4   9  20  39  59  85 116 158 188 241 287 344
#     4  10  23  39  59  86 120 149 194 246 290 338
#     4  10  19  38  62  86 114 154 195 237 291 346
#     4  11  20  39  61  87 119 148 190 243 294 350
#     4  11  22  37  63  87 116 156 193 239 300 334
#     4   9  20  39  58  81 123 150 195 233 287 338
#
# _framework density 19.507057
#
# number of rings (size 3 to 8) (size 9 to 14) (size 15 to 20)
#    0.750    1.000    1.250    3.750    0.000    3.500 
#    2.250    3.125    0.000    0.000    0.000    0.000 
#    0.000    0.000    0.000    0.000    0.000    0.000 
#
# Total GULP energy -198357.289529 kJ/mol
# GULP energy per Si atom -12397.330596 kJ/mol
# Density = 1.946266 g / cm^3
# Si number density = 19.507057 Si / 1000 Ang^3
#
#
#
# Elastic Constant Matrix: (Units=GPa)
#
#
# Indices 1 2 3 4 5 6 
#
# 1 96.5362 59.0450 54.2282 7.4130 2.3694 11.6723
# 2 59.0450 111.7026 49.9599 16.2574 -1.4458 17.9698
# 3 54.2282 49.9599 108.9614 17.5745 9.9995 8.1317
# 4 7.4130 16.2574 17.5745 32.7206 2.4555 -2.4084
# 5 2.3694 -1.4458 9.9995 2.4555 33.0452 -4.0693
# 6 11.6723 17.9698 8.1317 -2.4084 -4.0693 31.1210
#
#
#
# Elastic Compliance Matrix: (Units=1/GPa)
#
#
# Indices 1 2 3 4 5 6 
#
# 1 0.017976 -0.007020 -0.006076 0.002617 -0.000064 -0.000907
# 2 -0.007020 0.015510 -0.002463 -0.005346 0.001600 -0.005884
# 3 -0.006076 -0.002463 0.014564 -0.005008 -0.003829 -0.000993
# 4 0.002617 -0.005346 -0.005008 0.035824 -0.000820 0.006079
# 5 -0.000064 0.001600 -0.003829 -0.000820 0.032077 0.004231
# 6 -0.000907 -0.005884 -0.000993 0.006079 0.004231 0.037153
#
#
# Mechanical properties :
#
#
# Convention : Reuss Voigt Hill
#
# Bulk Modulus (GPa) = 59.06246 71.51851 65.29049
# Shear Modulus (GPa) = 26.33420 29.64182 27.98801
#
# Velocity S-wave (km/s) = 3.67820 3.90236 3.79194
# Velocity P-wave (km/s) = 6.95572 7.55295 7.26048
#
# Compressibility (1/GPa) = 0.01693123
#
# Stress axis : x y z
#
# Youngs Moduli (GPa) = 55.62954 64.47384 68.66170
#
# Poissons Ratio (x) = 0.45262 0.41720
# Poissons Ratio (y) = 0.39053 0.16913
# Poissons Ratio (z) = 0.33801 0.15881
#
# Static dielectric constant tensor:
#      x y z
#    x 3.664280 0.122000 -0.015000 
#    y 0.122000 3.484600 -0.046050 
#    z -0.015000 -0.046050 3.549780 
# 
# 
# High freq. dielectric constant tensor:
#      x y z
#    x 1.770210 0.013790 -0.000450 
#    y 0.013790 1.755520 -0.006910 
#    z -0.000450 -0.006910 1.746060 
# 
# From -- ./inp_files/351722.got.cif
#   From: 2010.06.25/outbox.cif.g09.slc.cpg/sg2_176_cif.got.tgz:351722.got - 2010.06.27 13:26:56.
