data_PCOD8044214
_publ_section_title
;
Structure prediction by ZEFSAII (Michael W. Deem and Ramdas Pophale) SiO2 
 PCOD8044214
Probable space group: P -1
;
_chemical_formula_sum "Si O2"
_cell_formula_units_Z 16
_cell_length_a 14.954389
_cell_length_b 15.254282
_cell_length_c 9.360119
_cell_angle_alpha 37.343926
_cell_angle_beta 54.502980
_cell_angle_gamma 36.131233
_cell_volume 752.355062
_symmetry_space_group_name_H-M "P -1"
_symmetry_group_IT_number 2
_symmetry_cell_setting 'triclinic'
loop_
_space_group_symop_operation_xyz
x,y,z
-x,-y,-z
loop_
_atom_site_type_symbol
_atom_site_label
_atom_site_fract_x
_atom_site_fract_y
_atom_site_fract_z
Si Si1 0.672913 0.246110 0.973735
Si Si2 0.992566 0.827640 0.307001
Si Si3 0.568407 0.779083 0.731037
Si Si4 0.165234 0.852462 0.604757
Si Si5 0.253725 0.669903 0.465348
Si Si6 0.887714 0.789004 0.716448
Si Si7 0.237788 0.591364 0.144726
Si Si8 0.224781 0.408721 0.943387
O O1 0.574602 0.197906 0.160994
O O2 0.856546 0.050614 0.079655
O O3 0.637505 0.332527 0.732801
O O4 0.637684 0.414827 0.890358
O O5 0.920129 0.759057 0.552146
O O6 0.081260 0.838013 0.336291
O O7 0.102342 0.674171 0.274655
O O8 0.673077 0.639170 0.678827
O O9 0.500000 0.000000 0.500000
O O10 0.672614 0.670823 0.911323
O O11 0.275126 0.709095 0.555561
O O12 0.202569 0.981196 0.455520
O O13 0.179797 0.721790 0.885265
O O14 0.000000 0.000000 0.500000
O O15 0.293324 0.460227 0.697464
O O16 0.049533 0.621564 0.867832
O O17 0.777890 0.753657 0.901045
#
# Coordination Sequence:
#
# PCOD8044214 Si02
#       8
#     2   2   2   2   2   2   2   2
#     4  11  22  40  65  97 128 166 209 257 324 373
#     4  10  19  37  65  99 124 155 209 268 319 357
#     4  12  26  43  62  87 136 173 211 253 320 386
#     4  12  17  33  63  98 121 154 208 262 312 363
#     4  10  20  36  64  92 126 156 213 267 303 367
#     4  10  20  35  66  91 131 161 204 262 322 372
#     4  11  22  39  65  95 124 164 218 262 309 376
#     4  10  21  39  56  91 121 172 201 254 317 370
#
# _framework density 21.266555
#
# number of rings (size 3 to 8) (size 9 to 14) (size 15 to 20)
#    0.000    1.250    5.000    3.375    0.000    0.500 
#    0.000    7.500    0.000    7.500    0.000    0.875 
#    0.000    0.000    0.000    0.000    0.000    0.000 
#
# Total GULP energy -198220.499823 kJ/mol
# GULP energy per Si atom -12388.781239 kJ/mol
# Density = 2.121815 g / cm^3
# Si number density = 21.266555 Si / 1000 Ang^3
#
#
#
# Elastic Constant Matrix: (Units=GPa)
#
#
# Indices 1 2 3 4 5 6 
#
# 1 77.0507 40.8159 41.9589 -2.3938 -0.4408 10.4160
# 2 40.8159 95.1433 56.9628 -3.7881 -0.4641 21.3065
# 3 41.9589 56.9628 132.6446 4.1384 -8.4425 21.2410
# 4 -2.3938 -3.7881 4.1384 31.7562 14.6870 -4.3884
# 5 -0.4408 -0.4641 -8.4425 14.6870 34.8206 3.7315
# 6 10.4160 21.3065 21.2410 -4.3884 3.7315 21.0953
#
#
#
# Elastic Compliance Matrix: (Units=1/GPa)
#
#
# Indices 1 2 3 4 5 6 
#
# 1 0.017837 -0.005738 -0.003570 0.002121 -0.001753 0.001333
# 2 -0.005738 0.017944 -0.004156 0.000722 0.000029 -0.010960
# 3 -0.003570 -0.004156 0.012606 -0.006877 0.006861 -0.009376
# 4 0.002121 0.000722 -0.006877 0.045851 -0.022980 0.018751
# 5 -0.001753 0.000029 0.006861 -0.022980 0.042012 -0.018284
# 6 0.001333 -0.010960 -0.009376 0.018751 -0.018284 0.074392
#
#
# Mechanical properties :
#
#
# Convention : Reuss Voigt Hill
#
# Bulk Modulus (GPa) = 46.59958 64.92374 55.76166
# Shear Modulus (GPa) = 20.43133 28.54117 24.48625
#
# Velocity S-wave (km/s) = 3.10292 3.66740 3.39691
# Velocity P-wave (km/s) = 5.89892 6.96620 6.45465
#
# Compressibility (1/GPa) = 0.02145942
#
# Stress axis : x y z
#
# Youngs Moduli (GPa) = 56.06195 55.73028 79.32889
#
# Poissons Ratio (x) = 0.31976 0.28318
# Poissons Ratio (y) = 0.32166 0.32971
# Poissons Ratio (z) = 0.20013 0.23163
#
# Static dielectric constant tensor:
#      x y z
#    x 4.023380 0.420780 -0.007350 
#    y 0.420780 4.109470 -0.003160 
#    z -0.007350 -0.003160 4.456510 
# 
# 
# High freq. dielectric constant tensor:
#      x y z
#    x 1.827690 0.004300 0.008820 
#    y 0.004300 1.798010 0.000640 
#    z 0.008820 0.000640 1.852670 
# 
# From -- ./inp_files/312341.got.cif
#   From: 2010.06.25/outbox.cif.g09.slc.cpg/sg2_157_cif.got.tgz:312341.got - 2010.06.27 13:26:56.
