data_PCOD8044059
_publ_section_title
;
Structure prediction by ZEFSAII (Michael W. Deem and Ramdas Pophale) SiO2 
 PCOD8044059
Probable space group: P -1
;
_chemical_formula_sum "Si O2"
_cell_formula_units_Z 14
_cell_length_a 16.117228
_cell_length_b 14.438759
_cell_length_c 10.770022
_cell_angle_alpha 41.098659
_cell_angle_beta 23.422733
_cell_angle_gamma 40.741203
_cell_volume 633.565991
_symmetry_space_group_name_H-M "P -1"
_symmetry_group_IT_number 2
_symmetry_cell_setting 'triclinic'
loop_
_space_group_symop_operation_xyz
x,y,z
-x,-y,-z
loop_
_atom_site_type_symbol
_atom_site_label
_atom_site_fract_x
_atom_site_fract_y
_atom_site_fract_z
Si Si1 0.220016 0.863354 0.696596
Si Si2 0.449785 0.565297 0.245981
Si Si3 0.344297 0.268378 0.658246
Si Si4 0.087964 0.180673 0.630332
Si Si5 0.121755 0.689529 0.771733
Si Si6 0.907271 0.518722 0.779552
Si Si7 0.661665 0.716798 0.627070
O O1 0.479259 0.822199 0.398101
O O2 0.154480 0.794771 0.731241
O O3 0.129969 0.036970 0.633244
O O4 0.126306 0.802723 0.009045
O O5 0.334756 0.439429 0.499781
O O6 0.312198 0.673618 0.427941
O O7 0.691777 0.499299 0.028144
O O8 0.461424 0.656962 0.011817
O O9 0.392457 0.215407 0.502739
O O10 0.110934 0.245164 0.039852
O O11 0.068099 0.316731 0.426807
O O12 0.293535 0.163306 0.459176
O O13 0.114424 0.531319 0.997887
O O14 0.115206 0.411137 0.540074
#
# Coordination Sequence:
#
# PCOD8044059 Si02
#       7
#     2   2   2   2   2   2   2
#     4  11  22  39  62  89 121 158 196 243 303 348
#     4  11  20  35  62  90 121 155 192 253 300 340
#     4  11  21  37  61  89 119 157 196 248 291 352
#     4  10  20  38  61  91 117 156 202 243 292 355
#     4  11  23  39  61  91 122 151 202 244 296 360
#     4  10  19  37  63  88 116 152 201 248 286 348
#     4  10  20  37  62  93 118 149 209 247 288 350
#
# _framework density 22.097145000000001
#
# number of rings (size 3 to 8) (size 9 to 14) (size 15 to 20)
#    0.000    1.429    4.286    3.857    0.000    1.714 
#    0.000    2.857    0.000    3.429    0.000    0.000 
#    0.000    0.000    0.000    0.000    0.000    0.000 
#
# Total GULP energy -173579.587422 kJ/mol
# GULP energy per Si atom -12398.541959 kJ/mol
# Density = 2.204685 g / cm^3
# Si number density = 22.097145 Si / 1000 Ang^3
#
#
#
# Elastic Constant Matrix: (Units=GPa)
#
#
# Indices 1 2 3 4 5 6 
#
# 1 42.9514 16.9908 37.1846 6.5910 -17.9249 3.6974
# 2 16.9908 71.0409 33.8277 -7.4107 -2.9377 11.7585
# 3 37.1846 33.8277 107.6184 16.2941 -3.8913 5.1873
# 4 6.5910 -7.4107 16.2941 26.6812 1.2959 0.3117
# 5 -17.9249 -2.9377 -3.8913 1.2959 37.2684 6.0192
# 6 3.6974 11.7585 5.1873 0.3117 6.0192 21.9715
#
#
#
# Elastic Compliance Matrix: (Units=1/GPa)
#
#
# Indices 1 2 3 4 5 6 
#
# 1 0.047007 -0.003040 -0.013202 -0.005387 0.022681 -0.009303
# 2 -0.003040 0.020580 -0.006546 0.010544 0.000608 -0.009273
# 3 -0.013202 -0.006546 0.016865 -0.008636 -0.005342 0.003329
# 4 -0.005387 0.010544 -0.008636 0.047230 -0.003934 -0.002290
# 5 0.022681 0.000608 -0.005342 -0.003934 0.039575 -0.013667
# 6 -0.009303 -0.009273 0.003329 -0.002290 -0.013667 0.055032
#
#
# Mechanical properties :
#
#
# Convention : Reuss Voigt Hill
#
# Bulk Modulus (GPa) = 25.72293 44.17963 34.95128
# Shear Modulus (GPa) = 17.55455 26.09140 21.82297
#
# Velocity S-wave (km/s) = 2.82161 3.43995 3.14601
# Velocity P-wave (km/s) = 4.72032 5.98451 5.38961
#
# Compressibility (1/GPa) = 0.03887583
#
# Stress axis : x y z
#
# Youngs Moduli (GPa) = 21.27334 48.58987 59.29359
#
# Poissons Ratio (x) = 0.14772 0.78281
# Poissons Ratio (y) = 0.06468 0.38814
# Poissons Ratio (z) = 0.28086 0.31807
#
# Static dielectric constant tensor:
#      x y z
#    x 3.790280 0.127000 -0.089380 
#    y 0.127000 3.683260 -0.070760 
#    z -0.089380 -0.070760 4.153710 
# 
# 
# High freq. dielectric constant tensor:
#      x y z
#    x 1.856230 0.014390 -0.016250 
#    y 0.014390 1.839890 0.001680 
#    z -0.016250 0.001680 1.874770 
# 
# From -- ./inp_files/235197.got.cif
#   From: 2010.06.25/outbox.cif.g09.slc.cpg/sg2_118_cif.got.tgz:235197.got - 2010.06.27 13:26:56.
