data_PCOD8044329
_publ_section_title
;
Structure prediction by ZEFSAII (Michael W. Deem and Ramdas Pophale) SiO2 
 PCOD8044329
Probable space group: P -1
;
_chemical_formula_sum "Si O2"
_cell_formula_units_Z 16
_cell_length_a 8.760121
_cell_length_b 17.715197
_cell_length_c 15.418878
_cell_angle_alpha 156.426791
_cell_angle_beta 98.959170
_cell_angle_gamma 95.190368
_cell_volume 762.986389
_symmetry_space_group_name_H-M "P -1"
_symmetry_group_IT_number 2
_symmetry_cell_setting 'triclinic'
loop_
_space_group_symop_operation_xyz
x,y,z
-x,-y,-z
loop_
_atom_site_type_symbol
_atom_site_label
_atom_site_fract_x
_atom_site_fract_y
_atom_site_fract_z
Si Si1 0.929964 0.705650 0.965949
Si Si2 0.252399 0.727718 0.608995
Si Si3 0.401670 0.817655 0.900440
Si Si4 0.708516 0.652964 0.134269
Si Si5 0.880739 0.444317 0.844782
Si Si6 0.887362 0.668270 0.583821
Si Si7 0.885282 0.032451 0.409673
Si Si8 0.120473 0.922167 0.036787
O O1 0.753667 0.451363 0.647099
O O2 0.006682 0.644847 0.993317
O O3 0.085648 0.830631 0.035455
O O4 0.862855 0.867837 0.155871
O O5 0.367517 0.737179 0.712791
O O6 0.041227 0.648605 0.528820
O O7 0.373471 0.992156 0.858806
O O8 0.311961 0.588943 0.710383
O O9 0.308040 0.955164 0.053847
O O10 0.887187 0.783324 0.354401
O O11 0.749782 0.866174 0.302136
O O12 0.500000 0.500000 0.000000
O O13 0.708709 0.463250 0.874984
O O14 0.810782 0.186575 0.535118
O O15 0.000000 0.500000 0.000000
O O16 0.851712 0.834081 0.704195
O O17 0.944514 0.741235 0.766587
#
# Coordination Sequence:
#
# PCOD8044329 Si02
#       8
#     2   2   2   2   2   2   2   2
#     4  11  20  36  59  88 118 152 191 242 292 334
#     4  10  20  36  60  82 116 159 195 242 285 338
#     4  10  19  39  56  82 118 157 199 237 287 336
#     4   9  18  38  64  86 109 145 190 232 290 353
#     4   9  20  39  62  84 111 152 190 229 288 350
#     4  10  19  38  57  83 114 154 200 233 289 342
#     4   9  20  36  57  85 117 147 183 239 288 341
#     4  10  20  35  59  84 115 154 192 244 286 343
#
# _framework density 20.970229
#
# number of rings (size 3 to 8) (size 9 to 14) (size 15 to 20)
#    0.000    2.250    2.500    1.500    1.750    0.500 
#    6.750    2.500    0.000    0.000    0.000    0.000 
#    0.000    0.000    0.000    0.000    0.000    0.000 
#
# Total GULP energy -198225.495262 kJ/mol
# GULP energy per Si atom -12389.093454 kJ/mol
# Density = 2.092250 g / cm^3
# Si number density = 20.970229 Si / 1000 Ang^3
#
#
#
# Elastic Constant Matrix: (Units=GPa)
#
#
# Indices 1 2 3 4 5 6 
#
# 1 45.5991 40.2094 47.9986 12.4643 -11.0389 12.2844
# 2 40.2094 118.5595 46.8396 13.1216 -4.6540 10.5616
# 3 47.9986 46.8396 162.3282 15.9067 -18.6844 17.2294
# 4 12.4643 13.1216 15.9067 39.2816 6.8808 1.1084
# 5 -11.0389 -4.6540 -18.6844 6.8808 43.6043 11.6909
# 6 12.2844 10.5616 17.2294 1.1084 11.6909 25.1100
#
#
#
# Elastic Compliance Matrix: (Units=1/GPa)
#
#
# Indices 1 2 3 4 5 6 
#
# 1 0.053259 -0.011115 -0.006538 -0.013027 0.018198 -0.024792
# 2 -0.011115 0.012218 -0.000715 0.000091 -0.002332 0.001871
# 3 -0.006538 -0.000715 0.009453 -0.002066 0.003909 -0.004716
# 4 -0.013027 0.000091 -0.002066 0.032248 -0.012522 0.012159
# 5 0.018198 -0.002332 0.003909 -0.012522 0.038436 -0.027947
# 6 -0.024792 0.001871 -0.004716 0.012159 -0.027947 0.066877
#
#
# Mechanical properties :
#
#
# Convention : Reuss Voigt Hill
#
# Bulk Modulus (GPa) = 26.18214 66.28687 46.23450
# Shear Modulus (GPa) = 19.08695 34.36181 26.72438
#
# Velocity S-wave (km/s) = 3.02021 4.05235 3.57374
# Velocity P-wave (km/s) = 4.96737 7.31943 6.25495
#
# Compressibility (1/GPa) = 0.03819398
#
# Stress axis : x y z
#
# Youngs Moduli (GPa) = 18.77610 81.84341 105.78735
#
# Poissons Ratio (x) = 0.90969 0.69168
# Poissons Ratio (y) = 0.20870 0.07563
# Poissons Ratio (z) = 0.12277 0.05851
#
# Static dielectric constant tensor:
#      x y z
#    x 3.486620 0.089570 -0.395560 
#    y 0.089570 3.896370 0.178250 
#    z -0.395560 0.178250 4.310530 
# 
# 
# High freq. dielectric constant tensor:
#      x y z
#    x 1.775400 0.014070 -0.027700 
#    y 0.014070 1.820780 0.011490 
#    z -0.027700 0.011490 1.835260 
# 
# From -- ./inp_files/562780.got.cif
#   From: 2010.06.25/outbox.cif.g09.slc.cpg/sg2_282_cif.got.tgz:562780.got - 2010.06.27 13:26:56.
