data_PCOD8044398
_publ_section_title
;
Structure prediction by ZEFSAII (Michael W. Deem and Ramdas Pophale) SiO2 
 PCOD8044398
Probable space group: P -1
;
_chemical_formula_sum "Si O2"
_cell_formula_units_Z 16
_cell_length_a 14.814540
_cell_length_b 9.566901
_cell_length_c 19.435128
_cell_angle_alpha 92.654990
_cell_angle_beta 20.440679
_cell_angle_gamma 105.509189
_cell_volume 736.723695
_symmetry_space_group_name_H-M "P -1"
_symmetry_group_IT_number 2
_symmetry_cell_setting 'triclinic'
loop_
_space_group_symop_operation_xyz
x,y,z
-x,-y,-z
loop_
_atom_site_type_symbol
_atom_site_label
_atom_site_fract_x
_atom_site_fract_y
_atom_site_fract_z
Si Si1 0.153507 0.796629 0.245569
Si Si2 0.990766 0.160554 0.502880
Si Si3 0.447408 0.329942 0.064518
Si Si4 0.776052 0.797716 0.126384
Si Si5 0.668966 0.946475 0.085965
Si Si6 0.975834 0.989785 0.300678
Si Si7 0.367124 0.842579 0.644957
Si Si8 0.611111 0.677028 0.387015
O O1 0.000569 0.751120 0.430053
O O2 0.926406 0.807781 0.354420
O O3 0.220988 0.656710 0.174484
O O4 0.500000 0.000000 0.000000
O O5 0.659307 0.075618 0.692388
O O6 0.335956 0.323330 0.221933
O O7 0.000000 0.000000 0.500000
O O8 0.500000 0.500000 0.000000
O O9 0.127698 0.139210 0.255110
O O10 0.568199 0.794331 0.211735
O O11 0.546161 0.655583 0.349622
O O12 0.999699 0.750339 0.934177
O O13 0.000000 0.000000 0.000000
O O14 0.766739 0.903928 0.944325
O O15 0.992108 0.153075 0.881308
O O16 0.609905 0.919427 0.539782
O O17 0.362362 0.699419 0.601773
O O18 0.500000 0.000000 0.500000
O O19 0.500000 0.500000 0.500000
#
# Coordination Sequence:
#
# PCOD8044398 Si02
#       8
#     2   2   2   2   2   2   2   2
#     4  10  19  38  60  86 123 154 209 251 294 368
#     4  12  21  38  66  88 114 168 212 242 299 377
#     4  11  24  39  62  92 126 156 203 266 310 346
#     4  10  20  36  63  89 120 156 212 241 297 370
#     4  10  20  38  65  89 116 163 214 242 298 372
#     4  10  19  38  65  84 121 163 204 249 302 361
#     4  11  20  38  65  91 117 161 208 245 296 374
#     4  10  23  40  62  93 130 154 197 266 308 350
#
# _framework density 21.717775
#
# number of rings (size 3 to 8) (size 9 to 14) (size 15 to 20)
#    0.000    1.500    8.750    0.000    3.500    1.000 
#    0.000    7.500    0.000    0.000    0.000    0.000 
#    0.000    0.000    0.000    0.000    0.000    0.000 
#
# Total GULP energy -198261.800901 kJ/mol
# GULP energy per Si atom -12391.362556 kJ/mol
# Density = 2.166834 g / cm^3
# Si number density = 21.717775 Si / 1000 Ang^3
#
#
#
# Elastic Constant Matrix: (Units=GPa)
#
#
# Indices 1 2 3 4 5 6 
#
# 1 148.3141 45.8475 48.8071 16.3475 21.3069 -29.5995
# 2 45.8475 121.5841 42.8698 24.2818 16.6898 -33.1975
# 3 48.8071 42.8698 70.2574 26.5049 14.3950 -8.9644
# 4 16.3475 24.2818 26.5049 33.1329 -7.1194 3.9050
# 5 21.3069 16.6898 14.3950 -7.1194 51.9204 9.3751
# 6 -29.5995 -33.1975 -8.9644 3.9050 9.3751 40.5805
#
#
#
# Elastic Compliance Matrix: (Units=1/GPa)
#
#
# Indices 1 2 3 4 5 6 
#
# 1 0.011719 0.003468 -0.003282 -0.009170 -0.008719 0.013557
# 2 0.003468 0.020643 0.000458 -0.023656 -0.016034 0.025499
# 3 -0.003282 0.000458 0.030279 -0.026873 -0.012721 0.010195
# 4 -0.009170 -0.023656 -0.026873 0.087952 0.039842 -0.049645
# 5 -0.008719 -0.016034 -0.012721 0.039842 0.043515 -0.036174
# 6 0.013557 0.025499 0.010195 -0.049645 -0.036174 0.070776
#
#
# Mechanical properties :
#
#
# Convention : Reuss Voigt Hill
#
# Bulk Modulus (GPa) = 15.64225 68.35606 41.99915
# Shear Modulus (GPa) = 17.54963 38.63551 28.09257
#
# Velocity S-wave (km/s) = 2.84575 4.22237 3.60047
# Velocity P-wave (km/s) = 4.24451 7.43736 6.05517
#
# Compressibility (1/GPa) = 0.06392942
#
# Stress axis : x y z
#
# Youngs Moduli (GPa) = 85.32913 48.44201 33.02636
#
# Poissons Ratio (x) = -0.16798 0.10838
# Poissons Ratio (y) = -0.29589 -0.01512
# Poissons Ratio (z) = 0.28002 -0.02218
#
# Static dielectric constant tensor:
#      x y z
#    x 4.705860 -0.333970 0.114400 
#    y -0.333970 8.245740 4.862970 
#    z 0.114400 4.862970 8.159730 
# 
# 
# High freq. dielectric constant tensor:
#      x y z
#    x 1.876620 -0.018350 0.016700 
#    y -0.018350 1.835880 0.037290 
#    z 0.016700 0.037290 1.829660 
# 
# From -- ./inp_files/597382.got.cif
#   From: 2010.06.25/outbox.cif.g09.slc.cpg/sg2_299_cif.got.tgz:597382.got - 2010.06.27 13:26:56.
