data_PCOD8044081
_publ_section_title
;
Structure prediction by ZEFSAII (Michael W. Deem and Ramdas Pophale) SiO2 
 PCOD8044081
Probable space group: P -1
;
_chemical_formula_sum "Si O2"
_cell_formula_units_Z 16
_cell_length_a 16.327055
_cell_length_b 22.386081
_cell_length_c 14.763825
_cell_angle_alpha 20.615900
_cell_angle_beta 34.880617
_cell_angle_gamma 23.628155
_cell_volume 734.655474
_symmetry_space_group_name_H-M "P -1"
_symmetry_group_IT_number 2
_symmetry_cell_setting 'triclinic'
loop_
_space_group_symop_operation_xyz
x,y,z
-x,-y,-z
loop_
_atom_site_type_symbol
_atom_site_label
_atom_site_fract_x
_atom_site_fract_y
_atom_site_fract_z
Si Si1 0.425035 0.353566 0.360999
Si Si2 0.260638 0.758770 0.371893
Si Si3 0.649572 0.901524 0.920659
Si Si4 0.201369 0.025545 0.713184
Si Si5 0.990510 0.853011 0.102401
Si Si6 0.394008 0.451541 0.045541
Si Si7 0.061363 0.587003 0.747184
Si Si8 0.063786 0.094924 0.243616
O O1 0.465928 0.323868 0.259604
O O2 0.174015 0.571131 0.298608
O O3 0.522821 0.098031 0.674906
O O4 0.549026 0.400546 0.228987
O O5 0.500000 0.500000 0.500000
O O6 0.115809 0.715906 0.564755
O O7 0.232373 0.878350 0.324032
O O8 0.185547 0.957870 0.081963
O O9 0.842538 0.844226 0.863133
O O10 0.736114 0.649984 0.158576
O O11 0.500000 0.000000 0.000000
O O12 0.458037 0.785427 0.821365
O O13 0.122856 0.147324 0.711448
O O14 0.129356 0.220619 0.424413
O O15 0.097234 0.935359 0.916272
O O16 0.145317 0.641422 0.986851
O O17 0.000000 0.500000 0.000000
O O18 0.000000 0.000000 0.500000
#
# Coordination Sequence:
#
# PCOD8044081 Si02
#       8
#     2   2   2   2   2   2   2   2
#     4  10  19  37  63  91 121 167 211 258 312 376
#     4  11  24  41  66  94 125 165 213 269 316 364
#     4  12  25  41  66  94 133 171 207 256 328 389
#     4   9  19  34  61  88 119 163 208 256 305 370
#     4   9  18  35  59  91 119 155 217 261 297 365
#     4  10  20  36  65  94 120 158 220 269 305 357
#     4  11  23  42  64  93 129 171 206 250 324 398
#     4  12  24  41  65 102 127 159 221 275 307 366
#
# _framework density 21.778917
#
# number of rings (size 3 to 8) (size 9 to 14) (size 15 to 20)
#    0.000    1.500    2.500    3.000    3.500    2.000 
#    0.000    1.250    5.500    0.000    0.000    0.000 
#    0.000    0.000    0.000    0.000    0.000    0.000 
#
# Total GULP energy -198411.447269 kJ/mol
# GULP energy per Si atom -12400.715454 kJ/mol
# Density = 2.172935 g / cm^3
# Si number density = 21.778917 Si / 1000 Ang^3
#
#
#
# Elastic Constant Matrix: (Units=GPa)
#
#
# Indices 1 2 3 4 5 6 
#
# 1 46.7875 11.8659 16.3084 -5.5861 11.5987 2.1404
# 2 11.8659 127.2775 18.5923 -19.9516 12.1280 11.5506
# 3 16.3084 18.5923 88.8399 -6.7374 21.6137 -2.2756
# 4 -5.5861 -19.9516 -6.7374 43.4373 1.1973 6.7479
# 5 11.5987 12.1280 21.6137 1.1973 26.9842 -4.5717
# 6 2.1404 11.5506 -2.2756 6.7479 -4.5717 37.0389
#
#
#
# Elastic Compliance Matrix: (Units=1/GPa)
#
#
# Indices 1 2 3 4 5 6 
#
# 1 0.025152 -0.000245 -0.001984 0.003609 -0.009843 -0.003371
# 2 -0.000245 0.009635 -0.000529 0.005152 -0.004801 -0.004554
# 3 -0.001984 -0.000529 0.014480 0.002126 -0.010693 -0.000538
# 4 0.003609 0.005152 0.002126 0.027604 -0.008101 -0.007713
# 5 -0.009843 -0.004801 -0.010693 -0.008101 0.053990 0.009549
# 6 -0.003371 -0.004554 -0.000538 -0.007713 0.009549 0.031165
#
#
# Mechanical properties :
#
#
# Convention : Reuss Voigt Hill
#
# Bulk Modulus (GPa) = 22.85665 39.60426 31.23045
# Shear Modulus (GPa) = 27.45345 35.90129 31.67737
#
# Velocity S-wave (km/s) = 3.55428 4.06451 3.81792
# Velocity P-wave (km/s) = 5.23082 6.34438 5.81432
#
# Compressibility (1/GPa) = 0.04375094
#
# Stress axis : x y z
#
# Youngs Moduli (GPa) = 39.75785 103.78305 69.06039
#
# Poissons Ratio (x) = 0.02547 0.13700
# Poissons Ratio (y) = 0.00976 0.03655
# Poissons Ratio (z) = 0.07887 0.05493
#
# Static dielectric constant tensor:
#      x y z
#    x 3.459080 0.083810 0.404260 
#    y 0.083810 4.154670 -0.068880 
#    z 0.404260 -0.068880 3.724340 
# 
# 
# High freq. dielectric constant tensor:
#      x y z
#    x 1.834480 0.013600 0.022540 
#    y 0.013600 1.869590 -0.010570 
#    z 0.022540 -0.010570 1.853620 
# 
# From -- ./inp_files/539268.got.cif
#   From: 2010.06.25/outbox.cif.g09.slc.cpg/sg2_270_cif.got.tgz:539268.got - 2010.06.27 13:26:56.
