data_PCOD8044210
_publ_section_title
;
Structure prediction by ZEFSAII (Michael W. Deem and Ramdas Pophale) SiO2 
 PCOD8044210
Probable space group: P -1
;
_chemical_formula_sum "Si O2"
_cell_formula_units_Z 16
_cell_length_a 12.151335
_cell_length_b 9.205139
_cell_length_c 20.061364
_cell_angle_alpha 65.690236
_cell_angle_beta 41.018912
_cell_angle_gamma 35.892402
_cell_volume 738.205001
_symmetry_space_group_name_H-M "P -1"
_symmetry_group_IT_number 2
_symmetry_cell_setting 'triclinic'
loop_
_space_group_symop_operation_xyz
x,y,z
-x,-y,-z
loop_
_atom_site_type_symbol
_atom_site_label
_atom_site_fract_x
_atom_site_fract_y
_atom_site_fract_z
Si Si1 0.323136 0.289799 0.498991
Si Si2 0.219232 0.719560 0.135094
Si Si3 0.722143 0.634269 0.281157
Si Si4 0.340522 0.244205 0.865551
Si Si5 0.825500 0.016122 0.776650
Si Si6 0.683201 0.685930 0.761742
Si Si7 0.334976 0.968407 0.737503
Si Si8 0.350592 0.781108 0.529732
O O1 0.483092 0.307005 0.460783
O O2 0.965157 0.564025 0.626718
O O3 0.500000 0.000000 0.500000
O O4 0.377424 0.261031 0.400782
O O5 0.248882 0.853902 0.141270
O O6 0.200981 0.569066 0.211978
O O7 0.910951 0.967284 0.185714
O O8 0.500000 0.500000 0.000000
O O9 0.649646 0.687588 0.225796
O O10 0.825581 0.728977 0.239134
O O11 0.412830 0.848162 0.425696
O O12 0.978474 0.301742 0.245567
O O13 0.517727 0.220353 0.839351
O O14 0.501279 0.942854 0.848354
O O15 0.000000 0.500000 0.000000
O O16 0.993580 0.028178 0.658295
O O17 0.456148 0.816834 0.781891
O O18 0.500000 0.500000 0.500000
#
# Coordination Sequence:
#
# PCOD8044210 Si02
#       8
#     2   2   2   2   2   2   2   2
#     4  12  19  40  71  98 134 172 221 271 336 403
#     4  12  27  43  68  98 137 179 219 275 340 390
#     4  10  23  42  71  96 129 176 220 270 326 399
#     4  11  27  46  68  95 130 180 233 266 318 401
#     4  11  24  44  66  97 133 174 215 278 334 385
#     4  11  25  45  68  98 135 175 225 278 324 400
#     4  11  23  43  69 101 130 179 222 270 335 395
#     4  10  19  37  65  95 131 165 210 267 333 388
#
# _framework density 21.674196999999999
#
# number of rings (size 3 to 8) (size 9 to 14) (size 15 to 20)
#    0.000    1.000    3.750    2.625    5.250    2.500 
#    0.000    0.000    0.000    0.000    0.000    0.000 
#    0.000    0.000    0.000    0.000    0.000    0.000 
#
# Total GULP energy -198346.092473 kJ/mol
# GULP energy per Si atom -12396.630780 kJ/mol
# Density = 2.162487 g / cm^3
# Si number density = 21.674197 Si / 1000 Ang^3
#
#
#
# Elastic Constant Matrix: (Units=GPa)
#
#
# Indices 1 2 3 4 5 6 
#
# 1 182.2898 22.3113 56.5002 8.4802 -11.2635 2.3979
# 2 22.3113 36.2196 3.9980 8.2516 -6.2952 0.8673
# 3 56.5002 3.9980 119.9717 18.3595 -5.4659 -6.6452
# 4 8.4802 8.2516 18.3595 30.9621 0.5678 5.8924
# 5 -11.2635 -6.2952 -5.4659 0.5678 34.7912 8.6225
# 6 2.3979 0.8673 -6.6452 5.8924 8.6225 28.7338
#
#
#
# Elastic Compliance Matrix: (Units=1/GPa)
#
#
# Indices 1 2 3 4 5 6 
#
# 1 0.007112 -0.004041 -0.003500 0.001568 0.001505 -0.002054
# 2 -0.004041 0.032813 0.002474 -0.009253 0.005097 0.000287
# 3 -0.003500 0.002474 0.011241 -0.007177 0.000146 0.004245
# 4 0.001568 -0.009253 -0.007177 0.040433 -0.000567 -0.009633
# 5 0.001505 0.005097 0.000146 -0.000567 0.032645 -0.009926
# 6 -0.002054 0.000287 0.004245 -0.009633 -0.009926 0.040901
#
#
# Mechanical properties :
#
#
# Convention : Reuss Voigt Hill
#
# Bulk Modulus (GPa) = 24.37142 56.01113 40.19128
# Shear Modulus (GPa) = 26.46107 35.94219 31.20163
#
# Velocity S-wave (km/s) = 3.49787 4.07663 3.79829
# Velocity P-wave (km/s) = 5.25188 6.93232 6.14977
#
# Compressibility (1/GPa) = 0.04103166
#
# Stress axis : x y z
#
# Youngs Moduli (GPa) = 140.60197 30.47589 88.95825
#
# Poissons Ratio (x) = 0.12316 0.31135
# Poissons Ratio (y) = 0.56821 -0.22007
# Poissons Ratio (z) = 0.49210 -0.07539
#
# Static dielectric constant tensor:
#      x y z
#    x 4.152920 0.255710 0.011490 
#    y 0.255710 3.672440 0.305860 
#    z 0.011490 0.305860 3.882110 
# 
# 
# High freq. dielectric constant tensor:
#      x y z
#    x 1.871510 0.011780 0.008890 
#    y 0.011780 1.833260 0.006340 
#    z 0.008890 0.006340 1.853210 
# 
# From -- ./inp_files/346482.got.cif
#   From: 2010.06.25/outbox.cif.g09.slc.cpg/sg2_174_cif.got.tgz:346482.got - 2010.06.27 13:26:56.
