data_PCOD8044829
_publ_section_title
;
Structure prediction by ZEFSAII (Michael W. Deem and Ramdas Pophale) SiO2 
 PCOD8044829
Probable space group: P -1
;
_chemical_formula_sum "Si O2"
_cell_formula_units_Z 14
_cell_length_a 8.389210
_cell_length_b 8.845800
_cell_length_c 14.000105
_cell_angle_alpha 66.537592
_cell_angle_beta 39.914359
_cell_angle_gamma 81.719399
_cell_volume 588.082289
_symmetry_space_group_name_H-M "P -1"
_symmetry_group_IT_number 2
_symmetry_cell_setting 'triclinic'
loop_
_space_group_symop_operation_xyz
x,y,z
-x,-y,-z
loop_
_atom_site_type_symbol
_atom_site_label
_atom_site_fract_x
_atom_site_fract_y
_atom_site_fract_z
Si Si1 0.174613 0.724156 0.473870
Si Si2 0.590923 0.910955 0.391706
Si Si3 0.940760 0.483920 0.162975
Si Si4 0.731038 0.496607 0.822397
Si Si5 0.976060 0.780669 0.941875
Si Si6 0.613169 0.577150 0.526985
Si Si7 0.449988 0.838278 0.135029
O O1 0.346032 0.816979 0.461666
O O2 0.219111 0.536945 0.474107
O O3 0.245945 0.839859 0.315243
O O4 0.863405 0.673270 0.655661
O O5 0.745709 0.779053 0.396290
O O6 0.500000 0.000000 0.500000
O O7 0.795622 0.046830 0.201922
O O8 0.637728 0.430485 0.290226
O O9 0.016805 0.517823 0.230146
O O10 0.056113 0.329195 0.113983
O O11 0.061870 0.664485 0.010884
O O12 0.649123 0.333192 0.835806
O O13 0.500000 0.500000 0.000000
O O14 0.713192 0.832640 0.069068
O O15 0.500000 0.500000 0.500000
O O16 0.500000 0.000000 0.000000
#
# Coordination Sequence:
#
# PCOD8044829 Si02
#       7
#     2   2   2   2   2   2   2
#     4  11  25  47  69 104 142 192 235 290 363 420
#     4  11  22  40  71 105 139 173 237 301 348 413
#     4  11  21  43  71 104 133 185 241 284 351 424
#     4  12  25  48  74  97 143 197 237 284 355 445
#     4  11  24  41  70 105 141 179 237 294 352 417
#     4  10  19  38  69  98 130 169 230 293 344 403
#     4  12  29  46  66 108 151 187 236 297 359 417
#
# _framework density 23.806191999999999
#
# number of rings (size 3 to 8) (size 9 to 14) (size 15 to 20)
#    0.000    0.857    7.143    0.429    4.000    0.571 
#    0.000    0.714    0.000    0.000    0.000    0.000 
#    0.000    0.000    0.000    0.000    0.000    0.000 
#
# Total GULP energy -173434.774653 kJ/mol
# GULP energy per Si atom -12388.198190 kJ/mol
# Density = 2.375201 g / cm^3
# Si number density = 23.806192 Si / 1000 Ang^3
#
#
#
# Elastic Constant Matrix: (Units=GPa)
#
#
# Indices 1 2 3 4 5 6 
#
# 1 52.8077 19.1243 32.0295 -5.9458 1.4764 11.2002
# 2 19.1243 84.8736 45.0163 -17.4914 5.4939 5.0292
# 3 32.0295 45.0163 202.2439 -17.2084 -0.4391 6.9946
# 4 -5.9458 -17.4914 -17.2084 48.7755 1.4235 1.1569
# 5 1.4764 5.4939 -0.4391 1.4235 38.8304 1.3933
# 6 11.2002 5.0292 6.9946 1.1569 1.3933 31.8550
#
#
#
# Elastic Compliance Matrix: (Units=1/GPa)
#
#
# Indices 1 2 3 4 5 6 
#
# 1 0.023338 -0.003221 -0.002654 0.000930 -0.000240 -0.007138
# 2 -0.003221 0.014826 -0.002416 0.004151 -0.002128 -0.000735
# 3 -0.002654 -0.002416 0.005983 0.000908 0.000479 -0.000053
# 4 0.000930 0.004151 0.000908 0.022510 -0.001368 -0.001939
# 5 -0.000240 -0.002128 0.000479 -0.001368 0.026147 -0.000779
# 6 -0.007138 -0.000735 -0.000053 -0.001939 -0.000779 0.034134
#
#
# Mechanical properties :
#
#
# Convention : Reuss Voigt Hill
#
# Bulk Modulus (GPa) = 36.27708 59.14058 47.70883
# Shear Modulus (GPa) = 32.74219 40.14252 36.44235
#
# Velocity S-wave (km/s) = 3.71261 4.11082 3.91678
# Velocity P-wave (km/s) = 5.80083 6.88681 6.36702
#
# Compressibility (1/GPa) = 0.02756562
#
# Stress axis : x y z
#
# Youngs Moduli (GPa) = 42.84870 67.44762 167.14915
#
# Poissons Ratio (x) = 0.21726 0.44355
# Poissons Ratio (y) = 0.13802 0.40382
# Poissons Ratio (z) = 0.11370 0.16295
#
# Static dielectric constant tensor:
#      x y z
#    x 4.194260 -0.195040 -0.008370 
#    y -0.195040 4.468370 0.122150 
#    z -0.008370 0.122150 4.910080 
# 
# 
# High freq. dielectric constant tensor:
#      x y z
#    x 1.919030 0.013740 0.005800 
#    y 0.013740 1.929980 -0.001140 
#    z 0.005800 -0.001140 1.975180 
# 
# From -- ./inp_files/461883.got.cif
#   From: 2010.06.25/outbox.cif.g09.slc.cpg/sg2_231_cif.got.tgz:461883.got - 2010.06.27 13:26:56.
