data_PCOD8044412
_publ_section_title
;
Structure prediction by ZEFSAII (Michael W. Deem and Ramdas Pophale) SiO2 
 PCOD8044412
Probable space group: P -1
;
_chemical_formula_sum "Si O2"
_cell_formula_units_Z 14
_cell_length_a 9.569709
_cell_length_b 12.240538
_cell_length_c 12.755612
_cell_angle_alpha 136.146862
_cell_angle_beta 46.416420
_cell_angle_gamma 132.044878
_cell_volume 704.128786
_symmetry_space_group_name_H-M "P -1"
_symmetry_group_IT_number 2
_symmetry_cell_setting 'triclinic'
loop_
_space_group_symop_operation_xyz
x,y,z
-x,-y,-z
loop_
_atom_site_type_symbol
_atom_site_label
_atom_site_fract_x
_atom_site_fract_y
_atom_site_fract_z
Si Si1 0.456286 0.345717 0.192256
Si Si2 0.190076 0.323596 0.515563
Si Si3 0.048689 0.144422 0.158846
Si Si4 0.194690 0.681078 0.714459
Si Si5 0.711476 0.153421 0.997156
Si Si6 0.407408 0.293266 0.588211
Si Si7 0.056919 0.008894 0.673723
O O1 0.364632 0.319262 0.339662
O O2 0.291649 0.225795 0.113881
O O3 0.663890 0.298506 0.055071
O O4 0.510666 0.540184 0.265644
O O5 0.120776 0.482373 0.637344
O O6 0.273374 0.340233 0.600913
O O7 0.999702 0.149364 0.485527
O O8 0.974505 0.291870 0.256310
O O9 0.926130 0.060848 0.268325
O O10 0.000000 0.000000 0.000000
O O11 0.211720 0.787028 0.884564
O O12 0.410150 0.751360 0.590990
O O13 0.888504 0.100904 0.814489
O O14 0.500000 0.000000 0.000000
O O15 0.278829 0.137175 0.617101
#
# Coordination Sequence:
#
# PCOD8044412 Si02
#       7
#     2   2   2   2   2   2   2
#     4  10  20  36  63  88 117 154 206 238 290 352
#     4  10  19  38  60  89 116 155 199 241 289 356
#     4  11  22  40  60  88 118 160 202 241 284 363
#     4  11  21  38  67  80 119 160 201 234 297 352
#     4  12  18  37  63  90 108 160 204 243 281 348
#     4  11  21  38  59  94 122 150 191 259 297 343
#     4  11  24  35  62  91 126 147 198 250 302 340
#
# _framework density 19.882726999999999
#
# number of rings (size 3 to 8) (size 9 to 14) (size 15 to 20)
#    0.000    1.143    7.143    1.286    0.000    6.286 
#    0.000    0.714    0.000    0.000    0.000    0.000 
#    0.000    0.000    0.000    0.000    0.000    0.000 
#
# Total GULP energy -173607.985037 kJ/mol
# GULP energy per Si atom -12400.570360 kJ/mol
# Density = 1.983747 g / cm^3
# Si number density = 19.882727 Si / 1000 Ang^3
#
#
#
# Elastic Constant Matrix: (Units=GPa)
#
#
# Indices 1 2 3 4 5 6 
#
# 1 114.5047 29.0065 29.0993 7.2374 3.5773 -14.4471
# 2 29.0065 113.1057 30.8431 13.5945 2.9274 13.8394
# 3 29.0993 30.8431 62.7430 18.7663 3.5680 4.0964
# 4 7.2374 13.5945 18.7663 25.2646 5.5346 -1.3530
# 5 3.5773 2.9274 3.5680 5.5346 24.9659 15.0130
# 6 -14.4471 13.8394 4.0964 -1.3530 15.0130 28.1331
#
#
#
# Elastic Compliance Matrix: (Units=1/GPa)
#
#
# Indices 1 2 3 4 5 6 
#
# 1 0.013577 -0.004237 -0.006696 0.006932 -0.012164 0.016856
# 2 -0.004237 0.012635 -0.001838 -0.006858 0.008823 -0.013162
# 3 -0.006696 -0.001838 0.025871 -0.018884 0.008834 -0.011924
# 4 0.006932 -0.006858 -0.018884 0.062954 -0.028110 0.027711
# 5 -0.012164 0.008823 0.008834 -0.028110 0.079053 -0.055411
# 6 0.016856 -0.013162 -0.011924 0.027711 -0.055411 0.083315
#
#
# Mechanical properties :
#
#
# Convention : Reuss Voigt Hill
#
# Bulk Modulus (GPa) = 37.67526 52.02792 44.85159
# Shear Modulus (GPa) = 16.03629 29.09970 22.56799
#
# Velocity S-wave (km/s) = 2.84305 3.82981 3.37271
# Velocity P-wave (km/s) = 5.45593 6.76615 6.14605
#
# Compressibility (1/GPa) = 0.02654262
#
# Stress axis : x y z
#
# Youngs Moduli (GPa) = 73.65508 79.14352 38.65327
#
# Poissons Ratio (x) = 0.33530 0.25882
# Poissons Ratio (y) = 0.31205 0.07103
# Poissons Ratio (z) = 0.49320 0.14543
#
# Static dielectric constant tensor:
#      x y z
#    x 4.000680 0.103610 -0.000750 
#    y 0.103610 3.764430 0.444780 
#    z -0.000750 0.444780 3.668160 
# 
# 
# High freq. dielectric constant tensor:
#      x y z
#    x 1.772650 0.000230 0.002150 
#    y 0.000230 1.770090 0.034630 
#    z 0.002150 0.034630 1.763250 
# 
# From -- ./inp_files/157334.got.cif
#   From: 2010.06.25/outbox.cif.g09.slc.cpg/sg2_79_cif.got.tgz:157334.got - 2010.06.27 13:26:56.
