data_PCOD8044025
_publ_section_title
;
Structure prediction by ZEFSAII (Michael W. Deem and Ramdas Pophale) SiO2 
 PCOD8044025
Probable space group: P -1
;
_chemical_formula_sum "Si O2"
_cell_formula_units_Z 16
_cell_length_a 9.167395
_cell_length_b 20.090184
_cell_length_c 8.213949
_cell_angle_alpha 35.071265
_cell_angle_beta 61.488969
_cell_angle_gamma 60.154702
_cell_volume 746.482492
_symmetry_space_group_name_H-M "P -1"
_symmetry_group_IT_number 2
_symmetry_cell_setting 'triclinic'
loop_
_space_group_symop_operation_xyz
x,y,z
-x,-y,-z
loop_
_atom_site_type_symbol
_atom_site_label
_atom_site_fract_x
_atom_site_fract_y
_atom_site_fract_z
Si Si1 0.985738 0.665264 0.215090
Si Si2 0.534950 0.987697 0.314229
Si Si3 0.852918 0.059343 0.075696
Si Si4 0.635332 0.514396 0.126197
Si Si5 0.723299 0.517477 0.703425
Si Si6 0.728823 0.742225 0.739425
Si Si7 0.802751 0.881864 0.725003
Si Si8 0.918312 0.311054 0.530634
O O1 0.138002 0.606386 0.131328
O O2 0.044324 0.630682 0.436817
O O3 0.812722 0.616719 0.377214
O O4 0.945100 0.806872 0.918505
O O5 0.597731 0.850180 0.501687
O O6 0.500000 0.000000 0.500000
O O7 0.683762 0.057833 0.063380
O O8 0.354518 0.053812 0.201584
O O9 0.869774 0.982330 0.387177
O O10 0.854175 0.193472 0.847511
O O11 0.000000 0.000000 0.000000
O O12 0.445893 0.490328 0.292581
O O13 0.771392 0.399015 0.337312
O O14 0.672477 0.548815 0.853711
O O15 0.649963 0.625568 0.010386
O O16 0.749558 0.784602 0.827273
O O17 0.913051 0.717147 0.609756
#
# Coordination Sequence:
#
# PCOD8044025 Si02
#       8
#     2   2   2   2   2   2   2   2
#     4  11  25  42  60  93 132 165 197 263 322 361
#     4   8  18  36  61  89 119 158 202 257 301 361
#     4  10  19  37  62  95 117 161 212 252 300 368
#     4  11  24  42  68  93 119 169 212 258 299 378
#     4  10  25  44  60  92 133 160 206 256 319 366
#     4  10  19  39  65  91 123 164 210 252 308 371
#     4  10  22  40  65  86 130 168 198 259 317 362
#     4  12  23  37  68  96 124 161 217 249 307 377
#
# _framework density 21.433859999999999
#
# number of rings (size 3 to 8) (size 9 to 14) (size 15 to 20)
#    0.000    2.000    3.750    1.125    5.250    4.000 
#    0.000    0.625    0.000    0.000    0.000    0.000 
#    0.000    0.000    0.000    0.000    0.000    0.000 
#
# Total GULP energy -198299.320689 kJ/mol
# GULP energy per Si atom -12393.707543 kJ/mol
# Density = 2.138508 g / cm^3
# Si number density = 21.433860 Si / 1000 Ang^3
#
#
#
# Elastic Constant Matrix: (Units=GPa)
#
#
# Indices 1 2 3 4 5 6 
#
# 1 82.0469 42.0844 52.6828 -5.9018 -8.8793 -20.3934
# 2 42.0844 84.1843 28.4107 -13.1577 -11.4061 -27.5459
# 3 52.6828 28.4107 101.1324 -22.0473 -9.0535 -13.2977
# 4 -5.9018 -13.1577 -22.0473 34.9950 -3.2763 -3.5250
# 5 -8.8793 -11.4061 -9.0535 -3.2763 35.3519 -1.5675
# 6 -20.3934 -27.5459 -13.2977 -3.5250 -1.5675 38.4747
#
#
#
# Elastic Compliance Matrix: (Units=1/GPa)
#
#
# Indices 1 2 3 4 5 6 
#
# 1 0.023598 -0.008258 -0.010929 -0.005777 0.000030 0.002291
# 2 -0.008258 0.022294 0.002921 0.010932 0.007496 0.013901
# 3 -0.010929 0.002921 0.018111 0.011425 0.004062 0.003770
# 4 -0.005777 0.010932 0.011425 0.041083 0.009380 0.012860
# 5 0.000030 0.007496 0.004062 0.009380 0.033021 0.008992
# 6 0.002291 0.013901 0.003770 0.012860 0.008992 0.040005
#
#
# Mechanical properties :
#
#
# Convention : Reuss Voigt Hill
#
# Bulk Modulus (GPa) = 31.77487 57.07994 44.42741
# Shear Modulus (GPa) = 22.61069 31.37669 26.99369
#
# Velocity S-wave (km/s) = 3.25145 3.83022 3.55265
# Velocity P-wave (km/s) = 5.38077 6.80069 6.13197
#
# Compressibility (1/GPa) = 0.03147141
#
# Stress axis : x y z
#
# Youngs Moduli (GPa) = 42.37569 44.85524 55.21644
#
# Poissons Ratio (x) = 0.37042 0.60344
# Poissons Ratio (y) = 0.34994 -0.16129
# Poissons Ratio (z) = 0.46311 -0.13102
#
# Static dielectric constant tensor:
#      x y z
#    x 4.048000 -0.503030 0.155920 
#    y -0.503030 4.177890 -0.408490 
#    z 0.155920 -0.408490 3.767840 
# 
# 
# High freq. dielectric constant tensor:
#      x y z
#    x 1.830500 -0.023550 -0.008720 
#    y -0.023550 1.847110 -0.011650 
#    z -0.008720 -0.011650 1.833700 
# 
# From -- ./inp_files/222836.got.cif
#   From: 2010.06.25/outbox.cif.g09.slc.cpg/sg2_112_cif.got.tgz:222836.got - 2010.06.27 13:26:56.
