data_PCOD8044524
_publ_section_title
;
Structure prediction by ZEFSAII (Michael W. Deem and Ramdas Pophale) SiO2 
 PCOD8044524
Probable space group: P -1
;
_chemical_formula_sum "Si O2"
_cell_formula_units_Z 16
_cell_length_a 8.446403
_cell_length_b 11.891147
_cell_length_c 8.520021
_cell_angle_alpha 117.678337
_cell_angle_beta 93.041987
_cell_angle_gamma 92.578767
_cell_volume 754.389139
_symmetry_space_group_name_H-M "P -1"
_symmetry_group_IT_number 2
_symmetry_cell_setting 'triclinic'
loop_
_space_group_symop_operation_xyz
x,y,z
-x,-y,-z
loop_
_atom_site_type_symbol
_atom_site_label
_atom_site_fract_x
_atom_site_fract_y
_atom_site_fract_z
Si Si1 0.143955 0.231561 0.502995
Si Si2 0.414682 0.919470 0.303522
Si Si3 0.108941 0.749871 0.257048
Si Si4 0.958048 0.808466 0.982139
Si Si5 0.126208 0.420891 0.372401
Si Si6 0.307880 0.525195 0.167494
Si Si7 0.791414 0.967885 0.861931
Si Si8 0.395495 0.308440 0.814339
O O1 0.209489 0.344333 0.462920
O O2 0.122483 0.099243 0.321889
O O3 0.275134 0.230120 0.642620
O O4 0.970415 0.254280 0.578213
O O5 0.245612 0.864271 0.329453
O O6 0.511109 0.802421 0.171963
O O7 0.500000 0.000000 0.500000
O O8 0.382755 0.004005 0.199235
O O9 0.181575 0.614307 0.139076
O O10 0.966026 0.777653 0.147260
O O11 0.974657 0.676010 0.810300
O O12 0.798073 0.875235 0.956895
O O13 0.112417 0.900007 0.001462
O O14 0.261063 0.502789 0.332790
O O15 0.000000 0.500000 0.500000
O O16 0.484453 0.594204 0.214292
O O17 0.303593 0.388496 0.990205
#
# Coordination Sequence:
#
# PCOD8044524 Si02
#       8
#     2   2   2   2   2   2   2   2
#     4  11  21  36  63  92 118 160 204 257 311 359
#     4  10  19  38  62  90 123 163 203 254 303 369
#     4  10  21  36  63  94 120 158 208 251 311 363
#     4   9  20  35  57  89 121 154 196 257 300 357
#     4  11  22  37  60  89 124 160 203 256 307 360
#     4  10  22  41  58  90 128 161 204 250 308 372
#     4   9  19  38  59  85 125 154 202 254 306 358
#     4  10  22  38  64  88 123 166 202 251 305 371
#
# _framework density 21.209212999999998
#
# number of rings (size 3 to 8) (size 9 to 14) (size 15 to 20)
#    0.000    2.000    2.500    0.750    1.750    3.500 
#    2.250    0.000    0.000    6.750    0.000    0.000 
#    0.000    0.000    0.000    0.000    0.000    0.000 
#
# Total GULP energy -198248.258379 kJ/mol
# GULP energy per Si atom -12390.516149 kJ/mol
# Density = 2.116094 g / cm^3
# Si number density = 21.209213 Si / 1000 Ang^3
#
#
#
# Elastic Constant Matrix: (Units=GPa)
#
#
# Indices 1 2 3 4 5 6 
#
# 1 77.6205 40.9453 41.6284 -7.9366 -0.6041 -12.5587
# 2 40.9453 106.2018 38.0433 -8.2928 -6.2856 -21.8905
# 3 41.6284 38.0433 84.7680 3.5365 -3.4731 -4.0386
# 4 -7.9366 -8.2928 3.5365 39.7782 -1.2924 1.5697
# 5 -0.6041 -6.2856 -3.4731 -1.2924 36.9123 -5.3795
# 6 -12.5587 -21.8905 -4.0386 1.5697 -5.3795 33.3960
#
#
#
# Elastic Compliance Matrix: (Units=1/GPa)
#
#
# Indices 1 2 3 4 5 6 
#
# 1 0.020349 -0.003795 -0.008279 0.003838 -0.000386 0.003921
# 2 -0.003795 0.014386 -0.004185 0.002407 0.003230 0.007904
# 3 -0.008279 -0.004185 0.017746 -0.003958 0.000174 -0.003496
# 4 0.003838 0.002407 -0.003958 0.026741 0.001253 0.001487
# 5 -0.000386 0.003230 0.000174 0.001253 0.028650 0.006549
# 6 0.003921 0.007904 -0.003496 0.001487 0.006549 0.037162
#
#
# Mechanical properties :
#
#
# Convention : Reuss Voigt Hill
#
# Bulk Modulus (GPa) = 50.08762 56.64714 53.36738
# Shear Modulus (GPa) = 27.14362 31.88218 29.51290
#
# Velocity S-wave (km/s) = 3.58131 3.88135 3.73435
# Velocity P-wave (km/s) = 6.38501 6.84494 6.61897
#
# Compressibility (1/GPa) = 0.01996501
#
# Stress axis : x y z
#
# Youngs Moduli (GPa) = 49.14277 69.51030 56.34951
#
# Poissons Ratio (x) = 0.26376 0.46653
# Poissons Ratio (y) = 0.18648 0.23580
# Poissons Ratio (z) = 0.40686 0.29087
#
# Static dielectric constant tensor:
#      x y z
#    x 3.679830 -0.285910 0.073730 
#    y -0.285910 4.374320 -0.061400 
#    z 0.073730 -0.061400 3.803990 
# 
# 
# High freq. dielectric constant tensor:
#      x y z
#    x 1.807610 -0.012570 0.007690 
#    y -0.012570 1.849160 0.010110 
#    z 0.007690 0.010110 1.822900 
# 
# From -- ./inp_files/182539.got.cif
#   From: 2010.06.25/outbox.cif.g09.slc.cpg/sg2_92_cif.got.tgz:182539.got - 2010.06.27 13:26:56.
