data_PCOD8044158
_publ_section_title
;
Structure prediction by ZEFSAII (Michael W. Deem and Ramdas Pophale) SiO2 
 PCOD8044158
Probable space group: P -1
;
_chemical_formula_sum "Si O2"
_cell_formula_units_Z 16
_cell_length_a 12.171336
_cell_length_b 19.002374
_cell_length_c 21.430885
_cell_angle_alpha 19.611051
_cell_angle_beta 151.452658
_cell_angle_gamma 141.391095
_cell_volume 761.551073
_symmetry_space_group_name_H-M "P -1"
_symmetry_group_IT_number 2
_symmetry_cell_setting 'triclinic'
loop_
_space_group_symop_operation_xyz
x,y,z
-x,-y,-z
loop_
_atom_site_type_symbol
_atom_site_label
_atom_site_fract_x
_atom_site_fract_y
_atom_site_fract_z
Si Si1 0.860319 0.559501 0.014493
Si Si2 0.613905 0.843289 0.548838
Si Si3 0.849622 0.894276 0.834074
Si Si4 0.710516 0.447059 0.598194
Si Si5 0.397900 0.431746 0.343256
Si Si6 0.028130 0.916292 0.513624
Si Si7 0.393169 0.892144 0.939771
Si Si8 0.817325 0.876219 0.240206
O O1 0.813563 0.335893 0.201825
O O2 0.141670 0.491222 0.198462
O O3 0.698721 0.632647 0.811474
O O4 0.777222 0.753793 0.860482
O O5 0.566806 0.769696 0.517777
O O6 0.375958 0.020009 0.305411
O O7 0.833938 0.948343 0.571346
O O8 0.921742 0.105927 0.665574
O O9 0.066636 0.742956 0.108013
O O10 0.500000 0.500000 0.500000
O O11 0.609779 0.360890 0.558457
O O12 0.809889 0.653719 0.457232
O O13 0.418661 0.644612 0.138051
O O14 0.000000 0.000000 0.500000
O O15 0.764822 0.946227 0.325983
O O16 0.274759 0.925225 0.922422
O O17 0.655505 0.925049 0.055031
#
# Coordination Sequence:
#
# PCOD8044158 Si02
#       8
#     2   2   2   2   2   2   2   2
#     4  12  23  42  67  90 126 169 217 258 309 379
#     4  12  27  43  60  94 137 167 208 262 323 375
#     4  12  25  42  65  95 131 170 204 265 323 377
#     4  11  22  40  68  99 126 162 218 265 308 376
#     4  11  21  41  66  93 125 165 212 266 308 370
#     4  12  24  38  65  94 122 168 216 261 311 373
#     4  10  19  37  64  95 120 154 215 265 303 362
#     4  10  21  37  64  94 124 159 208 265 315 367
#
# _framework density 21.009753
#
# number of rings (size 3 to 8) (size 9 to 14) (size 15 to 20)
#    0.000    0.750    5.000    3.750    1.750    2.000 
#    0.000    2.500    0.000    0.000    0.000    0.000 
#    0.000    0.000    0.000    0.000    0.000    0.000 
#
# Total GULP energy -198381.511305 kJ/mol
# GULP energy per Si atom -12398.844457 kJ/mol
# Density = 2.096193 g / cm^3
# Si number density = 21.009753 Si / 1000 Ang^3
#
#
#
# Elastic Constant Matrix: (Units=GPa)
#
#
# Indices 1 2 3 4 5 6 
#
# 1 61.3455 34.3292 31.3595 -9.4144 2.1976 -2.0792
# 2 34.3292 98.3698 26.5451 -13.3593 -7.6263 -12.2468
# 3 31.3595 26.5451 83.3542 -1.7303 -17.3964 2.8492
# 4 -9.4144 -13.3593 -1.7303 31.1021 -6.5690 -1.4783
# 5 2.1976 -7.6263 -17.3964 -6.5690 38.1079 3.3773
# 6 -2.0792 -12.2468 2.8492 -1.4783 3.3773 23.6320
#
#
#
# Elastic Compliance Matrix: (Units=1/GPa)
#
#
# Indices 1 2 3 4 5 6 
#
# 1 0.024999 -0.006315 -0.008663 0.003110 -0.006218 0.001055
# 2 -0.006315 0.014693 -0.001877 0.005210 0.002705 0.007224
# 3 -0.008663 -0.001877 0.017798 -0.000877 0.008555 -0.005158
# 4 0.003110 0.005210 -0.000877 0.036851 0.006419 0.004467
# 5 -0.006218 0.002705 0.008555 0.006419 0.032545 -0.004426
# 6 0.001055 0.007224 -0.005158 0.004467 -0.004426 0.047686
#
#
# Mechanical properties :
#
#
# Convention : Reuss Voigt Hill
#
# Bulk Modulus (GPa) = 42.05504 47.50413 44.77959
# Shear Modulus (GPa) = 23.12573 28.62412 25.87492
#
# Velocity S-wave (km/s) = 3.32130 3.69510 3.51318
# Velocity P-wave (km/s) = 5.89648 6.39255 6.14951
#
# Compressibility (1/GPa) = 0.02377836
#
# Stress axis : x y z
#
# Youngs Moduli (GPa) = 40.00100 68.06047 56.18691
#
# Poissons Ratio (x) = 0.42980 0.48677
# Poissons Ratio (y) = 0.25260 0.10549
# Poissons Ratio (z) = 0.34654 0.12778
#
# Static dielectric constant tensor:
#      x y z
#    x 3.597580 0.030200 -0.203230 
#    y 0.030200 4.309420 -0.155670 
#    z -0.203230 -0.155670 3.777000 
# 
# 
# High freq. dielectric constant tensor:
#      x y z
#    x 1.798570 -0.005080 -0.024890 
#    y -0.005080 1.843640 -0.002520 
#    z -0.024890 -0.002520 1.816420 
# 
# From -- ./inp_files/272844.got.cif
#   From: 2010.06.25/outbox.cif.g09.slc.cpg/sg2_137_cif.got.tgz:272844.got - 2010.06.27 13:26:56.
