data_PCOD8044992
_publ_section_title
;
Structure prediction by ZEFSAII (Michael W. Deem and Ramdas Pophale) SiO2 
 PCOD8044992
Probable space group: P 2
;
_chemical_formula_sum "Si O2"
_cell_formula_units_Z 12
_cell_length_a 12.973518
_cell_length_b 9.104533
_cell_length_c 7.907957
_cell_angle_alpha 90.000000
_cell_angle_beta 35.646524
_cell_angle_gamma 90.000000
_cell_volume 544.360516
_symmetry_space_group_name_H-M "P 2"
_symmetry_group_IT_number 3
_symmetry_cell_setting 'monoclinic'
loop_
_space_group_symop_operation_xyz
x,y,z
-x,y,-z
loop_
_atom_site_type_symbol
_atom_site_label
_atom_site_fract_x
_atom_site_fract_y
_atom_site_fract_z
Si Si1 0.799209 0.776890 0.783069
Si Si2 0.709110 0.299154 0.222148
Si Si3 0.712085 0.094667 0.526992
Si Si4 0.700510 0.098728 0.923418
Si Si5 0.809099 0.770224 0.406061
Si Si6 0.804746 0.625344 0.092906
O O1 0.707199 0.750271 0.722091
O O2 0.000000 0.722861 0.500000
O O3 0.800070 0.947808 0.831226
O O4 0.704804 0.680378 0.055662
O O5 0.500000 0.331062 0.500000
O O6 0.771829 0.211583 0.305707
O O7 0.816507 0.450523 0.080366
O O8 0.765643 0.215632 0.975374
O O9 0.746601 0.155830 0.671853
O O10 0.818268 0.944007 0.353800
O O11 0.505302 0.063028 0.779908
O O12 0.704521 0.684383 0.395918
O O13 0.004837 0.703389 0.158332
#
# Coordination Sequence:
#
# PCOD8044992 Si02
#       6
#     2   2   2   2   2   2
#     4   9  18  34  54  77 105 138 179 220 260 310
#     4  10  21  35  53  80 111 141 173 214 267 320
#     4   9  18  35  58  78 102 136 181 226 260 304
#     4   9  18  34  56  81 102 134 181 224 264 305
#     4   9  19  36  54  74 103 139 180 222 257 304
#     4  10  20  34  51  76 111 142 170 210 266 321
#
# _framework density 22.044214
#
# number of rings (size 3 to 8) (size 9 to 14) (size 15 to 20)
#    0.000    2.667    0.000    1.000    0.000    2.667 
#    0.000   15.833    0.000    0.000    0.000    0.000 
#    0.000    0.000    0.000    0.000    0.000    0.000 
#
# Total GULP energy -148689.915664 kJ/mol
# GULP energy per Si atom -12390.826305 kJ/mol
# Density = 2.199404 g / cm^3
# Si number density = 22.044214 Si / 1000 Ang^3
#
#
#
# Elastic Constant Matrix: (Units=GPa)
#
#
# Indices 1 2 3 4 5 6 
#
# 1 103.4949 85.5797 64.6240 0.0000 65.3295 0.0000
# 2 85.5797 177.5116 64.2973 0.0000 49.2143 0.0000
# 3 64.6240 64.2973 58.1910 0.0000 37.5211 0.0000
# 4 0.0000 0.0000 0.0000 18.1228 0.0000 8.2310
# 5 65.3295 49.2143 37.5211 0.0000 60.1629 0.0000
# 6 0.0000 0.0000 0.0000 8.2310 0.0000 20.8124
#
#
#
# Elastic Compliance Matrix: (Units=1/GPa)
#
#
# Indices 1 2 3 4 5 6 
#
# 1 0.065029 -0.005630 -0.039199 0.000000 -0.041562 0.000000
# 2 -0.005630 0.010030 -0.005823 0.000000 0.001541 0.000000
# 3 -0.039199 -0.005823 0.061275 0.000000 0.009114 0.000000
# 4 0.000000 0.000000 0.000000 0.067261 0.000000 -0.026601
# 5 -0.041562 0.001541 0.009114 0.000000 0.054808 0.000000
# 6 0.000000 0.000000 0.000000 -0.026601 0.000000 0.058568
#
#
# Mechanical properties :
#
#
# Convention : Reuss Voigt Hill
#
# Bulk Modulus (GPa) = 28.54746 85.35551 56.95149
# Shear Modulus (GPa) = 11.62918 28.13272 19.88095
#
# Velocity S-wave (km/s) = 2.29931 3.57626 3.00637
# Velocity P-wave (km/s) = 4.47519 7.47376 6.15972
#
# Compressibility (1/GPa) = 0.03502938
#
# Stress axis : x y z
#
# Youngs Moduli (GPa) = 15.37764 99.70219 16.31985
#
# Poissons Ratio (x) = 0.56131 0.63972
# Poissons Ratio (y) = 0.08657 0.09504
# Poissons Ratio (z) = 0.60279 0.58061
#
# Static dielectric constant tensor:
#      x y z
#    x 5.061370 0.000000 1.253010 
#    y 0.000000 3.700300 0.000000 
#    z 1.253010 0.000000 4.455560 
# 
# 
# High freq. dielectric constant tensor:
#      x y z
#    x 1.876460 0.000000 0.036750 
#    y 0.000000 1.846870 0.000000 
#    z 0.036750 0.000000 1.856130 
# 
# From -- ./inp_files/5082.got.cif
#   From: 2010.03.12/outbox.cif.g09.slc.cpg/sg3_3_cif.got.tgz:5082.got - 2010.03.31 09:20:49.
