data_PCOD8044481
_publ_section_title
;
Structure prediction by ZEFSAII (Michael W. Deem and Ramdas Pophale) SiO2 
 PCOD8044481
Probable space group: P -1
;
_chemical_formula_sum "Si O2"
_cell_formula_units_Z 16
_cell_length_a 21.574420
_cell_length_b 8.369693
_cell_length_c 9.682303
_cell_angle_alpha 95.449569
_cell_angle_beta 136.768532
_cell_angle_gamma 117.455462
_cell_volume 749.453560
_symmetry_space_group_name_H-M "P -1"
_symmetry_group_IT_number 2
_symmetry_cell_setting 'triclinic'
loop_
_space_group_symop_operation_xyz
x,y,z
-x,-y,-z
loop_
_atom_site_type_symbol
_atom_site_label
_atom_site_fract_x
_atom_site_fract_y
_atom_site_fract_z
Si Si1 0.652755 0.775756 0.721845
Si Si2 0.833573 0.464015 0.370389
Si Si3 0.828295 0.425990 0.855711
Si Si4 0.931274 0.744032 0.812001
Si Si5 0.655711 0.158414 0.806963
Si Si6 0.084217 0.950610 0.658833
Si Si7 0.774491 0.010029 0.663426
Si Si8 0.850398 0.147262 0.506494
O O1 0.500000 0.500000 0.500000
O O2 0.673085 0.989187 0.819758
O O3 0.666333 0.772318 0.576213
O O4 0.779910 0.843442 0.001055
O O5 0.848046 0.630626 0.519248
O O6 0.807273 0.261911 0.390960
O O7 0.976534 0.666542 0.522698
O O8 0.695287 0.288111 0.031214
O O9 0.812889 0.535718 0.718543
O O10 0.763302 0.393521 0.892751
O O11 0.742372 0.152622 0.643659
O O12 0.995025 0.618315 0.156634
O O13 0.061391 0.798468 0.007793
O O14 0.000000 0.000000 0.000000
O O15 0.500000 0.000000 0.500000
O O16 0.151555 0.987041 0.626748
O O17 0.000000 0.000000 0.500000
O O18 0.749256 0.941404 0.452636
#
# Coordination Sequence:
#
# PCOD8044481 Si02
#       8
#     2   2   2   2   2   2   2   2
#     4  11  25  44  67  95 137 179 219 282 352 398
#     4  12  21  41  66  95 131 171 233 269 332 397
#     4  10  19  38  61  92 126 169 218 271 328 402
#     4  11  22  34  62 101 135 161 214 287 341 387
#     4  11  25  42  67  93 131 184 234 271 334 410
#     4  12  26  39  65 104 135 169 229 284 334 396
#     4  10  20  38  63  91 127 174 218 263 338 410
#     4  11  19  38  67  95 125 169 222 275 330 401
#
# _framework density 21.348887999999999
#
# number of rings (size 3 to 8) (size 9 to 14) (size 15 to 20)
#    0.000    1.000    6.250    1.875    5.250    1.000 
#    0.000    1.250    0.000    0.000    0.000    0.000 
#    0.000    0.000    0.000    0.000    0.000    0.000 
#
# Total GULP energy -198244.555653 kJ/mol
# GULP energy per Si atom -12390.284728 kJ/mol
# Density = 2.130030 g / cm^3
# Si number density = 21.348888 Si / 1000 Ang^3
#
#
#
# Elastic Constant Matrix: (Units=GPa)
#
#
# Indices 1 2 3 4 5 6 
#
# 1 105.8366 70.4105 53.3987 -12.0263 -31.3599 23.2988
# 2 70.4105 121.9758 54.0577 -4.6647 -7.6763 37.6552
# 3 53.3987 54.0577 119.9093 -14.5193 -12.4163 17.2386
# 4 -12.0263 -4.6647 -14.5193 27.1119 3.8502 -2.4085
# 5 -31.3599 -7.6763 -12.4163 3.8502 43.3726 -6.3054
# 6 23.2988 37.6552 17.2386 -2.4085 -6.3054 47.3822
#
#
#
# Elastic Compliance Matrix: (Units=1/GPa)
#
#
# Indices 1 2 3 4 5 6 
#
# 1 0.022553 -0.010709 -0.003399 0.004534 0.013128 0.000635
# 2 -0.010709 0.017983 -0.003113 -0.003197 -0.006464 -0.008916
# 3 -0.003399 -0.003113 0.011760 0.004263 -0.000008 0.000082
# 4 0.004534 -0.003197 0.004263 0.040643 0.000454 0.000887
# 5 0.013128 -0.006464 -0.000008 0.000454 0.031789 0.002938
# 6 0.000635 -0.008916 0.000082 0.000887 0.002938 0.028284
#
#
# Mechanical properties :
#
#
# Convention : Reuss Voigt Hill
#
# Bulk Modulus (GPa) = 56.00557 78.16174 67.08365
# Shear Modulus (GPa) = 25.85265 34.89699 30.37482
#
# Velocity S-wave (km/s) = 3.48366 4.04741 3.77607
# Velocity P-wave (km/s) = 6.51703 7.65070 7.10650
#
# Compressibility (1/GPa) = 0.01785537
#
# Stress axis : x y z
#
# Youngs Moduli (GPa) = 44.34004 55.60835 85.03401
#
# Poissons Ratio (x) = 0.59550 0.28899
# Poissons Ratio (y) = 0.47483 0.26470
# Poissons Ratio (z) = 0.15069 0.17310
#
# Static dielectric constant tensor:
#      x y z
#    x 4.987330 1.853300 0.123250 
#    y 1.853300 6.337550 0.279930 
#    z 0.123250 0.279930 3.766150 
# 
# 
# High freq. dielectric constant tensor:
#      x y z
#    x 1.830290 0.020710 -0.026110 
#    y 0.020710 1.846940 -0.016130 
#    z -0.026110 -0.016130 1.799590 
# 
# From -- ./inp_files/337386.got.cif
#   From: 2010.06.25/outbox.cif.g09.slc.cpg/sg2_169_cif.got.tgz:337386.got - 2010.06.27 13:26:56.
