data_PCOD8044534
_publ_section_title
;
Structure prediction by ZEFSAII (Michael W. Deem and Ramdas Pophale) SiO2 
 PCOD8044534
Probable space group: P -1
;
_chemical_formula_sum "Si O2"
_cell_formula_units_Z 14
_cell_length_a 13.239983
_cell_length_b 11.404486
_cell_length_c 9.614290
_cell_angle_alpha 155.775614
_cell_angle_beta 108.022175
_cell_angle_gamma 66.068562
_cell_volume 537.305940
_symmetry_space_group_name_H-M "P -1"
_symmetry_group_IT_number 2
_symmetry_cell_setting 'triclinic'
loop_
_space_group_symop_operation_xyz
x,y,z
-x,-y,-z
loop_
_atom_site_type_symbol
_atom_site_label
_atom_site_fract_x
_atom_site_fract_y
_atom_site_fract_z
Si Si1 0.554086 0.325331 0.507083
Si Si2 0.869143 0.748618 0.223731
Si Si3 0.361109 0.304583 0.250556
Si Si4 0.031436 0.433560 0.217247
Si Si5 0.722988 0.361570 0.820671
Si Si6 0.149617 0.861890 0.116897
Si Si7 0.850098 0.139064 0.197179
O O1 0.426391 0.309499 0.431715
O O2 0.556466 0.624376 0.751241
O O3 0.599155 0.365930 0.724950
O O4 0.640743 0.030617 0.147282
O O5 0.818095 0.074433 0.483246
O O6 0.908221 0.818631 0.475159
O O7 0.964587 0.574624 0.962711
O O8 0.762233 0.631443 0.068274
O O9 0.241805 0.558969 0.458246
O O10 0.037298 0.755334 0.631449
O O11 0.922559 0.365768 0.153871
O O12 0.136800 0.160452 0.031122
O O13 0.734525 0.318442 0.946921
O O14 0.179086 0.927493 0.044416
#
# Coordination Sequence:
#
# PCOD8044534 Si02
#       7
#     2   2   2   2   2   2   2
#     4  10  19  38  62  92 112 153 193 254 290 357
#     4  10  22  38  61  85 120 155 204 247 289 349
#     4  10  21  36  62  88 121 146 201 243 302 345
#     4  12  24  40  63  86 119 165 211 244 287 349
#     4  10  21  36  62  84 121 152 198 245 302 345
#     4  10  27  39  60  87 128 161 199 245 302 355
#     4  12  25  40  61  89 125 158 201 248 302 351
#
# _framework density 26.055918999999999
#
# number of rings (size 3 to 8) (size 9 to 14) (size 15 to 20)
#    0.857    0.571    0.000    6.429    4.000    0.571 
#    0.000    0.714    0.000    0.857    0.000    0.000 
#    0.000    0.000    0.000    0.000    0.000    0.000 
#
# Total GULP energy -173440.731426 kJ/mol
# GULP energy per Si atom -12388.623673 kJ/mol
# Density = 2.599661 g / cm^3
# Si number density = 26.055919 Si / 1000 Ang^3
#
#
#
# Elastic Constant Matrix: (Units=GPa)
#
#
# Indices 1 2 3 4 5 6 
#
# 1 11.4752 7.4777 6.1609 -7.4934 13.8158 -4.1163
# 2 7.4777 117.8846 43.8140 -24.6194 0.1206 6.6444
# 3 6.1609 43.8140 105.7809 -0.7290 25.3828 7.4561
# 4 -7.4934 -24.6194 -0.7290 57.4040 -3.9052 7.9239
# 5 13.8158 0.1206 25.3828 -3.9052 32.0251 -1.2910
# 6 -4.1163 6.6444 7.4561 7.9239 -1.2910 32.6344
#
#
#
# Elastic Compliance Matrix: (Units=1/GPa)
#
#
# Indices 1 2 3 4 5 6 
#
# 1 0.264420 -0.024687 0.024611 0.011921 -0.131037 0.024677
# 2 -0.024687 0.014385 -0.008399 0.004669 0.017639 -0.004560
# 3 0.024611 -0.008399 0.017355 -0.001886 -0.024558 0.000336
# 4 0.011921 0.004669 -0.001886 0.021462 -0.001221 -0.004276
# 5 -0.131037 0.017639 -0.024558 -0.001221 0.106602 -0.009995
# 6 0.024677 -0.004560 0.000336 -0.004276 -0.009995 0.035249
#
#
# Mechanical properties :
#
#
# Convention : Reuss Voigt Hill
#
# Bulk Modulus (GPa) = 3.58155 38.89401 21.23778
# Shear Modulus (GPa) = 8.77973 36.25857 22.51915
#
# Velocity S-wave (km/s) = 1.83763 3.73442 2.94302
# Velocity P-wave (km/s) = 2.42488 5.79259 4.44039
#
# Compressibility (1/GPa) = 0.27920861
#
# Stress axis : x y z
#
# Youngs Moduli (GPa) = 3.78187 69.51845 57.61986
#
# Poissons Ratio (x) = 1.71621 -1.41808
# Poissons Ratio (y) = 0.09336 0.48396
# Poissons Ratio (z) = -0.09308 0.58390
#
# Static dielectric constant tensor:
#      x y z
#    x 4.040410 -0.484650 0.443100 
#    y -0.484650 5.268210 -0.037770 
#    z 0.443100 -0.037770 4.757800 
# 
# 
# High freq. dielectric constant tensor:
#      x y z
#    x 1.981360 -0.033660 0.036910 
#    y -0.033660 2.086590 0.011130 
#    z 0.036910 0.011130 2.052540 
# 
# From -- ./inp_files/308958.got.cif
#   From: 2010.06.25/outbox.cif.g09.slc.cpg/sg2_155_cif.got.tgz:308958.got - 2010.06.27 13:26:56.
