data_PCOD8044615
_publ_section_title
;
Structure prediction by ZEFSAII (Michael W. Deem and Ramdas Pophale) SiO2 
 PCOD8044615
Probable space group: P -1
;
_chemical_formula_sum "Si O2"
_cell_formula_units_Z 16
_cell_length_a 9.189539
_cell_length_b 8.587089
_cell_length_c 17.984760
_cell_angle_alpha 137.584850
_cell_angle_beta 88.022971
_cell_angle_gamma 112.965742
_cell_volume 804.565698
_symmetry_space_group_name_H-M "P -1"
_symmetry_group_IT_number 2
_symmetry_cell_setting 'triclinic'
loop_
_space_group_symop_operation_xyz
x,y,z
-x,-y,-z
loop_
_atom_site_type_symbol
_atom_site_label
_atom_site_fract_x
_atom_site_fract_y
_atom_site_fract_z
Si Si1 0.247523 0.158917 0.034182
Si Si2 0.662445 0.986768 0.473200
Si Si3 0.893337 0.035445 0.610515
Si Si4 0.000641 0.398721 0.546562
Si Si5 0.044269 0.283121 0.833532
Si Si6 0.990292 0.209716 0.973107
Si Si7 0.372065 0.464286 0.791560
Si Si8 0.818083 0.359027 0.233161
O O1 0.169798 0.321104 0.053774
O O2 0.177249 0.885582 0.890370
O O3 0.453402 0.345122 0.097940
O O4 0.167234 0.071700 0.087589
O O5 0.718208 0.901879 0.518688
O O6 0.812947 0.287168 0.546731
O O7 0.500000 0.000000 0.500000
O O8 0.614041 0.766784 0.331733
O O9 0.874744 0.069734 0.711504
O O10 0.022881 0.344596 0.689743
O O11 0.979883 0.860387 0.538697
O O12 0.157780 0.648188 0.680166
O O13 0.000000 0.500000 0.500000
O O14 0.216274 0.331258 0.807316
O O15 0.016756 0.145030 0.865551
O O16 0.064477 0.572604 0.944848
O O17 0.353124 0.651929 0.796071
#
# Coordination Sequence:
#
# PCOD8044615 Si02
#       8
#     2   2   2   2   2   2   2   2
#     4  11  23  36  63  91 123 154 206 245 293 353
#     4  11  23  40  64  92 121 157 203 250 304 358
#     4  10  19  41  65  83 117 168 197 241 303 374
#     4  11  22  40  67  91 115 156 210 250 298 361
#     4  10  21  40  63  80 125 160 200 237 307 353
#     4  10  23  39  56  94 118 159 198 250 290 353
#     4  11  21  40  63  87 120 164 197 241 300 365
#     4  10  19  38  64  85 119 162 202 234 298 367
#
# _framework density 19.886505
#
# number of rings (size 3 to 8) (size 9 to 14) (size 15 to 20)
#    0.000    1.500    6.250    1.125    3.500    1.500 
#    0.000    1.875    0.000    0.000    0.000    0.000 
#    0.000    0.000    0.000    0.000    0.000    0.000 
#
# Total GULP energy -198285.973151 kJ/mol
# GULP energy per Si atom -12392.873322 kJ/mol
# Density = 1.984124 g / cm^3
# Si number density = 19.886505 Si / 1000 Ang^3
#
#
#
# Elastic Constant Matrix: (Units=GPa)
#
#
# Indices 1 2 3 4 5 6 
#
# 1 113.0892 47.3168 39.9027 -13.4124 -1.8819 3.1520
# 2 47.3168 103.1782 48.8577 -34.6562 6.5119 -5.4407
# 3 39.9027 48.8577 108.4246 -24.2566 3.9759 3.9307
# 4 -13.4124 -34.6562 -24.2566 34.9769 -4.1641 -1.1367
# 5 -1.8819 6.5119 3.9759 -4.1641 30.8146 -6.9900
# 6 3.1520 -5.4407 3.9307 -1.1367 -6.9900 20.7012
#
#
#
# Elastic Compliance Matrix: (Units=1/GPa)
#
#
# Indices 1 2 3 4 5 6 
#
# 1 0.011684 -0.005167 -0.002437 -0.002254 0.001279 -0.002366
# 2 -0.005167 0.019112 -0.003698 0.014594 -0.000267 0.007223
# 3 -0.002437 -0.003698 0.012858 0.004070 -0.001208 -0.003227
# 4 -0.002254 0.014594 0.004070 0.045733 0.004089 0.007298
# 5 0.001279 -0.000267 -0.001208 0.004089 0.036103 0.012380
# 6 -0.002366 0.007223 -0.003227 0.007298 0.012380 0.055759
#
#
# Mechanical properties :
#
#
# Convention : Reuss Voigt Hill
#
# Bulk Modulus (GPa) = 47.50366 66.31625 56.90995
# Shear Modulus (GPa) = 23.71130 29.87285 26.79207
#
# Velocity S-wave (km/s) = 3.45676 3.87998 3.67447
# Velocity P-wave (km/s) = 6.31439 7.31383 6.83241
#
# Compressibility (1/GPa) = 0.02105101
#
# Stress axis : x y z
#
# Youngs Moduli (GPa) = 85.58564 52.32273 77.77237
#
# Poissons Ratio (x) = 0.27034 0.18954
# Poissons Ratio (y) = 0.44219 0.28759
# Poissons Ratio (z) = 0.20859 0.19348
#
# Static dielectric constant tensor:
#      x y z
#    x 3.679780 -0.310700 0.171970 
#    y -0.310700 3.699430 -0.534020 
#    z 0.171970 -0.534020 3.995460 
# 
# 
# High freq. dielectric constant tensor:
#      x y z
#    x 1.772540 -0.021930 -0.003820 
#    y -0.021930 1.749320 -0.023760 
#    z -0.003820 -0.023760 1.786810 
# 
# From -- ./inp_files/223060.got.cif
#   From: 2010.06.25/outbox.cif.g09.slc.cpg/sg2_112_cif.got.tgz:223060.got - 2010.06.27 13:26:56.
