data_PCOD8044520
_publ_section_title
;
Structure prediction by ZEFSAII (Michael W. Deem and Ramdas Pophale) SiO2 
 PCOD8044520
Probable space group: P -1
;
_chemical_formula_sum "Si O2"
_cell_formula_units_Z 16
_cell_length_a 15.839317
_cell_length_b 15.359348
_cell_length_c 12.171531
_cell_angle_alpha 43.968253
_cell_angle_beta 33.924895
_cell_angle_gamma 26.865086
_cell_volume 744.331875
_symmetry_space_group_name_H-M "P -1"
_symmetry_group_IT_number 2
_symmetry_cell_setting 'triclinic'
loop_
_space_group_symop_operation_xyz
x,y,z
-x,-y,-z
loop_
_atom_site_type_symbol
_atom_site_label
_atom_site_fract_x
_atom_site_fract_y
_atom_site_fract_z
Si Si1 0.462039 0.865959 0.555177
Si Si2 0.635659 0.498295 0.616209
Si Si3 0.678577 0.995570 0.179395
Si Si4 0.343052 0.266215 0.104616
Si Si5 0.798282 0.372201 0.091744
Si Si6 0.190583 0.702395 0.606870
Si Si7 0.706237 0.076710 0.714708
Si Si8 0.874315 0.858808 0.513634
O O1 0.605021 0.656602 0.550459
O O2 0.627131 0.880155 0.341326
O O3 0.405136 0.886090 0.726013
O O4 0.216374 0.037836 0.600231
O O5 0.397609 0.570306 0.824622
O O6 0.705442 0.460362 0.446592
O O7 0.847682 0.294894 0.637122
O O8 0.542945 0.147208 0.089156
O O9 0.953258 0.846462 0.003812
O O10 0.168961 0.261387 0.313628
O O11 0.190242 0.488216 0.075017
O O12 0.464950 0.177516 0.933953
O O13 0.727774 0.394922 0.274161
O O14 0.287556 0.778664 0.403921
O O15 0.911403 0.878689 0.740635
O O16 0.728601 0.031231 0.603243
#
# Coordination Sequence:
#
# PCOD8044520 Si02
#       8
#     2   2   2   2   2   2   2   2
#     4  10  23  45  68  81 123 163 206 254 300 360
#     4  11  23  39  61  93 122 161 202 246 304 361
#     4  10  24  45  63  91 115 164 211 250 301 353
#     4  11  22  39  62  91 125 157 203 254 298 360
#     4  12  23  38  65  92 126 161 202 247 303 368
#     4  10  21  37  61  92 128 162 197 243 306 367
#     4  10  19  38  62  89 127 161 196 251 300 361
#     4  10  23  39  61  92 123 160 201 250 306 356
#
# _framework density 21.495785999999999
#
# number of rings (size 3 to 8) (size 9 to 14) (size 15 to 20)
#    0.000    1.500    2.500    2.250    1.750    2.500 
#    0.000    6.875    0.000    0.000    0.000    0.000 
#    0.000    0.000    0.000    0.000    0.000    0.000 
#
# Total GULP energy -198473.909137 kJ/mol
# GULP energy per Si atom -12404.619321 kJ/mol
# Density = 2.144686 g / cm^3
# Si number density = 21.495786 Si / 1000 Ang^3
#
#
#
# Elastic Constant Matrix: (Units=GPa)
#
#
# Indices 1 2 3 4 5 6 
#
# 1 104.4050 40.9666 23.1512 8.5376 5.7776 7.0443
# 2 40.9666 97.2016 20.7072 9.5729 6.7040 13.3196
# 3 23.1512 20.7072 35.3513 11.2445 5.8920 -2.2474
# 4 8.5376 9.5729 11.2445 24.7279 -4.6324 -11.8024
# 5 5.7776 6.7040 5.8920 -4.6324 24.4337 7.5486
# 6 7.0443 13.3196 -2.2474 -11.8024 7.5486 41.1991
#
#
#
# Elastic Compliance Matrix: (Units=1/GPa)
#
#
# Indices 1 2 3 4 5 6 
#
# 1 0.012512 -0.003726 -0.005727 -0.001040 -0.000292 -0.001491
# 2 -0.003726 0.014098 -0.004375 -0.004968 -0.001218 -0.005359
# 3 -0.005727 -0.004375 0.041867 -0.016522 -0.011296 0.002014
# 4 -0.001040 -0.004968 -0.016522 0.060077 0.012077 0.015880
# 5 -0.000292 -0.001218 -0.011296 0.012077 0.048048 -0.005516
# 6 -0.001491 -0.005359 0.002014 0.015880 -0.005516 0.031930
#
#
# Mechanical properties :
#
#
# Convention : Reuss Voigt Hill
#
# Bulk Modulus (GPa) = 24.49772 45.17865 34.83818
# Shear Modulus (GPa) = 20.01640 28.21434 24.11537
#
# Velocity S-wave (km/s) = 3.05483 3.62685 3.35306
# Velocity P-wave (km/s) = 4.88507 6.21303 5.58863
#
# Compressibility (1/GPa) = 0.04082012
#
# Stress axis : x y z
#
# Youngs Moduli (GPa) = 79.92394 70.93111 23.88537
#
# Poissons Ratio (x) = 0.26432 0.13678
# Poissons Ratio (y) = 0.29783 0.10450
# Poissons Ratio (z) = 0.45770 0.31033
#
# Static dielectric constant tensor:
#      x y z
#    x 3.971470 -0.101180 -0.055950 
#    y -0.101180 3.812570 0.045100 
#    z -0.055950 0.045100 3.586100 
# 
# 
# High freq. dielectric constant tensor:
#      x y z
#    x 1.846120 -0.005220 -0.006340 
#    y -0.005220 1.854150 0.005940 
#    z -0.006340 0.005940 1.822220 
# 
# From -- ./inp_files/433702.got.cif
#   From: 2010.06.25/outbox.cif.g09.slc.cpg/sg2_217_cif.got.tgz:433702.got - 2010.06.27 13:26:56.
