data_PCOD8044190
_publ_section_title
;
Structure prediction by ZEFSAII (Michael W. Deem and Ramdas Pophale) SiO2 
 PCOD8044190
Probable space group: P -1
;
_chemical_formula_sum "Si O2"
_cell_formula_units_Z 16
_cell_length_a 9.428930
_cell_length_b 15.312649
_cell_length_c 18.772591
_cell_angle_alpha 20.585424
_cell_angle_beta 127.543959
_cell_angle_gamma 128.930196
_cell_volume 739.132330
_symmetry_space_group_name_H-M "P -1"
_symmetry_group_IT_number 2
_symmetry_cell_setting 'triclinic'
loop_
_space_group_symop_operation_xyz
x,y,z
-x,-y,-z
loop_
_atom_site_type_symbol
_atom_site_label
_atom_site_fract_x
_atom_site_fract_y
_atom_site_fract_z
Si Si1 0.363228 0.290568 0.161619
Si Si2 0.377278 0.469731 0.836378
Si Si3 0.510606 0.218594 0.779563
Si Si4 0.943662 0.605502 0.089068
Si Si5 0.109520 0.158085 0.692967
Si Si6 0.739596 0.243116 0.541866
Si Si7 0.190047 0.290993 0.464436
Si Si8 0.509618 0.054293 0.742920
O O1 0.459405 0.298540 0.262442
O O2 0.335248 0.015901 0.326916
O O3 0.500000 0.500000 0.000000
O O4 0.169220 0.385064 0.026443
O O5 0.196500 0.414428 0.872254
O O6 0.318141 0.529950 0.693049
O O7 0.473501 0.231818 0.045375
O O8 0.316112 0.307972 0.656431
O O9 0.669380 0.455834 0.662005
O O10 0.538435 0.118983 0.785166
O O11 0.500000 0.000000 0.000000
O O12 0.051091 0.372268 0.301881
O O13 0.090455 0.871117 0.936020
O O14 0.069794 0.163568 0.591669
O O15 0.959172 0.291480 0.581921
O O16 0.658733 0.238034 0.599909
O O17 0.309440 0.092030 0.624927
#
# Coordination Sequence:
#
# PCOD8044190 Si02
#       8
#     2   2   2   2   2   2   2   2
#     4   9  18  37  63  93 127 161 203 246 306 377
#     4  11  21  39  64  96 126 161 206 253 307 360
#     4  11  24  43  65  84 124 173 202 245 321 378
#     4  10  19  37  65  90 120 165 205 247 301 374
#     4  10  19  38  62  88 119 161 207 244 300 375
#     4  11  21  37  67  93 125 164 201 258 303 353
#     4  11  23  42  62  85 124 172 202 245 322 370
#     4  11  24  39  62  96 124 156 211 263 296 357
#
# _framework density 21.647003000000002
#
# number of rings (size 3 to 8) (size 9 to 14) (size 15 to 20)
#    0.000    1.500    6.250    1.875    1.750    0.000 
#    0.000    5.625    0.000   12.750    0.000    0.000 
#    0.000    0.000    0.000    0.000    0.000    0.000 
#
# Total GULP energy -198226.083066 kJ/mol
# GULP energy per Si atom -12389.130192 kJ/mol
# Density = 2.159773 g / cm^3
# Si number density = 21.647003 Si / 1000 Ang^3
#
#
#
# Elastic Constant Matrix: (Units=GPa)
#
#
# Indices 1 2 3 4 5 6 
#
# 1 128.5124 26.5962 46.0744 16.1693 1.2643 8.9072
# 2 26.5962 51.0269 8.9112 6.0104 -2.3854 5.2229
# 3 46.0744 8.9112 127.0157 24.5291 6.9234 2.0147
# 4 16.1693 6.0104 24.5291 34.1402 2.3467 1.0929
# 5 1.2643 -2.3854 6.9234 2.3467 42.6216 7.6320
# 6 8.9072 5.2229 2.0147 1.0929 7.6320 21.4152
#
#
#
# Elastic Compliance Matrix: (Units=1/GPa)
#
#
# Indices 1 2 3 4 5 6 
#
# 1 0.010175 -0.004219 -0.003023 -0.001849 0.000599 -0.003038
# 2 -0.004219 0.022565 0.000324 -0.002219 0.002258 -0.004470
# 3 -0.003023 0.000324 0.010135 -0.005844 -0.001400 0.001022
# 4 -0.001849 -0.002219 -0.005844 0.034818 -0.001124 0.000483
# 5 0.000599 0.002258 -0.001400 -0.001124 0.025603 -0.009735
# 6 -0.003038 -0.004470 0.001022 0.000483 -0.009735 0.052398
#
#
# Mechanical properties :
#
#
# Convention : Reuss Voigt Hill
#
# Bulk Modulus (GPa) = 34.43569 52.19094 43.31331
# Shear Modulus (GPa) = 27.90015 34.63362 31.26688
#
# Velocity S-wave (km/s) = 3.59398 4.00425 3.80465
# Velocity P-wave (km/s) = 5.75887 6.74841 6.27318
#
# Compressibility (1/GPa) = 0.02903964
#
# Stress axis : x y z
#
# Youngs Moduli (GPa) = 98.27604 44.31734 98.66381
#
# Poissons Ratio (x) = 0.18698 0.29821
# Poissons Ratio (y) = 0.41463 -0.03194
# Poissons Ratio (z) = 0.29704 -0.01435
#
# Static dielectric constant tensor:
#      x y z
#    x 3.994410 0.322620 -0.049890 
#    y 0.322620 4.238390 0.422560 
#    z -0.049890 0.422560 4.370680 
# 
# 
# High freq. dielectric constant tensor:
#      x y z
#    x 1.841130 0.028890 -0.007770 
#    y 0.028890 1.822700 0.017760 
#    z -0.007770 0.017760 1.872170 
# 
# From -- ./inp_files/591183.got.cif
#   From: 2010.06.25/outbox.cif.g09.slc.cpg/sg2_296_cif.got.tgz:591183.got - 2010.06.27 13:26:56.
