data_PCOD8044621
_publ_section_title
;
Structure prediction by ZEFSAII (Michael W. Deem and Ramdas Pophale) SiO2 
 PCOD8044621
Probable space group: P -1
;
_chemical_formula_sum "Si O2"
_cell_formula_units_Z 16
_cell_length_a 9.392112
_cell_length_b 12.945494
_cell_length_c 15.225152
_cell_angle_alpha 58.319219
_cell_angle_beta 120.688523
_cell_angle_gamma 71.303768
_cell_volume 805.004522
_symmetry_space_group_name_H-M "P -1"
_symmetry_group_IT_number 2
_symmetry_cell_setting 'triclinic'
loop_
_space_group_symop_operation_xyz
x,y,z
-x,-y,-z
loop_
_atom_site_type_symbol
_atom_site_label
_atom_site_fract_x
_atom_site_fract_y
_atom_site_fract_z
Si Si1 0.729167 0.947072 0.637739
Si Si2 0.208980 0.867943 0.545968
Si Si3 0.093082 0.788792 0.383546
Si Si4 0.415973 0.375983 0.664251
Si Si5 0.359786 0.830312 0.342082
Si Si6 0.658572 0.022235 0.003787
Si Si7 0.140714 0.546139 0.046538
Si Si8 0.948078 0.221410 0.929713
O O1 0.500000 0.000000 0.500000
O O2 0.826639 0.986231 0.580978
O O3 0.567919 0.103180 0.599193
O O4 0.010961 0.713677 0.859643
O O5 0.088533 0.832093 0.463445
O O6 0.527034 0.657626 0.770605
O O7 0.000000 0.000000 0.500000
O O8 0.132894 0.619315 0.476293
O O9 0.332952 0.722060 0.437033
O O10 0.813113 0.984277 0.155045
O O11 0.398706 0.327143 0.583594
O O12 0.447434 0.252156 0.801944
O O13 0.650174 0.343492 0.755487
O O14 0.080655 0.031818 0.110970
O O15 0.500000 0.000000 0.000000
O O16 0.870549 0.858993 0.064882
O O17 0.075847 0.639404 0.082350
O O18 0.000000 0.500000 0.000000
#
# Coordination Sequence:
#
# PCOD8044621 Si02
#       8
#     2   2   2   2   2   2   2   2
#     4  10  21  39  63  90 127 162 206 256 311 368
#     4  11  25  42  62  91 125 164 208 260 316 367
#     4  11  21  37  65  86 115 158 206 247 301 369
#     4  11  19  37  65  88 115 153 210 241 295 368
#     4   9  18  33  61  93 114 149 199 254 291 355
#     4  11  24  39  56  91 132 156 190 253 317 361
#     4  11  22  40  66  94 124 161 216 262 302 365
#     4  10  19  38  64  88 116 162 202 246 297 366
#
# _framework density 19.875664
#
# number of rings (size 3 to 8) (size 9 to 14) (size 15 to 20)
#    0.000    1.500    5.000    1.125    0.000    2.000 
#    2.250    1.250    0.000    0.000    0.000    0.000 
#    0.000    0.000    0.000    0.000    0.000    0.000 
#
# Total GULP energy -198273.714549 kJ/mol
# GULP energy per Si atom -12392.107159 kJ/mol
# Density = 1.983043 g / cm^3
# Si number density = 19.875664 Si / 1000 Ang^3
#
#
#
# Elastic Constant Matrix: (Units=GPa)
#
#
# Indices 1 2 3 4 5 6 
#
# 1 89.4973 53.8036 45.1082 -3.9525 -16.5101 -1.4074
# 2 53.8036 139.6331 60.3603 6.7927 -9.1841 -3.2254
# 3 45.1082 60.3603 106.7822 0.6062 -21.5947 -6.2647
# 4 -3.9525 6.7927 0.6062 33.3406 8.0658 -3.0848
# 5 -16.5101 -9.1841 -21.5947 8.0658 28.7265 -3.1492
# 6 -1.4074 -3.2254 -6.2647 -3.0848 -3.1492 28.6762
#
#
#
# Elastic Compliance Matrix: (Units=1/GPa)
#
#
# Indices 1 2 3 4 5 6 
#
# 1 0.016744 -0.004750 -0.003345 0.001804 0.005118 0.000313
# 2 -0.004750 0.010951 -0.004632 -0.002239 -0.002135 -0.000489
# 3 -0.003345 -0.004632 0.015438 -0.001595 0.009034 0.003508
# 4 0.001804 -0.002239 -0.001595 0.033296 -0.010010 0.001971
# 5 0.005118 -0.002135 0.009034 -0.010010 0.047341 0.006107
# 6 0.000313 -0.000489 0.003508 0.001971 0.006107 0.036482
#
#
# Mechanical properties :
#
#
# Convention : Reuss Voigt Hill
#
# Bulk Modulus (GPa) = 56.56204 72.71743 64.63973
# Shear Modulus (GPa) = 26.09632 29.92469 28.01051
#
# Velocity S-wave (km/s) = 3.62744 3.88441 3.75812
# Velocity P-wave (km/s) = 6.78705 7.53550 7.17105
#
# Compressibility (1/GPa) = 0.01767970
#
# Stress axis : x y z
#
# Youngs Moduli (GPa) = 59.72443 91.31532 64.77538
#
# Poissons Ratio (x) = 0.43371 0.21669
# Poissons Ratio (y) = 0.28366 0.30002
# Poissons Ratio (z) = 0.19979 0.42294
#
# Static dielectric constant tensor:
#      x y z
#    x 3.410290 0.141450 -0.314660 
#    y 0.141450 3.941340 0.093560 
#    z -0.314660 0.093560 3.808810 
# 
# 
# High freq. dielectric constant tensor:
#      x y z
#    x 1.744890 0.014280 -0.027940 
#    y 0.014280 1.785370 0.009390 
#    z -0.027940 0.009390 1.784710 
# 
# From -- ./inp_files/306283.got.cif
#   From: 2010.06.25/outbox.cif.g09.slc.cpg/sg2_154_cif.got.tgz:306283.got - 2010.06.27 13:26:56.
