data_PCOD8044425
_publ_section_title
;
Structure prediction by ZEFSAII (Michael W. Deem and Ramdas Pophale) SiO2 
 PCOD8044425
Probable space group: P -1
;
_chemical_formula_sum "Si O2"
_cell_formula_units_Z 16
_cell_length_a 14.292749
_cell_length_b 9.954571
_cell_length_c 9.128993
_cell_angle_alpha 72.404453
_cell_angle_beta 42.181265
_cell_angle_gamma 86.887712
_cell_volume 801.592164
_symmetry_space_group_name_H-M "P -1"
_symmetry_group_IT_number 2
_symmetry_cell_setting 'triclinic'
loop_
_space_group_symop_operation_xyz
x,y,z
-x,-y,-z
loop_
_atom_site_type_symbol
_atom_site_label
_atom_site_fract_x
_atom_site_fract_y
_atom_site_fract_z
Si Si1 0.402095 0.569495 0.274995
Si Si2 0.422172 0.104853 0.973342
Si Si3 0.623171 0.057670 0.220126
Si Si4 0.041348 0.884961 0.097532
Si Si5 0.125683 0.418500 0.257763
Si Si6 0.881292 0.889159 0.584286
Si Si7 0.591616 0.370761 0.091993
Si Si8 0.912644 0.563141 0.357000
O O1 0.484656 0.725491 0.197015
O O2 0.467430 0.434099 0.290064
O O3 0.234456 0.513073 0.533365
O O4 0.404402 0.584403 0.094558
O O5 0.391327 0.056261 0.857617
O O6 0.273973 0.077282 0.246988
O O7 0.500000 0.000000 0.000000
O O8 0.579697 0.200798 0.168203
O O9 0.500000 0.000000 0.500000
O O10 0.786264 0.082592 0.084012
O O11 0.944039 0.887474 0.351146
O O12 0.987873 0.721128 0.145923
O O13 0.000000 0.000000 0.000000
O O14 0.148735 0.262883 0.242749
O O15 0.092637 0.413280 0.470389
O O16 0.005567 0.445487 0.276798
O O17 0.264253 0.548490 0.017190
O O18 0.000000 0.000000 0.500000
#
# Coordination Sequence:
#
# PCOD8044425 Si02
#       8
#     2   2   2   2   2   2   2   2
#     4  10  21  35  64  97 126 160 213 270 315 374
#     4  12  25  41  65 101 133 164 216 270 325 379
#     4  12  27  44  65  94 135 176 212 263 329 392
#     4  11  25  42  65  94 130 173 216 258 321 390
#     4   9  17  33  60  89 119 158 215 267 309 363
#     4  11  23  40  65  95 126 168 215 273 319 369
#     4  10  19  38  60  92 127 165 212 259 318 381
#     4   9  19  33  61  90 122 161 213 261 310 371
#
# _framework density 19.960276
#
# number of rings (size 3 to 8) (size 9 to 14) (size 15 to 20)
#    0.000    1.500    5.000    0.000    8.750    0.000 
#    0.000    0.625    2.750    1.500    0.000    0.000 
#    0.000    0.000    0.000    0.000    0.000    0.000 
#
# Total GULP energy -198215.381051 kJ/mol
# GULP energy per Si atom -12388.461316 kJ/mol
# Density = 1.991485 g / cm^3
# Si number density = 19.960276 Si / 1000 Ang^3
#
#
#
# Elastic Constant Matrix: (Units=GPa)
#
#
# Indices 1 2 3 4 5 6 
#
# 1 96.7327 54.2942 46.4748 -1.6537 -34.8626 -12.0777
# 2 54.2942 119.7059 33.4011 -2.2477 -21.6813 -10.7854
# 3 46.4748 33.4011 99.9241 5.0345 -28.9699 -3.7199
# 4 -1.6537 -2.2477 5.0345 27.4452 0.3293 -9.5210
# 5 -34.8626 -21.6813 -28.9699 0.3293 34.3603 -0.9258
# 6 -12.0777 -10.7854 -3.7199 -9.5210 -0.9258 44.1322
#
#
#
# Elastic Compliance Matrix: (Units=1/GPa)
#
#
# Indices 1 2 3 4 5 6 
#
# 1 0.021304 -0.005348 -0.003659 0.003142 0.015266 0.005213
# 2 -0.005348 0.011405 -0.001076 0.001332 0.000892 0.001539
# 3 -0.003659 -0.001076 0.014483 -0.003262 0.007835 -0.000583
# 4 0.003142 0.001332 -0.003262 0.040689 0.001151 0.009713
# 5 0.015266 0.000892 0.007835 0.001151 0.051922 0.006394
# 6 0.005213 0.001539 -0.000583 0.009713 0.006394 0.026642
#
#
# Mechanical properties :
#
#
# Convention : Reuss Voigt Hill
#
# Bulk Modulus (GPa) = 37.00207 64.96701 50.98454
# Shear Modulus (GPa) = 25.55959 33.33372 29.44665
#
# Velocity S-wave (km/s) = 3.58232 4.09100 3.84508
# Velocity P-wave (km/s) = 5.97401 7.41174 6.73137
#
# Compressibility (1/GPa) = 0.02702551
#
# Stress axis : x y z
#
# Youngs Moduli (GPa) = 46.93933 87.68118 69.04462
#
# Poissons Ratio (x) = 0.46892 0.25265
# Poissons Ratio (y) = 0.25103 0.07431
# Poissons Ratio (z) = 0.17176 0.09437
#
# Static dielectric constant tensor:
#      x y z
#    x 3.624130 -0.029690 -0.455600 
#    y -0.029690 2.482480 -0.108700 
#    z -0.455600 -0.108700 3.451900 
# 
# 
# High freq. dielectric constant tensor:
#      x y z
#    x 1.773950 -0.013680 -0.036420 
#    y -0.013680 1.798250 -0.009660 
#    z -0.036420 -0.009660 1.754350 
# 
# From -- ./inp_files/257704.got.cif
#   From: 2010.06.25/outbox.cif.g09.slc.cpg/sg2_129_cif.got.tgz:257704.got - 2010.06.27 13:26:56.
