data_PCOD8044068
_publ_section_title
;
Structure prediction by ZEFSAII (Michael W. Deem and Ramdas Pophale) SiO2 
 PCOD8044068
Probable space group: P -1
;
_chemical_formula_sum "Si O2"
_cell_formula_units_Z 16
_cell_length_a 18.638268
_cell_length_b 9.000460
_cell_length_c 9.382884
_cell_angle_alpha 51.016873
_cell_angle_beta 40.410170
_cell_angle_gamma 56.721228
_cell_volume 785.530276
_symmetry_space_group_name_H-M "P -1"
_symmetry_group_IT_number 2
_symmetry_cell_setting 'triclinic'
loop_
_space_group_symop_operation_xyz
x,y,z
-x,-y,-z
loop_
_atom_site_type_symbol
_atom_site_label
_atom_site_fract_x
_atom_site_fract_y
_atom_site_fract_z
Si Si1 0.265443 0.379521 0.717849
Si Si2 0.906569 0.115858 0.476417
Si Si3 0.518016 0.924202 0.745380
Si Si4 0.329802 0.367686 0.115224
Si Si5 0.050900 0.624219 0.967356
Si Si6 0.706446 0.897430 0.920505
Si Si7 0.485886 0.696265 0.648109
Si Si8 0.847020 0.526081 0.454485
O O1 0.393297 0.424652 0.501351
O O2 0.227130 0.353961 0.628586
O O3 0.181934 0.537937 0.839706
O O4 0.265433 0.172810 0.917861
O O5 0.858708 0.304081 0.524577
O O6 0.806409 0.003070 0.651290
O O7 0.957351 0.162411 0.216765
O O8 0.000000 0.000000 0.500000
O O9 0.613319 0.809917 0.767806
O O10 0.492158 0.789230 0.736860
O O11 0.550104 0.130794 0.516326
O O12 0.409045 0.958641 0.990364
O O13 0.302361 0.288025 0.051606
O O14 0.213591 0.451664 0.316046
O O15 0.400019 0.542582 0.876761
O O16 0.968578 0.606966 0.237106
O O17 0.000000 0.500000 0.000000
#
# Coordination Sequence:
#
# PCOD8044068 Si02
#       8
#     2   2   2   2   2   2   2   2
#     4   9  18  36  59  81 115 155 202 239 288 370
#     4  10  19  37  63  89 113 154 211 250 292 367
#     4  10  22  39  60  90 127 158 213 243 292 368
#     4  12  24  39  59  93 131 159 198 255 306 358
#     4   8  17  33  58  84 106 149 199 248 295 339
#     4  11  23  37  58  94 124 156 197 255 312 352
#     4  10  21  38  63  90 116 168 205 247 297 357
#     4  10  20  38  62  86 114 163 202 247 301 361
#
# _framework density 20.368404999999999
#
# number of rings (size 3 to 8) (size 9 to 14) (size 15 to 20)
#    0.000    2.250    1.250    3.750    3.500    2.000 
#    6.750    3.125    0.000    0.000    0.000    0.000 
#    0.000    0.000    0.000    0.000    0.000    0.000 
#
# Total GULP energy -198266.550994 kJ/mol
# GULP energy per Si atom -12391.659437 kJ/mol
# Density = 2.032205 g / cm^3
# Si number density = 20.368405 Si / 1000 Ang^3
#
#
#
# Elastic Constant Matrix: (Units=GPa)
#
#
# Indices 1 2 3 4 5 6 
#
# 1 43.2141 42.5356 39.8821 -1.5901 -6.7331 -0.6446
# 2 42.5356 87.8172 56.5458 -0.4428 -15.0266 -5.6702
# 3 39.8821 56.5458 155.9822 0.3904 -38.3235 0.3936
# 4 -1.5901 -0.4428 0.3904 32.3037 -8.7099 0.0162
# 5 -6.7331 -15.0266 -38.3235 -8.7099 26.2394 1.5024
# 6 -0.6446 -5.6702 0.3936 0.0162 1.5024 20.4133
#
#
#
# Elastic Compliance Matrix: (Units=1/GPa)
#
#
# Indices 1 2 3 4 5 6 
#
# 1 0.048868 -0.020849 -0.007452 -0.000560 -0.010278 -0.003348
# 2 -0.020849 0.024138 -0.002142 0.000748 0.005267 0.005700
# 3 -0.007452 -0.002142 0.013581 0.004372 0.018288 -0.002442
# 4 -0.000560 0.000748 0.004372 0.035920 0.018667 -0.001297
# 5 -0.010278 0.005267 0.018288 0.018667 0.071654 -0.004503
# 6 -0.003348 0.005700 -0.002442 -0.001297 -0.004503 0.050844
#
#
# Mechanical properties :
#
#
# Convention : Reuss Voigt Hill
#
# Bulk Modulus (GPa) = 38.90881 62.77117 50.83999
# Shear Modulus (GPa) = 15.90034 25.66128 20.78081
#
# Velocity S-wave (km/s) = 2.79702 3.55330 3.19760
# Velocity P-wave (km/s) = 5.43830 6.90792 6.21669
#
# Compressibility (1/GPa) = 0.02570112
#
# Stress axis : x y z
#
# Youngs Moduli (GPa) = 20.46329 41.42827 73.63116
#
# Poissons Ratio (x) = 0.86375 0.54870
# Poissons Ratio (y) = 0.42665 0.15770
# Poissons Ratio (z) = 0.15249 0.08873
#
# Static dielectric constant tensor:
#      x y z
#    x 3.593010 -0.459030 -0.125380 
#    y -0.459030 3.812450 0.144840 
#    z -0.125380 0.144840 4.543970 
# 
# 
# High freq. dielectric constant tensor:
#      x y z
#    x 1.768450 -0.029650 -0.004640 
#    y -0.029650 1.780130 0.001430 
#    z -0.004640 0.001430 1.816460 
# 
# From -- ./inp_files/342422.got.cif
#   From: 2010.06.25/outbox.cif.g09.slc.cpg/sg2_172_cif.got.tgz:342422.got - 2010.06.27 13:26:56.
