data_PCOD8044762
_publ_section_title
;
Structure prediction by ZEFSAII (Michael W. Deem and Ramdas Pophale) SiO2 
 PCOD8044762
Probable space group: P -1
;
_chemical_formula_sum "Si O2"
_cell_formula_units_Z 16
_cell_length_a 8.723880
_cell_length_b 18.005192
_cell_length_c 11.730576
_cell_angle_alpha 47.344277
_cell_angle_beta 147.371378
_cell_angle_gamma 120.124883
_cell_volume 719.589979
_symmetry_space_group_name_H-M "P -1"
_symmetry_group_IT_number 2
_symmetry_cell_setting 'triclinic'
loop_
_space_group_symop_operation_xyz
x,y,z
-x,-y,-z
loop_
_atom_site_type_symbol
_atom_site_label
_atom_site_fract_x
_atom_site_fract_y
_atom_site_fract_z
Si Si1 0.695173 0.989118 0.870836
Si Si2 0.443619 0.634259 0.571696
Si Si3 0.169688 0.166799 0.701125
Si Si4 0.877935 0.664842 0.320835
Si Si5 0.656520 0.812826 0.637619
Si Si6 0.472838 0.555119 0.305808
Si Si7 0.547758 0.181592 0.242191
Si Si8 0.710355 0.255659 0.873307
O O1 0.548893 0.914703 0.777707
O O2 0.492839 0.100365 0.633439
O O3 0.731816 0.947153 0.066825
O O4 0.000000 0.000000 0.000000
O O5 0.643399 0.700845 0.693769
O O6 0.635348 0.522715 0.773118
O O7 0.302553 0.687714 0.313814
O O8 0.176789 0.615370 0.501598
O O9 0.065543 0.241342 0.663917
O O10 0.437841 0.198062 0.769383
O O11 0.889892 0.173946 0.437016
O O12 0.780733 0.575762 0.429291
O O13 0.629145 0.710270 0.026040
O O14 0.491802 0.828617 0.637291
O O15 0.990510 0.823670 0.851309
O O16 0.500000 0.500000 0.500000
O O17 0.281966 0.666971 0.093508
#
# Coordination Sequence:
#
# PCOD8044762 Si02
#       8
#     2   2   2   2   2   2   2   2
#     4  11  23  38  66  95 123 161 213 256 307 369
#     4  11  21  39  64  92 122 165 213 256 304 370
#     4  10  22  41  62  93 126 166 204 257 312 365
#     4  10  19  38  66  94 122 162 215 251 301 373
#     4  12  23  38  64  93 124 166 210 257 305 367
#     4   9  21  41  63  90 129 168 197 257 320 360
#     4  11  21  39  67  92 125 163 208 254 311 364
#     4  10  24  41  61  90 132 161 203 260 318 361
#
# _framework density 22.234884999999998
#
# number of rings (size 3 to 8) (size 9 to 14) (size 15 to 20)
#    0.000    1.500    3.750    1.500    0.000    4.000 
#    0.000    6.875    0.000    0.000    0.000    0.000 
#    0.000    0.000    0.000    0.000    0.000    0.000 
#
# Total GULP energy -198339.260215 kJ/mol
# GULP energy per Si atom -12396.203763 kJ/mol
# Density = 2.218428 g / cm^3
# Si number density = 22.234885 Si / 1000 Ang^3
#
#
#
# Elastic Constant Matrix: (Units=GPa)
#
#
# Indices 1 2 3 4 5 6 
#
# 1 101.7934 24.6262 19.6417 1.5264 10.9410 23.9192
# 2 24.6262 95.0661 25.9015 11.9491 8.4405 14.2921
# 3 19.6417 25.9015 82.6248 16.7599 19.6024 18.5090
# 4 1.5264 11.9491 16.7599 28.3417 7.5519 -4.7443
# 5 10.9410 8.4405 19.6024 7.5519 33.6275 4.3399
# 6 23.9192 14.2921 18.5090 -4.7443 4.3399 30.7590
#
#
#
# Elastic Compliance Matrix: (Units=1/GPa)
#
#
# Indices 1 2 3 4 5 6 
#
# 1 0.012555 -0.001640 0.000350 -0.001042 -0.002479 -0.009023
# 2 -0.001640 0.012678 -0.001547 -0.005082 -0.000030 -0.004464
# 3 0.000350 -0.001547 0.018887 -0.010653 -0.006847 -0.011596
# 4 -0.001042 -0.005082 -0.010653 0.048161 -0.005283 0.017755
# 5 -0.002479 -0.000030 -0.006847 -0.005283 0.035702 0.000209
# 6 -0.009023 -0.004464 -0.011596 0.017755 0.000209 0.051288
#
#
# Mechanical properties :
#
#
# Convention : Reuss Voigt Hill
#
# Bulk Modulus (GPa) = 26.00978 46.64700 36.32839
# Shear Modulus (GPa) = 25.28300 32.49997 28.89149
#
# Velocity S-wave (km/s) = 3.37573 3.82732 3.60860
# Velocity P-wave (km/s) = 5.18818 6.36835 5.80832
#
# Compressibility (1/GPa) = 0.03844707
#
# Stress axis : x y z
#
# Youngs Moduli (GPa) = 79.64758 78.87853 52.94561
#
# Poissons Ratio (x) = 0.12938 -0.01854
# Poissons Ratio (y) = 0.13064 0.08188
# Poissons Ratio (z) = -0.02789 0.12199
#
# Static dielectric constant tensor:
#      x y z
#    x 4.046800 -0.025020 -0.011080 
#    y -0.025020 4.223020 -0.142140 
#    z -0.011080 -0.142140 3.875900 
# 
# 
# High freq. dielectric constant tensor:
#      x y z
#    x 1.882710 0.006450 0.003380 
#    y 0.006450 1.879830 -0.000860 
#    z 0.003380 -0.000860 1.853850 
# 
# From -- ./inp_files/47947.got.cif
#   From: 2010.06.25/outbox.cif.g09.slc.cpg/sg2_24_cif.got.tgz:47947.got - 2010.06.27 13:26:56.
