data_PCOD8044482
_publ_section_title
;
Structure prediction by ZEFSAII (Michael W. Deem and Ramdas Pophale) SiO2 
 PCOD8044482
Probable space group: P -1
;
_chemical_formula_sum "Si O2"
_cell_formula_units_Z 16
_cell_length_a 10.847421
_cell_length_b 13.925164
_cell_length_c 7.957791
_cell_angle_alpha 45.897240
_cell_angle_beta 65.448892
_cell_angle_gamma 91.057131
_cell_volume 692.612175
_symmetry_space_group_name_H-M "P -1"
_symmetry_group_IT_number 2
_symmetry_cell_setting 'triclinic'
loop_
_space_group_symop_operation_xyz
x,y,z
-x,-y,-z
loop_
_atom_site_type_symbol
_atom_site_label
_atom_site_fract_x
_atom_site_fract_y
_atom_site_fract_z
Si Si1 0.207082 0.070300 0.154752
Si Si2 0.306010 0.500185 0.992706
Si Si3 0.466509 0.636779 0.401233
Si Si4 0.248570 0.989048 0.883141
Si Si5 0.068346 0.863004 0.795335
Si Si6 0.409156 0.274334 0.259514
Si Si7 0.895403 0.406588 0.826648
Si Si8 0.388412 0.785166 0.993468
O O1 0.095219 0.144754 0.129860
O O2 0.186163 0.971924 0.454684
O O3 0.380512 0.202857 0.879697
O O4 0.167294 0.960904 0.145668
O O5 0.374063 0.603557 0.666201
O O6 0.427383 0.578494 0.979904
O O7 0.292075 0.332385 0.180471
O O8 0.140728 0.486750 0.155100
O O9 0.500000 0.500000 0.500000
O O10 0.351560 0.655279 0.312356
O O11 0.335104 0.171486 0.589339
O O12 0.127765 0.915865 0.888131
O O13 0.376499 0.930409 0.893236
O O14 0.034192 0.688658 0.000308
O O15 0.441333 0.170869 0.230998
O O16 0.733177 0.278612 0.008941
O O17 0.000000 0.500000 0.500000
#
# Coordination Sequence:
#
# PCOD8044482 Si02
#       8
#     2   2   2   2   2   2   2   2
#     4  11  25  44  69  97 135 179 221 273 329 393
#     4  10  22  37  62  96 124 170 223 257 337 397
#     4  12  24  41  66 100 134 170 216 284 329 390
#     4  11  22  41  68  94 131 178 219 268 329 391
#     4  10  25  45  66  98 135 176 226 269 327 397
#     4  10  19  38  61  92 129 167 213 270 321 393
#     4  10  24  44  68  90 130 176 217 278 328 392
#     4  10  23  39  62  97 129 161 222 264 338 387
#
# _framework density 23.100951999999999
#
# number of rings (size 3 to 8) (size 9 to 14) (size 15 to 20)
#    0.000    1.500    2.500    1.500    5.250    2.500 
#    0.000    0.625    0.000    0.000    0.000    0.000 
#    0.000    0.000    0.000    0.000    0.000    0.000 
#
# Total GULP energy -198301.966980 kJ/mol
# GULP energy per Si atom -12393.872936 kJ/mol
# Density = 2.304837 g / cm^3
# Si number density = 23.100952 Si / 1000 Ang^3
#
#
#
# Elastic Constant Matrix: (Units=GPa)
#
#
# Indices 1 2 3 4 5 6 
#
# 1 53.5613 29.5110 24.6257 2.2585 26.1174 -22.3160
# 2 29.5110 89.0896 40.1325 22.3878 9.9606 -29.8263
# 3 24.6257 40.1325 111.1863 15.5847 20.8287 -24.1083
# 4 2.2585 22.3878 15.5847 44.3489 -5.3952 6.7899
# 5 26.1174 9.9606 20.8287 -5.3952 37.8012 -2.6597
# 6 -22.3160 -29.8263 -24.1083 6.7899 -2.6597 44.0110
#
#
#
# Elastic Compliance Matrix: (Units=1/GPa)
#
#
# Indices 1 2 3 4 5 6 
#
# 1 0.042570 -0.003035 0.002951 -0.008482 -0.029997 0.020641
# 2 -0.003035 0.020930 -0.001613 -0.012311 -0.003339 0.013459
# 3 0.002951 -0.001613 0.013321 -0.006392 -0.009295 0.008125
# 4 -0.008482 -0.012311 -0.006392 0.036620 0.016389 -0.020805
# 5 -0.029997 -0.003339 -0.009295 0.016389 0.053984 -0.021831
# 6 0.020641 0.013459 0.008125 -0.020805 -0.021831 0.048650
#
#
# Mechanical properties :
#
#
# Convention : Reuss Voigt Hill
#
# Bulk Modulus (GPa) = 13.61899 49.15286 31.38592
# Shear Modulus (GPa) = 20.49641 35.87010 28.18325
#
# Velocity S-wave (km/s) = 2.98191 3.94478 3.49664
# Velocity P-wave (km/s) = 4.21473 6.48629 5.46973
#
# Compressibility (1/GPa) = 0.07342690
#
# Stress axis : x y z
#
# Youngs Moduli (GPa) = 23.49054 47.77925 75.06778
#
# Poissons Ratio (x) = 0.14501 -0.22151
# Poissons Ratio (y) = 0.07130 0.12107
# Poissons Ratio (z) = -0.06931 0.07706
#
# Static dielectric constant tensor:
#      x y z
#    x 4.206190 -0.398020 0.342290 
#    y -0.398020 4.537360 0.076990 
#    z 0.342290 0.076990 4.040920 
# 
# 
# High freq. dielectric constant tensor:
#      x y z
#    x 1.901400 -0.020480 0.022970 
#    y -0.020480 1.916700 0.008850 
#    z 0.022970 0.008850 1.908440 
# 
# From -- ./inp_files/271478.got.cif
#   From: 2010.06.25/outbox.cif.g09.slc.cpg/sg2_136_cif.got.tgz:271478.got - 2010.06.27 13:26:56.
