data_PCOD8044386
_publ_section_title
;
Structure prediction by ZEFSAII (Michael W. Deem and Ramdas Pophale) SiO2 
 PCOD8044386
Probable space group: P -1
;
_chemical_formula_sum "Si O2"
_cell_formula_units_Z 14
_cell_length_a 14.668765
_cell_length_b 9.195663
_cell_length_c 10.521412
_cell_angle_alpha 73.091811
_cell_angle_beta 101.736266
_cell_angle_gamma 148.599662
_cell_volume 704.603958
_symmetry_space_group_name_H-M "P -1"
_symmetry_group_IT_number 2
_symmetry_cell_setting 'triclinic'
loop_
_space_group_symop_operation_xyz
x,y,z
-x,-y,-z
loop_
_atom_site_type_symbol
_atom_site_label
_atom_site_fract_x
_atom_site_fract_y
_atom_site_fract_z
Si Si1 0.122229 0.498611 0.353126
Si Si2 0.720400 0.954586 0.421894
Si Si3 0.308052 0.587607 0.160948
Si Si4 0.425926 0.121289 0.270928
Si Si5 0.316436 0.764822 0.586502
Si Si6 0.585328 0.574165 0.692933
Si Si7 0.357413 0.755090 0.868572
O O1 0.178173 0.459774 0.268415
O O2 0.178583 0.513682 0.505531
O O3 0.219517 0.795824 0.282464
O O4 0.916743 0.242458 0.352901
O O5 0.703221 0.785371 0.552121
O O6 0.595662 0.755253 0.317220
O O7 0.660398 0.018558 0.471366
O O8 0.306224 0.401519 0.203982
O O9 0.507466 0.918968 0.154971
O O10 0.243431 0.561515 0.011378
O O11 0.502290 0.090270 0.398475
O O12 0.462104 0.344395 0.258352
O O13 0.524992 0.231486 0.137001
O O14 0.237025 0.629518 0.742745
#
# Coordination Sequence:
#
# PCOD8044386 Si02
#       7
#     2   2   2   2   2   2   2
#     4  11  21  36  60  87 112 150 195 229 276 343
#     4  11  23  35  55  89 120 144 189 235 291 328
#     4  10  20  38  58  82 118 150 191 228 283 339
#     4   9  20  35  63  81 112 149 193 226 282 329
#     4  10  19  38  60  81 111 154 188 232 266 356
#     4  11  22  35  56  87 119 147 181 243 289 329
#     4   8  19  37  62  78 110 160 193 216 278 356
#
# _framework density 19.869319000000001
#
# number of rings (size 3 to 8) (size 9 to 14) (size 15 to 20)
#    0.857    1.143    2.857    0.857    4.000    1.143 
#    0.000    0.714    0.000    3.429    0.000    0.000 
#    0.000    0.000    0.000    0.000    0.000    0.000 
#
# Total GULP energy -173451.719221 kJ/mol
# GULP energy per Si atom -12389.408516 kJ/mol
# Density = 1.982410 g / cm^3
# Si number density = 19.869319 Si / 1000 Ang^3
#
#
#
# Elastic Constant Matrix: (Units=GPa)
#
#
# Indices 1 2 3 4 5 6 
#
# 1 120.1140 46.9132 46.2992 -8.8816 -0.0207 -22.2559
# 2 46.9132 73.7141 26.6956 -4.5887 -11.5314 -0.5820
# 3 46.2992 26.6956 107.5018 12.3446 -7.1409 -2.2150
# 4 -8.8816 -4.5887 12.3446 16.9357 -4.9878 -3.7658
# 5 -0.0207 -11.5314 -7.1409 -4.9878 21.9751 -0.9932
# 6 -22.2559 -0.5820 -2.2150 -3.7658 -0.9932 27.0584
#
#
#
# Elastic Compliance Matrix: (Units=1/GPa)
#
#
# Indices 1 2 3 4 5 6 
#
# 1 0.019005 -0.008521 -0.007764 0.016362 -0.002494 0.016999
# 2 -0.008521 0.021639 -0.001589 0.004743 0.011655 -0.005586
# 3 -0.007764 -0.001589 0.014828 -0.017069 -0.000240 -0.007590
# 4 0.016362 0.004743 -0.017069 0.092731 0.019170 0.025772
# 5 -0.002494 0.011655 -0.000240 0.019170 0.056024 0.002904
# 6 0.016999 -0.005586 -0.007590 0.025772 0.002904 0.053891
#
#
# Mechanical properties :
#
#
# Convention : Reuss Voigt Hill
#
# Bulk Modulus (GPa) = 50.69845 60.12733 55.41289
# Shear Modulus (GPa) = 16.64221 25.28863 20.96542
#
# Velocity S-wave (km/s) = 2.89724 3.57143 3.25186
# Velocity P-wave (km/s) = 6.06328 6.87996 6.48449
#
# Compressibility (1/GPa) = 0.01972447
#
# Stress axis : x y z
#
# Youngs Moduli (GPa) = 52.61672 46.21313 67.43943
#
# Poissons Ratio (x) = 0.39379 0.52357
# Poissons Ratio (y) = 0.44836 0.10717
# Poissons Ratio (z) = 0.40849 0.07344
#
# Static dielectric constant tensor:
#      x y z
#    x 3.436110 -0.241960 -0.117670 
#    y -0.241960 3.256430 0.187150 
#    z -0.117670 0.187150 3.703580 
# 
# 
# High freq. dielectric constant tensor:
#      x y z
#    x 1.769800 -0.021660 -0.011780 
#    y -0.021660 1.736920 0.009390 
#    z -0.011780 0.009390 1.775240 
# 
# From -- ./inp_files/447167.got.cif
#   From: 2010.06.25/outbox.cif.g09.slc.cpg/sg2_224_cif.got.tgz:447167.got - 2010.06.27 13:26:56.
