data_PCOD8044799
_publ_section_title
;
Structure prediction by ZEFSAII (Michael W. Deem and Ramdas Pophale) SiO2 
 PCOD8044799
Probable space group: P -1
;
_chemical_formula_sum "Si O2"
_cell_formula_units_Z 16
_cell_length_a 8.388982
_cell_length_b 7.518973
_cell_length_c 11.586861
_cell_angle_alpha 56.156059
_cell_angle_beta 99.351006
_cell_angle_gamma 108.564861
_cell_volume 575.331337
_symmetry_space_group_name_H-M "P -1"
_symmetry_group_IT_number 2
_symmetry_cell_setting 'triclinic'
loop_
_space_group_symop_operation_xyz
x,y,z
-x,-y,-z
loop_
_atom_site_type_symbol
_atom_site_label
_atom_site_fract_x
_atom_site_fract_y
_atom_site_fract_z
Si Si1 0.561987 0.184604 0.163061
Si Si2 0.633470 0.723686 0.115187
Si Si3 0.627841 0.900701 0.620485
Si Si4 0.949400 0.132211 0.689609
Si Si5 0.448486 0.662500 0.344246
Si Si6 0.873630 0.175559 0.084150
Si Si7 0.935487 0.554183 0.192214
Si Si8 0.135791 0.321770 0.416415
O O1 0.485150 0.277747 0.233669
O O2 0.765408 0.268759 0.135185
O O3 0.519039 0.922013 0.285628
O O4 0.474355 0.235961 0.019650
O O5 0.515913 0.608201 0.247704
O O6 0.742758 0.556955 0.147260
O O7 0.749665 0.966579 0.078752
O O8 0.744759 0.807986 0.582797
O O9 0.500000 0.000000 0.500000
O O10 0.757833 0.096980 0.638479
O O11 0.998858 0.282546 0.752130
O O12 0.084022 0.228075 0.570388
O O13 0.973058 0.891011 0.813027
O O14 0.500000 0.500000 0.500000
O O15 0.245084 0.581211 0.345588
O O16 0.950308 0.372658 0.933356
O O17 0.968135 0.319509 0.322493
#
# Coordination Sequence:
#
# PCOD8044799 Si02
#       8
#     2   2   2   2   2   2   2   2
#     4  11  22  41  67  92 127 175 214 250 308 380
#     4  10  20  37  64  97 130 167 207 254 313 379
#     4  12  26  44  64  89 124 171 215 257 313 382
#     4  11  23  43  66  91 125 169 208 252 316 384
#     4  11  21  38  64  98 128 158 208 271 315 359
#     4  10  19  38  67  97 125 163 209 254 308 379
#     4  11  22  39  66  98 127 158 206 265 315 364
#     4  12  25  40  61  94 127 161 208 265 312 361
#
# _framework density 27.810061000000001
#
# number of rings (size 3 to 8) (size 9 to 14) (size 15 to 20)
#    0.000    1.000    0.000   11.250    0.000    2.000 
#    0.000    5.000    0.000    1.500    0.000    0.000 
#    0.000    0.000    0.000    0.000    0.000    0.000 
#
# Total GULP energy -198340.719375 kJ/mol
# GULP energy per Si atom -12396.294961 kJ/mol
# Density = 2.774676 g / cm^3
# Si number density = 27.810061 Si / 1000 Ang^3
#
#
#
# Elastic Constant Matrix: (Units=GPa)
#
#
# Indices 1 2 3 4 5 6 
#
# 1 318.7052 11.7970 314.2121 19.8595 39.2709 -98.6803
# 2 11.7970 41.6974 18.2419 13.3720 -8.4091 -24.2237
# 3 314.2121 18.2419 598.6029 31.4652 50.3566 -153.0919
# 4 19.8595 13.3720 31.4652 35.2859 -7.4181 -11.4095
# 5 39.2709 -8.4091 50.3566 -7.4181 84.6138 -17.7222
# 6 -98.6803 -24.2237 -153.0919 -11.4095 -17.7222 96.3837
#
#
#
# Elastic Compliance Matrix: (Units=1/GPa)
#
#
# Indices 1 2 3 4 5 6 
#
# 1 0.006875 0.000816 -0.002898 -0.001047 -0.000988 0.002334
# 2 0.000816 0.033648 0.001728 -0.010330 0.003428 0.011443
# 3 -0.002898 0.001728 0.004277 -0.001610 -0.000330 0.004009
# 4 -0.001047 -0.010330 -0.001610 0.034421 0.003104 -0.001580
# 5 -0.000988 0.003428 -0.000330 0.003104 0.013543 0.002184
# 6 0.002334 0.011443 0.004009 -0.001580 0.002184 0.022223
#
#
# Mechanical properties :
#
#
# Convention : Reuss Voigt Hill
#
# Bulk Modulus (GPa) = 22.68119 183.05638 102.86879
# Shear Modulus (GPa) = 38.34535 84.24033 61.29284
#
# Velocity S-wave (km/s) = 3.71729 5.50973 4.69975
# Velocity P-wave (km/s) = 5.15730 10.31711 8.15600
#
# Compressibility (1/GPa) = 0.04408940
#
# Stress axis : x y z
#
# Youngs Moduli (GPa) = 145.46161 29.71961 233.81314
#
# Poissons Ratio (x) = -0.02424 0.67766
# Poissons Ratio (y) = -0.11864 -0.40396
# Poissons Ratio (z) = 0.42159 -0.05135
#
# Static dielectric constant tensor:
#      x y z
#    x 6.554770 0.004140 0.045410 
#    y 0.004140 5.637500 0.159880 
#    z 0.045410 0.159880 5.235360 
# 
# 
# High freq. dielectric constant tensor:
#      x y z
#    x 2.152960 -0.009540 -0.003870 
#    y -0.009540 2.144510 0.013750 
#    z -0.003870 0.013750 2.133710 
# 
# From -- ./inp_files/381061.got.cif
#   From: 2010.06.25/outbox.cif.g09.slc.cpg/sg2_191_cif.got.tgz:381061.got - 2010.06.27 13:26:56.
