data_PCOD8044914
_publ_section_title
;
Structure prediction by ZEFSAII (Michael W. Deem and Ramdas Pophale) SiO2 
 PCOD8044914
Probable space group: P 2
;
_chemical_formula_sum "Si O2"
_cell_formula_units_Z 16
_cell_length_a 8.740592
_cell_length_b 12.022921
_cell_length_c 8.926464
_cell_angle_alpha 90.000000
_cell_angle_beta 122.506905
_cell_angle_gamma 90.000000
_cell_volume 791.090453
_symmetry_space_group_name_H-M "P 2"
_symmetry_group_IT_number 3
_symmetry_cell_setting 'monoclinic'
loop_
_space_group_symop_operation_xyz
x,y,z
-x,y,-z
loop_
_atom_site_type_symbol
_atom_site_label
_atom_site_fract_x
_atom_site_fract_y
_atom_site_fract_z
Si Si1 0.840479 0.531790 0.025538
Si Si2 0.469578 0.070664 0.658136
Si Si3 0.530943 0.525204 0.341429
Si Si4 0.333906 0.296232 0.526072
Si Si5 0.318491 0.689887 0.816699
Si Si6 0.964645 0.294017 0.153066
Si Si7 0.810234 0.928267 0.324280
Si Si8 0.699201 0.099813 0.038037
O O1 0.808838 0.620316 0.139120
O O2 0.894237 0.418538 0.136387
O O3 0.664440 0.506288 0.834209
O O4 0.000000 0.574846 0.000000
O O5 0.500000 0.054131 0.500000
O O6 0.362095 0.185947 0.641781
O O7 0.352607 0.967025 0.653768
O O8 0.666534 0.075527 0.843709
O O9 0.500000 0.555375 0.500000
O O10 0.651878 0.413400 0.378506
O O11 0.636145 0.623454 0.311735
O O12 0.500000 0.299578 0.500000
O O13 0.145106 0.281888 0.343717
O O14 0.206782 0.797718 0.712447
O O15 0.500000 0.724486 0.000000
O O16 0.814966 0.209098 0.134576
O O17 0.000000 0.264880 0.000000
O O18 0.000000 0.955547 0.500000
O O19 0.800058 0.993545 0.161658
O O20 0.500000 0.116429 0.000000
#
# Coordination Sequence:
#
# PCOD8044914 Si02
#       8
#     2   2   2   2   2   2   2   2
#     4  10  21  38  59  86 118 153 195 240 292 351
#     4  10  20  38  62  85 116 155 193 234 288 351
#     4  10  20  37  61  87 118 154 193 239 293 350
#     4  10  19  33  55  88 124 153 189 237 291 350
#     4  10  23  42  61  80 112 157 198 241 295 349
#     4  11  20  34  59  89 120 153 193 238 291 351
#     4  11  24  41  59  84 116 149 195 247 293 346
#     4  10  22  39  60  85 121 156 191 240 295 348
#
# _framework density 20.225247
#
# number of rings (size 3 to 8) (size 9 to 14) (size 15 to 20)
#    0.000    1.750    0.000    7.125    0.000    6.000 
#    0.000    5.625    0.000    0.000    0.000    0.000 
#    0.000    0.000    0.000    0.000    0.000    0.000 
#
# Total GULP energy -198389.582687 kJ/mol
# GULP energy per Si atom -12399.348918 kJ/mol
# Density = 2.017921 g / cm^3
# Si number density = 20.225247 Si / 1000 Ang^3
#
#
#
# Elastic Constant Matrix: (Units=GPa)
#
#
# Indices 1 2 3 4 5 6 
#
# 1 76.1856 47.7853 46.8370 0.0000 4.8917 0.0000
# 2 47.7853 128.1002 60.9011 0.0000 0.6602 0.0000
# 3 46.8370 60.9011 156.8954 0.0000 11.3905 0.0000
# 4 0.0000 0.0000 0.0000 35.2008 0.0000 -3.0958
# 5 4.8917 0.6602 11.3905 0.0000 40.0608 0.0000
# 6 0.0000 0.0000 0.0000 -3.0958 0.0000 21.0736
#
#
#
# Elastic Compliance Matrix: (Units=1/GPa)
#
#
# Indices 1 2 3 4 5 6 
#
# 1 0.018641 -0.005327 -0.003408 0.000000 -0.001219 0.000000
# 2 -0.005327 0.011128 -0.002822 0.000000 0.001269 0.000000
# 3 -0.003408 -0.002822 0.008631 0.000000 -0.001991 0.000000
# 4 0.000000 0.000000 0.000000 0.028780 0.000000 0.004228
# 5 -0.001219 0.001269 -0.001991 0.000000 0.025656 0.000000
# 6 0.000000 0.000000 0.000000 0.004228 0.000000 0.048074
#
#
# Mechanical properties :
#
#
# Convention : Reuss Voigt Hill
#
# Bulk Modulus (GPa) = 65.41833 74.69203 70.05518
# Shear Modulus (GPa) = 29.56486 32.97755 31.27121
#
# Velocity S-wave (km/s) = 3.82747 4.04234 3.93637
# Velocity P-wave (km/s) = 7.20748 7.66796 7.44129
#
# Compressibility (1/GPa) = 0.01528623
#
# Stress axis : x y z
#
# Youngs Moduli (GPa) = 53.64609 89.86060 115.86141
#
# Poissons Ratio (x) = 0.47867 0.39491
# Poissons Ratio (y) = 0.28576 0.32691
# Poissons Ratio (z) = 0.18285 0.25355
#
# Static dielectric constant tensor:
#      x y z
#    x 3.623530 0.000000 -0.039610 
#    y 0.000000 3.855500 0.000000 
#    z -0.039610 0.000000 4.046410 
# 
# 
# High freq. dielectric constant tensor:
#      x y z
#    x 1.778340 0.000000 0.004800 
#    y 0.000000 1.789280 0.000000 
#    z 0.004800 0.000000 1.808960 
# 
# From -- ./inp_files/5950.got.cif
#   From: 2010.03.12/outbox.cif.g09.slc.cpg/sg3_3_cif.got.tgz:5950.got - 2010.03.31 09:20:49.
