data_PCOD8044575
_publ_section_title
;
Structure prediction by ZEFSAII (Michael W. Deem and Ramdas Pophale) SiO2 
 PCOD8044575
Probable space group: P -1
;
_chemical_formula_sum "Si O2"
_cell_formula_units_Z 14
_cell_length_a 16.632068
_cell_length_b 12.326617
_cell_length_c 15.852936
_cell_angle_alpha 143.168445
_cell_angle_beta 25.240913
_cell_angle_gamma 150.799183
_cell_volume 675.242203
_symmetry_space_group_name_H-M "P -1"
_symmetry_group_IT_number 2
_symmetry_cell_setting 'triclinic'
loop_
_space_group_symop_operation_xyz
x,y,z
-x,-y,-z
loop_
_atom_site_type_symbol
_atom_site_label
_atom_site_fract_x
_atom_site_fract_y
_atom_site_fract_z
Si Si1 0.740622 0.300284 0.601175
Si Si2 0.559928 0.592253 0.319113
Si Si3 0.006151 0.369244 0.056258
Si Si4 0.361633 0.274026 0.855665
Si Si5 0.479641 0.872565 0.692484
Si Si6 0.921501 0.232039 0.226583
Si Si7 0.444444 0.798614 0.869720
O O1 0.559174 0.364978 0.798131
O O2 0.747205 0.201259 0.444211
O O3 0.000000 0.500000 0.500000
O O4 0.654609 0.117328 0.641206
O O5 0.505225 0.631715 0.301622
O O6 0.475448 0.682336 0.526879
O O7 0.445626 0.327960 0.276785
O O8 0.840460 0.729927 0.147269
O O9 0.783693 0.202796 0.106911
O O10 0.938128 0.382694 0.226342
O O11 0.163013 0.618494 0.022953
O O12 0.196423 0.008672 0.852103
O O13 0.184857 0.344178 0.082688
O O14 0.549710 0.884517 0.730291
O O15 0.500000 0.000000 0.000000
#
# Coordination Sequence:
#
# PCOD8044575 Si02
#       7
#     2   2   2   2   2   2   2
#     4  12  26  35  59  99 131 159 194 258 319 360
#     4   9  21  39  67  91 117 162 216 249 294 375
#     4   9  21  38  68  89 118 164 210 249 305 369
#     4  10  19  39  64  89 122 159 207 248 302 373
#     4  12  21  41  66  89 125 165 211 250 298 379
#     4  10  19  38  63  90 120 159 210 246 303 374
#     4  10  24  43  62  91 125 161 204 262 317 353
#
# _framework density 20.733301999999998
#
# number of rings (size 3 to 8) (size 9 to 14) (size 15 to 20)
#    0.857    0.857    2.857    2.143    2.000    0.571 
#    0.000    2.143    0.000    0.000    0.000    0.000 
#    0.000    0.000    0.000    0.000    0.000    0.000 
#
# Total GULP energy -173475.648754 kJ/mol
# GULP energy per Si atom -12391.117768 kJ/mol
# Density = 2.068611 g / cm^3
# Si number density = 20.733302 Si / 1000 Ang^3
#
#
#
# Elastic Constant Matrix: (Units=GPa)
#
#
# Indices 1 2 3 4 5 6 
#
# 1 108.6303 46.5958 28.0624 -7.4091 6.6443 -24.2920
# 2 46.5958 102.6957 18.6085 -10.2314 -2.0338 -11.8153
# 3 28.0624 18.6085 46.1771 -6.4200 4.0896 -11.3739
# 4 -7.4091 -10.2314 -6.4200 31.1208 -0.1059 -1.8065
# 5 6.6443 -2.0338 4.0896 -0.1059 38.5274 -18.5271
# 6 -24.2920 -11.8153 -11.3739 -1.8065 -18.5271 33.0171
#
#
#
# Elastic Compliance Matrix: (Units=1/GPa)
#
#
# Indices 1 2 3 4 5 6 
#
# 1 0.014180 -0.004440 -0.004744 0.001426 0.001825 0.008311
# 2 -0.004440 0.012676 -0.001655 0.002919 0.002783 0.002421
# 3 -0.004744 -0.001655 0.027195 0.004282 0.000699 0.005912
# 4 0.001426 0.002919 0.004282 0.034740 0.002985 0.007145
# 5 0.001825 0.002783 0.000699 0.002985 0.037034 0.023523
# 6 0.008311 0.002421 0.005912 0.007145 0.023523 0.052896
#
#
# Mechanical properties :
#
#
# Convention : Reuss Voigt Hill
#
# Bulk Modulus (GPa) = 30.88849 49.33741 40.11295
# Shear Modulus (GPa) = 23.67538 31.48215 27.57877
#
# Velocity S-wave (km/s) = 3.38287 3.90094 3.65110
# Velocity P-wave (km/s) = 5.49443 6.64361 6.09616
#
# Compressibility (1/GPa) = 0.03237452
#
# Stress axis : x y z
#
# Youngs Moduli (GPa) = 70.52335 78.88835 36.77099
#
# Poissons Ratio (x) = 0.35023 0.17445
# Poissons Ratio (y) = 0.31309 0.06084
# Poissons Ratio (z) = 0.33458 0.13052
#
# Static dielectric constant tensor:
#      x y z
#    x 3.760430 -0.224540 -0.056160 
#    y -0.224540 3.413700 -0.186780 
#    z -0.056160 -0.186780 3.842170 
# 
# 
# High freq. dielectric constant tensor:
#      x y z
#    x 1.812410 -0.021300 0.000440 
#    y -0.021300 1.783050 -0.019140 
#    z 0.000440 -0.019140 1.806860 
# 
# From -- ./inp_files/531295.got.cif
#   From: 2010.06.25/outbox.cif.g09.slc.cpg/sg2_266_cif.got.tgz:531295.got - 2010.06.27 13:26:56.
