data_PCOD8044319
_publ_section_title
;
Structure prediction by ZEFSAII (Michael W. Deem and Ramdas Pophale) SiO2 
 PCOD8044319
Probable space group: P -1
;
_chemical_formula_sum "Si O2"
_cell_formula_units_Z 16
_cell_length_a 7.569692
_cell_length_b 17.377086
_cell_length_c 8.537343
_cell_angle_alpha 102.775527
_cell_angle_beta 49.810074
_cell_angle_gamma 79.143934
_cell_volume 749.494733
_symmetry_space_group_name_H-M "P -1"
_symmetry_group_IT_number 2
_symmetry_cell_setting 'triclinic'
loop_
_space_group_symop_operation_xyz
x,y,z
-x,-y,-z
loop_
_atom_site_type_symbol
_atom_site_label
_atom_site_fract_x
_atom_site_fract_y
_atom_site_fract_z
Si Si1 0.827847 0.644235 0.056653
Si Si2 0.334192 0.101364 0.606430
Si Si3 0.962789 0.235134 0.115597
Si Si4 0.136783 0.811683 0.280819
Si Si5 0.492025 0.309937 0.208020
Si Si6 0.972043 0.354107 0.714082
Si Si7 0.216757 0.469294 0.231182
Si Si8 0.336081 0.801103 0.479181
O O1 0.877785 0.558093 0.889438
O O2 0.883601 0.706455 0.927399
O O3 0.991634 0.626850 0.115335
O O4 0.528505 0.698378 0.298458
O O5 0.145593 0.113558 0.572978
O O6 0.521628 0.148195 0.490324
O O7 0.500000 0.000000 0.500000
O O8 0.139160 0.148384 0.879153
O O9 0.695632 0.303485 0.220180
O O10 0.907530 0.196346 0.287568
O O11 0.112161 0.722387 0.288836
O O12 0.221563 0.848212 0.400645
O O13 0.369273 0.783784 0.007413
O O14 0.232377 0.324192 0.449272
O O15 0.459423 0.388687 0.138142
O O16 0.749864 0.444164 0.803440
O O17 0.000000 0.500000 0.500000
#
# Coordination Sequence:
#
# PCOD8044319 Si02
#       8
#     2   2   2   2   2   2   2   2
#     4  11  20  40  56  85 125 162 210 258 298 350
#     4  10  23  44  65  94 129 150 193 258 305 369
#     4  10  21  39  64  86 119 164 204 242 306 367
#     4  11  22  39  66  90 119 166 201 240 312 370
#     4  10  19  38  56  83 120 160 207 249 298 355
#     4  11  21  38  57  84 125 162 208 258 304 346
#     4  10  23  35  55  87 125 163 209 266 295 343
#     4  11  22  39  66  93 118 165 205 244 305 368
#
# _framework density 21.347715000000001
#
# number of rings (size 3 to 8) (size 9 to 14) (size 15 to 20)
#    0.000    1.500    6.250    0.375    3.500    1.500 
#    0.000    3.125    0.000    0.000    0.000    0.000 
#    0.000    0.000    0.000    0.000    0.000    0.000 
#
# Total GULP energy -198231.228301 kJ/mol
# GULP energy per Si atom -12389.451769 kJ/mol
# Density = 2.129913 g / cm^3
# Si number density = 21.347715 Si / 1000 Ang^3
#
#
#
# Elastic Constant Matrix: (Units=GPa)
#
#
# Indices 1 2 3 4 5 6 
#
# 1 50.3940 7.5536 8.1285 7.5432 4.3951 -17.7717
# 2 7.5536 79.9850 35.5594 13.0863 -4.4496 -12.3522
# 3 8.1285 35.5594 70.2923 -5.9625 -9.5561 1.8287
# 4 7.5432 13.0863 -5.9625 36.1519 -9.8027 -6.4843
# 5 4.3951 -4.4496 -9.5561 -9.8027 22.2383 -0.2765
# 6 -17.7717 -12.3522 1.8287 -6.4843 -0.2765 28.6230
#
#
#
# Elastic Compliance Matrix: (Units=1/GPa)
#
#
# Indices 1 2 3 4 5 6 
#
# 1 0.029750 0.004952 -0.008975 -0.009538 -0.012715 0.018898
# 2 0.004952 0.020968 -0.013355 -0.010906 -0.007200 0.010436
# 3 -0.008975 -0.013355 0.025583 0.013493 0.015921 -0.009760
# 4 -0.009538 -0.010906 0.013493 0.042021 0.024002 -0.001739
# 5 -0.012715 -0.007200 0.015921 0.024002 0.063388 -0.005969
# 6 0.018898 0.010436 -0.009760 -0.001739 -0.005969 0.051346
#
#
# Mechanical properties :
#
#
# Convention : Reuss Voigt Hill
#
# Bulk Modulus (GPa) = 24.07007 33.68382 28.87694
# Shear Modulus (GPa) = 17.75193 27.36462 22.55827
#
# Velocity S-wave (km/s) = 2.88681 3.58418 3.25423
# Velocity P-wave (km/s) = 4.73405 5.73946 5.26083
#
# Compressibility (1/GPa) = 0.04154538
#
# Stress axis : x y z
#
# Youngs Moduli (GPa) = 33.61318 47.69275 39.08830
#
# Poissons Ratio (x) = -0.23618 0.35081
# Poissons Ratio (y) = -0.16646 0.52203
# Poissons Ratio (z) = 0.30167 0.63694
#
# Static dielectric constant tensor:
#      x y z
#    x 3.948990 -0.283700 -0.101460 
#    y -0.283700 3.795570 -0.144490 
#    z -0.101460 -0.144490 4.172030 
# 
# 
# High freq. dielectric constant tensor:
#      x y z
#    x 1.828550 -0.018080 -0.011680 
#    y -0.018080 1.816530 -0.013020 
#    z -0.011680 -0.013020 1.846580 
# 
# From -- ./inp_files/215048.got.cif
#   From: 2010.06.25/outbox.cif.g09.slc.cpg/sg2_108_cif.got.tgz:215048.got - 2010.06.27 13:26:56.
