data_PCOD8044359
_publ_section_title
;
Structure prediction by ZEFSAII (Michael W. Deem and Ramdas Pophale) SiO2 
 PCOD8044359
Probable space group: P -1
;
_chemical_formula_sum "Si O2"
_cell_formula_units_Z 16
_cell_length_a 10.824694
_cell_length_b 8.823169
_cell_length_c 17.320227
_cell_angle_alpha 98.728604
_cell_angle_beta 148.934901
_cell_angle_gamma 75.435536
_cell_volume 819.430953
_symmetry_space_group_name_H-M "P -1"
_symmetry_group_IT_number 2
_symmetry_cell_setting 'triclinic'
loop_
_space_group_symop_operation_xyz
x,y,z
-x,-y,-z
loop_
_atom_site_type_symbol
_atom_site_label
_atom_site_fract_x
_atom_site_fract_y
_atom_site_fract_z
Si Si1 0.041954 0.542903 0.637405
Si Si2 0.603083 0.052295 0.277371
Si Si3 0.348908 0.121504 0.990359
Si Si4 0.568634 0.531976 0.953507
Si Si5 0.541540 0.915572 0.626606
Si Si6 0.013566 0.749141 0.501041
Si Si7 0.874120 0.026295 0.705066
Si Si8 0.970637 0.688032 0.771402
O O1 0.339134 0.506549 0.778053
O O2 0.927967 0.693936 0.533807
O O3 0.940516 0.394041 0.546087
O O4 0.957313 0.574740 0.682928
O O5 0.452891 0.063591 0.277475
O O6 0.731539 0.197941 0.350375
O O7 0.415307 0.056658 0.107032
O O8 0.802722 0.888636 0.365221
O O9 0.399827 0.292143 0.022991
O O10 0.056262 0.140913 0.822996
O O11 0.500000 0.000000 0.000000
O O12 0.500000 0.500000 0.000000
O O13 0.824986 0.402022 0.064008
O O14 0.662049 0.048280 0.660006
O O15 0.708084 0.741193 0.679048
O O16 0.261534 0.936189 0.447742
O O17 0.039441 0.845037 0.784120
#
# Coordination Sequence:
#
# PCOD8044359 Si02
#       8
#     2   2   2   2   2   2   2   2
#     4  10  19  38  58  90 122 157 199 245 315 355
#     4  11  24  39  60  92 125 156 207 254 299 359
#     4  12  25  38  62  94 122 161 205 255 305 359
#     4  10  21  36  59  88 122 152 200 251 305 358
#     4   9  21  41  66  87 123 162 203 252 296 360
#     4  10  23  35  61  89 123 157 196 260 303 356
#     4   9  21  40  66  88 121 161 207 246 296 364
#     4   9  19  37  65  84 117 159 199 246 296 369
#
# _framework density 19.525744
#
# number of rings (size 3 to 8) (size 9 to 14) (size 15 to 20)
#    0.750    1.250    1.250    2.250    8.750    0.500 
#    0.000    3.125    0.000    0.000    0.000    0.000 
#    0.000    0.000    0.000    0.000    0.000    0.000 
#
# Total GULP energy -198308.222827 kJ/mol
# GULP energy per Si atom -12394.263927 kJ/mol
# Density = 1.948130 g / cm^3
# Si number density = 19.525744 Si / 1000 Ang^3
#
#
#
# Elastic Constant Matrix: (Units=GPa)
#
#
# Indices 1 2 3 4 5 6 
#
# 1 82.6461 6.1974 27.6268 4.4766 -14.5475 -1.6255
# 2 6.1974 66.3871 23.4766 -3.6795 1.3244 3.8921
# 3 27.6268 23.4766 113.4737 -0.8540 -2.2656 3.9469
# 4 4.4766 -3.6795 -0.8540 30.8456 2.1475 1.3847
# 5 -14.5475 1.3244 -2.2656 2.1475 31.3153 -0.7909
# 6 -1.6255 3.8921 3.9469 1.3847 -0.7909 20.3245
#
#
#
# Elastic Compliance Matrix: (Units=1/GPa)
#
#
# Indices 1 2 3 4 5 6 
#
# 1 0.014702 -0.000601 -0.003424 -0.002887 0.006867 0.002420
# 2 -0.000601 0.016564 -0.003195 0.002200 -0.001432 -0.002805
# 3 -0.003424 -0.003195 0.010356 0.000535 -0.000787 -0.001740
# 4 -0.002887 0.002200 0.000535 0.033522 -0.003775 -0.003187
# 5 0.006867 -0.001432 -0.000787 -0.003775 0.035452 0.002613
# 6 0.002420 -0.002805 -0.001740 -0.003187 0.002613 0.050589
#
#
# Mechanical properties :
#
#
# Convention : Reuss Voigt Hill
#
# Bulk Modulus (GPa) = 36.78784 41.90093 39.34439
# Shear Modulus (GPa) = 27.07311 30.17749 28.62530
#
# Velocity S-wave (km/s) = 3.72766 3.93558 3.83303
# Velocity P-wave (km/s) = 6.11628 6.49289 6.30739
#
# Compressibility (1/GPa) = 0.02718290
#
# Stress axis : x y z
#
# Youngs Moduli (GPa) = 68.01799 60.37142 96.56115
#
# Poissons Ratio (x) = 0.03625 0.33062
# Poissons Ratio (y) = 0.04085 0.30853
# Poissons Ratio (z) = 0.23289 0.19290
#
# Static dielectric constant tensor:
#      x y z
#    x 3.282670 0.041470 0.036230 
#    y 0.041470 3.414110 -0.034170 
#    z 0.036230 -0.034170 3.499720 
# 
# 
# High freq. dielectric constant tensor:
#      x y z
#    x 1.735030 0.006780 -0.006670 
#    y 0.006780 1.754050 -0.011340 
#    z -0.006670 -0.011340 1.766560 
# 
# From -- ./inp_files/565390.got.cif
#   From: 2010.06.25/outbox.cif.g09.slc.cpg/sg2_283_cif.got.tgz:565390.got - 2010.06.27 13:26:56.
