data_PCOD8044234
_publ_section_title
;
Structure prediction by ZEFSAII (Michael W. Deem and Ramdas Pophale) SiO2 
 PCOD8044234
Probable space group: P -1
;
_chemical_formula_sum "Si O2"
_cell_formula_units_Z 16
_cell_length_a 8.026785
_cell_length_b 25.152255
_cell_length_c 20.444934
_cell_angle_alpha 159.291396
_cell_angle_beta 29.448594
_cell_angle_gamma 139.419994
_cell_volume 680.695476
_symmetry_space_group_name_H-M "P -1"
_symmetry_group_IT_number 2
_symmetry_cell_setting 'triclinic'
loop_
_space_group_symop_operation_xyz
x,y,z
-x,-y,-z
loop_
_atom_site_type_symbol
_atom_site_label
_atom_site_fract_x
_atom_site_fract_y
_atom_site_fract_z
Si Si1 0.730214 0.025526 0.680356
Si Si2 0.335653 0.895120 0.571986
Si Si3 0.686386 0.600630 0.355682
Si Si4 0.576351 0.652647 0.897526
Si Si5 0.334565 0.185216 0.279926
Si Si6 0.804328 0.679102 0.063395
Si Si7 0.905082 0.238678 0.068722
Si Si8 0.125030 0.731830 0.269034
O O1 0.437574 0.940969 0.661504
O O2 0.932107 0.926054 0.560106
O O3 0.000000 0.000000 0.500000
O O4 0.536832 0.215588 0.971139
O O5 0.694421 0.808945 0.308375
O O6 0.094412 0.778009 0.529757
O O7 0.128827 0.054658 0.787602
O O8 0.386979 0.516562 0.343766
O O9 0.525650 0.760909 0.637659
O O10 0.843765 0.643452 0.283660
O O11 0.001334 0.490118 0.166314
O O12 0.932849 0.655675 0.816561
O O13 0.255497 0.682923 0.094680
O O14 0.488047 0.270679 0.267580
O O15 0.500000 0.000000 0.000000
O O16 0.442908 0.681524 0.153990
O O17 0.075044 0.716543 0.962041
#
# Coordination Sequence:
#
# PCOD8044234 Si02
#       8
#     2   2   2   2   2   2   2   2
#     4   9  18  36  58  91 128 157 193 247 305 357
#     4  10  19  37  66  92 122 159 204 254 297 359
#     4  12  23  38  61  92 126 158 202 255 306 360
#     4   9  20  37  60  92 125 157 198 255 303 357
#     4  10  23  43  62  85 123 166 205 248 304 364
#     4  11  21  35  62  96 120 154 207 258 301 353
#     4   9  21  40  62  86 126 165 202 244 305 359
#     4  10  20  36  59  94 129 157 195 248 315 358
#
# _framework density 23.505369999999999
#
# number of rings (size 3 to 8) (size 9 to 14) (size 15 to 20)
#    0.000    2.000    1.250    3.375    0.000    2.000 
#    2.250    0.000    2.750    2.250    0.000    0.000 
#    0.000    0.000    0.000    0.000    0.000    0.000 
#
# Total GULP energy -198245.913024 kJ/mol
# GULP energy per Si atom -12390.369564 kJ/mol
# Density = 2.345187 g / cm^3
# Si number density = 23.505370 Si / 1000 Ang^3
#
#
#
# Elastic Constant Matrix: (Units=GPa)
#
#
# Indices 1 2 3 4 5 6 
#
# 1 68.9712 39.7439 33.1632 10.4783 10.3199 4.0219
# 2 39.7439 154.6649 25.0953 4.7923 8.8271 8.2007
# 3 33.1632 25.0953 62.0228 15.1340 20.7739 1.0349
# 4 10.4783 4.7923 15.1340 29.3001 -1.1547 3.2170
# 5 10.3199 8.8271 20.7739 -1.1547 39.0358 17.8166
# 6 4.0219 8.2007 1.0349 3.2170 17.8166 31.6677
#
#
#
# Elastic Compliance Matrix: (Units=1/GPa)
#
#
# Indices 1 2 3 4 5 6 
#
# 1 0.021741 -0.003870 -0.010078 -0.001659 0.001369 -0.002031
# 2 -0.003870 0.007761 -0.001817 0.001366 0.001352 -0.002358
# 3 -0.010078 -0.001817 0.033009 -0.015571 -0.021502 0.014351
# 4 -0.001659 0.001366 -0.015571 0.044584 0.015656 -0.012971
# 5 0.001369 0.001352 -0.021502 0.015656 0.050457 -0.029799
# 6 -0.002031 -0.002358 0.014351 -0.012971 -0.029799 0.050061
#
#
# Mechanical properties :
#
#
# Convention : Reuss Voigt Hill
#
# Bulk Modulus (GPa) = 32.28084 53.51817 42.89951
# Shear Modulus (GPa) = 20.04250 32.51114 26.27682
#
# Velocity S-wave (km/s) = 2.92323 3.72309 3.34714
# Velocity P-wave (km/s) = 5.01567 6.42649 5.76440
#
# Compressibility (1/GPa) = 0.03097813
#
# Stress axis : x y z
#
# Youngs Moduli (GPa) = 45.99656 128.85614 30.29454
#
# Poissons Ratio (x) = 0.49873 0.30532
# Poissons Ratio (y) = 0.17803 0.05506
# Poissons Ratio (z) = 0.46357 0.23418
#
# Static dielectric constant tensor:
#      x y z
#    x 4.725300 0.219380 -0.133570 
#    y 0.219380 4.742350 0.063270 
#    z -0.133570 0.063270 4.163520 
# 
# 
# High freq. dielectric constant tensor:
#      x y z
#    x 1.914070 0.013030 0.010640 
#    y 0.013030 1.937830 0.015000 
#    z 0.010640 0.015000 1.903120 
# 
# From -- ./inp_files/591976.got.cif
#   From: 2010.06.25/outbox.cif.g09.slc.cpg/sg2_296_cif.got.tgz:591976.got - 2010.06.27 13:26:56.
