data_PCOD8044428
_publ_section_title
;
Structure prediction by ZEFSAII (Michael W. Deem and Ramdas Pophale) SiO2 
 PCOD8044428
Probable space group: P -1
;
_chemical_formula_sum "Si O2"
_cell_formula_units_Z 16
_cell_length_a 9.558419
_cell_length_b 25.161435
_cell_length_c 9.308380
_cell_angle_alpha 49.132424
_cell_angle_beta 103.925486
_cell_angle_gamma 143.825440
_cell_volume 764.346870
_symmetry_space_group_name_H-M "P -1"
_symmetry_group_IT_number 2
_symmetry_cell_setting 'triclinic'
loop_
_space_group_symop_operation_xyz
x,y,z
-x,-y,-z
loop_
_atom_site_type_symbol
_atom_site_label
_atom_site_fract_x
_atom_site_fract_y
_atom_site_fract_z
Si Si1 0.373010 0.154736 0.329095
Si Si2 0.694132 0.190720 0.128531
Si Si3 0.842154 0.503595 0.419809
Si Si4 0.275609 0.355798 0.022628
Si Si5 0.626487 0.712667 0.070170
Si Si6 0.175974 0.974071 0.175924
Si Si7 0.843931 0.967586 0.221589
Si Si8 0.610258 0.640977 0.646308
O O1 0.429977 0.165308 0.494544
O O2 0.522669 0.154794 0.280922
O O3 0.522903 0.291425 0.063054
O O4 0.000000 0.000000 0.500000
O O5 0.888353 0.324040 0.834878
O O6 0.922659 0.230805 0.180774
O O7 0.436265 0.049532 0.205398
O O8 0.618510 0.425673 0.634922
O O9 0.648913 0.416711 0.375700
O O10 0.000000 0.500000 0.500000
O O11 0.382161 0.355157 0.185722
O O12 0.263601 0.304755 0.967558
O O13 0.521299 0.525643 0.766356
O O14 0.910008 0.869210 0.949283
O O15 0.015239 0.967640 0.236278
O O16 0.938772 0.809175 0.370054
O O17 0.310500 0.066549 0.899301
#
# Coordination Sequence:
#
# PCOD8044428 Si02
#       8
#     2   2   2   2   2   2   2   2
#     4  10  19  38  60  98 128 163 214 268 320 375
#     4  11  23  40  66  98 128 172 220 264 314 389
#     4  11  21  41  69  97 129 165 222 267 320 385
#     4  10  25  44  67  92 131 179 217 257 320 395
#     4  11  20  42  67  95 127 175 212 262 331 384
#     4  11  20  40  65  96 128 170 212 268 323 380
#     4  10  21  35  64  96 128 165 212 260 332 376
#     4  10  23  43  65  91 134 177 209 257 334 386
#
# _framework density 20.932904000000001
#
# number of rings (size 3 to 8) (size 9 to 14) (size 15 to 20)
#    0.000    1.500    5.000    0.750    3.500    2.500 
#    0.000    6.250    0.000    0.000    0.000    0.000 
#    0.000    0.000    0.000    0.000    0.000    0.000 
#
# Total GULP energy -198289.852628 kJ/mol
# GULP energy per Si atom -12393.115789 kJ/mol
# Density = 2.088526 g / cm^3
# Si number density = 20.932904 Si / 1000 Ang^3
#
#
#
# Elastic Constant Matrix: (Units=GPa)
#
#
# Indices 1 2 3 4 5 6 
#
# 1 103.0993 52.8343 31.7637 13.5471 -12.4145 2.8442
# 2 52.8343 106.3727 42.8082 12.2783 3.0821 12.5654
# 3 31.7637 42.8082 103.6792 23.0244 -6.1086 4.2779
# 4 13.5471 12.2783 23.0244 41.1082 -4.5246 2.4277
# 5 -12.4145 3.0821 -6.1086 -4.5246 29.1636 5.8246
# 6 2.8442 12.5654 4.2779 2.4277 5.8246 31.9495
#
#
#
# Elastic Compliance Matrix: (Units=1/GPa)
#
#
# Indices 1 2 3 4 5 6 
#
# 1 0.014457 -0.006889 -0.000889 -0.001539 0.006358 0.000499
# 2 -0.006889 0.015135 -0.004214 -0.000172 -0.004660 -0.003912
# 3 -0.000889 -0.004214 0.012993 -0.005518 0.001919 0.000066
# 4 -0.001539 -0.000172 -0.005518 0.028405 0.002965 -0.001755
# 5 0.006358 -0.004660 0.001919 0.002965 0.039637 -0.006442
# 6 0.000499 -0.003912 0.000066 -0.001755 -0.006442 0.034093
#
#
# Mechanical properties :
#
#
# Convention : Reuss Voigt Hill
#
# Bulk Modulus (GPa) = 53.75553 63.10708 58.43131
# Shear Modulus (GPa) = 28.58708 32.82726 30.70717
#
# Velocity S-wave (km/s) = 3.69948 3.96436 3.83421
# Velocity P-wave (km/s) = 6.63204 7.15316 6.89752
#
# Compressibility (1/GPa) = 0.01860274
#
# Stress axis : x y z
#
# Youngs Moduli (GPa) = 69.16867 66.07140 76.96317
#
# Poissons Ratio (x) = 0.45513 0.06845
# Poissons Ratio (y) = 0.47647 0.32429
# Poissons Ratio (z) = 0.06152 0.27840
#
# Static dielectric constant tensor:
#      x y z
#    x 3.502460 0.099570 0.015930 
#    y 0.099570 3.951260 0.296920 
#    z 0.015930 0.296920 4.254740 
# 
# 
# High freq. dielectric constant tensor:
#      x y z
#    x 1.789710 0.002030 0.015280 
#    y 0.002030 1.817770 0.016610 
#    z 0.015280 0.016610 1.834720 
# 
# From -- ./inp_files/226152.got.cif
#   From: 2010.06.25/outbox.cif.g09.slc.cpg/sg2_114_cif.got.tgz:226152.got - 2010.06.27 13:26:56.
