data_PCOD8044719
_publ_section_title
;
Structure prediction by ZEFSAII (Michael W. Deem and Ramdas Pophale) SiO2 
 PCOD8044719
Probable space group: P -1
;
_chemical_formula_sum "Si O2"
_cell_formula_units_Z 16
_cell_length_a 16.619556
_cell_length_b 7.033187
_cell_length_c 18.412701
_cell_angle_alpha 113.793913
_cell_angle_beta 146.331876
_cell_angle_gamma 45.308328
_cell_volume 752.495956
_symmetry_space_group_name_H-M "P -1"
_symmetry_group_IT_number 2
_symmetry_cell_setting 'triclinic'
loop_
_space_group_symop_operation_xyz
x,y,z
-x,-y,-z
loop_
_atom_site_type_symbol
_atom_site_label
_atom_site_fract_x
_atom_site_fract_y
_atom_site_fract_z
Si Si1 0.528629 0.212488 0.818260
Si Si2 0.289830 0.801094 0.349572
Si Si3 0.948356 0.866553 0.169055
Si Si4 0.837240 0.603868 0.633008
Si Si5 0.491508 0.396525 0.659465
Si Si6 0.110630 0.389668 0.678142
Si Si7 0.704481 0.390843 0.167038
Si Si8 0.290573 0.044457 0.622802
O O1 0.568761 0.278262 0.781163
O O2 0.332943 0.531440 0.762326
O O3 0.468181 0.033080 0.735915
O O4 0.742957 0.007073 0.993206
O O5 0.500000 0.500000 0.500000
O O6 0.313837 0.788370 0.278432
O O7 0.093644 0.853984 0.224414
O O8 0.239328 0.081588 0.385422
O O9 0.077780 0.530734 0.242515
O O10 0.897900 0.045223 0.233679
O O11 0.645910 0.652869 0.478396
O O12 0.029604 0.358682 0.684074
O O13 0.366171 0.739906 0.611014
O O14 0.269275 0.411852 0.821310
O O15 0.233663 0.100802 0.674489
O O16 0.917336 0.696039 0.538467
O O17 0.500000 0.500000 0.000000
#
# Coordination Sequence:
#
# PCOD8044719 Si02
#       8
#     2   2   2   2   2   2   2   2
#     4  10  24  43  64  99 138 169 214 269 330 392
#     4  12  26  45  69  95 130 170 229 275 318 384
#     4  11  24  43  68  96 134 175 215 275 326 381
#     4  12  24  41  70 100 121 173 229 265 328 386
#     4  12  25  40  69  94 130 177 217 268 326 385
#     4  10  19  38  65  96 132 165 217 273 322 388
#     4   9  19  41  64  95 138 171 205 270 327 383
#     4  10  22  40  61  97 136 166 210 275 327 382
#
# _framework density 21.262574000000001
#
# number of rings (size 3 to 8) (size 9 to 14) (size 15 to 20)
#    0.000    1.250    3.750    1.875    1.750    2.000 
#    0.000    3.125    0.000    0.000    0.000    0.000 
#    0.000    0.000    0.000    0.000    0.000    0.000 
#
# Total GULP energy -198344.454981 kJ/mol
# GULP energy per Si atom -12396.528436 kJ/mol
# Density = 2.121418 g / cm^3
# Si number density = 21.262574 Si / 1000 Ang^3
#
#
#
# Elastic Constant Matrix: (Units=GPa)
#
#
# Indices 1 2 3 4 5 6 
#
# 1 154.1490 26.3577 25.8891 -3.4155 4.2241 -1.3675
# 2 26.3577 49.6497 3.2578 2.3025 7.7869 5.1988
# 3 25.8891 3.2578 72.0762 -0.9767 9.3857 8.6513
# 4 -3.4155 2.3025 -0.9767 15.7876 5.0645 1.9057
# 5 4.2241 7.7869 9.3857 5.0645 38.3440 1.1592
# 6 -1.3675 5.1988 8.6513 1.9057 1.1592 30.3200
#
#
#
# Elastic Compliance Matrix: (Units=1/GPa)
#
#
# Indices 1 2 3 4 5 6 
#
# 1 0.007732 -0.004251 -0.002826 0.001772 0.000416 0.001757
# 2 -0.004251 0.023528 0.001504 -0.002376 -0.004233 -0.004344
# 3 -0.002826 0.001504 0.015963 0.002040 -0.004022 -0.004914
# 4 0.001772 -0.002376 0.002040 0.067572 -0.009016 -0.003997
# 5 0.000416 -0.004233 -0.004022 -0.009016 0.029028 0.001349
# 6 0.001757 -0.004344 -0.004914 -0.003997 0.001349 0.035408
#
#
# Mechanical properties :
#
#
# Convention : Reuss Voigt Hill
#
# Bulk Modulus (GPa) = 27.71897 42.98713 35.35305
# Shear Modulus (GPa) = 24.70335 31.58168 28.14251
#
# Velocity S-wave (km/s) = 3.41225 3.85816 3.64204
# Velocity P-wave (km/s) = 5.34691 6.33312 5.86079
#
# Compressibility (1/GPa) = 0.03607638
#
# Stress axis : x y z
#
# Youngs Moduli (GPa) = 129.32978 42.50274 62.64609
#
# Poissons Ratio (x) = 0.18067 0.17705
# Poissons Ratio (y) = 0.54975 -0.09420
# Poissons Ratio (z) = 0.36551 -0.06391
#
# Static dielectric constant tensor:
#      x y z
#    x 4.381510 -0.229720 0.101570 
#    y -0.229720 4.223410 0.477070 
#    z 0.101570 0.477070 4.026030 
# 
# 
# High freq. dielectric constant tensor:
#      x y z
#    x 1.852240 -0.002910 0.012520 
#    y -0.002910 1.830260 0.015840 
#    z 0.012520 0.015840 1.817130 
# 
# From -- ./inp_files/367871.got.cif
#   From: 2010.06.25/outbox.cif.g09.slc.cpg/sg2_184_cif.got.tgz:367871.got - 2010.06.27 13:26:56.
