data_PCOD8044975
_publ_section_title
;
Structure prediction by ZEFSAII (Michael W. Deem and Ramdas Pophale) SiO2 
 PCOD8044975
Probable space group: P 2
;
_chemical_formula_sum "Si O2"
_cell_formula_units_Z 12
_cell_length_a 9.624865
_cell_length_b 7.363694
_cell_length_c 9.657066
_cell_angle_alpha 90.000000
_cell_angle_beta 58.448456
_cell_angle_gamma 90.000000
_cell_volume 583.259344
_symmetry_space_group_name_H-M "P 2"
_symmetry_group_IT_number 3
_symmetry_cell_setting 'monoclinic'
loop_
_space_group_symop_operation_xyz
x,y,z
-x,y,-z
loop_
_atom_site_type_symbol
_atom_site_label
_atom_site_fract_x
_atom_site_fract_y
_atom_site_fract_z
Si Si1 0.583085 0.136200 0.587076
Si Si2 0.815137 0.322791 0.835622
Si Si3 0.660901 0.445841 0.191124
Si Si4 0.339858 0.972381 0.171511
Si Si5 0.178561 0.436696 0.611236
Si Si6 0.655887 0.594339 0.729860
O O1 0.500000 0.031610 0.500000
O O2 0.456089 0.285402 0.702768
O O3 0.746891 0.238318 0.454756
O O4 0.623373 0.995364 0.685087
O O5 0.679459 0.410237 0.806211
O O6 0.986198 0.407578 0.701950
O O7 0.801957 0.104713 0.814028
O O8 0.784047 0.372598 0.010837
O O9 0.767700 0.512980 0.266102
O O10 0.539136 0.606465 0.201766
O O11 0.288230 0.760507 0.198817
O O12 0.500000 0.012945 0.000000
O O13 0.236021 0.583368 0.466493
#
# Coordination Sequence:
#
# PCOD8044975 Si02
#       6
#     2   2   2   2   2   2
#     4   9  19  36  59  87 117 157 205 247 298 365
#     4  12  21  40  62  93 126 159 202 263 317 374
#     4  10  19  40  66  86 119 167 211 256 302 370
#     4  12  22  38  66  94 121 167 212 259 310 371
#     4  10  22  39  61  91 125 164 202 253 324 365
#     4  11  23  39  63  90 123 161 215 253 306 376
#
# _framework density 20.574038999999999
#
# number of rings (size 3 to 8) (size 9 to 14) (size 15 to 20)
#    0.000    1.333    5.000    4.000    0.000    1.333 
#    6.000    0.000    0.000    2.000    0.000    0.000 
#    0.000    0.000    0.000    0.000    0.000    0.000 
#
# Total GULP energy -148765.422811 kJ/mol
# GULP energy per Si atom -12397.118568 kJ/mol
# Density = 2.052721 g / cm^3
# Si number density = 20.574039 Si / 1000 Ang^3
#
#
#
# Elastic Constant Matrix: (Units=GPa)
#
#
# Indices 1 2 3 4 5 6 
#
# 1 77.1022 19.0347 36.2221 0.0000 -2.1762 0.0000
# 2 19.0347 75.4167 18.6348 0.0000 -1.4079 0.0000
# 3 36.2221 18.6348 105.3227 0.0000 12.3264 0.0000
# 4 0.0000 0.0000 0.0000 18.9503 0.0000 4.9488
# 5 -2.1762 -1.4079 12.3264 0.0000 35.9226 0.0000
# 6 0.0000 0.0000 0.0000 4.9488 0.0000 20.7050
#
#
#
# Elastic Compliance Matrix: (Units=1/GPa)
#
#
# Indices 1 2 3 4 5 6 
#
# 1 0.016271 -0.002712 -0.005437 0.000000 0.002745 0.000000
# 2 -0.002712 0.014390 -0.001730 0.000000 0.000993 0.000000
# 3 -0.005437 -0.001730 0.012207 0.000000 -0.004586 0.000000
# 4 0.000000 0.000000 0.000000 0.056283 0.000000 -0.013452
# 5 0.002745 0.000993 -0.004586 0.000000 0.029616 0.000000
# 6 0.000000 0.000000 0.000000 -0.013452 0.000000 0.051513
#
#
# Mechanical properties :
#
#
# Convention : Reuss Voigt Hill
#
# Bulk Modulus (GPa) = 43.26989 45.06945 44.16967
# Shear Modulus (GPa) = 24.06831 27.37892 25.72362
#
# Velocity S-wave (km/s) = 3.42400 3.65190 3.53979
# Velocity P-wave (km/s) = 6.05877 6.30360 6.18240
#
# Compressibility (1/GPa) = 0.02311076
#
# Stress axis : x y z
#
# Youngs Moduli (GPa) = 61.45804 69.49243 81.91767
#
# Poissons Ratio (x) = 0.18846 0.44542
# Poissons Ratio (y) = 0.16667 0.14168
# Poissons Ratio (z) = 0.33417 0.12019
#
# Static dielectric constant tensor:
#      x y z
#    x 3.802580 0.000000 0.255650 
#    y 0.000000 3.501800 0.000000 
#    z 0.255650 0.000000 4.188200 
# 
# 
# High freq. dielectric constant tensor:
#      x y z
#    x 1.794330 0.000000 0.014920 
#    y 0.000000 1.772040 0.000000 
#    z 0.014920 0.000000 1.823230 
# 
# From -- ./inp_files/5056.got.cif
#   From: 2010.03.12/outbox.cif.g09.slc.cpg/sg3_3_cif.got.tgz:5056.got - 2010.03.31 09:20:49.
