data_PCOD8044655
_publ_section_title
;
Structure prediction by ZEFSAII (Michael W. Deem and Ramdas Pophale) SiO2 
 PCOD8044655
Probable space group: P -1
;
_chemical_formula_sum "Si O2"
_cell_formula_units_Z 16
_cell_length_a 8.832271
_cell_length_b 12.598661
_cell_length_c 15.624807
_cell_angle_alpha 151.997690
_cell_angle_beta 66.303489
_cell_angle_gamma 106.846063
_cell_volume 738.878635
_symmetry_space_group_name_H-M "P -1"
_symmetry_group_IT_number 2
_symmetry_cell_setting 'triclinic'
loop_
_space_group_symop_operation_xyz
x,y,z
-x,-y,-z
loop_
_atom_site_type_symbol
_atom_site_label
_atom_site_fract_x
_atom_site_fract_y
_atom_site_fract_z
Si Si1 0.648892 0.305796 0.350898
Si Si2 0.035933 0.061001 0.268011
Si Si3 0.291253 0.110697 0.847821
Si Si4 0.816052 0.492823 0.592632
Si Si5 0.904487 0.011013 0.441100
Si Si6 0.302184 0.998376 0.032910
Si Si7 0.377331 0.212350 0.712875
Si Si8 0.654654 0.441086 0.759217
O O1 0.500000 0.500000 0.500000
O O2 0.776272 0.442758 0.467974
O O3 0.600108 0.105638 0.282234
O O4 0.728623 0.192918 0.164764
O O5 0.998087 0.339927 0.460270
O O6 0.216556 0.952315 0.110751
O O7 0.893167 0.947292 0.170584
O O8 0.037067 0.011782 0.334026
O O9 0.375638 0.186360 0.796741
O O10 0.283765 0.321818 0.064218
O O11 0.683304 0.397408 0.619696
O O12 0.801650 0.762115 0.805273
O O13 0.805288 0.793385 0.292573
O O14 0.772213 0.240928 0.639614
O O15 0.000000 0.000000 0.500000
O O16 0.500000 0.000000 0.000000
O O17 0.459353 0.436180 0.825634
O O18 0.500000 0.000000 0.500000
#
# Coordination Sequence:
#
# PCOD8044655 Si02
#       8
#     2   2   2   2   2   2   2   2
#     4  11  22  39  62  90 131 165 213 271 324 376
#     4   9  22  41  63  90 129 169 218 263 324 393
#     4  10  20  38  64  90 124 168 220 261 318 395
#     4  10  21  41  63  91 127 168 215 267 318 390
#     4   9  19  40  62  90 128 167 210 267 327 387
#     4  12  23  42  61  91 132 168 219 271 328 380
#     4   9  18  36  62  90 124 162 210 262 319 383
#     4  10  19  38  64  94 122 166 215 267 319 386
#
# _framework density 21.654436
#
# number of rings (size 3 to 8) (size 9 to 14) (size 15 to 20)
#    0.000    2.000    2.500    3.000    0.000    2.000 
#   11.250    3.750    0.000    0.000    0.000    0.000 
#    0.000    0.000    0.000    0.000    0.000    0.000 
#
# Total GULP energy -198238.516647 kJ/mol
# GULP energy per Si atom -12389.907290 kJ/mol
# Density = 2.160515 g / cm^3
# Si number density = 21.654436 Si / 1000 Ang^3
#
#
#
# Elastic Constant Matrix: (Units=GPa)
#
#
# Indices 1 2 3 4 5 6 
#
# 1 92.4817 76.8738 45.8963 -15.8647 3.7245 -0.5092
# 2 76.8738 100.9744 57.5474 -23.1904 -6.7920 -7.7651
# 3 45.8963 57.5474 125.3787 -12.8969 7.1730 3.4027
# 4 -15.8647 -23.1904 -12.8969 42.8136 5.8328 2.9540
# 5 3.7245 -6.7920 7.1730 5.8328 28.7851 -10.3001
# 6 -0.5092 -7.7651 3.4027 2.9540 -10.3001 33.3868
#
#
#
# Elastic Compliance Matrix: (Units=1/GPa)
#
#
# Indices 1 2 3 4 5 6 
#
# 1 0.035536 -0.030208 0.002188 0.000551 -0.016636 -0.011888
# 2 -0.030208 0.042010 -0.009384 0.004740 0.021046 0.016340
# 3 0.002188 -0.009384 0.012178 0.000865 -0.007810 -0.005876
# 4 0.000551 0.004740 0.000865 0.027412 -0.005873 -0.003215
# 5 -0.016636 0.021046 -0.007810 -0.005873 0.052974 0.022300
# 6 -0.011888 0.016340 -0.005876 -0.003215 0.022300 0.041334
#
#
# Mechanical properties :
#
#
# Convention : Reuss Voigt Hill
#
# Bulk Modulus (GPa) = 67.04455 75.49666 71.27061
# Shear Modulus (GPa) = 17.16891 30.23159 23.70025
#
# Velocity S-wave (km/s) = 2.81883 3.74049 3.31187
# Velocity P-wave (km/s) = 6.45157 7.32086 6.89992
#
# Compressibility (1/GPa) = 0.01491545
#
# Stress axis : x y z
#
# Youngs Moduli (GPa) = 28.14059 23.80363 82.11794
#
# Poissons Ratio (x) = 0.71905 -0.17966
# Poissons Ratio (y) = 0.85006 0.77063
# Poissons Ratio (z) = -0.06157 0.22338
#
# Static dielectric constant tensor:
#      x y z
#    x 3.854210 -0.099210 0.299100 
#    y -0.099210 3.528160 0.058760 
#    z 0.299100 0.058760 4.047710 
# 
# 
# High freq. dielectric constant tensor:
#      x y z
#    x 1.823730 0.008810 0.015900 
#    y 0.008810 1.859870 -0.013910 
#    z 0.015900 -0.013910 1.855490 
# 
# From -- ./inp_files/501112.got.cif
#   From: 2010.06.25/outbox.cif.g09.slc.cpg/sg2_251_cif.got.tgz:501112.got - 2010.06.27 13:26:56.
