data_PCOD8044491
_publ_section_title
;
Structure prediction by ZEFSAII (Michael W. Deem and Ramdas Pophale) SiO2 
 PCOD8044491
Probable space group: P -1
;
_chemical_formula_sum "Si O2"
_cell_formula_units_Z 14
_cell_length_a 9.270509
_cell_length_b 17.337952
_cell_length_c 10.956933
_cell_angle_alpha 44.697692
_cell_angle_beta 96.647673
_cell_angle_gamma 61.166947
_cell_volume 724.806407
_symmetry_space_group_name_H-M "P -1"
_symmetry_group_IT_number 2
_symmetry_cell_setting 'triclinic'
loop_
_space_group_symop_operation_xyz
x,y,z
-x,-y,-z
loop_
_atom_site_type_symbol
_atom_site_label
_atom_site_fract_x
_atom_site_fract_y
_atom_site_fract_z
Si Si1 0.390894 0.282515 0.834216
Si Si2 0.899293 0.575468 0.595136
Si Si3 0.844427 0.505433 0.907001
Si Si4 0.975606 0.842633 0.681296
Si Si5 0.153892 0.902200 0.803815
Si Si6 0.467829 0.038502 0.811037
Si Si7 0.313092 0.927144 0.381815
O O1 0.301708 0.338129 0.623118
O O2 0.158198 0.452662 0.703665
O O3 0.603086 0.243104 0.923200
O O4 0.503313 0.096946 0.096256
O O5 0.918932 0.463957 0.817474
O O6 0.800546 0.741265 0.476403
O O7 0.555989 0.705315 0.673401
O O8 0.000000 0.500000 0.000000
O O9 0.912162 0.342041 0.140140
O O10 0.185842 0.790967 0.824841
O O11 0.884630 0.955740 0.421445
O O12 0.746347 0.972762 0.608894
O O13 0.915917 0.014850 0.736445
O O14 0.664321 0.000453 0.809114
O O15 0.500000 0.000000 0.000000
#
# Coordination Sequence:
#
# PCOD8044491 Si02
#       7
#     2   2   2   2   2   2   2
#     4  10  19  38  62  78 117 153 193 242 285 344
#     4   9  21  36  55  89 111 145 204 238 282 343
#     4  11  23  35  60  89 116 153 193 246 291 339
#     4   9  21  40  54  85 123 148 199 233 282 361
#     4   9  21  39  59  84 116 164 185 234 302 339
#     4   9  18  35  58  81 113 146 192 242 280 334
#     4   9  20  39  55  87 117 148 196 239 288 344
#
# _framework density 19.315501999999999
#
# number of rings (size 3 to 8) (size 9 to 14) (size 15 to 20)
#    0.857    1.714    0.000    0.857    6.000    1.143 
#    2.571    7.143    0.000    0.000    0.000    0.000 
#    0.000    0.000    0.000    0.000    0.000    0.000 
#
# Total GULP energy -173434.121685 kJ/mol
# GULP energy per Si atom -12388.151549 kJ/mol
# Density = 1.927154 g / cm^3
# Si number density = 19.315502 Si / 1000 Ang^3
#
#
#
# Elastic Constant Matrix: (Units=GPa)
#
#
# Indices 1 2 3 4 5 6 
#
# 1 115.0719 49.1213 58.2211 5.0664 12.4651 -1.2342
# 2 49.1213 66.4113 39.3638 -3.8973 3.5255 -6.8868
# 3 58.2211 39.3638 70.6434 -1.4509 7.2450 10.2134
# 4 5.0664 -3.8973 -1.4509 27.1666 0.7221 -4.9887
# 5 12.4651 3.5255 7.2450 0.7221 44.5795 1.0114
# 6 -1.2342 -6.8868 10.2134 -4.9887 1.0114 34.7374
#
#
#
# Elastic Compliance Matrix: (Units=1/GPa)
#
#
# Indices 1 2 3 4 5 6 
#
# 1 0.017410 -0.006273 -0.010976 -0.004286 -0.002566 0.002061
# 2 -0.006273 0.028026 -0.011834 0.006307 0.001139 0.009685
# 3 -0.010976 -0.011834 0.031620 -0.000148 -0.000859 -0.012029
# 4 -0.004286 0.006307 -0.000148 0.039767 -0.000076 0.006855
# 5 -0.002566 0.001139 -0.000859 -0.000076 0.023207 -0.000299
# 6 0.002061 0.009685 -0.012029 0.006855 -0.000299 0.035311
#
#
# Mechanical properties :
#
#
# Convention : Reuss Voigt Hill
#
# Bulk Modulus (GPa) = 52.93976 60.61545 56.77760
# Shear Modulus (GPa) = 20.85037 28.32472 24.58754
#
# Velocity S-wave (km/s) = 3.28908 3.83355 3.57170
# Velocity P-wave (km/s) = 6.47236 7.14455 6.81675
#
# Compressibility (1/GPa) = 0.01888940
#
# Stress axis : x y z
#
# Youngs Moduli (GPa) = 57.43743 35.68098 31.62572
#
# Poissons Ratio (x) = 0.22384 0.34712
# Poissons Ratio (y) = 0.36032 0.37426
# Poissons Ratio (z) = 0.63043 0.42225
#
# Static dielectric constant tensor:
#      x y z
#    x 3.408960 -0.079000 -0.223190 
#    y -0.079000 3.508970 -0.150220 
#    z -0.223190 -0.150220 3.728050 
# 
# 
# High freq. dielectric constant tensor:
#      x y z
#    x 1.733710 -0.010960 -0.007810 
#    y -0.010960 1.747180 -0.004070 
#    z -0.007810 -0.004070 1.750770 
# 
# From -- ./inp_files/292535.got.cif
#   From: 2010.06.25/outbox.cif.g09.slc.cpg/sg2_147_cif.got.tgz:292535.got - 2010.06.27 13:26:56.
