data_PCOD8044487
_publ_section_title
;
Structure prediction by ZEFSAII (Michael W. Deem and Ramdas Pophale) SiO2 
 PCOD8044487
Probable space group: P -1
;
_chemical_formula_sum "Si O2"
_cell_formula_units_Z 16
_cell_length_a 9.140351
_cell_length_b 13.638901
_cell_length_c 13.883151
_cell_angle_alpha 133.286855
_cell_angle_beta 41.988567
_cell_angle_gamma 134.574834
_cell_volume 774.389236
_symmetry_space_group_name_H-M "P -1"
_symmetry_group_IT_number 2
_symmetry_cell_setting 'triclinic'
loop_
_space_group_symop_operation_xyz
x,y,z
-x,-y,-z
loop_
_atom_site_type_symbol
_atom_site_label
_atom_site_fract_x
_atom_site_fract_y
_atom_site_fract_z
Si Si1 0.844821 0.195652 0.774807
Si Si2 0.347830 0.367154 0.716578
Si Si3 0.836372 0.805274 0.125181
Si Si4 0.059078 0.168914 0.109549
Si Si5 0.341829 0.806383 0.546036
Si Si6 0.489841 0.294563 0.124872
Si Si7 0.380766 0.869540 0.362416
Si Si8 0.280905 0.029612 0.165733
O O1 0.770393 0.201857 0.705889
O O2 0.128076 0.284207 0.697433
O O3 0.772600 0.026732 0.734929
O O4 0.725133 0.271496 0.959494
O O5 0.260862 0.329314 0.844113
O O6 0.566589 0.319761 0.556095
O O7 0.441514 0.538672 0.768899
O O8 0.635786 0.860893 0.226960
O O9 0.922626 0.751089 0.949190
O O10 0.046328 0.945614 0.161366
O O11 0.308303 0.242121 0.090199
O O12 0.857207 0.197538 0.285211
O O13 0.000000 0.000000 0.000000
O O14 0.241813 0.787366 0.471748
O O15 0.574822 0.959117 0.539147
O O16 0.364075 0.203573 0.222318
O O17 0.500000 0.000000 0.000000
#
# Coordination Sequence:
#
# PCOD8044487 Si02
#       8
#     2   2   2   2   2   2   2   2
#     4  10  20  39  65  91 115 163 212 245 295 359
#     4  10  24  39  59  90 133 161 193 244 316 367
#     4  10  19  38  61  94 116 154 207 251 292 353
#     4  12  20  36  68  92 117 154 212 256 298 346
#     4  10  22  37  59  94 125 155 195 260 304 359
#     4  11  20  37  64  92 125 159 201 255 300 357
#     4  10  19  38  65  88 121 157 207 253 298 346
#     4   9  19  32  59  95 118 149 199 256 295 340
#
# _framework density 20.661442999999998
#
# number of rings (size 3 to 8) (size 9 to 14) (size 15 to 20)
#    0.000    1.750    3.750    0.375    1.750    1.500 
#    0.000    0.000    0.000    1.500    0.000    0.000 
#    0.000    0.000    0.000    0.000    0.000    0.000 
#
# Total GULP energy -198314.910070 kJ/mol
# GULP energy per Si atom -12394.681879 kJ/mol
# Density = 2.061442 g / cm^3
# Si number density = 20.661443 Si / 1000 Ang^3
#
#
#
# Elastic Constant Matrix: (Units=GPa)
#
#
# Indices 1 2 3 4 5 6 
#
# 1 128.4431 46.7507 51.6169 -2.2201 1.2658 2.4841
# 2 46.7507 123.4039 33.8125 4.4454 -4.2341 -16.9562
# 3 51.6169 33.8125 115.6399 -11.6115 10.7508 -10.8653
# 4 -2.2201 4.4454 -11.6115 22.3472 -0.4304 -6.4853
# 5 1.2658 -4.2341 10.7508 -0.4304 18.2432 2.5770
# 6 2.4841 -16.9562 -10.8653 -6.4853 2.5770 24.0794
#
#
#
# Elastic Compliance Matrix: (Units=1/GPa)
#
#
# Indices 1 2 3 4 5 6 
#
# 1 0.011226 -0.003640 -0.005103 -0.002807 0.002310 -0.007027
# 2 -0.003640 0.010905 -0.001264 -0.001134 0.002525 0.006909
# 3 -0.005103 -0.001264 0.014027 0.009626 -0.009328 0.009557
# 4 -0.002807 -0.001134 0.009626 0.055210 -0.007190 0.019474
# 5 0.002310 0.002525 -0.009328 -0.007190 0.062158 -0.011258
# 6 -0.007027 0.006909 0.009557 0.019474 -0.011258 0.057882
#
#
# Mechanical properties :
#
#
# Convention : Reuss Voigt Hill
#
# Bulk Modulus (GPa) = 61.94038 70.20526 66.07282
# Shear Modulus (GPa) = 21.11462 28.62109 24.86786
#
# Velocity S-wave (km/s) = 3.20024 3.72592 3.47304
# Velocity P-wave (km/s) = 6.61053 7.25001 6.93764
#
# Compressibility (1/GPa) = 0.01614456
#
# Stress axis : x y z
#
# Youngs Moduli (GPa) = 89.08019 91.69790 71.29249
#
# Poissons Ratio (x) = 0.33375 0.36384
# Poissons Ratio (y) = 0.32422 0.09008
# Poissons Ratio (z) = 0.45462 0.11587
#
# Static dielectric constant tensor:
#      x y z
#    x 4.020650 -0.259600 0.081110 
#    y -0.259600 3.677290 -0.195260 
#    z 0.081110 -0.195260 3.793520 
# 
# 
# High freq. dielectric constant tensor:
#      x y z
#    x 1.820230 -0.006550 -0.007100 
#    y -0.006550 1.781260 -0.019020 
#    z -0.007100 -0.019020 1.799140 
# 
# From -- ./inp_files/504247.got.cif
#   From: 2010.06.25/outbox.cif.g09.slc.cpg/sg2_253_cif.got.tgz:504247.got - 2010.06.27 13:26:56.
