data_PCOD8044775
_publ_section_title
;
Structure prediction by ZEFSAII (Michael W. Deem and Ramdas Pophale) SiO2 
 PCOD8044775
Probable space group: P -1
;
_chemical_formula_sum "Si O2"
_cell_formula_units_Z 16
_cell_length_a 14.815495
_cell_length_b 14.397822
_cell_length_c 11.659105
_cell_angle_alpha 140.291432
_cell_angle_beta 29.500863
_cell_angle_gamma 142.128135
_cell_volume 723.466452
_symmetry_space_group_name_H-M "P -1"
_symmetry_group_IT_number 2
_symmetry_cell_setting 'triclinic'
loop_
_space_group_symop_operation_xyz
x,y,z
-x,-y,-z
loop_
_atom_site_type_symbol
_atom_site_label
_atom_site_fract_x
_atom_site_fract_y
_atom_site_fract_z
Si Si1 0.255950 0.993691 0.623306
Si Si2 0.160597 0.156497 0.521810
Si Si3 0.904299 0.351769 0.045152
Si Si4 0.608343 0.835981 0.930192
Si Si5 0.132033 0.964466 0.972329
Si Si6 0.728697 0.339739 0.711090
Si Si7 0.514242 0.899639 0.738819
Si Si8 0.090467 0.616618 0.676417
O O1 0.283231 0.046048 0.776655
O O2 0.221689 0.813092 0.473078
O O3 0.448931 0.106620 0.446548
O O4 0.058727 0.994989 0.786758
O O5 0.292661 0.243168 0.346716
O O6 0.298069 0.114525 0.420478
O O7 0.000000 0.000000 0.500000
O O8 0.058713 0.263729 0.796546
O O9 0.690252 0.236985 0.125450
O O10 0.865372 0.415109 0.271935
O O11 0.000000 0.500000 0.000000
O O12 0.481917 0.699565 0.029359
O O13 0.768579 0.976748 0.959606
O O14 0.493889 0.926765 0.067379
O O15 0.060443 0.779306 0.863237
O O16 0.738014 0.380238 0.602161
O O17 0.883828 0.484710 0.743733
#
# Coordination Sequence:
#
# PCOD8044775 Si02
#       8
#     2   2   2   2   2   2   2   2
#     4   9  20  36  66  97 127 165 216 267 322 391
#     4  12  25  45  68  94 133 172 221 276 321 385
#     4  12  28  43  66  94 133 176 217 270 331 390
#     4  11  22  39  68 101 126 171 223 270 318 394
#     4  10  19  38  66  96 130 165 214 269 325 383
#     4   9  22  37  67  90 127 168 210 268 328 382
#     4  11  23  41  67  98 125 176 219 270 320 391
#     4  10  20  42  62  91 129 167 210 267 330 381
#
# _framework density 22.115743999999999
#
# number of rings (size 3 to 8) (size 9 to 14) (size 15 to 20)
#    0.000    1.500    2.500    1.875    3.500    4.000 
#    2.250    0.000    0.000    3.750    0.000    0.000 
#    0.000    0.000    0.000    0.000    0.000    0.000 
#
# Total GULP energy -198269.615353 kJ/mol
# GULP energy per Si atom -12391.850960 kJ/mol
# Density = 2.206541 g / cm^3
# Si number density = 22.115744 Si / 1000 Ang^3
#
#
#
# Elastic Constant Matrix: (Units=GPa)
#
#
# Indices 1 2 3 4 5 6 
#
# 1 95.9018 32.2643 27.5781 -3.9070 8.0166 -6.8967
# 2 32.2643 96.7504 24.4129 -25.7209 18.5360 -12.7882
# 3 27.5781 24.4129 79.2429 -23.8134 20.1316 -9.0530
# 4 -3.9070 -25.7209 -23.8134 28.2870 -10.1994 11.7695
# 5 8.0166 18.5360 20.1316 -10.1994 39.1291 -2.1935
# 6 -6.8967 -12.7882 -9.0530 11.7695 -2.1935 24.0637
#
#
#
# Elastic Compliance Matrix: (Units=1/GPa)
#
#
# Indices 1 2 3 4 5 6 
#
# 1 0.013556 -0.005051 -0.005448 -0.008580 0.000372 0.003382
# 2 -0.005051 0.016050 0.002089 0.013936 -0.003972 0.000690
# 3 -0.005448 0.002089 0.020229 0.016639 -0.006030 -0.001528
# 4 -0.008580 0.013936 0.016639 0.072191 0.004083 -0.023730
# 5 0.000372 -0.003972 -0.006030 0.004083 0.031337 -0.003413
# 6 0.003382 0.000690 -0.001528 -0.023730 -0.003413 0.053612
#
#
# Mechanical properties :
#
#
# Convention : Reuss Voigt Hill
#
# Bulk Modulus (GPa) = 30.28933 48.93396 39.61165
# Shear Modulus (GPa) = 21.29464 30.80530 26.04997
#
# Velocity S-wave (km/s) = 3.10639 3.73622 3.43577
# Velocity P-wave (km/s) = 5.15672 6.38646 5.80425
#
# Compressibility (1/GPa) = 0.03301492
#
# Stress axis : x y z
#
# Youngs Moduli (GPa) = 73.76849 62.30463 49.43338
#
# Poissons Ratio (x) = 0.31471 0.26932
# Poissons Ratio (y) = 0.37261 -0.10326
# Poissons Ratio (z) = 0.40189 -0.13015
#
# Static dielectric constant tensor:
#      x y z
#    x 4.090410 -0.294340 0.452470 
#    y -0.294340 3.970080 -0.439520 
#    z 0.452470 -0.439520 4.666350 
# 
# 
# High freq. dielectric constant tensor:
#      x y z
#    x 1.868060 -0.011280 0.026100 
#    y -0.011280 1.856760 -0.025360 
#    z 0.026100 -0.025360 1.879970 
# 
# From -- ./inp_files/455037.got.cif
#   From: 2010.06.25/outbox.cif.g09.slc.cpg/sg2_228_cif.got.tgz:455037.got - 2010.06.27 13:26:56.
