data_PCOD8044492
_publ_section_title
;
Structure prediction by ZEFSAII (Michael W. Deem and Ramdas Pophale) SiO2 
 PCOD8044492
Probable space group: P -1
;
_chemical_formula_sum "Si O2"
_cell_formula_units_Z 12
_cell_length_a 6.906119
_cell_length_b 9.348608
_cell_length_c 12.590678
_cell_angle_alpha 59.086471
_cell_angle_beta 123.980353
_cell_angle_gamma 122.273841
_cell_volume 542.391211
_symmetry_space_group_name_H-M "P -1"
_symmetry_group_IT_number 2
_symmetry_cell_setting 'triclinic'
loop_
_space_group_symop_operation_xyz
x,y,z
-x,-y,-z
loop_
_atom_site_type_symbol
_atom_site_label
_atom_site_fract_x
_atom_site_fract_y
_atom_site_fract_z
Si Si1 0.572467 0.631255 0.077493
Si Si2 0.215097 0.330571 0.199604
Si Si3 0.077333 0.714976 0.301155
Si Si4 0.626928 0.205380 0.436879
Si Si5 0.135623 0.610199 0.765554
Si Si6 0.775121 0.927862 0.879850
O O1 0.670516 0.487607 0.096217
O O2 0.794856 0.716806 0.200207
O O3 0.680873 0.472437 0.897047
O O4 0.547253 0.788477 0.931778
O O5 0.426804 0.304467 0.351179
O O6 0.970638 0.312051 0.199068
O O7 0.141160 0.174018 0.150168
O O8 0.142840 0.701488 0.449641
O O9 0.279594 0.900250 0.247389
O O10 0.089961 0.542591 0.306825
O O11 0.720332 0.232216 0.332571
O O12 0.500000 0.000000 0.500000
O O13 0.000000 0.000000 0.000000
#
# Coordination Sequence:
#
# PCOD8044492 Si02
#       6
#     2   2   2   2   2   2
#     4   8  20  38  60  79 118 150 186 230 285 329
#     4  11  21  37  63  86 108 155 191 229 287 332
#     4   9  19  39  58  84 118 150 184 233 285 329
#     4  11  21  39  60  82 119 151 185 233 287 340
#     4   9  22  37  58  90 111 145 194 236 275 335
#     4  10  19  38  62  80 116 157 183 231 287 334
#
# _framework density 22.124253
#
# number of rings (size 3 to 8) (size 9 to 14) (size 15 to 20)
#    1.000    1.333    1.667    1.000    0.000    2.000 
#    0.000    2.500    0.000    0.000    0.000    0.000 
#    0.000    0.000    0.000    0.000    0.000    0.000 
#
# Total GULP energy -148679.599905 kJ/mol
# GULP energy per Si atom -12389.966659 kJ/mol
# Density = 2.207390 g / cm^3
# Si number density = 22.124253 Si / 1000 Ang^3
#
#
#
# Elastic Constant Matrix: (Units=GPa)
#
#
# Indices 1 2 3 4 5 6 
#
# 1 112.6380 37.4004 39.9611 -10.7688 -26.1133 -2.5144
# 2 37.4004 110.9870 34.6587 -15.7613 -20.9964 16.2307
# 3 39.9611 34.6587 119.8794 -10.7748 -9.2093 1.2633
# 4 -10.7688 -15.7613 -10.7748 43.3254 15.2933 -10.3358
# 5 -26.1133 -20.9964 -9.2093 15.2933 27.0744 -0.1141
# 6 -2.5144 16.2307 1.2633 -10.3358 -0.1141 25.7257
#
#
#
# Elastic Compliance Matrix: (Units=1/GPa)
#
#
# Indices 1 2 3 4 5 6 
#
# 1 0.013047 -0.001860 -0.003133 -0.001617 0.010998 0.002001
# 2 -0.001860 0.013087 -0.002561 -0.001336 0.008202 -0.008813
# 3 -0.003133 -0.002561 0.010090 0.002191 -0.002806 0.001682
# 4 -0.001617 -0.001336 0.002191 0.033325 -0.020617 0.013875
# 5 0.010998 0.008202 -0.002806 -0.020617 0.064544 -0.011959
# 6 0.002001 -0.008813 0.001682 0.013875 -0.011959 0.050066
#
#
# Mechanical properties :
#
#
# Convention : Reuss Voigt Hill
#
# Bulk Modulus (GPa) = 47.35625 63.06054 55.20839
# Shear Modulus (GPa) = 24.23589 34.65738 29.44663
#
# Velocity S-wave (km/s) = 3.31334 3.96218 3.65220
# Velocity P-wave (km/s) = 6.00739 7.03538 6.54161
#
# Compressibility (1/GPa) = 0.02111654
#
# Stress axis : x y z
#
# Youngs Moduli (GPa) = 76.64749 76.41018 99.10766
#
# Poissons Ratio (x) = 0.14213 0.31050
# Poissons Ratio (y) = 0.14257 0.25379
# Poissons Ratio (z) = 0.24013 0.19567
#
# Static dielectric constant tensor:
#      x y z
#    x 3.645990 0.710940 -0.359510 
#    y 0.710940 4.627730 -0.393960 
#    z -0.359510 -0.393960 5.115140 
# 
# 
# High freq. dielectric constant tensor:
#      x y z
#    x 1.812270 0.047620 0.001530 
#    y 0.047620 1.883640 0.006840 
#    z 0.001530 0.006840 1.903500 
# 
# From -- ./inp_files/68365.got.cif
#   From: 2010.06.25/outbox.cif.g09.slc.cpg/sg2_35_cif.got.tgz:68365.got - 2010.06.27 13:26:56.
