data_PCOD8044909
_publ_section_title
;
Structure prediction by ZEFSAII (Michael W. Deem and Ramdas Pophale) SiO2 
 PCOD8044909
Probable space group: P 2
;
_chemical_formula_sum "Si O2"
_cell_formula_units_Z 14
_cell_length_a 8.450272
_cell_length_b 16.611690
_cell_length_c 9.307175
_cell_angle_alpha 90.000000
_cell_angle_beta 32.639653
_cell_angle_gamma 90.000000
_cell_volume 704.654201
_symmetry_space_group_name_H-M "P 2"
_symmetry_group_IT_number 3
_symmetry_cell_setting 'monoclinic'
loop_
_space_group_symop_operation_xyz
x,y,z
-x,y,-z
loop_
_atom_site_type_symbol
_atom_site_label
_atom_site_fract_x
_atom_site_fract_y
_atom_site_fract_z
Si Si1 0.838904 0.631480 0.773552
Si Si2 0.838462 0.978046 0.772988
Si Si3 0.160767 0.804666 0.229098
Si Si4 0.858397 0.129275 0.955590
Si Si5 0.354104 0.228276 0.457655
Si Si6 0.132550 0.480535 0.054243
Si Si7 0.760291 0.398559 0.559796
O O1 0.915144 0.719168 0.790156
O O2 0.000000 0.616435 0.500000
O O3 0.500000 0.626410 0.000000
O O4 0.928167 0.563559 0.817302
O O5 0.936912 0.890542 0.766625
O O6 0.000000 0.997162 0.500000
O O7 0.894039 0.045484 0.847686
O O8 0.500000 0.975456 0.000000
O O9 0.000000 0.798159 0.500000
O O10 0.500000 0.808710 0.000000
O O11 0.026096 0.197181 0.735596
O O12 0.527593 0.159951 0.234372
O O13 0.000000 0.114138 0.000000
O O14 0.500000 0.248078 0.500000
O O15 0.348555 0.306671 0.361147
O O16 0.475939 0.455816 0.796499
O O17 0.000000 0.492710 0.000000
O O18 0.928787 0.412793 0.281823
O O19 0.000000 0.415269 0.500000
#
# Coordination Sequence:
#
# PCOD8044909 Si02
#       7
#     2   2   2   2   2   2   2
#     4  10  19  35  58  81 109 144 186 228 270 324
#     4  10  19  33  54  80 109 141 182 225 268 320
#     4   8  16  30  51  78 106 140 178 221 270 319
#     4  10  21  36  55  79 109 145 181 221 276 333
#     4  10  21  38  57  78 108 145 183 226 280 333
#     4  12  24  39  59  85 117 150 184 228 286 339
#     4  12  25  41  61  85 111 145 192 237 278 330
#
# _framework density 19.867901
#
# number of rings (size 3 to 8) (size 9 to 14) (size 15 to 20)
#    0.000    1.714    0.000    5.571    0.000    2.857 
#    0.000    0.714    0.000    0.000    0.000   16.000 
#    0.000    0.000    0.000    0.000    0.000    0.000 
#
# Total GULP energy -173464.668523 kJ/mol
# GULP energy per Si atom -12390.333466 kJ/mol
# Density = 1.982268 g / cm^3
# Si number density = 19.867901 Si / 1000 Ang^3
#
#
#
# Elastic Constant Matrix: (Units=GPa)
#
#
# Indices 1 2 3 4 5 6 
#
# 1 70.5133 56.2656 40.3243 0.0000 6.0752 0.0000
# 2 56.2656 152.6214 39.4936 0.0000 14.0736 0.0000
# 3 40.3243 39.4936 142.8288 0.0000 -1.0152 0.0000
# 4 0.0000 0.0000 0.0000 31.6413 0.0000 3.0006
# 5 6.0752 14.0736 -1.0152 0.0000 25.2922 0.0000
# 6 0.0000 0.0000 0.0000 3.0006 0.0000 12.1393
#
#
#
# Elastic Compliance Matrix: (Units=1/GPa)
#
#
# Indices 1 2 3 4 5 6 
#
# 1 0.022406 -0.006963 -0.004413 0.000000 -0.001685 0.000000
# 2 -0.006963 0.009652 -0.000729 0.000000 -0.003727 0.000000
# 3 -0.004413 -0.000729 0.008462 0.000000 0.001805 0.000000
# 4 0.000000 0.000000 0.000000 0.032363 0.000000 -0.007999
# 5 -0.001685 -0.003727 0.001805 0.000000 0.042089 0.000000
# 6 0.000000 0.000000 0.000000 -0.007999 0.000000 0.084354
#
#
# Mechanical properties :
#
#
# Convention : Reuss Voigt Hill
#
# Bulk Modulus (GPa) = 61.31366 70.90340 66.10853
# Shear Modulus (GPa) = 21.83665 29.13990 25.48828
#
# Velocity S-wave (km/s) = 3.31885 3.83388 3.58563
# Velocity P-wave (km/s) = 6.75382 7.44064 7.10553
#
# Compressibility (1/GPa) = 0.01630958
#
# Stress axis : x y z
#
# Youngs Moduli (GPa) = 44.62992 103.60893 118.18003
#
# Poissons Ratio (x) = 0.72146 0.52147
# Poissons Ratio (y) = 0.31077 0.08620
# Poissons Ratio (z) = 0.19693 0.07557
#
# Static dielectric constant tensor:
#      x y z
#    x 3.196090 0.000000 -0.067000 
#    y 0.000000 4.513370 0.000000 
#    z -0.067000 0.000000 3.957230 
# 
# 
# High freq. dielectric constant tensor:
#      x y z
#    x 1.726920 0.000000 -0.006930 
#    y 0.000000 1.799560 0.000000 
#    z -0.006930 0.000000 1.804050 
# 
# From -- ./inp_files/1589.got.cif
#   From: 2010.03.12/outbox.cif.g09.slc.cpg/sg3_1_cif.got.tgz:1589.got - 2010.03.31 09:20:49.
