data_PCOD8044087
_publ_section_title
;
Structure prediction by ZEFSAII (Michael W. Deem and Ramdas Pophale) SiO2 
 PCOD8044087
Probable space group: P -1
;
_chemical_formula_sum "Si O2"
_cell_formula_units_Z 14
_cell_length_a 12.541152
_cell_length_b 8.919676
_cell_length_c 8.869078
_cell_angle_alpha 95.191231
_cell_angle_beta 133.686151
_cell_angle_gamma 77.822013
_cell_volume 699.149139
_symmetry_space_group_name_H-M "P -1"
_symmetry_group_IT_number 2
_symmetry_cell_setting 'triclinic'
loop_
_space_group_symop_operation_xyz
x,y,z
-x,-y,-z
loop_
_atom_site_type_symbol
_atom_site_label
_atom_site_fract_x
_atom_site_fract_y
_atom_site_fract_z
Si Si1 0.107478 0.338954 0.557987
Si Si2 0.762065 0.116870 0.739638
Si Si3 0.546713 0.660763 0.072655
Si Si4 0.996148 0.857903 0.799718
Si Si5 0.437398 0.923754 0.205312
Si Si6 0.355965 0.865582 0.673258
Si Si7 0.161934 0.038885 0.758601
O O1 0.276852 0.363644 0.728564
O O2 0.088584 0.212673 0.653716
O O3 0.000000 0.500000 0.500000
O O4 0.061121 0.285083 0.343006
O O5 0.607262 0.094535 0.666515
O O6 0.713710 0.211648 0.545211
O O7 0.857608 0.202679 0.955642
O O8 0.863614 0.950854 0.782402
O O9 0.457956 0.756816 0.131957
O O10 0.500000 0.500000 0.000000
O O11 0.494899 0.750174 0.874110
O O12 0.036625 0.965321 0.713462
O O13 0.588053 0.988400 0.332704
O O14 0.300330 0.043345 0.004947
O O15 0.223099 0.933491 0.664467
#
# Coordination Sequence:
#
# PCOD8044087 Si02
#       7
#     2   2   2   2   2   2   2
#     4  12  24  37  62  92 127 159 203 258 311 363
#     4  10  21  34  64  95 123 161 204 255 310 369
#     4  11  24  40  63  94 124 159 213 262 306 358
#     4  10  22  39  59  93 131 157 206 251 311 374
#     4  10  19  38  65  89 122 156 211 261 300 361
#     4  11  19  38  65  90 119 157 217 259 303 354
#     4  10  19  37  63  92 116 161 213 258 297 356
#
# _framework density 20.024339000000001
#
# number of rings (size 3 to 8) (size 9 to 14) (size 15 to 20)
#    0.000    1.429    4.286    1.714    6.000    0.000 
#    0.000    0.714    0.000   10.286    0.000    0.000 
#    0.000    0.000    0.000    0.000    0.000    0.000 
#
# Total GULP energy -173532.810719 kJ/mol
# GULP energy per Si atom -12395.200766 kJ/mol
# Density = 1.997876 g / cm^3
# Si number density = 20.024339 Si / 1000 Ang^3
#
#
#
# Elastic Constant Matrix: (Units=GPa)
#
#
# Indices 1 2 3 4 5 6 
#
# 1 99.8330 31.5870 41.1363 5.9310 -11.5914 -7.3973
# 2 31.5870 108.0590 45.3352 4.2069 1.5587 -5.6174
# 3 41.1363 45.3352 125.5252 8.9773 -3.4391 -5.9553
# 4 5.9310 4.2069 8.9773 30.2537 -0.2830 7.9680
# 5 -11.5914 1.5587 -3.4391 -0.2830 34.5049 3.1586
# 6 -7.3973 -5.6174 -5.9553 7.9680 3.1586 22.1694
#
#
#
# Elastic Compliance Matrix: (Units=1/GPa)
#
#
# Indices 1 2 3 4 5 6 
#
# 1 0.012754 -0.002304 -0.002948 -0.002083 0.003795 0.003088
# 2 -0.002304 0.011454 -0.003303 -0.000632 -0.001784 0.001727
# 3 -0.002948 -0.003303 0.010397 -0.002545 0.000002 0.001887
# 4 -0.002083 -0.000632 -0.002545 0.038381 0.000804 -0.015448
# 5 0.003795 -0.001784 0.000002 0.000804 0.030696 -0.003848
# 6 0.003088 0.001727 0.001887 -0.015448 -0.003848 0.053183
#
#
# Mechanical properties :
#
#
# Convention : Reuss Voigt Hill
#
# Bulk Modulus (GPa) = 57.16375 63.28156 60.22266
# Shear Modulus (GPa) = 27.80768 31.74286 29.77527
#
# Velocity S-wave (km/s) = 3.73056 3.98579 3.86029
# Velocity P-wave (km/s) = 6.86769 7.27001 7.07171
#
# Compressibility (1/GPa) = 0.01749360
#
# Stress axis : x y z
#
# Youngs Moduli (GPa) = 78.40885 87.30719 96.18037
#
# Poissons Ratio (x) = 0.20120 0.28352
# Poissons Ratio (y) = 0.18069 0.31770
# Poissons Ratio (z) = 0.23114 0.28839
#
# Static dielectric constant tensor:
#      x y z
#    x 3.759810 -0.039740 -0.003090 
#    y -0.039740 3.297180 0.060780 
#    z -0.003090 0.060780 4.216610 
# 
# 
# High freq. dielectric constant tensor:
#      x y z
#    x 1.784270 -0.013230 0.010020 
#    y -0.013230 1.731570 0.006770 
#    z 0.010020 0.006770 1.812780 
# 
# From -- ./inp_files/155259.got.cif
#   From: 2010.06.25/outbox.cif.g09.slc.cpg/sg2_78_cif.got.tgz:155259.got - 2010.06.27 13:26:56.
