data_PCOD8044085
_publ_section_title
;
Structure prediction by ZEFSAII (Michael W. Deem and Ramdas Pophale) SiO2 
 PCOD8044085
Probable space group: P -1
;
_chemical_formula_sum "Si O2"
_cell_formula_units_Z 14
_cell_length_a 12.550541
_cell_length_b 8.754580
_cell_length_c 21.505958
_cell_angle_alpha 139.763831
_cell_angle_beta 153.834078
_cell_angle_gamma 47.040878
_cell_volume 673.012931
_symmetry_space_group_name_H-M "P -1"
_symmetry_group_IT_number 2
_symmetry_cell_setting 'triclinic'
loop_
_space_group_symop_operation_xyz
x,y,z
-x,-y,-z
loop_
_atom_site_type_symbol
_atom_site_label
_atom_site_fract_x
_atom_site_fract_y
_atom_site_fract_z
Si Si1 0.662963 0.812322 0.843491
Si Si2 0.271857 0.086815 0.659662
Si Si3 0.593691 0.016324 0.438719
Si Si4 0.050614 0.154523 0.207161
Si Si5 0.328131 0.513360 0.650246
Si Si6 0.741940 0.505953 0.669026
Si Si7 0.879994 0.441007 0.316788
O O1 0.581309 0.621319 0.793360
O O2 0.728303 0.674597 0.772994
O O3 0.447939 0.000999 0.780172
O O4 0.902444 0.942114 0.032657
O O5 0.388718 0.985446 0.626809
O O6 0.272356 0.371482 0.744766
O O7 0.000000 0.000000 0.500000
O O8 0.674135 0.771024 0.434275
O O9 0.320933 0.065590 0.332351
O O10 0.775349 0.232055 0.623153
O O11 0.049213 0.386750 0.233457
O O12 0.933770 0.217753 0.232074
O O13 0.268462 0.636364 0.723311
O O14 0.126677 0.570785 0.510437
O O15 0.500000 0.500000 0.500000
#
# Coordination Sequence:
#
# PCOD8044085 Si02
#       7
#     2   2   2   2   2   2   2
#     4  12  23  37  65  92 128 154 199 250 314 354
#     4  11  20  37  65  90 115 163 204 255 288 355
#     4  10  22  39  66  89 121 158 208 247 299 354
#     4  11  23  39  62  94 126 157 195 256 305 361
#     4  10  22  41  62  91 116 165 204 248 295 361
#     4  10  19  37  63  92 112 155 204 254 283 352
#     4  10  22  40  62  85 124 160 210 244 292 358
#
# _framework density 20.801977999999998
#
# number of rings (size 3 to 8) (size 9 to 14) (size 15 to 20)
#    0.000    1.429    4.286    3.000    0.000    4.000 
#    0.000    0.000    0.000    0.000    0.000    0.000 
#    0.000    0.000    0.000    0.000    0.000    0.000 
#
# Total GULP energy -173549.911406 kJ/mol
# GULP energy per Si atom -12396.422243 kJ/mol
# Density = 2.075463 g / cm^3
# Si number density = 20.801978 Si / 1000 Ang^3
#
#
#
# Elastic Constant Matrix: (Units=GPa)
#
#
# Indices 1 2 3 4 5 6 
#
# 1 111.3856 34.5889 35.9347 18.9365 -17.2703 -7.0254
# 2 34.5889 84.8653 17.4256 13.9755 -3.1944 -0.5220
# 3 35.9347 17.4256 79.9535 27.6620 -4.5315 6.2398
# 4 18.9365 13.9755 27.6620 24.6766 -0.9318 2.6308
# 5 -17.2703 -3.1944 -4.5315 -0.9318 28.4003 13.4326
# 6 -7.0254 -0.5220 6.2398 2.6308 13.4326 33.5902
#
#
#
# Elastic Compliance Matrix: (Units=1/GPa)
#
#
# Indices 1 2 3 4 5 6 
#
# 1 0.012916 -0.003683 -0.003374 -0.003921 0.006266 0.001072
# 2 -0.003683 0.014100 0.000532 -0.005801 -0.000822 0.000133
# 3 -0.003374 0.000532 0.021903 -0.021716 0.002763 -0.004170
# 4 -0.003921 -0.005801 -0.021716 0.071124 -0.003713 -0.000962
# 5 0.006266 -0.000822 0.002763 -0.003713 0.047775 -0.018030
# 6 0.001072 0.000133 -0.004170 -0.000962 -0.018030 0.038057
#
#
# Mechanical properties :
#
#
# Convention : Reuss Voigt Hill
#
# Bulk Modulus (GPa) = 27.87916 50.23365 39.05640
# Shear Modulus (GPa) = 21.65605 29.88377 25.76991
#
# Velocity S-wave (km/s) = 3.23004 3.79434 3.52351
# Velocity P-wave (km/s) = 5.22897 6.58764 5.94723
#
# Compressibility (1/GPa) = 0.03586909
#
# Stress axis : x y z
#
# Youngs Moduli (GPa) = 77.42410 70.91955 45.65569
#
# Poissons Ratio (x) = 0.26121 0.15406
# Poissons Ratio (y) = 0.28517 -0.02431
# Poissons Ratio (z) = 0.26126 -0.03776
#
# Static dielectric constant tensor:
#      x y z
#    x 3.907820 0.074100 0.101890 
#    y 0.074100 4.030150 0.256000 
#    z 0.101890 0.256000 3.527720 
# 
# 
# High freq. dielectric constant tensor:
#      x y z
#    x 1.828530 -0.001090 0.004910 
#    y -0.001090 1.813530 0.015620 
#    z 0.004910 0.015620 1.778560 
# 
# From -- ./inp_files/154307.got.cif
#   From: 2010.06.25/outbox.cif.g09.slc.cpg/sg2_78_cif.got.tgz:154307.got - 2010.06.27 13:26:56.
