data_PCOD8044641
_publ_section_title
;
Structure prediction by ZEFSAII (Michael W. Deem and Ramdas Pophale) SiO2 
 PCOD8044641
Probable space group: P -1
;
_chemical_formula_sum "Si O2"
_cell_formula_units_Z 16
_cell_length_a 14.579737
_cell_length_b 9.097161
_cell_length_c 19.152430
_cell_angle_alpha 38.952199
_cell_angle_beta 32.074208
_cell_angle_gamma 40.805852
_cell_volume 810.699304
_symmetry_space_group_name_H-M "P -1"
_symmetry_group_IT_number 2
_symmetry_cell_setting 'triclinic'
loop_
_space_group_symop_operation_xyz
x,y,z
-x,-y,-z
loop_
_atom_site_type_symbol
_atom_site_label
_atom_site_fract_x
_atom_site_fract_y
_atom_site_fract_z
Si Si1 0.350502 0.652335 0.592316
Si Si2 0.549465 0.509275 0.885308
Si Si3 0.997006 0.657198 0.874662
Si Si4 0.930917 0.203928 0.708558
Si Si5 0.678968 0.955410 0.639812
Si Si6 0.936923 0.364936 0.494052
Si Si7 0.606209 0.720093 0.047704
Si Si8 0.424438 0.622843 0.340435
O O1 0.500000 0.500000 0.500000
O O2 0.453140 0.627199 0.609908
O O3 0.177734 0.544861 0.752526
O O4 0.285773 0.924731 0.500986
O O5 0.738292 0.304332 0.831455
O O6 0.557369 0.781407 0.762189
O O7 0.404864 0.445907 0.950621
O O8 0.500000 0.500000 0.000000
O O9 0.011824 0.926337 0.785493
O O10 0.818211 0.680852 0.936640
O O11 0.000000 0.500000 0.000000
O O12 0.897339 0.224022 0.639683
O O13 0.064155 0.360413 0.587225
O O14 0.872467 0.789827 0.605409
O O15 0.578866 0.145280 0.693836
O O16 0.780004 0.385862 0.531475
O O17 0.516896 0.634291 0.203349
O O18 0.500000 0.000000 0.000000
#
# Coordination Sequence:
#
# PCOD8044641 Si02
#       8
#     2   2   2   2   2   2   2   2
#     4  10  23  42  61  90 130 169 208 262 316 377
#     4  11  23  41  63  94 129 162 210 271 325 373
#     4  12  23  41  65  91 131 174 213 258 323 384
#     4  10  21  37  61  90 125 160 203 265 318 367
#     4  10  22  39  65  91 127 168 204 267 323 369
#     4  10  19  38  64  91 121 155 214 264 312 369
#     4  12  23  39  65  94 124 167 216 261 313 392
#     4  11  21  39  63  94 123 163 215 259 315 384
#
# _framework density 19.736046000000002
#
# number of rings (size 3 to 8) (size 9 to 14) (size 15 to 20)
#    0.000    1.250    5.000    1.125    0.000    0.000 
#   11.250    1.250    0.000    3.750    0.000    0.000 
#    0.000    0.000    0.000    0.000    0.000    0.000 
#
# Total GULP energy -198363.172967 kJ/mol
# GULP energy per Si atom -12397.698310 kJ/mol
# Density = 1.969113 g / cm^3
# Si number density = 19.736046 Si / 1000 Ang^3
#
#
#
# Elastic Constant Matrix: (Units=GPa)
#
#
# Indices 1 2 3 4 5 6 
#
# 1 136.0672 51.9198 57.7000 -7.9340 -9.7347 -9.2506
# 2 51.9198 73.3868 42.7949 -4.9879 -7.4132 -2.0957
# 3 57.7000 42.7949 130.1585 -3.0766 2.4058 -5.8823
# 4 -7.9340 -4.9879 -3.0766 39.9943 -1.5159 0.4445
# 5 -9.7347 -7.4132 2.4058 -1.5159 38.0852 5.3995
# 6 -9.2506 -2.0957 -5.8823 0.4445 5.3995 33.8943
#
#
#
# Elastic Compliance Matrix: (Units=1/GPa)
#
#
# Indices 1 2 3 4 5 6 
#
# 1 0.011157 -0.005873 -0.002930 0.001298 0.001677 0.001889
# 2 -0.005873 0.020620 -0.004275 0.001211 0.003054 -0.001572
# 3 -0.002930 -0.004275 0.010474 -0.000413 -0.002421 0.001145
# 4 0.001298 0.001211 -0.000413 0.025445 0.001640 -0.000238
# 5 0.001677 0.003054 -0.002421 0.001640 0.028104 -0.004272
# 6 0.001889 -0.001572 0.001145 -0.000238 -0.004272 0.030804
#
#
# Mechanical properties :
#
#
# Convention : Reuss Voigt Hill
#
# Bulk Modulus (GPa) = 62.12997 71.60464 66.86731
# Shear Modulus (GPa) = 31.62036 34.87463 33.24750
#
# Velocity S-wave (km/s) = 4.00705 4.20819 4.10885
# Velocity P-wave (km/s) = 7.27718 7.74414 7.51429
#
# Compressibility (1/GPa) = 0.01609529
#
# Stress axis : x y z
#
# Youngs Moduli (GPa) = 89.63064 48.49557 95.47379
#
# Poissons Ratio (x) = 0.28482 0.27972
# Poissons Ratio (y) = 0.52642 0.40816
# Poissons Ratio (z) = 0.26260 0.20732
#
# Static dielectric constant tensor:
#      x y z
#    x 3.881000 -0.360380 0.071840 
#    y -0.360380 3.915280 -0.130680 
#    z 0.071840 -0.130680 3.908960 
# 
# 
# High freq. dielectric constant tensor:
#      x y z
#    x 1.756400 -0.011510 -0.000990 
#    y -0.011510 1.764400 0.005440 
#    z -0.000990 0.005440 1.785960 
# 
# From -- ./inp_files/175208.got.cif
#   From: 2010.06.25/outbox.cif.g09.slc.cpg/sg2_88_cif.got.tgz:175208.got - 2010.06.27 13:26:56.
