data_PCOD8044752
_publ_section_title
;
Structure prediction by ZEFSAII (Michael W. Deem and Ramdas Pophale) SiO2 
 PCOD8044752
Probable space group: P -1
;
_chemical_formula_sum "Si O2"
_cell_formula_units_Z 12
_cell_length_a 8.643527
_cell_length_b 9.039112
_cell_length_c 14.398440
_cell_angle_alpha 50.235696
_cell_angle_beta 42.684975
_cell_angle_gamma 52.576787
_cell_volume 565.479482
_symmetry_space_group_name_H-M "P -1"
_symmetry_group_IT_number 2
_symmetry_cell_setting 'triclinic'
loop_
_space_group_symop_operation_xyz
x,y,z
-x,-y,-z
loop_
_atom_site_type_symbol
_atom_site_label
_atom_site_fract_x
_atom_site_fract_y
_atom_site_fract_z
Si Si1 0.965855 0.203596 0.082165
Si Si2 0.483140 0.177030 0.365849
Si Si3 0.372774 0.858233 0.060703
Si Si4 0.229483 0.575835 0.384110
Si Si5 0.970509 0.786811 0.575369
Si Si6 0.859757 0.629110 0.878525
O O1 0.722881 0.139567 0.217003
O O2 0.035803 0.257145 0.133409
O O3 0.942831 0.391261 0.950035
O O4 0.163513 0.009355 0.033572
O O5 0.453949 0.383582 0.353948
O O6 0.269072 0.193594 0.383320
O O7 0.500000 0.000000 0.500000
O O8 0.250170 0.738586 0.233782
O O9 0.571087 0.705519 0.972621
O O10 0.500000 0.000000 0.000000
O O11 0.000000 0.500000 0.500000
O O12 0.202442 0.674507 0.458506
O O13 0.967200 0.664220 0.719134
O O14 0.000000 0.000000 0.500000
#
# Coordination Sequence:
#
# PCOD8044752 Si02
#       6
#     2   2   2   2   2   2
#     4  10  20  38  64  92 125 173 214 255 325 395
#     4  11  22  41  66  93 130 175 219 264 325 398
#     4  10  19  38  66  91 126 172 213 258 330 393
#     4  10  21  40  65  91 128 175 211 262 332 390
#     4  11  23  42  64  97 133 167 216 278 325 378
#     4  10  21  39  63  92 130 165 214 267 319 384
#
# _framework density 21.220928000000001
#
# number of rings (size 3 to 8) (size 9 to 14) (size 15 to 20)
#    0.000    1.667    1.667    5.000    0.000    0.667 
#    3.000    2.500    0.000    0.000    0.000    0.000 
#    0.000    0.000    0.000    0.000    0.000    0.000 
#
# Total GULP energy -148763.309396 kJ/mol
# GULP energy per Si atom -12396.942450 kJ/mol
# Density = 2.117263 g / cm^3
# Si number density = 21.220928 Si / 1000 Ang^3
#
#
#
# Elastic Constant Matrix: (Units=GPa)
#
#
# Indices 1 2 3 4 5 6 
#
# 1 59.1396 38.3318 27.8499 -5.6704 3.7320 -12.7719
# 2 38.3318 159.8179 55.7137 -7.0282 10.3420 -24.6193
# 3 27.8499 55.7137 125.8692 -19.7610 7.8948 -7.7318
# 4 -5.6704 -7.0282 -19.7610 44.0676 -5.5164 0.1018
# 5 3.7320 10.3420 7.8948 -5.5164 40.0913 -2.0634
# 6 -12.7719 -24.6193 -7.7318 0.1018 -2.0634 36.4918
#
#
#
# Elastic Compliance Matrix: (Units=1/GPa)
#
#
# Indices 1 2 3 4 5 6 
#
# 1 0.021552 -0.003423 -0.002811 0.000931 -0.000204 0.004624
# 2 -0.003423 0.008759 -0.002872 -0.000495 -0.001236 0.004034
# 3 -0.002811 -0.002872 0.010421 0.003784 -0.000568 -0.000756
# 4 0.000931 -0.000495 0.003784 0.024772 0.002750 0.000880
# 5 -0.000204 -0.001236 -0.000568 0.002750 0.025793 0.000425
# 6 0.004624 0.004034 -0.000756 0.000880 0.000425 0.031605
#
#
# Mechanical properties :
#
#
# Convention : Reuss Voigt Hill
#
# Bulk Modulus (GPa) = 44.40310 65.40194 54.90252
# Shear Modulus (GPa) = 33.64275 38.99224 36.31749
#
# Velocity S-wave (km/s) = 3.98597 4.29119 4.14139
# Velocity P-wave (km/s) = 6.49258 7.44573 6.98543
#
# Compressibility (1/GPa) = 0.02252095
#
# Stress axis : x y z
#
# Youngs Moduli (GPa) = 46.39938 114.16850 95.95857
#
# Poissons Ratio (x) = 0.39079 0.26970
# Poissons Ratio (y) = 0.15882 0.27560
# Poissons Ratio (z) = 0.13041 0.32790
#
# Static dielectric constant tensor:
#      x y z
#    x 3.702520 -0.182580 -0.094370 
#    y -0.182580 5.085300 0.379600 
#    z -0.094370 0.379600 4.055880 
# 
# 
# High freq. dielectric constant tensor:
#      x y z
#    x 1.802080 -0.013260 -0.013770 
#    y -0.013260 1.849790 -0.008340 
#    z -0.013770 -0.008340 1.846120 
# 
# From -- ./inp_files/153151.got.cif
#   From: 2010.06.25/outbox.cif.g09.slc.cpg/sg2_77_cif.got.tgz:153151.got - 2010.06.27 13:26:56.
