data_PCOD8044783
_publ_section_title
;
Structure prediction by ZEFSAII (Michael W. Deem and Ramdas Pophale) SiO2 
 PCOD8044783
Probable space group: P -1
;
_chemical_formula_sum "Si O2"
_cell_formula_units_Z 16
_cell_length_a 8.393235
_cell_length_b 25.101196
_cell_length_c 25.180945
_cell_angle_alpha 10.888347
_cell_angle_beta 43.451767
_cell_angle_gamma 43.546799
_cell_volume 686.287930
_symmetry_space_group_name_H-M "P -1"
_symmetry_group_IT_number 2
_symmetry_cell_setting 'triclinic'
loop_
_space_group_symop_operation_xyz
x,y,z
-x,-y,-z
loop_
_atom_site_type_symbol
_atom_site_label
_atom_site_fract_x
_atom_site_fract_y
_atom_site_fract_z
Si Si1 0.103799 0.361103 0.164373
Si Si2 0.772574 0.959029 0.277538
Si Si3 0.249218 0.233473 0.011128
Si Si4 0.702673 0.289679 0.797213
Si Si5 0.399669 0.837836 0.633932
Si Si6 0.062578 0.216735 0.700000
Si Si7 0.192719 0.486327 0.213421
Si Si8 0.695972 0.246106 0.450859
O O1 0.914442 0.228133 0.376461
O O2 0.286105 0.084266 0.380543
O O3 0.220663 0.618419 0.913658
O O4 0.000000 0.500000 0.000000
O O5 0.945131 0.906452 0.236984
O O6 0.895393 0.774722 0.476430
O O7 0.519964 0.862352 0.421150
O O8 0.738157 0.285570 0.983285
O O9 0.237050 0.928771 0.339785
O O10 0.429350 0.234441 0.916774
O O11 0.356215 0.426123 0.841664
O O12 0.998659 0.368099 0.922103
O O13 0.754217 0.547505 0.571226
O O14 0.803716 0.333940 0.669515
O O15 0.841495 0.019475 0.052116
O O16 0.589406 0.637497 0.752463
O O17 0.500000 0.000000 0.500000
#
# Coordination Sequence:
#
# PCOD8044783 Si02
#       8
#     2   2   2   2   2   2   2   2
#     4  12  27  48  73 104 135 173 228 295 351 402
#     4  12  23  45  65 103 138 182 221 284 353 404
#     4  12  23  45  66 103 134 183 230 283 330 403
#     4  10  19  38  67 103 134 175 232 283 324 396
#     4  12  27  51  72  97 136 188 231 275 352 422
#     4  10  20  37  68 102 135 176 227 281 335 399
#     4  12  28  43  68  97 143 179 223 284 351 414
#     4  12  25  43  73  97 131 177 238 281 336 409
#
# _framework density 23.313828999999998
#
# number of rings (size 3 to 8) (size 9 to 14) (size 15 to 20)
#    0.000    0.500    2.500    6.000    0.000    4.000 
#    0.000    3.750    0.000    0.000    0.000    0.000 
#    0.000    0.000    0.000    0.000    0.000    0.000 
#
# Total GULP energy -198345.370331 kJ/mol
# GULP energy per Si atom -12396.585646 kJ/mol
# Density = 2.326077 g / cm^3
# Si number density = 23.313829 Si / 1000 Ang^3
#
#
#
# Elastic Constant Matrix: (Units=GPa)
#
#
# Indices 1 2 3 4 5 6 
#
# 1 64.7701 45.7113 17.1637 3.4643 4.5548 -1.3804
# 2 45.7113 140.5369 38.0276 4.3967 -7.0422 10.2023
# 3 17.1637 38.0276 111.2176 -0.9362 -0.2059 2.1041
# 4 3.4643 4.3967 -0.9362 42.3870 6.8572 -2.7718
# 5 4.5548 -7.0422 -0.2059 6.8572 40.0106 -7.4580
# 6 -1.3804 10.2023 2.1041 -2.7718 -7.4580 36.4260
#
#
#
# Elastic Compliance Matrix: (Units=1/GPa)
#
#
# Indices 1 2 3 4 5 6 
#
# 1 0.020767 -0.006799 -0.000928 -0.000373 -0.003114 0.002079
# 2 -0.006799 0.010326 -0.002437 -0.001110 0.002279 -0.002627
# 3 -0.000928 -0.002437 0.009972 0.000611 -0.000369 0.000042
# 4 -0.000373 -0.001110 0.000611 0.024500 -0.004109 0.001284
# 5 -0.003114 0.002279 -0.000369 -0.004109 0.027298 0.004541
# 6 0.002079 -0.002627 0.000042 0.001284 0.004541 0.029292
#
#
# Mechanical properties :
#
#
# Convention : Reuss Voigt Hill
#
# Bulk Modulus (GPa) = 48.22498 57.59222 52.90860
# Shear Modulus (GPa) = 33.46840 38.13951 35.80395
#
# Velocity S-wave (km/s) = 3.79299 4.04904 3.92310
# Velocity P-wave (km/s) = 6.31763 6.82761 6.57756
#
# Compressibility (1/GPa) = 0.02073614
#
# Stress axis : x y z
#
# Youngs Moduli (GPa) = 48.15413 96.84344 100.28534
#
# Poissons Ratio (x) = 0.65841 0.09311
# Poissons Ratio (y) = 0.32738 0.24438
# Poissons Ratio (z) = 0.04471 0.23600
#
# Static dielectric constant tensor:
#      x y z
#    x 3.948400 -0.041090 -0.023080 
#    y -0.041090 4.571730 0.025460 
#    z -0.023080 0.025460 4.621790 
# 
# 
# High freq. dielectric constant tensor:
#      x y z
#    x 1.891090 0.000360 -0.001280 
#    y 0.000360 1.932280 -0.003690 
#    z -0.001280 -0.003690 1.952630 
# 
# From -- ./inp_files/617670.got.cif
#   From: 2010.06.25/outbox.cif.g09.slc.cpg/sg2_309_cif.got.tgz:617670.got - 2010.06.27 13:26:56.
