data_PCOD8044836
_publ_section_title
;
Structure prediction by ZEFSAII (Michael W. Deem and Ramdas Pophale) SiO2 
 PCOD8044836
Probable space group: P 2
;
_chemical_formula_sum "Si O2"
_cell_formula_units_Z 11
_cell_length_a 10.193564
_cell_length_b 5.112315
_cell_length_c 12.244929
_cell_angle_alpha 90.000000
_cell_angle_beta 105.653761
_cell_angle_gamma 90.000000
_cell_volume 614.448578
_symmetry_space_group_name_H-M "P 2"
_symmetry_group_IT_number 3
_symmetry_cell_setting 'monoclinic'
loop_
_space_group_symop_operation_xyz
x,y,z
-x,y,-z
loop_
_atom_site_type_symbol
_atom_site_label
_atom_site_fract_x
_atom_site_fract_y
_atom_site_fract_z
Si Si1 0.590634 0.239960 0.344374
Si Si2 0.779471 0.774409 0.628865
Si Si3 0.624111 0.908317 0.796213
Si Si4 0.500000 0.624637 0.500000
Si Si5 0.134596 0.261503 0.463977
Si Si6 0.539464 0.399018 0.884810
O O1 0.494773 0.432720 0.393778
O O2 0.742514 0.223155 0.423240
O O3 0.594800 0.362201 0.222242
O O4 0.508469 0.959934 0.314949
O O5 0.754018 0.825878 0.751753
O O6 0.635513 0.802900 0.531810
O O7 0.839858 0.488251 0.618971
O O8 0.882920 0.992168 0.606280
O O9 0.600291 0.685898 0.880895
O O10 0.649262 0.177184 0.869912
O O11 0.000000 0.329139 0.500000
O O12 0.500000 0.355066 0.000000
#
# Coordination Sequence:
#
# PCOD8044836 Si02
#       6
#     2   2   2   1   2   2
#     4   9  20  31  52  75 108 130 169 200 261 304
#     4  11  19  33  50  74 104 135 168 210 248 310
#     4  10  18  33  51  78  98 134 165 211 265 294
#     4  10  16  32  50  82 100 134 162 214 260 308
#     4  11  23  33  48  74 109 144 170 198 246 304
#     4  10  20  32  49  79 108 129 162 211 269 309
#
# _framework density 17.902229999999999
#
# number of rings (size 3 to 8) (size 9 to 14) (size 15 to 20)
#    1.091    0.727    1.818    5.455    2.545    0.727 
#    0.000    0.000    0.000    0.000    0.000    7.636 
#    0.000    0.000    0.000    0.000    0.000    0.000 
#
# Total GULP energy -136291.674459 kJ/mol
# GULP energy per Si atom -12390.152224 kJ/mol
# Density = 1.786148 g / cm^3
# Si number density = 17.902230 Si / 1000 Ang^3
#
#
#
# Elastic Constant Matrix: (Units=GPa)
#
#
# Indices 1 2 3 4 5 6 
#
# 1 76.2288 26.4589 23.6983 0.0000 -19.7151 0.0000
# 2 26.4589 116.9104 27.0216 0.0000 -14.7132 0.0000
# 3 23.6983 27.0216 93.5644 0.0000 -31.2957 0.0000
# 4 0.0000 0.0000 0.0000 26.6573 0.0000 -12.7415
# 5 -19.7151 -14.7132 -31.2957 0.0000 22.7384 0.0000
# 6 0.0000 0.0000 0.0000 -12.7415 0.0000 24.0856
#
#
#
# Elastic Compliance Matrix: (Units=1/GPa)
#
#
# Indices 1 2 3 4 5 6 
#
# 1 0.017539 -0.002333 0.001506 0.000000 0.015771 0.000000
# 2 -0.002333 0.009702 -0.001460 0.000000 0.002246 0.000000
# 3 0.001506 -0.001460 0.020104 0.000000 0.028031 0.000000
# 4 0.000000 0.000000 0.000000 0.050209 0.000000 0.026561
# 5 0.015771 0.002246 0.028031 0.000000 0.097686 0.000000
# 6 0.000000 0.000000 0.000000 0.026561 0.000000 0.055570
#
#
# Mechanical properties :
#
#
# Convention : Reuss Voigt Hill
#
# Bulk Modulus (GPa) = 23.37991 49.00682 36.19336
# Shear Modulus (GPa) = 18.54341 28.66458 23.60399
#
# Velocity S-wave (km/s) = 3.22190 4.00581 3.63505
# Velocity P-wave (km/s) = 5.18931 6.98781 6.15461
#
# Compressibility (1/GPa) = 0.04277177
#
# Stress axis : x y z
#
# Youngs Moduli (GPa) = 57.01735 103.07646 49.74168
#
# Poissons Ratio (x) = 0.24045 -0.07494
# Poissons Ratio (y) = 0.13301 0.07261
# Poissons Ratio (z) = -0.08590 0.15047
#
# Static dielectric constant tensor:
#      x y z
#    x 2.898840 0.000000 -0.240100 
#    y 0.000000 3.474810 0.000000 
#    z -0.240100 0.000000 3.047920 
# 
# 
# High freq. dielectric constant tensor:
#      x y z
#    x 1.643460 0.000000 -0.038250 
#    y 0.000000 1.719740 0.000000 
#    z -0.038250 0.000000 1.667030 
# 
# From -- ./inp_files/13140.got.cif
#   From: 2010.03.12/outbox.cif.g09.slc.cpg/sg3_7_cif.got.tgz:13140.got - 2010.03.31 09:20:49.
