data_PCOD8044142
_publ_section_title
;
Structure prediction by ZEFSAII (Michael W. Deem and Ramdas Pophale) SiO2 
 PCOD8044142
Probable space group: P -1
;
_chemical_formula_sum "Si O2"
_cell_formula_units_Z 16
_cell_length_a 7.640789
_cell_length_b 8.687320
_cell_length_c 11.899562
_cell_angle_alpha 84.033806
_cell_angle_beta 107.782583
_cell_angle_gamma 81.462781
_cell_volume 734.391360
_symmetry_space_group_name_H-M "P -1"
_symmetry_group_IT_number 2
_symmetry_cell_setting 'triclinic'
loop_
_space_group_symop_operation_xyz
x,y,z
-x,-y,-z
loop_
_atom_site_type_symbol
_atom_site_label
_atom_site_fract_x
_atom_site_fract_y
_atom_site_fract_z
Si Si1 0.065045 0.843812 0.453528
Si Si2 0.527634 0.166788 0.535537
Si Si3 0.123206 0.303363 0.391460
Si Si4 0.258747 0.410578 0.020821
Si Si5 0.087110 0.551807 0.189420
Si Si6 0.009810 0.951110 0.773263
Si Si7 0.643614 0.252947 0.028497
Si Si8 0.298271 0.830200 0.200027
O O1 0.289959 0.790210 0.492814
O O2 0.983455 0.703988 0.509465
O O3 0.000000 0.000000 0.500000
O O4 0.978857 0.889821 0.308978
O O5 0.344086 0.293030 0.456986
O O6 0.547596 0.158350 0.675622
O O7 0.500000 0.000000 0.500000
O O8 0.048686 0.471959 0.305899
O O9 0.083206 0.165164 0.312945
O O10 0.187723 0.412225 0.135060
O O11 0.278103 0.586934 0.977033
O O12 0.449245 0.283673 0.055663
O O13 0.106678 0.359953 0.911175
O O14 0.220389 0.673857 0.226781
O O15 0.212439 0.873122 0.863312
O O16 0.866641 0.013372 0.842099
O O17 0.610667 0.183519 0.904684
#
# Coordination Sequence:
#
# PCOD8044142 Si02
#       8
#     2   2   2   2   2   2   2   2
#     4   9  19  35  58  93 119 156 215 258 292 376
#     4  11  20  40  62  88 126 170 206 259 318 367
#     4  11  21  39  67  88 118 178 214 248 319 379
#     4   9  20  39  62  91 126 162 209 259 312 390
#     4  10  21  40  63  89 127 170 206 255 326 367
#     4  10  19  37  64  91 125 166 201 261 317 370
#     4  10  19  38  64  94 121 164 213 258 316 376
#     4  10  22  39  61  92 134 159 206 269 306 380
#
# _framework density 21.786750000000001
#
# number of rings (size 3 to 8) (size 9 to 14) (size 15 to 20)
#    0.000    2.000    5.000    0.375    0.000    2.500 
#    6.750    3.125    0.000    0.000    0.000    0.000 
#    0.000    0.000    0.000    0.000    0.000    0.000 
#
# Total GULP energy -198347.541125 kJ/mol
# GULP energy per Si atom -12396.721320 kJ/mol
# Density = 2.173716 g / cm^3
# Si number density = 21.786750 Si / 1000 Ang^3
#
#
#
# Elastic Constant Matrix: (Units=GPa)
#
#
# Indices 1 2 3 4 5 6 
#
# 1 118.1297 14.3081 50.1586 -7.5869 6.9883 -13.8064
# 2 14.3081 32.5101 29.7291 -2.0109 12.7330 -5.8169
# 3 50.1586 29.7291 121.2713 0.4774 18.9587 -0.2519
# 4 -7.5869 -2.0109 0.4774 34.6821 2.3673 -2.7934
# 5 6.9883 12.7330 18.9587 2.3673 32.2735 -2.4959
# 6 -13.8064 -5.8169 -0.2519 -2.7934 -2.4959 28.3397
#
#
#
# Elastic Compliance Matrix: (Units=1/GPa)
#
#
# Indices 1 2 3 4 5 6 
#
# 1 0.011338 0.000566 -0.004895 0.003029 0.000434 0.005933
# 2 0.000566 0.045961 -0.009583 0.004481 -0.012260 0.008986
# 3 -0.004895 -0.009583 0.013098 -0.001976 -0.003072 -0.004701
# 4 0.003029 0.004481 -0.001976 0.030405 -0.003099 0.005102
# 5 0.000434 -0.012260 -0.003072 -0.003099 0.037814 0.000693
# 6 0.005933 0.008986 -0.004701 0.005102 0.000693 0.040543
#
#
# Mechanical properties :
#
#
# Convention : Reuss Voigt Hill
#
# Bulk Modulus (GPa) = 23.49040 51.14474 37.31757
# Shear Modulus (GPa) = 22.60644 30.90674 26.75659
#
# Velocity S-wave (km/s) = 3.22471 3.77052 3.50825
# Velocity P-wave (km/s) = 4.96693 6.51781 5.79449
#
# Compressibility (1/GPa) = 0.04257059
#
# Stress axis : x y z
#
# Youngs Moduli (GPa) = 88.20202 21.75747 76.34519
#
# Poissons Ratio (x) = -0.01231 0.37375
# Poissons Ratio (y) = -0.04989 0.73165
# Poissons Ratio (z) = 0.43179 0.20851
#
# Static dielectric constant tensor:
#      x y z
#    x 4.245000 -0.121870 -0.170470 
#    y -0.121870 3.780570 -0.000060 
#    z -0.170470 -0.000060 4.339480 
# 
# 
# High freq. dielectric constant tensor:
#      x y z
#    x 1.849980 -0.008550 -0.001790 
#    y -0.008550 1.836990 0.008030 
#    z -0.001790 0.008030 1.860430 
# 
# From -- ./inp_files/382058.got.cif
#   From: 2010.06.25/outbox.cif.g09.slc.cpg/sg2_192_cif.got.tgz:382058.got - 2010.06.27 13:26:56.
