data_PCOD8044962
_publ_section_title
;
Structure prediction by ZEFSAII (Michael W. Deem and Ramdas Pophale) SiO2 
 PCOD8044962
Probable space group: P 2
;
_chemical_formula_sum "Si O2"
_cell_formula_units_Z 16
_cell_length_a 18.809681
_cell_length_b 5.104058
_cell_length_c 8.424598
_cell_angle_alpha 90.000000
_cell_angle_beta 109.060099
_cell_angle_gamma 90.000000
_cell_volume 764.467734
_symmetry_space_group_name_H-M "P 2"
_symmetry_group_IT_number 3
_symmetry_cell_setting 'monoclinic'
loop_
_space_group_symop_operation_xyz
x,y,z
-x,y,-z
loop_
_atom_site_type_symbol
_atom_site_label
_atom_site_fract_x
_atom_site_fract_y
_atom_site_fract_z
Si Si1 0.164129 0.741640 0.751890
Si Si2 0.417705 0.638774 0.003265
Si Si3 0.635549 0.162912 0.871044
Si Si4 0.088137 0.232617 0.572790
Si Si5 0.317291 0.861566 0.365252
Si Si6 0.767594 0.486745 0.900711
Si Si7 0.302376 0.597260 0.656676
Si Si8 0.802149 0.229262 0.618358
O O1 0.107528 0.524248 0.641919
O O2 0.238449 0.769354 0.697820
O O3 0.122755 0.021891 0.721388
O O4 0.183597 0.662854 0.946039
O O5 0.364530 0.510499 0.828959
O O6 0.500000 0.697429 0.000000
O O7 0.420322 0.407718 0.137343
O O8 0.383410 0.915306 0.032641
O O9 0.629143 0.080285 0.678189
O O10 0.724250 0.248137 0.961947
O O11 0.120898 0.181375 0.419977
O O12 0.000000 0.193050 0.500000
O O13 0.232684 0.958350 0.346045
O O14 0.304758 0.642559 0.221276
O O15 0.349462 0.756520 0.555588
O O16 0.819231 0.399830 0.789384
O O17 0.261525 0.353223 0.543529
#
# Coordination Sequence:
#
# PCOD8044962 Si02
#       8
#     2   2   2   2   2   2   2   2
#     4  11  22  38  67  94 118 168 219 263 306 377
#     4  12  26  42  65  92 132 166 209 265 325 382
#     4  11  22  41  63  89 125 162 206 263 321 371
#     4  11  24  42  62  92 134 168 208 260 326 382
#     4  10  19  37  66  92 124 158 210 275 308 368
#     4  10  21  37  67  96 124 157 223 272 313 362
#     4  10  21  37  63  97 117 161 220 261 307 376
#     4   9  21  36  64  93 124 163 211 267 315 372
#
# _framework density 20.929594999999999
#
# number of rings (size 3 to 8) (size 9 to 14) (size 15 to 20)
#    0.000    1.500    3.750    0.750    7.000    0.000 
#    0.000    1.250    5.500    0.000    0.000    0.000 
#    0.000    0.000    0.000    0.000    0.000    0.000 
#
# Total GULP energy -198283.315758 kJ/mol
# GULP energy per Si atom -12392.707235 kJ/mol
# Density = 2.088196 g / cm^3
# Si number density = 20.929595 Si / 1000 Ang^3
#
#
#
# Elastic Constant Matrix: (Units=GPa)
#
#
# Indices 1 2 3 4 5 6 
#
# 1 126.2053 38.6528 49.9561 0.0000 -9.6392 0.0000
# 2 38.6528 90.2973 21.7870 0.0000 -11.8093 0.0000
# 3 49.9561 21.7870 71.8680 0.0000 -11.6791 0.0000
# 4 0.0000 0.0000 0.0000 21.2555 0.0000 -3.5534
# 5 -9.6392 -11.8093 -11.6791 0.0000 26.4449 0.0000
# 6 0.0000 0.0000 0.0000 -3.5534 0.0000 29.4096
#
#
#
# Elastic Compliance Matrix: (Units=1/GPa)
#
#
# Indices 1 2 3 4 5 6 
#
# 1 0.011786 -0.003350 -0.007241 0.000000 -0.000398 0.000000
# 2 -0.003350 0.013312 -0.001012 0.000000 0.004277 0.000000
# 3 -0.007241 -0.001012 0.020202 0.000000 0.005831 0.000000
# 4 0.000000 0.000000 0.000000 0.048017 0.000000 0.005802
# 5 -0.000398 0.004277 0.005831 0.000000 0.042154 0.000000
# 6 0.000000 0.000000 0.000000 0.005802 0.000000 0.034703
#
#
# Mechanical properties :
#
#
# Convention : Reuss Voigt Hill
#
# Bulk Modulus (GPa) = 45.26286 56.57358 50.91822
# Shear Modulus (GPa) = 24.90723 27.28699 26.09711
#
# Velocity S-wave (km/s) = 3.45345 3.61467 3.53498
# Velocity P-wave (km/s) = 6.12984 6.67160 6.40645
#
# Compressibility (1/GPa) = 0.02209317
#
# Stress axis : x y z
#
# Youngs Moduli (GPa) = 84.85002 75.12049 49.49927
#
# Poissons Ratio (x) = 0.25164 0.35844
# Poissons Ratio (y) = 0.28423 0.05010
# Poissons Ratio (z) = 0.61443 0.07603
#
# Static dielectric constant tensor:
#      x y z
#    x 3.698760 0.000000 -0.477210 
#    y 0.000000 3.937310 0.000000 
#    z -0.477210 0.000000 3.688730 
# 
# 
# High freq. dielectric constant tensor:
#      x y z
#    x 1.795980 0.000000 -0.043220 
#    y 0.000000 1.836030 0.000000 
#    z -0.043220 0.000000 1.798000 
# 
# From -- ./inp_files/8916.got.cif
#   From: 2010.03.12/outbox.cif.g09.slc.cpg/sg3_5_cif.got.tgz:8916.got - 2010.03.31 09:20:49.
