data_PCOD8044255
_publ_section_title
;
Structure prediction by ZEFSAII (Michael W. Deem and Ramdas Pophale) SiO2 
 PCOD8044255
Probable space group: P -1
;
_chemical_formula_sum "Si O2"
_cell_formula_units_Z 14
_cell_length_a 12.523268
_cell_length_b 15.617790
_cell_length_c 12.102723
_cell_angle_alpha 144.270665
_cell_angle_beta 44.106961
_cell_angle_gamma 153.906307
_cell_volume 607.431562
_symmetry_space_group_name_H-M "P -1"
_symmetry_group_IT_number 2
_symmetry_cell_setting 'triclinic'
loop_
_space_group_symop_operation_xyz
x,y,z
-x,-y,-z
loop_
_atom_site_type_symbol
_atom_site_label
_atom_site_fract_x
_atom_site_fract_y
_atom_site_fract_z
Si Si1 0.397620 0.059542 0.373270
Si Si2 0.923790 0.042013 0.999733
Si Si3 0.356421 0.554345 0.251092
Si Si4 0.258777 0.641589 0.999369
Si Si5 0.472992 0.679500 0.657294
Si Si6 0.094546 0.166322 0.411516
Si Si7 0.546867 0.392648 0.011119
O O1 0.607889 0.272965 0.523988
O O2 0.484843 0.156200 0.285421
O O3 0.385348 0.877323 0.206569
O O4 0.140489 0.946275 0.470365
O O5 0.994105 0.017042 0.805910
O O6 0.636956 0.842766 0.022024
O O7 0.000000 0.000000 0.000000
O O8 0.074533 0.305350 0.174284
O O9 0.474726 0.673686 0.168826
O O10 0.494596 0.527918 0.190852
O O11 0.218156 0.485731 0.964127
O O12 0.417218 0.697381 0.839247
O O13 0.000000 0.500000 0.000000
O O14 0.248782 0.413539 0.500153
O O15 0.722678 0.771011 0.570247
#
# Coordination Sequence:
#
# PCOD8044255 Si02
#       7
#     2   2   2   2   2   2   2
#     4  12  25  41  66 101 136 172 222 274 336 401
#     4  10  19  37  66  98 130 163 220 279 324 376
#     4  10  23  41  70 103 123 175 231 280 318 389
#     4  12  26  47  66  97 145 180 210 275 349 397
#     4  11  24  43  66  96 134 180 229 270 325 399
#     4  11  22  39  69 100 125 178 228 279 320 381
#     4  10  21  44  69  95 137 171 224 276 330 391
#
# _framework density 23.047865000000002
#
# number of rings (size 3 to 8) (size 9 to 14) (size 15 to 20)
#    0.000    1.143    2.857    5.143    2.000    2.857 
#    2.571    0.714    0.000    0.000    0.000    0.000 
#    0.000    0.000    0.000    0.000    0.000    0.000 
#
# Total GULP energy -173499.870344 kJ/mol
# GULP energy per Si atom -12392.847882 kJ/mol
# Density = 2.299541 g / cm^3
# Si number density = 23.047865 Si / 1000 Ang^3
#
#
#
# Elastic Constant Matrix: (Units=GPa)
#
#
# Indices 1 2 3 4 5 6 
#
# 1 100.7519 21.3952 19.7359 -4.7756 4.5089 -11.8108
# 2 21.3952 73.6715 31.5612 1.3535 2.7732 -5.3824
# 3 19.7359 31.5612 115.2361 17.8407 12.4182 -3.0234
# 4 -4.7756 1.3535 17.8407 38.2787 3.1056 6.3377
# 5 4.5089 2.7732 12.4182 3.1056 26.9117 -1.6136
# 6 -11.8108 -5.3824 -3.0234 6.3377 -1.6136 31.1267
#
#
#
# Elastic Compliance Matrix: (Units=1/GPa)
#
#
# Indices 1 2 3 4 5 6 
#
# 1 0.011212 -0.002446 -0.001306 0.001626 -0.001012 0.003321
# 2 -0.002446 0.016122 -0.004154 0.000788 0.000654 0.001330
# 3 -0.001306 -0.004154 0.011265 -0.005065 -0.003924 0.000708
# 4 0.001626 0.000788 -0.005065 0.029783 -0.001807 -0.005896
# 5 -0.001012 0.000654 -0.003924 -0.001807 0.039385 0.001757
# 6 0.003321 0.001330 0.000708 -0.005896 0.001757 0.034977
#
#
# Mechanical properties :
#
#
# Convention : Reuss Voigt Hill
#
# Bulk Modulus (GPa) = 43.88451 48.33822 46.11137
# Shear Modulus (GPa) = 30.09290 33.72790 31.91040
#
# Velocity S-wave (km/s) = 3.61733 3.82957 3.72496
# Velocity P-wave (km/s) = 6.04389 6.36967 6.20892
#
# Compressibility (1/GPa) = 0.02278708
#
# Stress axis : x y z
#
# Youngs Moduli (GPa) = 89.18791 62.02787 88.77130
#
# Poissons Ratio (x) = 0.15171 0.11593
# Poissons Ratio (y) = 0.21814 0.36877
# Poissons Ratio (z) = 0.11647 0.25767
#
# Static dielectric constant tensor:
#      x y z
#    x 3.607080 -0.949220 0.295050 
#    y -0.949220 1.894320 0.741620 
#    z 0.295050 0.741620 4.075140 
# 
# 
# High freq. dielectric constant tensor:
#      x y z
#    x 1.906200 -0.000720 0.019180 
#    y -0.000720 1.915060 0.007750 
#    z 0.019180 0.007750 1.902520 
# 
# From -- ./inp_files/433307.got.cif
#   From: 2010.06.25/outbox.cif.g09.slc.cpg/sg2_217_cif.got.tgz:433307.got - 2010.06.27 13:26:56.
