data_PCOD8044919
_publ_section_title
;
Structure prediction by ZEFSAII (Michael W. Deem and Ramdas Pophale) SiO2 
 PCOD8044919
Probable space group: P 2
;
_chemical_formula_sum "Si O2"
_cell_formula_units_Z 16
_cell_length_a 8.280809
_cell_length_b 9.431678
_cell_length_c 11.406399
_cell_angle_alpha 90.000000
_cell_angle_beta 123.765286
_cell_angle_gamma 90.000000
_cell_volume 740.592369
_symmetry_space_group_name_H-M "P 2"
_symmetry_group_IT_number 3
_symmetry_cell_setting 'monoclinic'
loop_
_space_group_symop_operation_xyz
x,y,z
-x,y,-z
loop_
_atom_site_type_symbol
_atom_site_label
_atom_site_fract_x
_atom_site_fract_y
_atom_site_fract_z
Si Si1 0.477344 0.589950 0.615140
Si Si2 0.993712 0.140456 0.860021
Si Si3 0.782615 0.822829 0.399455
Si Si4 0.171626 0.421452 0.141455
Si Si5 0.663151 0.004179 0.141563
Si Si6 0.282312 0.070263 0.446808
Si Si7 0.499090 0.284140 0.132787
Si Si8 0.213858 0.351328 0.558125
O O1 0.500000 0.670446 0.500000
O O2 0.375458 0.696604 0.665571
O O3 0.688326 0.538221 0.745400
O O4 0.332048 0.460125 0.523516
O O5 0.933443 0.307039 0.814506
O O6 0.837007 0.049883 0.722118
O O7 0.201031 0.102992 0.885959
O O8 0.000000 0.097014 0.000000
O O9 0.778870 0.899117 0.271709
O O10 0.000000 0.761468 0.500000
O O11 0.733042 0.927831 0.484877
O O12 0.288513 0.318035 0.100614
O O13 0.000000 0.501773 0.000000
O O14 0.537710 0.116709 0.165934
O O15 0.500000 0.918817 0.000000
O O16 0.500000 0.107565 0.500000
O O17 0.198333 0.197520 0.492563
O O18 0.667476 0.362653 0.272489
O O19 0.500000 0.338054 0.000000
O O20 0.000000 0.407633 0.500000
#
# Coordination Sequence:
#
# PCOD8044919 Si02
#       8
#     2   2   2   2   2   2   2   2
#     4  11  25  45  64  94 133 185 227 281 335 403
#     4  11  22  37  64 108 139 167 216 291 350 399
#     4  12  25  47  65  95 132 183 235 271 345 396
#     4  10  21  40  66  99 135 170 226 274 344 405
#     4  11  22  39  65  96 140 174 221 280 338 408
#     4  12  23  38  67 100 134 173 224 286 336 402
#     4  10  19  33  59  97 134 167 211 282 342 391
#     4  11  21  38  64  99 132 173 233 278 339 400
#
# _framework density 21.604330000000001
#
# number of rings (size 3 to 8) (size 9 to 14) (size 15 to 20)
#    0.000    1.000    2.500    7.500    1.750    1.000 
#    0.000    3.750    0.000    0.000    0.000    0.000 
#    0.000    0.000    0.000    0.000    0.000    0.000 
#
# Total GULP energy -198315.292022 kJ/mol
# GULP energy per Si atom -12394.705751 kJ/mol
# Density = 2.155516 g / cm^3
# Si number density = 21.604330 Si / 1000 Ang^3
#
#
#
# Elastic Constant Matrix: (Units=GPa)
#
#
# Indices 1 2 3 4 5 6 
#
# 1 99.5411 30.6211 60.7620 0.0000 18.9171 0.0000
# 2 30.6211 75.7435 37.0428 0.0000 0.9012 0.0000
# 3 60.7620 37.0428 136.3885 0.0000 16.4245 0.0000
# 4 0.0000 0.0000 0.0000 15.9635 0.0000 1.8769
# 5 18.9171 0.9012 16.4245 0.0000 44.6106 0.0000
# 6 0.0000 0.0000 0.0000 1.8769 0.0000 29.2693
#
#
#
# Elastic Compliance Matrix: (Units=1/GPa)
#
#
# Indices 1 2 3 4 5 6 
#
# 1 0.015190 -0.003505 -0.005282 0.000000 -0.004426 0.000000
# 2 -0.003505 0.016103 -0.003089 0.000000 0.002298 0.000000
# 3 -0.005282 -0.003089 0.010722 0.000000 -0.001645 0.000000
# 4 0.000000 0.000000 0.000000 0.063119 0.000000 -0.004048
# 5 -0.004426 0.002298 -0.001645 0.000000 0.024852 0.000000
# 6 0.000000 0.000000 0.000000 -0.004048 0.000000 0.034425
#
#
# Mechanical properties :
#
#
# Convention : Reuss Voigt Hill
#
# Bulk Modulus (GPa) = 54.75567 63.16942 58.96255
# Shear Modulus (GPa) = 25.74001 30.18517 27.96259
#
# Velocity S-wave (km/s) = 3.45545 3.74194 3.60155
# Velocity P-wave (km/s) = 6.42806 6.92620 6.68177
#
# Compressibility (1/GPa) = 0.01826295
#
# Stress axis : x y z
#
# Youngs Moduli (GPa) = 65.83397 62.10178 93.26340
#
# Poissons Ratio (x) = 0.21766 0.49264
# Poissons Ratio (y) = 0.23074 0.28807
# Poissons Ratio (z) = 0.34775 0.19182
#
# Static dielectric constant tensor:
#      x y z
#    x 4.044910 0.000000 0.093580 
#    y 0.000000 3.441840 0.000000 
#    z 0.093580 0.000000 4.174620 
# 
# 
# High freq. dielectric constant tensor:
#      x y z
#    x 1.861270 0.000000 0.013610 
#    y 0.000000 1.803800 0.000000 
#    z 0.013610 0.000000 1.868480 
# 
# From -- ./inp_files/10804.got.cif
#   From: 2010.03.12/outbox.cif.g09.slc.cpg/sg3_6_cif.got.tgz:10804.got - 2010.03.31 09:20:49.
