data_PCOD8044360
_publ_section_title
;
Structure prediction by ZEFSAII (Michael W. Deem and Ramdas Pophale) SiO2 
 PCOD8044360
Probable space group: P -1
;
_chemical_formula_sum "Si O2"
_cell_formula_units_Z 14
_cell_length_a 15.751862
_cell_length_b 12.107298
_cell_length_c 12.280090
_cell_angle_alpha 34.503197
_cell_angle_beta 135.973299
_cell_angle_gamma 152.860839
_cell_volume 604.204921
_symmetry_space_group_name_H-M "P -1"
_symmetry_group_IT_number 2
_symmetry_cell_setting 'triclinic'
loop_
_space_group_symop_operation_xyz
x,y,z
-x,-y,-z
loop_
_atom_site_type_symbol
_atom_site_label
_atom_site_fract_x
_atom_site_fract_y
_atom_site_fract_z
Si Si1 0.403883 0.197146 0.356820
Si Si2 0.245621 0.673436 0.749620
Si Si3 0.327522 0.432290 0.860222
Si Si4 0.168667 0.868001 0.197355
Si Si5 0.078189 0.269920 0.277737
Si Si6 0.222302 0.848840 0.023113
Si Si7 0.627645 0.432181 0.867035
O O1 0.621414 0.449896 0.313870
O O2 0.345687 0.344553 0.215566
O O3 0.370549 0.018336 0.574467
O O4 0.282973 0.961522 0.336376
O O5 0.313704 0.606369 0.776322
O O6 0.031068 0.472934 0.697632
O O7 0.271535 0.625954 0.933030
O O8 0.500000 0.500000 0.000000
O O9 0.144448 0.075855 0.991205
O O10 0.271460 0.919445 0.139884
O O11 0.139198 0.532740 0.188764
O O12 0.263143 0.409677 0.274159
O O13 0.000000 0.000000 0.500000
O O14 0.921692 0.154473 0.141774
O O15 0.410108 0.113647 0.910470
#
# Coordination Sequence:
#
# PCOD8044360 Si02
#       7
#     2   2   2   2   2   2   2
#     4  11  24  39  64 103 139 178 226 261 324 417
#     4  12  23  38  65  98 139 185 217 267 331 394
#     4  10  19  38  58  90 138 174 215 259 321 393
#     4  11  21  42  64  99 141 179 216 274 327 399
#     4  11  28  49  74  99 126 176 232 288 341 397
#     4  11  25  48  71  99 139 172 225 283 336 399
#     4  12  24  46  71 100 138 177 221 279 342 396
#
# _framework density 23.170945
#
# number of rings (size 3 to 8) (size 9 to 14) (size 15 to 20)
#    0.000    0.857    5.714    2.571    2.000    1.714 
#    2.571    0.000    0.000    0.000    0.000    0.000 
#    0.000    0.000    0.000    0.000    0.000    0.000 
#
# Total GULP energy -173510.587172 kJ/mol
# GULP energy per Si atom -12393.613369 kJ/mol
# Density = 2.311821 g / cm^3
# Si number density = 23.170945 Si / 1000 Ang^3
#
#
#
# Elastic Constant Matrix: (Units=GPa)
#
#
# Indices 1 2 3 4 5 6 
#
# 1 90.9301 22.7202 34.4675 -4.2204 -12.6630 11.3294
# 2 22.7202 53.8122 18.9731 -13.1485 -1.1999 -2.3524
# 3 34.4675 18.9731 126.6127 -32.8012 -13.7360 -2.3302
# 4 -4.2204 -13.1485 -32.8012 34.5324 5.6911 -8.4573
# 5 -12.6630 -1.1999 -13.7360 5.6911 24.5304 -8.5581
# 6 11.3294 -2.3524 -2.3302 -8.4573 -8.5581 35.8508
#
#
#
# Elastic Compliance Matrix: (Units=1/GPa)
#
#
# Indices 1 2 3 4 5 6 
#
# 1 0.015643 -0.006951 -0.004818 -0.007637 0.004568 -0.006424
# 2 -0.006951 0.024082 0.001017 0.011121 -0.002361 0.005902
# 3 -0.004818 0.001017 0.013005 0.013069 0.004077 0.006491
# 4 -0.007637 0.011121 0.013069 0.048693 -0.002157 0.014965
# 5 0.004568 -0.002361 0.004077 -0.002157 0.049251 0.009915
# 6 -0.006424 0.005902 0.006491 0.014965 0.009915 0.036630
#
#
# Mechanical properties :
#
#
# Convention : Reuss Voigt Hill
#
# Bulk Modulus (GPa) = 32.02509 47.07518 39.55014
# Shear Modulus (GPa) = 22.80864 31.99566 27.40215
#
# Velocity S-wave (km/s) = 3.14086 3.72001 3.44264
# Velocity P-wave (km/s) = 5.19659 6.22992 5.73657
#
# Compressibility (1/GPa) = 0.03122551
#
# Stress axis : x y z
#
# Youngs Moduli (GPa) = 63.92839 41.52492 76.89449
#
# Poissons Ratio (x) = 0.28863 0.37048
# Poissons Ratio (y) = 0.44435 -0.07820
# Poissons Ratio (z) = 0.30801 -0.04223
#
# Static dielectric constant tensor:
#      x y z
#    x 4.086840 0.159090 -0.181880 
#    y 0.159090 4.311470 -0.561510 
#    z -0.181880 -0.561510 4.539140 
# 
# 
# High freq. dielectric constant tensor:
#      x y z
#    x 1.917050 0.005820 -0.009950 
#    y 0.005820 1.904040 -0.030960 
#    z -0.009950 -0.030960 1.915260 
# 
# From -- ./inp_files/451002.got.cif
#   From: 2010.06.25/outbox.cif.g09.slc.cpg/sg2_226_cif.got.tgz:451002.got - 2010.06.27 13:26:56.
