data_PCOD8044663
_publ_section_title
;
Structure prediction by ZEFSAII (Michael W. Deem and Ramdas Pophale) SiO2 
 PCOD8044663
Probable space group: P -1
;
_chemical_formula_sum "Si O2"
_cell_formula_units_Z 16
_cell_length_a 18.090563
_cell_length_b 7.578167
_cell_length_c 15.885202
_cell_angle_alpha 80.876431
_cell_angle_beta 152.855240
_cell_angle_gamma 117.332978
_cell_volume 694.695083
_symmetry_space_group_name_H-M "P -1"
_symmetry_group_IT_number 2
_symmetry_cell_setting 'triclinic'
loop_
_space_group_symop_operation_xyz
x,y,z
-x,-y,-z
loop_
_atom_site_type_symbol
_atom_site_label
_atom_site_fract_x
_atom_site_fract_y
_atom_site_fract_z
Si Si1 0.213979 0.089427 0.757792
Si Si2 0.825256 0.286606 0.639471
Si Si3 0.905248 0.643386 0.587034
Si Si4 0.631728 0.759646 0.537312
Si Si5 0.495169 0.573902 0.114651
Si Si6 0.937684 0.077558 0.101841
Si Si7 0.481952 0.163549 0.417423
Si Si8 0.272984 0.452755 0.062302
O O1 0.414270 0.217303 0.881393
O O2 0.297725 0.296174 0.896614
O O3 0.000000 0.000000 0.500000
O O4 0.123714 0.837283 0.730936
O O5 0.818526 0.368635 0.531076
O O6 0.717081 0.354656 0.587010
O O7 0.680297 0.992364 0.525972
O O8 0.093515 0.457076 0.916842
O O9 0.698592 0.606736 0.351867
O O10 0.991712 0.749155 0.760994
O O11 0.541139 0.696288 0.547009
O O12 0.442363 0.525224 0.302836
O O13 0.851660 0.802790 0.756476
O O14 0.401689 0.618525 0.094971
O O15 0.739977 0.021347 0.852890
O O16 0.852296 0.824373 0.073081
O O17 0.500000 0.000000 0.500000
#
# Coordination Sequence:
#
# PCOD8044663 Si02
#       8
#     2   2   2   2   2   2   2   2
#     4   9  20  35  65  97 124 155 200 254 303 366
#     4  10  25  38  59  91 123 168 204 252 314 365
#     4  11  21  38  63  94 123 159 207 255 307 369
#     4  10  23  43  60  86 123 166 211 262 310 359
#     4  10  19  38  64  95 124 159 205 248 306 367
#     4  11  22  39  64  92 117 164 216 256 309 364
#     4  10  23  43  59  87 128 164 212 263 309 360
#     4  11  22  40  64  91 124 166 203 257 308 371
#
# _framework density 23.031687000000002
#
# number of rings (size 3 to 8) (size 9 to 14) (size 15 to 20)
#    0.000    1.750    2.500    1.125    3.500    1.000 
#    4.500    0.625    0.000    7.500    0.000    0.000 
#    0.000    0.000    0.000    0.000    0.000    0.000 
#
# Total GULP energy -198240.118122 kJ/mol
# GULP energy per Si atom -12390.007383 kJ/mol
# Density = 2.297927 g / cm^3
# Si number density = 23.031687 Si / 1000 Ang^3
#
#
#
# Elastic Constant Matrix: (Units=GPa)
#
#
# Indices 1 2 3 4 5 6 
#
# 1 115.6875 12.9044 69.1821 -4.5427 11.6705 26.1299
# 2 12.9044 65.8796 12.9801 -7.6814 9.9831 27.7510
# 3 69.1821 12.9801 135.9636 -8.5545 6.1038 10.3516
# 4 -4.5427 -7.6814 -8.5545 28.0127 -0.3212 2.1445
# 5 11.6705 9.9831 6.1038 -0.3212 44.6691 4.7190
# 6 26.1299 27.7510 10.3516 2.1445 4.7190 39.1163
#
#
#
# Elastic Compliance Matrix: (Units=1/GPa)
#
#
# Indices 1 2 3 4 5 6 
#
# 1 0.015175 0.003497 -0.007003 0.002059 -0.002659 -0.010557
# 2 0.003497 0.024511 -0.001969 0.008108 -0.004040 -0.019162
# 3 -0.007003 -0.001969 0.010944 0.001439 0.000463 0.003044
# 4 0.002059 0.008108 0.001439 0.039409 -0.001258 -0.009517
# 5 -0.002659 -0.004040 0.000463 -0.001258 0.023730 0.001726
# 6 -0.010557 -0.019162 0.003044 -0.009517 0.001726 0.045719
#
#
# Mechanical properties :
#
#
# Convention : Reuss Voigt Hill
#
# Bulk Modulus (GPa) = 25.20060 56.40708 40.80384
# Shear Modulus (GPa) = 27.22346 37.19055 32.20701
#
# Velocity S-wave (km/s) = 3.44175 4.02276 3.74355
# Velocity P-wave (km/s) = 5.17298 6.79125 6.03659
#
# Compressibility (1/GPa) = 0.03968159
#
# Stress axis : x y z
#
# Youngs Moduli (GPa) = 65.89691 40.79733 91.37356
#
# Poissons Ratio (x) = -0.14269 0.63987
# Poissons Ratio (y) = -0.23047 0.17994
# Poissons Ratio (z) = 0.46146 0.08034
#
# Static dielectric constant tensor:
#      x y z
#    x 4.874320 0.570230 0.361820 
#    y 0.570230 4.413860 0.143390 
#    z 0.361820 0.143390 4.258830 
# 
# 
# High freq. dielectric constant tensor:
#      x y z
#    x 1.900820 0.032150 0.009980 
#    y 0.032150 1.916740 0.007550 
#    z 0.009980 0.007550 1.909300 
# 
# From -- ./inp_files/52898.got.cif
#   From: 2010.06.25/outbox.cif.g09.slc.cpg/sg2_27_cif.got.tgz:52898.got - 2010.06.27 13:26:56.
