data_PCOD8044784
_publ_section_title
;
Structure prediction by ZEFSAII (Michael W. Deem and Ramdas Pophale) SiO2 
 PCOD8044784
Probable space group: P -1
;
_chemical_formula_sum "Si O2"
_cell_formula_units_Z 16
_cell_length_a 28.056604
_cell_length_b 8.693316
_cell_length_c 28.146543
_cell_angle_alpha 37.243596
_cell_angle_beta 9.783130
_cell_angle_gamma 37.439620
_cell_volume 702.958028
_symmetry_space_group_name_H-M "P -1"
_symmetry_group_IT_number 2
_symmetry_cell_setting 'triclinic'
loop_
_space_group_symop_operation_xyz
x,y,z
-x,-y,-z
loop_
_atom_site_type_symbol
_atom_site_label
_atom_site_fract_x
_atom_site_fract_y
_atom_site_fract_z
Si Si1 0.243939 0.392867 0.339612
Si Si2 0.358620 0.743891 0.606897
Si Si3 0.352976 0.649249 0.463578
Si Si4 0.993091 0.190257 0.805070
Si Si5 0.882973 0.785046 0.135622
Si Si6 0.163960 0.357436 0.083697
Si Si7 0.431020 0.164223 0.307672
Si Si8 0.266260 0.825197 0.147533
O O1 0.419453 0.337998 0.229180
O O2 0.208727 0.697429 0.286872
O O3 0.943644 0.274927 0.661999
O O4 0.417201 0.256766 0.159519
O O5 0.500000 0.500000 0.500000
O O6 0.622276 0.892767 0.330921
O O7 0.157978 0.925847 0.725520
O O8 0.152226 0.655949 0.873272
O O9 0.263992 0.412216 0.639057
O O10 0.079737 0.766511 0.675175
O O11 0.437828 0.866700 0.361782
O O12 0.598917 0.566568 0.204631
O O13 0.971031 0.387588 0.821413
O O14 0.164226 0.286312 0.569105
O O15 0.687243 0.168723 0.090576
O O16 0.000000 0.000000 0.000000
O O17 0.258820 0.133657 0.083110
#
# Coordination Sequence:
#
# PCOD8044784 Si02
#       8
#     2   2   2   2   2   2   2   2
#     4  10  20  37  68 102 137 172 228 278 326 390
#     4  12  27  51  70  96 136 187 227 275 354 423
#     4  12  25  43  73  98 131 175 237 285 330 403
#     4  12  28  43  68  96 143 179 222 282 348 411
#     4  12  27  48  73 103 133 172 229 295 349 400
#     4  12  23  45  66 104 137 181 221 279 349 403
#     4  12  23  45  65 104 134 180 231 278 325 402
#     4  10  19  38  67 103 135 177 219 280 334 396
#
# _framework density 22.760957999999999
#
# number of rings (size 3 to 8) (size 9 to 14) (size 15 to 20)
#    0.000    0.500    2.500    6.000    0.000    4.000 
#    0.000    1.250    0.000    0.000    0.000    0.000 
#    0.000    0.000    0.000    0.000    0.000    0.000 
#
# Total GULP energy -198319.193138 kJ/mol
# GULP energy per Si atom -12394.949571 kJ/mol
# Density = 2.270915 g / cm^3
# Si number density = 22.760958 Si / 1000 Ang^3
#
#
#
# Elastic Constant Matrix: (Units=GPa)
#
#
# Indices 1 2 3 4 5 6 
#
# 1 139.7970 60.8476 97.8057 2.5110 -15.6511 -24.1892
# 2 60.8476 181.5354 48.8885 -63.7568 14.8847 -196.4730
# 3 97.8057 48.8885 223.8468 19.5974 -20.6022 -5.8276
# 4 2.5110 -63.7568 19.5974 98.1977 -4.8910 165.1018
# 5 -15.6511 14.8847 -20.6022 -4.8910 65.1605 1.4597
# 6 -24.1892 -196.4730 -5.8276 165.1018 1.4597 432.6080
#
#
#
# Elastic Compliance Matrix: (Units=1/GPa)
#
#
# Indices 1 2 3 4 5 6 
#
# 1 0.012190 -0.005114 -0.004037 0.000516 0.002901 -0.001902
# 2 -0.005114 0.015531 -0.001164 -0.003390 -0.005579 0.008065
# 3 -0.004037 -0.001164 0.006810 -0.002308 0.001272 0.000214
# 4 0.000516 -0.003390 -0.002308 0.031195 0.002812 -0.013457
# 5 0.002901 -0.005579 0.001272 0.002812 0.018009 -0.003488
# 6 -0.001902 0.008065 0.000214 -0.013457 -0.003488 0.011018
#
#
# Mechanical properties :
#
#
# Convention : Reuss Voigt Hill
#
# Bulk Modulus (GPa) = 71.93744 106.69587 89.31665
# Shear Modulus (GPa) = 41.66056 141.70240 91.68148
#
# Velocity S-wave (km/s) = 4.28290 7.89886 6.35355
# Velocity P-wave (km/s) = 7.49212 11.40911 9.65142
#
# Compressibility (1/GPa) = 0.01390097
#
# Stress axis : x y z
#
# Youngs Moduli (GPa) = 82.03582 64.38558 146.83921
#
# Poissons Ratio (x) = 0.32925 0.59278
# Poissons Ratio (y) = 0.41951 0.17099
# Poissons Ratio (z) = 0.33118 0.07498
#
# Static dielectric constant tensor:
#      x y z
#    x 4.327510 -0.218990 -0.052200 
#    y -0.218990 3.897410 0.022760 
#    z -0.052200 0.022760 4.655750 
# 
# 
# High freq. dielectric constant tensor:
#      x y z
#    x 1.893530 -0.021470 -0.000710 
#    y -0.021470 1.883800 0.006690 
#    z -0.000710 0.006690 1.928380 
# 
# From -- ./inp_files/621143.got.cif
#   From: 2010.06.25/outbox.cif.g09.slc.cpg/sg2_311_cif.got.tgz:621143.got - 2010.06.27 13:26:56.
