data_PCOD8044874
_publ_section_title
;
Structure prediction by ZEFSAII (Michael W. Deem and Ramdas Pophale) SiO2 
 PCOD8044874
Probable space group: P 2
;
_chemical_formula_sum "Si O2"
_cell_formula_units_Z 13
_cell_length_a 6.441452
_cell_length_b 13.453913
_cell_length_c 7.269424
_cell_angle_alpha 90.000000
_cell_angle_beta 47.157790
_cell_angle_gamma 90.000000
_cell_volume 461.925666
_symmetry_space_group_name_H-M "P 2"
_symmetry_group_IT_number 3
_symmetry_cell_setting 'monoclinic'
loop_
_space_group_symop_operation_xyz
x,y,z
-x,y,-z
loop_
_atom_site_type_symbol
_atom_site_label
_atom_site_fract_x
_atom_site_fract_y
_atom_site_fract_z
Si Si1 0.232122 0.551410 0.987156
Si Si2 0.046412 0.045557 0.703458
Si Si3 0.451031 0.354329 0.795936
Si Si4 0.563357 0.969478 0.209200
Si Si5 0.000000 0.624054 0.500000
Si Si6 0.506158 0.748840 0.211698
Si Si7 0.947612 0.277618 0.296248
O O1 0.156629 0.557906 0.249684
O O2 0.491067 0.474963 0.788436
O O3 0.268203 0.662209 0.884922
O O4 0.000000 0.498879 0.000000
O O5 0.234613 0.011812 0.408944
O O6 0.254278 0.025742 0.748513
O O7 0.988545 0.161478 0.736490
O O8 0.740973 0.987292 0.911665
O O9 0.768169 0.307065 0.588980
O O10 0.257994 0.312482 0.745006
O O11 0.262041 0.327947 0.092077
O O12 0.567385 0.853813 0.269752
O O13 0.780621 0.700108 0.536869
O O14 0.500000 0.771081 0.000000
#
# Coordination Sequence:
#
# PCOD8044874 Si02
#       7
#     2   2   2   2   1   2   2
#     4  11  24  41  67 103 132 181 235 284 342 418
#     4  10  20  34  58 100 132 163 213 288 337 398
#     4  10  19  32  59  94 126 177 214 269 344 403
#     4  10  20  34  59  89 123 167 216 265 338 397
#     4  10  26  46  64  90 148 184 228 288 356 400
#     4  10  25  43  63  90 132 182 226 283 346 412
#     4  10  18  34  55  95 141 162 214 281 344 397
#
# _framework density 28.143059000000001
#
# number of rings (size 3 to 8) (size 9 to 14) (size 15 to 20)
#    0.000    1.846    1.538    4.615    8.615    1.846 
#    0.000    0.000    0.000    0.000   12.000    0.000 
#    0.000    0.000    0.000    0.000    0.000    0.000 
#
# Total GULP energy -161068.752230 kJ/mol
# GULP energy per Si atom -12389.904018 kJ/mol
# Density = 2.807900 g / cm^3
# Si number density = 28.143059 Si / 1000 Ang^3
#
#
#
# Elastic Constant Matrix: (Units=GPa)
#
#
# Indices 1 2 3 4 5 6 
#
# 1 56.0967 21.6540 55.0822 0.0000 -33.6425 0.0000
# 2 21.6540 226.0413 65.3103 0.0000 -24.4796 0.0000
# 3 55.0822 65.3103 209.6827 0.0000 -39.4102 0.0000
# 4 0.0000 0.0000 0.0000 130.1153 0.0000 8.3667
# 5 -33.6425 -24.4796 -39.4102 0.0000 63.9368 0.0000
# 6 0.0000 0.0000 0.0000 8.3667 0.0000 26.8879
#
#
#
# Elastic Compliance Matrix: (Units=1/GPa)
#
#
# Indices 1 2 3 4 5 6 
#
# 1 0.031220 0.000082 -0.005806 0.000000 0.012880 0.000000
# 2 0.000082 0.004925 -0.001349 0.000000 0.001097 0.000000
# 3 -0.005806 -0.001349 0.006835 0.000000 0.000642 0.000000
# 4 0.000000 0.000000 0.000000 0.007842 0.000000 -0.002440
# 5 0.012880 0.001097 0.000642 0.000000 0.023233 0.000000
# 6 0.000000 0.000000 0.000000 -0.002440 0.000000 0.037951
#
#
# Mechanical properties :
#
#
# Convention : Reuss Voigt Hill
#
# Bulk Modulus (GPa) = 34.68233 86.21261 60.44747
# Shear Modulus (GPa) = 36.82839 67.50627 52.16733
#
# Velocity S-wave (km/s) = 3.62140 4.90295 4.31007
# Velocity P-wave (km/s) = 5.46227 7.92162 6.80399
#
# Compressibility (1/GPa) = 0.02883312
#
# Stress axis : x y z
#
# Youngs Moduli (GPa) = 32.03040 203.05531 146.30344
#
# Poissons Ratio (x) = -0.01657 0.84943
# Poissons Ratio (y) = -0.00261 0.19739
# Poissons Ratio (z) = 0.18597 0.27396
#
# Static dielectric constant tensor:
#      x y z
#    x 4.904820 0.000000 0.022010 
#    y 0.000000 4.941700 0.000000 
#    z 0.022010 0.000000 5.227470 
# 
# 
# High freq. dielectric constant tensor:
#      x y z
#    x 2.173020 0.000000 -0.001400 
#    y 0.000000 2.133010 0.000000 
#    z -0.001400 0.000000 2.168660 
# 
# From -- ./inp_files/5883.got.cif
#   From: 2010.03.12/outbox.cif.g09.slc.cpg/sg3_3_cif.got.tgz:5883.got - 2010.03.31 09:20:49.
