data_PCOD8044897
_publ_section_title
;
Structure prediction by ZEFSAII (Michael W. Deem and Ramdas Pophale) SiO2 
 PCOD8044897
Probable space group: P 2
;
_chemical_formula_sum "Si O2"
_cell_formula_units_Z 14
_cell_length_a 15.927912
_cell_length_b 11.496569
_cell_length_c 13.612422
_cell_angle_alpha 90.000000
_cell_angle_beta 162.391430
_cell_angle_gamma 90.000000
_cell_volume 754.059768
_symmetry_space_group_name_H-M "P 2"
_symmetry_group_IT_number 3
_symmetry_cell_setting 'monoclinic'
loop_
_space_group_symop_operation_xyz
x,y,z
-x,y,-z
loop_
_atom_site_type_symbol
_atom_site_label
_atom_site_fract_x
_atom_site_fract_y
_atom_site_fract_z
Si Si1 0.311245 0.324810 0.377462
Si Si2 0.678857 0.750016 0.417317
Si Si3 0.079068 0.748211 0.692199
Si Si4 0.423208 0.084084 0.304434
Si Si5 0.311946 0.478784 0.565245
Si Si6 0.911176 0.954265 0.788216
Si Si7 0.903876 0.476518 0.288533
O O1 0.500000 0.381595 0.500000
O O2 0.510994 0.220454 0.638806
O O3 0.242245 0.417195 0.384807
O O4 0.000000 0.278316 0.000000
O O5 0.691344 0.615569 0.463321
O O6 0.872597 0.822364 0.708123
O O7 0.809817 0.768487 0.456904
O O8 0.362160 0.797398 0.057110
O O9 0.133567 0.612690 0.736059
O O10 0.000000 0.807390 0.500000
O O11 0.500000 0.049202 0.500000
O O12 0.612331 0.012907 0.440392
O O13 0.109403 0.036850 0.942007
O O14 0.100993 0.445943 0.416939
O O15 0.603321 0.427393 0.926621
O O16 0.000000 0.948375 0.000000
O O17 0.000000 0.420418 0.500000
#
# Coordination Sequence:
#
# PCOD8044897 Si02
#       7
#     2   2   2   2   2   2   2
#     4  11  21  35  53  75 106 140 176 216 256 303
#     4  10  19  31  48  75 105 132 165 203 255 317
#     4   9  17  30  48  70  99 133 168 207 246 294
#     4   9  18  33  51  69  91 127 176 219 244 276
#     4  10  20  32  49  77 107 136 170 205 257 322
#     4  10  19  32  50  72  99 129 165 209 251 294
#     4   9  17  31  50  72 101 135 172 213 251 296
#
# _framework density 18.566167
#
# number of rings (size 3 to 8) (size 9 to 14) (size 15 to 20)
#    0.000    2.286    0.000    4.714    0.000    4.000 
#    0.000    2.143    0.000    0.000    0.000   15.000 
#    0.000    0.000    0.000    0.000    0.000    0.000 
#
# Total GULP energy -173442.929818 kJ/mol
# GULP energy per Si atom -12388.780701 kJ/mol
# Density = 1.852391 g / cm^3
# Si number density = 18.566167 Si / 1000 Ang^3
#
#
#
# Elastic Constant Matrix: (Units=GPa)
#
#
# Indices 1 2 3 4 5 6 
#
# 1 93.8816 49.4620 39.4951 0.0000 10.7382 0.0000
# 2 49.4620 73.3841 37.9765 0.0000 0.2120 0.0000
# 3 39.4951 37.9765 85.5739 0.0000 17.8708 0.0000
# 4 0.0000 0.0000 0.0000 15.3939 0.0000 7.7891
# 5 10.7382 0.2120 17.8708 0.0000 32.1753 0.0000
# 6 0.0000 0.0000 0.0000 7.7891 0.0000 11.3333
#
#
#
# Elastic Compliance Matrix: (Units=1/GPa)
#
#
# Indices 1 2 3 4 5 6 
#
# 1 0.017889 -0.010717 -0.002566 0.000000 -0.004474 0.000000
# 2 -0.010717 0.024790 -0.007656 0.000000 0.007666 0.000000
# 3 -0.002566 -0.007656 0.018188 0.000000 -0.009195 0.000000
# 4 0.000000 0.000000 0.000000 0.099596 0.000000 -0.068450
# 5 -0.004474 0.007666 -0.009195 0.000000 0.037630 0.000000
# 6 0.000000 0.000000 0.000000 -0.068450 0.000000 0.135280
#
#
# Mechanical properties :
#
#
# Convention : Reuss Voigt Hill
#
# Bulk Modulus (GPa) = 52.66105 56.30076 54.48091
# Shear Modulus (GPa) = 13.10337 20.17423 16.63880
#
# Velocity S-wave (km/s) = 2.65951 3.29996 2.99689
# Velocity P-wave (km/s) = 6.15274 6.70148 6.43296
#
# Compressibility (1/GPa) = 0.01898937
#
# Stress axis : x y z
#
# Youngs Moduli (GPa) = 55.89975 40.33866 54.98081
#
# Poissons Ratio (x) = 0.43230 0.14109
# Poissons Ratio (y) = 0.59906 0.42095
# Poissons Ratio (z) = 0.14344 0.30884
#
# Static dielectric constant tensor:
#      x y z
#    x 3.529130 0.000000 0.291630 
#    y 0.000000 3.092330 0.000000 
#    z 0.291630 0.000000 3.598790 
# 
# 
# High freq. dielectric constant tensor:
#      x y z
#    x 1.725810 0.000000 0.027110 
#    y 0.000000 1.678120 0.000000 
#    z 0.027110 0.000000 1.720780 
# 
# From -- ./inp_files/3064.got.cif
#   From: 2010.03.12/outbox.cif.g09.slc.cpg/sg3_2_cif.got.tgz:3064.got - 2010.03.31 09:20:49.
