data_PCOD8044475
_publ_section_title
;
Structure prediction by ZEFSAII (Michael W. Deem and Ramdas Pophale) SiO2 
 PCOD8044475
Probable space group: P -1
;
_chemical_formula_sum "Si O2"
_cell_formula_units_Z 16
_cell_length_a 12.303891
_cell_length_b 16.680822
_cell_length_c 16.454159
_cell_angle_alpha 149.694815
_cell_angle_beta 39.961393
_cell_angle_gamma 154.199270
_cell_volume 740.785849
_symmetry_space_group_name_H-M "P -1"
_symmetry_group_IT_number 2
_symmetry_cell_setting 'triclinic'
loop_
_space_group_symop_operation_xyz
x,y,z
-x,-y,-z
loop_
_atom_site_type_symbol
_atom_site_label
_atom_site_fract_x
_atom_site_fract_y
_atom_site_fract_z
Si Si1 0.047715 0.340791 0.062090
Si Si2 0.596856 0.586277 0.179202
Si Si3 0.216533 0.939338 0.545876
Si Si4 0.027389 0.183620 0.692514
Si Si5 0.354292 0.056998 0.158481
Si Si6 0.142110 0.451171 0.706813
Si Si7 0.721764 0.160769 0.410423
Si Si8 0.910330 0.638522 0.752715
O O1 0.965215 0.453275 0.173858
O O2 0.040331 0.327691 0.150813
O O3 0.321253 0.490957 0.000771
O O4 0.864371 0.075191 0.899101
O O5 0.721518 0.644116 0.246187
O O6 0.294497 0.371452 0.166577
O O7 0.679367 0.812969 0.295721
O O8 0.156574 0.849709 0.593642
O O9 0.965359 0.755159 0.474533
O O10 0.419263 0.952009 0.404080
O O11 0.055821 0.347886 0.756710
O O12 0.000000 0.000000 0.500000
O O13 0.776958 0.043559 0.765822
O O14 0.554716 0.339373 0.289746
O O15 0.500000 0.000000 0.000000
O O16 0.805903 0.399728 0.574023
O O17 0.826032 0.149115 0.258536
#
# Coordination Sequence:
#
# PCOD8044475 Si02
#       8
#     2   2   2   2   2   2   2   2
#     4  10  21  41  63  91 125 168 203 254 315 374
#     4  10  22  39  60  89 132 156 199 266 308 367
#     4  10  19  38  61  91 121 161 202 257 316 365
#     4  11  23  42  63  98 127 163 216 263 310 373
#     4   9  23  41  61  92 129 166 212 259 305 379
#     4  11  22  41  71  88 123 177 207 253 321 373
#     4   9  20  35  62  94 119 153 212 256 303 378
#     4  10  19  38  63  90 120 161 203 258 312 366
#
# _framework density 21.598686000000001
#
# number of rings (size 3 to 8) (size 9 to 14) (size 15 to 20)
#    0.000    2.000    2.500    0.375    0.000    8.000 
#    4.500    0.625    0.000    0.000    0.000    0.000 
#    0.000    0.000    0.000    0.000    0.000    0.000 
#
# Total GULP energy -198331.169155 kJ/mol
# GULP energy per Si atom -12395.698072 kJ/mol
# Density = 2.154953 g / cm^3
# Si number density = 21.598686 Si / 1000 Ang^3
#
#
#
# Elastic Constant Matrix: (Units=GPa)
#
#
# Indices 1 2 3 4 5 6 
#
# 1 113.6997 64.6828 28.0965 -39.4883 9.0583 -9.5384
# 2 64.6828 4.9868 16.3590 75.7812 97.2298 -43.1647
# 3 28.0965 16.3590 56.6257 -13.2485 30.4557 -9.8307
# 4 -39.4883 75.7812 -13.2485 -54.7723 -73.3857 39.5172
# 5 9.0583 97.2298 30.4557 -73.3857 -22.0392 19.2826
# 6 -9.5384 -43.1647 -9.8307 39.5172 19.2826 16.8443
#
#
#
# Elastic Compliance Matrix: (Units=1/GPa)
#
#
# Indices 1 2 3 4 5 6 
#
# 1 0.011712 -0.001859 0.000350 0.002691 -0.007780 0.004667
# 2 -0.001859 0.009679 -0.000105 0.011432 0.000492 -0.003695
# 3 0.000350 -0.000105 0.034197 0.020418 -0.022764 -0.001956
# 4 0.002691 0.011432 0.020418 0.033610 -0.031853 0.000349
# 5 -0.007780 0.000492 -0.022764 -0.031853 0.039575 0.012994
# 6 0.004667 -0.003695 -0.001956 0.000349 0.012994 0.035707
#
#
# Mechanical properties :
#
#
# Convention : Reuss Voigt Hill
#
# Bulk Modulus (GPa) = 19.09853 43.73209 31.41531
# Shear Modulus (GPa) = 27.00320 -7.58183 9.71069
#
# Velocity S-wave (km/s) = 3.53969 -1.87562 2.12267
# Velocity P-wave (km/s) = 5.05643 3.94980 4.53698
#
# Compressibility (1/GPa) = 0.05236005
#
# Stress axis : x y z
#
# Youngs Moduli (GPa) = 85.38232 103.31426 29.24199
#
# Poissons Ratio (x) = 0.19207 -0.01024
# Poissons Ratio (y) = 0.15874 0.00308
# Poissons Ratio (z) = -0.02990 0.01088
#
# Static dielectric constant tensor:
#      x y z
#    x 4.132710 0.529050 0.085530 
#    y 0.529050 4.632710 -0.024960 
#    z 0.085530 -0.024960 3.928890 
# 
# 
# High freq. dielectric constant tensor:
#      x y z
#    x 1.848700 0.008670 0.005180 
#    y 0.008670 1.845930 -0.009270 
#    z 0.005180 -0.009270 1.841580 
# 
# From -- ./inp_files/382057.got.cif
#   From: 2010.06.25/outbox.cif.g09.slc.cpg/sg2_192_cif.got.tgz:382057.got - 2010.06.27 13:26:56.
