data_PCOD8044436
_publ_section_title
;
Structure prediction by ZEFSAII (Michael W. Deem and Ramdas Pophale) SiO2 
 PCOD8044436
Probable space group: P -1
;
_chemical_formula_sum "Si O2"
_cell_formula_units_Z 16
_cell_length_a 14.187734
_cell_length_b 11.719094
_cell_length_c 11.510663
_cell_angle_alpha 56.155266
_cell_angle_beta 30.952527
_cell_angle_gamma 65.289321
_cell_volume 809.552414
_symmetry_space_group_name_H-M "P -1"
_symmetry_group_IT_number 2
_symmetry_cell_setting 'triclinic'
loop_
_space_group_symop_operation_xyz
x,y,z
-x,-y,-z
loop_
_atom_site_type_symbol
_atom_site_label
_atom_site_fract_x
_atom_site_fract_y
_atom_site_fract_z
Si Si1 0.360041 0.193069 0.532703
Si Si2 0.442629 0.498105 0.195121
Si Si3 0.946559 0.456313 0.345716
Si Si4 0.751901 0.711361 0.849421
Si Si5 0.329868 0.995468 0.270907
Si Si6 0.394152 0.942335 0.488536
Si Si7 0.023324 0.755370 0.009397
Si Si8 0.009679 0.756971 0.749526
O O1 0.456143 0.349038 0.320754
O O2 0.437103 0.132132 0.602762
O O3 0.141320 0.186498 0.782228
O O4 0.408244 0.100928 0.425372
O O5 0.234703 0.533437 0.394196
O O6 0.500000 0.500000 0.000000
O O7 0.562309 0.609383 0.088554
O O8 0.052459 0.606709 0.114251
O O9 0.896615 0.373852 0.323656
O O10 0.081715 0.370204 0.328423
O O11 0.731901 0.854217 0.724286
O O12 0.806802 0.750937 0.904138
O O13 0.405052 0.936713 0.342470
O O14 0.145477 0.894168 0.486074
O O15 0.500000 0.000000 0.000000
O O16 0.205369 0.859982 0.785344
O O17 0.978611 0.746152 0.925097
#
# Coordination Sequence:
#
# PCOD8044436 Si02
#       8
#     2   2   2   2   2   2   2   2
#     4  10  22  39  59  87 114 151 199 236 290 347
#     4  11  22  40  61  85 118 154 196 243 290 348
#     4   9  21  37  58  86 117 149 191 236 294 346
#     4  10  22  38  56  85 119 149 194 241 285 348
#     4  11  22  38  62  86 121 157 194 242 291 347
#     4  10  22  39  59  86 115 154 193 242 289 341
#     4  10  19  38  61  84 115 152 188 242 289 348
#     4   9  21  37  57  85 118 149 192 237 292 348
#
# _framework density 19.764008
#
# number of rings (size 3 to 8) (size 9 to 14) (size 15 to 20)
#    0.750    1.250    0.000    3.375    1.750    0.500 
#    0.000    5.000    0.000    0.000    0.000    0.000 
#    0.000    0.000    0.000    0.000    0.000    0.000 
#
# Total GULP energy -198302.439211 kJ/mol
# GULP energy per Si atom -12393.902451 kJ/mol
# Density = 1.971902 g / cm^3
# Si number density = 19.764008 Si / 1000 Ang^3
#
#
#
# Elastic Constant Matrix: (Units=GPa)
#
#
# Indices 1 2 3 4 5 6 
#
# 1 62.3720 20.7947 24.1871 -5.9957 -10.0491 0.3029
# 2 20.7947 120.0307 42.3768 -17.9577 -4.5023 -20.9684
# 3 24.1871 42.3768 93.1464 -10.9371 -4.9089 -5.7377
# 4 -5.9957 -17.9577 -10.9371 25.7581 10.8988 -5.8301
# 5 -10.0491 -4.5023 -4.9089 10.8988 26.3842 -0.3501
# 6 0.3029 -20.9684 -5.7377 -5.8301 -0.3501 25.6183
#
#
#
# Elastic Compliance Matrix: (Units=1/GPa)
#
#
# Indices 1 2 3 4 5 6 
#
# 1 0.019451 -0.002899 -0.003978 -0.003282 0.007474 -0.004138
# 2 -0.002899 0.014238 -0.003624 0.012677 -0.004403 0.013701
# 3 -0.003978 -0.003624 0.013768 0.002898 -0.000759 0.000813
# 4 -0.003282 0.012677 0.002898 0.064362 -0.024798 0.025372
# 5 0.007474 -0.004403 -0.000759 -0.024798 0.049982 -0.008823
# 6 -0.004138 0.013701 0.000813 0.025372 -0.008823 0.056133
#
#
# Mechanical properties :
#
#
# Convention : Reuss Voigt Hill
#
# Bulk Modulus (GPa) = 37.80162 50.02958 43.91560
# Shear Modulus (GPa) = 20.18121 28.09817 24.13969
#
# Velocity S-wave (km/s) = 3.19895 3.77461 3.49864
# Velocity P-wave (km/s) = 5.72821 6.66073 6.21199
#
# Compressibility (1/GPa) = 0.02645390
#
# Stress axis : x y z
#
# Youngs Moduli (GPa) = 51.41161 70.23562 72.63119
#
# Poissons Ratio (x) = 0.20360 0.28895
# Poissons Ratio (y) = 0.14903 0.26324
# Poissons Ratio (z) = 0.20453 0.25456
#
# Static dielectric constant tensor:
#      x y z
#    x 3.440990 -0.021310 -0.153040 
#    y -0.021310 3.711080 -0.175480 
#    z -0.153040 -0.175480 3.452150 
# 
# 
# High freq. dielectric constant tensor:
#      x y z
#    x 1.763380 -0.001150 -0.012120 
#    y -0.001150 1.785330 -0.012160 
#    z -0.012120 -0.012160 1.761340 
# 
# From -- ./inp_files/438387.got.cif
#   From: 2010.06.25/outbox.cif.g09.slc.cpg/sg2_220_cif.got.tgz:438387.got - 2010.06.27 13:26:56.
