data_PCOD8044076
_publ_section_title
;
Structure prediction by ZEFSAII (Michael W. Deem and Ramdas Pophale) SiO2 
 PCOD8044076
Probable space group: P -1
;
_chemical_formula_sum "Si O2"
_cell_formula_units_Z 12
_cell_length_a 9.297777
_cell_length_b 16.429423
_cell_length_c 15.672115
_cell_angle_alpha 153.403020
_cell_angle_beta 40.904217
_cell_angle_gamma 150.633755
_cell_volume 522.604691
_symmetry_space_group_name_H-M "P -1"
_symmetry_group_IT_number 2
_symmetry_cell_setting 'triclinic'
loop_
_space_group_symop_operation_xyz
x,y,z
-x,-y,-z
loop_
_atom_site_type_symbol
_atom_site_label
_atom_site_fract_x
_atom_site_fract_y
_atom_site_fract_z
Si Si1 0.331381 0.193613 0.558614
Si Si2 0.178167 0.498511 0.492968
Si Si3 0.399578 0.304289 0.022388
Si Si4 0.294575 0.551081 0.671150
Si Si5 0.669060 0.143225 0.643227
Si Si6 0.766498 0.883944 0.897199
O O1 0.484589 0.302109 0.500324
O O2 0.428346 0.062614 0.438440
O O3 0.412131 0.407503 0.783936
O O4 0.000000 0.000000 0.500000
O O5 0.163816 0.578019 0.669537
O O6 0.091283 0.239065 0.294932
O O7 0.000000 0.500000 0.500000
O O8 0.563600 0.279450 0.853113
O O9 0.385962 0.185820 0.006947
O O10 0.059143 0.170884 0.025521
O O11 0.500000 0.500000 0.500000
O O12 0.515092 0.798649 0.860758
O O13 0.021544 0.337697 0.652447
O O14 0.500000 0.000000 0.500000
#
# Coordination Sequence:
#
# PCOD8044076 Si02
#       6
#     2   2   2   2   2   2
#     4  11  24  41  65  94 125 164 211 264 319 378
#     4  10  19  37  63  90 123 166 210 254 314 379
#     4  10  22  40  65  93 128 170 212 261 322 380
#     4  10  20  37  63  91 123 167 212 257 313 376
#     4  12  24  41  66  95 128 166 212 265 319 378
#     4   9  19  38  62  88 125 168 209 258 315 376
#
# _framework density 22.961905999999999
#
# number of rings (size 3 to 8) (size 9 to 14) (size 15 to 20)
#    0.000    1.667    0.000    7.000    0.000    3.333 
#    0.000    0.000    0.000   23.000    0.000    0.000 
#    0.000    0.000    0.000    0.000    0.000    0.000 
#
# Total GULP energy -148715.151630 kJ/mol
# GULP energy per Si atom -12392.929303 kJ/mol
# Density = 2.290964 g / cm^3
# Si number density = 22.961906 Si / 1000 Ang^3
#
#
#
# Elastic Constant Matrix: (Units=GPa)
#
#
# Indices 1 2 3 4 5 6 
#
# 1 122.4889 13.8957 34.5801 12.5281 33.8757 9.0774
# 2 13.8957 104.4949 49.2513 4.9852 16.7915 21.0375
# 3 34.5801 49.2513 93.2326 8.1636 24.7699 4.1636
# 4 12.5281 4.9852 8.1636 40.1031 1.8831 12.4024
# 5 33.8757 16.7915 24.7699 1.8831 40.7756 5.2764
# 6 9.0774 21.0375 4.1636 12.4024 5.2764 38.5587
#
#
#
# Elastic Compliance Matrix: (Units=1/GPa)
#
#
# Indices 1 2 3 4 5 6 
#
# 1 0.011308 0.001330 -0.002456 -0.002437 -0.008180 -0.001219
# 2 0.001330 0.014777 -0.007686 0.001836 -0.001581 -0.007919
# 3 -0.002456 -0.007686 0.017278 -0.002961 -0.005755 0.004646
# 4 -0.002437 0.001836 -0.002961 0.028973 0.003002 -0.009838
# 5 -0.008180 -0.001581 -0.005755 0.003002 0.035644 -0.002434
# 6 -0.001219 -0.007919 0.004646 -0.009838 -0.002434 0.033538
#
#
# Mechanical properties :
#
#
# Convention : Reuss Voigt Hill
#
# Bulk Modulus (GPa) = 38.85203 57.29674 48.07438
# Shear Modulus (GPa) = 29.81136 38.72009 34.26573
#
# Velocity S-wave (km/s) = 3.60710 4.11088 3.86720
# Velocity P-wave (km/s) = 5.85706 6.89490 6.39706
#
# Compressibility (1/GPa) = 0.02573868
#
# Stress axis : x y z
#
# Youngs Moduli (GPa) = 88.42996 67.67486 57.87790
#
# Poissons Ratio (x) = -0.09000 0.14213
# Poissons Ratio (y) = -0.11760 0.44486
# Poissons Ratio (z) = 0.21715 0.52017
#
# Static dielectric constant tensor:
#      x y z
#    x 4.404720 -0.162120 0.684670 
#    y -0.162120 4.637240 -0.176540 
#    z 0.684670 -0.176540 4.046690 
# 
# 
# High freq. dielectric constant tensor:
#      x y z
#    x 1.909210 0.009960 0.027200 
#    y 0.009960 1.916490 0.000670 
#    z 0.027200 0.000670 1.889660 
# 
# From -- ./inp_files/375506.got.cif
#   From: 2010.06.25/outbox.cif.g09.slc.cpg/sg2_188_cif.got.tgz:375506.got - 2010.06.27 13:26:56.
