data_PCOD8044310
_publ_section_title
;
Structure prediction by ZEFSAII (Michael W. Deem and Ramdas Pophale) SiO2 
 PCOD8044310
Probable space group: P -1
;
_chemical_formula_sum "Si O2"
_cell_formula_units_Z 12
_cell_length_a 9.416459
_cell_length_b 12.142849
_cell_length_c 9.393274
_cell_angle_alpha 109.974920
_cell_angle_beta 46.620710
_cell_angle_gamma 136.886198
_cell_volume 505.181783
_symmetry_space_group_name_H-M "P -1"
_symmetry_group_IT_number 2
_symmetry_cell_setting 'triclinic'
loop_
_space_group_symop_operation_xyz
x,y,z
-x,-y,-z
loop_
_atom_site_type_symbol
_atom_site_label
_atom_site_fract_x
_atom_site_fract_y
_atom_site_fract_z
Si Si1 0.426903 0.205614 0.684335
Si Si2 0.006380 0.840737 0.907752
Si Si3 0.659392 0.618694 0.806132
Si Si4 0.727519 0.351701 0.030012
Si Si5 0.143790 0.710330 0.381801
Si Si6 0.485867 0.894688 0.695997
O O1 0.739811 0.325155 0.588691
O O2 0.411302 0.158616 0.511594
O O3 0.235851 0.043860 0.853115
O O4 0.273778 0.265869 0.841880
O O5 0.166334 0.792075 0.823815
O O6 0.922069 0.801069 0.781151
O O7 0.806809 0.585002 0.587862
O O8 0.500000 0.500000 0.000000
O O9 0.459323 0.613970 0.849209
O O10 0.831932 0.343667 0.807507
O O11 0.528490 0.171657 0.169113
O O12 0.000000 0.500000 0.000000
O O13 0.301729 0.904269 0.355119
#
# Coordination Sequence:
#
# PCOD8044310 Si02
#       6
#     2   2   2   2   2   2
#     4  10  19  37  73  99 127 164 218 271 321 387
#     4  10  19  38  66 101 127 166 217 263 322 392
#     4  12  25  43  69  94 129 179 225 264 326 399
#     4  12  29  45  62  98 140 175 217 273 332 388
#     4  11  23  44  71  99 129 176 222 270 326 390
#     4  11  22  42  71 103 135 164 214 280 330 388
#
# _framework density 23.753824000000002
#
# number of rings (size 3 to 8) (size 9 to 14) (size 15 to 20)
#    0.000    1.000    5.000    2.500    0.000    4.667 
#    0.000    0.000    0.000    0.000    0.000    0.000 
#    0.000    0.000    0.000    0.000    0.000    0.000 
#
# Total GULP energy -148764.949626 kJ/mol
# GULP energy per Si atom -12397.079135 kJ/mol
# Density = 2.369976 g / cm^3
# Si number density = 23.753824 Si / 1000 Ang^3
#
#
#
# Elastic Constant Matrix: (Units=GPa)
#
#
# Indices 1 2 3 4 5 6 
#
# 1 136.0542 14.4602 47.6629 2.8157 -20.0444 -6.4302
# 2 14.4602 13.7788 14.1388 14.0257 0.4131 8.0581
# 3 47.6629 14.1388 169.3437 25.9995 -22.5118 -8.6142
# 4 2.8157 14.0257 25.9995 47.1228 2.2908 2.5761
# 5 -20.0444 0.4131 -22.5118 2.2908 43.7654 4.1349
# 6 -6.4302 8.0581 -8.6142 2.5761 4.1349 34.3555
#
#
#
# Elastic Compliance Matrix: (Units=1/GPa)
#
#
# Indices 1 2 3 4 5 6 
#
# 1 0.010341 -0.017200 -0.001534 0.004920 0.003398 0.004807
# 2 -0.017200 0.160703 -0.004939 -0.041688 -0.006136 -0.038286
# 3 -0.001534 -0.004939 0.007783 -0.003036 0.003256 0.002659
# 4 0.004920 -0.041688 -0.003036 0.034670 -0.001439 0.007511
# 5 0.003398 -0.006136 0.003256 -0.001439 0.026228 -0.000157
# 6 0.004807 -0.038286 0.002659 0.007511 -0.000157 0.039110
#
#
# Mechanical properties :
#
#
# Convention : Reuss Voigt Hill
#
# Bulk Modulus (GPa) = 7.60561 52.41115 30.00838
# Shear Modulus (GPa) = 13.51320 41.24306 27.37813
#
# Velocity S-wave (km/s) = 2.38772 4.17138 3.39865
# Velocity P-wave (km/s) = 3.28792 6.73147 5.29732
#
# Compressibility (1/GPa) = 0.13148186
#
# Stress axis : x y z
#
# Youngs Moduli (GPa) = 96.69883 6.22265 128.47923
#
# Poissons Ratio (x) = 0.10703 0.19704
# Poissons Ratio (y) = 1.66325 0.63457
# Poissons Ratio (z) = 0.14830 0.03073
#
# Static dielectric constant tensor:
#      x y z
#    x 4.543400 0.261090 -0.297930 
#    y 0.261090 4.611410 0.073030 
#    z -0.297930 0.073030 4.586470 
# 
# 
# High freq. dielectric constant tensor:
#      x y z
#    x 1.921520 0.005380 -0.024300 
#    y 0.005380 1.949410 0.001250 
#    z -0.024300 0.001250 1.959810 
# 
# From -- ./inp_files/149798.got.cif
#   From: 2010.06.25/outbox.cif.g09.slc.cpg/sg2_75_cif.got.tgz:149798.got - 2010.06.27 13:26:56.
