data_PCOD8044876
_publ_section_title
;
Structure prediction by ZEFSAII (Michael W. Deem and Ramdas Pophale) SiO2 
 PCOD8044876
Probable space group: P 2
;
_chemical_formula_sum "Si O2"
_cell_formula_units_Z 12
_cell_length_a 5.174345
_cell_length_b 13.790549
_cell_length_c 7.798722
_cell_angle_alpha 90.000000
_cell_angle_beta 90.681877
_cell_angle_gamma 90.000000
_cell_volume 556.454451
_symmetry_space_group_name_H-M "P 2"
_symmetry_group_IT_number 3
_symmetry_cell_setting 'monoclinic'
loop_
_space_group_symop_operation_xyz
x,y,z
-x,y,-z
loop_
_atom_site_type_symbol
_atom_site_label
_atom_site_fract_x
_atom_site_fract_y
_atom_site_fract_z
Si Si1 0.235517 0.934510 0.304735
Si Si2 0.883099 0.435926 0.310962
Si Si3 0.253071 0.234142 0.609802
Si Si4 0.742205 0.743787 0.884490
Si Si5 0.614590 0.529858 0.816968
Si Si6 0.733645 0.019148 0.307742
O O1 0.213044 0.819337 0.271313
O O2 0.490859 0.971882 0.209396
O O3 0.250009 0.969066 0.502714
O O4 0.993668 0.988271 0.212084
O O5 0.807754 0.324246 0.263606
O O6 0.620519 0.499935 0.311191
O O7 0.000000 0.439552 0.500000
O O8 0.115249 0.471668 0.191506
O O9 0.500000 0.266025 0.500000
O O10 0.316682 0.133892 0.704136
O O11 0.000000 0.209186 0.500000
O O12 0.678638 0.642571 0.791148
O O13 0.500000 0.775163 0.000000
O O14 0.000000 0.733782 0.000000
O O15 0.500000 0.505420 0.000000
#
# Coordination Sequence:
#
# PCOD8044876 Si02
#       6
#     2   2   2   2   2   2
#     4  10  19  34  57  86 116 146 206 238 295 356
#     4  11  23  39  64 101 123 158 214 277 310 357
#     4  11  18  34  60  90 120 158 199 239 320 384
#     4  11  23  41  63  84 115 170 214 245 299 372
#     4  11  23  44  65  86 127 178 211 249 324 392
#     4  10  18  34  57  92 114 156 181 247 311 362
#
# _framework density 21.565109
#
# number of rings (size 3 to 8) (size 9 to 14) (size 15 to 20)
#    0.000    1.333    3.333    6.000    0.000    0.000 
#    9.000    0.000    0.000   10.000    0.000    0.000 
#    0.000    0.000    0.000    0.000    0.000    0.000 
#
# Total GULP energy -148667.383466 kJ/mol
# GULP energy per Si atom -12388.948622 kJ/mol
# Density = 2.151603 g / cm^3
# Si number density = 21.565109 Si / 1000 Ang^3
#
#
#
# Elastic Constant Matrix: (Units=GPa)
#
#
# Indices 1 2 3 4 5 6 
#
# 1 199.6994 72.0165 13.1237 0.0000 11.8237 0.0000
# 2 72.0165 209.7927 44.8268 0.0000 -0.6071 0.0000
# 3 13.1237 44.8268 27.9955 0.0000 1.6758 0.0000
# 4 0.0000 0.0000 0.0000 17.8123 0.0000 -4.3514
# 5 11.8237 -0.6071 1.6758 0.0000 30.6046 0.0000
# 6 0.0000 0.0000 0.0000 -4.3514 0.0000 42.4939
#
#
#
# Elastic Compliance Matrix: (Units=1/GPa)
#
#
# Indices 1 2 3 4 5 6 
#
# 1 0.005891 -0.002233 0.000957 0.000000 -0.002372 0.000000
# 2 -0.002233 0.008111 -0.012041 0.000000 0.001683 0.000000
# 3 0.000957 -0.012041 0.054768 0.000000 -0.003607 0.000000
# 4 0.000000 0.000000 0.000000 0.057582 0.000000 0.005896
# 5 -0.002372 0.001683 -0.003607 0.000000 0.033822 0.000000
# 6 0.000000 0.000000 0.000000 0.005896 0.000000 0.024137
#
#
# Mechanical properties :
#
#
# Convention : Reuss Voigt Hill
#
# Bulk Modulus (GPa) = 23.73383 77.49129 50.61256
# Shear Modulus (GPa) = 22.22314 38.68352 30.45333
#
# Velocity S-wave (km/s) = 3.21364 4.23992 3.76195
# Velocity P-wave (km/s) = 4.97992 7.74474 6.51078
#
# Compressibility (1/GPa) = 0.04213394
#
# Stress axis : x y z
#
# Youngs Moduli (GPa) = 169.76420 123.28890 18.25877
#
# Poissons Ratio (x) = 0.27535 -0.01747
# Poissons Ratio (y) = 0.37915 0.21986
# Poissons Ratio (z) = -0.16243 1.48456
#
# Static dielectric constant tensor:
#      x y z
#    x 6.678910 0.000000 0.334770 
#    y 0.000000 4.076360 0.000000 
#    z 0.334770 0.000000 3.363930 
# 
# 
# High freq. dielectric constant tensor:
#      x y z
#    x 1.893180 0.000000 0.008690 
#    y 0.000000 1.857700 0.000000 
#    z 0.008690 0.000000 1.785190 
# 
# From -- ./inp_files/4341.got.cif
#   From: 2010.03.12/outbox.cif.g09.slc.cpg/sg3_3_cif.got.tgz:4341.got - 2010.03.31 09:20:49.
