data_PCOD8044505
_publ_section_title
;
Structure prediction by ZEFSAII (Michael W. Deem and Ramdas Pophale) SiO2 
 PCOD8044505
Probable space group: P -1
;
_chemical_formula_sum "Si O2"
_cell_formula_units_Z 16
_cell_length_a 14.373394
_cell_length_b 12.798033
_cell_length_c 13.927709
_cell_angle_alpha 138.520746
_cell_angle_beta 139.175591
_cell_angle_gamma 30.515405
_cell_volume 813.117945
_symmetry_space_group_name_H-M "P -1"
_symmetry_group_IT_number 2
_symmetry_cell_setting 'triclinic'
loop_
_space_group_symop_operation_xyz
x,y,z
-x,-y,-z
loop_
_atom_site_type_symbol
_atom_site_label
_atom_site_fract_x
_atom_site_fract_y
_atom_site_fract_z
Si Si1 0.351204 0.994891 0.332586
Si Si2 0.824262 0.820404 0.955110
Si Si3 0.187761 0.160892 0.635723
Si Si4 0.534429 0.769287 0.134076
Si Si5 0.631695 0.203209 0.609784
Si Si6 0.242425 0.563536 0.072492
Si Si7 0.720284 0.806267 0.065581
Si Si8 0.210707 0.378817 0.373698
O O1 0.450153 0.803642 0.198509
O O2 0.269083 0.944117 0.317207
O O3 0.500000 0.000000 0.500000
O O4 0.193266 0.229622 0.320610
O O5 0.793424 0.676422 0.777653
O O6 0.639300 0.072271 0.968494
O O7 0.853025 0.756330 0.045197
O O8 0.012708 0.771250 0.027935
O O9 0.339501 0.167905 0.712929
O O10 0.210894 0.137910 0.752838
O O11 0.971689 0.370639 0.577376
O O12 0.244085 0.949059 0.489493
O O13 0.665560 0.530184 0.027283
O O14 0.647511 0.379679 0.747759
O O15 0.405155 0.329854 0.513297
O O16 0.257818 0.392691 0.028105
O O17 0.500000 0.000000 0.000000
#
# Coordination Sequence:
#
# PCOD8044505 Si02
#       8
#     2   2   2   2   2   2   2   2
#     4   9  18  37  63  85 116 160 195 237 282 353
#     4  11  19  39  66  85 110 154 206 236 284 356
#     4  11  20  36  62  86 117 153 201 237 284 352
#     4  10  19  38  62  87 116 150 206 240 274 355
#     4  11  23  42  54  90 129 147 190 254 295 331
#     4  11  24  36  62  89 121 151 191 250 299 331
#     4  11  20  39  66  84 110 161 201 236 285 357
#     4  10  20  37  64  87 112 162 198 234 283 355
#
# _framework density 19.677343
#
# number of rings (size 3 to 8) (size 9 to 14) (size 15 to 20)
#    0.000    1.500    8.750    0.375    0.000    2.000 
#    0.000    5.625    0.000    0.000    0.000    0.000 
#    0.000    0.000    0.000    0.000    0.000    0.000 
#
# Total GULP energy -198314.401689 kJ/mol
# GULP energy per Si atom -12394.650106 kJ/mol
# Density = 1.963256 g / cm^3
# Si number density = 19.677343 Si / 1000 Ang^3
#
#
#
# Elastic Constant Matrix: (Units=GPa)
#
#
# Indices 1 2 3 4 5 6 
#
# 1 82.0313 38.3624 53.8461 -1.4870 -22.1718 -0.7135
# 2 38.3624 85.9688 30.7589 -8.9780 -9.9376 -23.2274
# 3 53.8461 30.7589 121.1400 8.8763 -15.1722 -4.3282
# 4 -1.4870 -8.9780 8.8763 26.3092 -3.7821 -2.0632
# 5 -22.1718 -9.9376 -15.1722 -3.7821 31.5831 -8.8814
# 6 -0.7135 -23.2274 -4.3282 -2.0632 -8.8814 29.7209
#
#
#
# Elastic Compliance Matrix: (Units=1/GPa)
#
#
# Indices 1 2 3 4 5 6 
#
# 1 0.023110 -0.006933 -0.007565 0.002702 0.009943 -0.002806
# 2 -0.006933 0.023268 -0.001768 0.011084 0.008890 0.021186
# 3 -0.007565 -0.001768 0.012362 -0.005322 -0.000658 -0.000329
# 4 0.002702 0.011084 -0.005322 0.046731 0.012634 0.014972
# 5 0.009943 0.008890 -0.000658 0.012634 0.048994 0.022608
# 6 -0.002806 0.021186 -0.000329 0.014972 0.022608 0.057884
#
#
# Mechanical properties :
#
#
# Convention : Reuss Voigt Hill
#
# Bulk Modulus (GPa) = 38.15555 59.45277 48.80416
# Shear Modulus (GPa) = 19.71479 28.60082 24.15780
#
# Velocity S-wave (km/s) = 3.16872 3.81660 3.50765
# Velocity P-wave (km/s) = 5.72891 7.04992 6.42346
#
# Compressibility (1/GPa) = 0.02620851
#
# Stress axis : x y z
#
# Youngs Moduli (GPa) = 43.27078 42.97788 80.89123
#
# Poissons Ratio (x) = 0.29795 0.61195
# Poissons Ratio (y) = 0.29998 0.14304
# Poissons Ratio (z) = 0.32735 0.07600
#
# Static dielectric constant tensor:
#      x y z
#    x 3.908330 -0.114390 -0.252660 
#    y -0.114390 3.917400 -0.239070 
#    z -0.252660 -0.239070 3.524700 
# 
# 
# High freq. dielectric constant tensor:
#      x y z
#    x 1.753550 -0.016880 -0.028040 
#    y -0.016880 1.764180 -0.010350 
#    z -0.028040 -0.010350 1.753690 
# 
# From -- ./inp_files/296712.got.cif
#   From: 2010.06.25/outbox.cif.g09.slc.cpg/sg2_149_cif.got.tgz:296712.got - 2010.06.27 13:26:56.
