data_PCOD8044856
_publ_section_title
;
Structure prediction by ZEFSAII (Michael W. Deem and Ramdas Pophale) SiO2 
 PCOD8044856
Probable space group: P 2
;
_chemical_formula_sum "Si O2"
_cell_formula_units_Z 16
_cell_length_a 8.800538
_cell_length_b 9.086529
_cell_length_c 20.574794
_cell_angle_alpha 90.000000
_cell_angle_beta 30.853531
_cell_angle_gamma 90.000000
_cell_volume 843.779553
_symmetry_space_group_name_H-M "P 2"
_symmetry_group_IT_number 3
_symmetry_cell_setting 'monoclinic'
loop_
_space_group_symop_operation_xyz
x,y,z
-x,y,-z
loop_
_atom_site_type_symbol
_atom_site_label
_atom_site_fract_x
_atom_site_fract_y
_atom_site_fract_z
Si Si1 0.162397 0.277270 0.615876
Si Si2 0.176485 0.613567 0.125528
Si Si3 0.847799 0.622126 0.375001
Si Si4 0.823829 0.777145 0.629024
Si Si5 0.673397 0.303265 0.128368
Si Si6 0.160510 0.123838 0.375919
Si Si7 0.198416 0.623835 0.867533
Si Si8 0.331930 0.296897 0.118540
O O1 0.500000 0.244723 0.500000
O O2 0.088973 0.450197 0.633160
O O3 0.076235 0.178607 0.588022
O O4 0.972374 0.218281 0.747533
O O5 0.234020 0.442909 0.116833
O O6 0.991082 0.676241 0.254549
O O7 0.992489 0.634291 0.127575
O O8 0.500000 0.692871 0.000000
O O9 0.500000 0.654107 0.500000
O O10 0.994865 0.717265 0.376848
O O11 0.491092 0.718643 0.750197
O O12 0.000000 0.727483 0.500000
O O13 0.796475 0.951095 0.644005
O O14 0.478519 0.199750 0.246639
O O15 0.702329 0.458371 0.153704
O O16 0.530010 0.326136 0.109850
O O17 0.000000 0.232095 0.000000
O O18 0.000000 0.175386 0.500000
O O19 0.000000 0.685847 0.000000
O O20 0.500000 0.202660 0.000000
#
# Coordination Sequence:
#
# PCOD8044856 Si02
#       8
#     2   2   2   2   2   2   2   2
#     4   9  19  34  54  80 104 136 181 226 274 322
#     4  10  18  31  52  81 110 137 171 222 278 327
#     4  10  20  35  57  82 108 140 183 233 278 322
#     4  11  23  39  55  79 113 151 191 228 272 331
#     4  10  20  35  57  86 110 141 183 229 279 329
#     4  10  23  38  54  77 112 151 185 223 270 327
#     4  11  21  35  60  88 111 143 184 231 281 330
#     4   9  16  29  49  77 110 135 166 218 272 322
#
# _framework density 18.962299999999999
#
# number of rings (size 3 to 8) (size 9 to 14) (size 15 to 20)
#    0.000    2.000    0.000    6.750    0.000    7.000 
#    0.000    0.000    0.000    9.000    0.000    0.875 
#    0.000    0.000    0.000    0.000    0.000    0.000 
#
# Total GULP energy -198283.648769 kJ/mol
# GULP energy per Si atom -12392.728048 kJ/mol
# Density = 1.891914 g / cm^3
# Si number density = 18.962300 Si / 1000 Ang^3
#
#
#
# Elastic Constant Matrix: (Units=GPa)
#
#
# Indices 1 2 3 4 5 6 
#
# 1 130.5336 28.4367 98.5632 0.0000 11.8471 0.0000
# 2 28.4367 41.9571 56.8203 0.0000 4.6795 0.0000
# 3 98.5632 56.8203 229.7111 0.0000 7.2513 0.0000
# 4 0.0000 0.0000 0.0000 22.8575 0.0000 2.0363
# 5 11.8471 4.6795 7.2513 0.0000 41.0173 0.0000
# 6 0.0000 0.0000 0.0000 2.0363 0.0000 50.6273
#
#
#
# Elastic Compliance Matrix: (Units=1/GPa)
#
#
# Indices 1 2 3 4 5 6 
#
# 1 0.011635 -0.001444 -0.004560 0.000000 -0.002390 0.000000
# 2 -0.001444 0.036283 -0.008284 0.000000 -0.002258 0.000000
# 3 -0.004560 -0.008284 0.008334 0.000000 0.000789 0.000000
# 4 0.000000 0.000000 0.000000 0.043907 0.000000 -0.001766
# 5 -0.002390 -0.002258 0.000789 0.000000 0.025188 0.000000
# 6 0.000000 0.000000 0.000000 -0.001766 0.000000 0.019823
#
#
# Mechanical properties :
#
#
# Convention : Reuss Voigt Hill
#
# Bulk Modulus (GPa) = 36.13189 85.53803 60.83496
# Shear Modulus (GPa) = 27.32664 37.45918 32.39291
#
# Velocity S-wave (km/s) = 3.80031 4.44943 4.13762
# Velocity P-wave (km/s) = 6.19293 8.46192 7.41473
#
# Compressibility (1/GPa) = 0.02767638
#
# Stress axis : x y z
#
# Youngs Moduli (GPa) = 85.94478 27.56120 119.99210
#
# Poissons Ratio (x) = 0.03981 0.54713
# Poissons Ratio (y) = 0.12414 0.99398
# Poissons Ratio (z) = 0.39188 0.22831
#
# Static dielectric constant tensor:
#      x y z
#    x 3.403730 0.000000 -0.255180 
#    y 0.000000 3.094420 0.000000 
#    z -0.255180 0.000000 3.381160 
# 
# 
# High freq. dielectric constant tensor:
#      x y z
#    x 1.746080 0.000000 0.000620 
#    y 0.000000 1.691660 0.000000 
#    z 0.000620 0.000000 1.775090 
# 
# From -- ./inp_files/15811.got.cif
#   From: 2010.03.12/outbox.cif.g09.slc.cpg/sg3_8_cif.got.tgz:15811.got - 2010.03.31 09:20:49.
