data_PCOD8044892
_publ_section_title
;
Structure prediction by ZEFSAII (Michael W. Deem and Ramdas Pophale) SiO2 
 PCOD8044892
Probable space group: P 2
;
_chemical_formula_sum "Si O2"
_cell_formula_units_Z 14
_cell_length_a 8.304762
_cell_length_b 8.381157
_cell_length_c 11.917998
_cell_angle_alpha 90.000000
_cell_angle_beta 137.441834
_cell_angle_gamma 90.000000
_cell_volume 561.046011
_symmetry_space_group_name_H-M "P 2"
_symmetry_group_IT_number 3
_symmetry_cell_setting 'monoclinic'
loop_
_space_group_symop_operation_xyz
x,y,z
-x,y,-z
loop_
_atom_site_type_symbol
_atom_site_label
_atom_site_fract_x
_atom_site_fract_y
_atom_site_fract_z
Si Si1 0.652706 0.915930 0.688176
Si Si2 0.346787 0.190763 0.605425
Si Si3 0.500000 0.423103 0.500000
Si Si4 0.763551 0.470571 0.313919
Si Si5 0.977734 0.473270 0.191410
Si Si6 0.962773 0.119989 0.231710
Si Si7 0.336422 0.690122 0.111023
Si Si8 0.500000 0.924837 0.000000
O O1 0.500000 0.866032 0.500000
O O2 0.734174 0.768561 0.806273
O O3 0.497520 0.028856 0.692222
O O4 0.895343 0.996685 0.773159
O O5 0.500572 0.310064 0.608102
O O6 0.299822 0.282015 0.699045
O O7 0.094912 0.159286 0.416025
O O8 0.748089 0.522407 0.636793
O O9 0.799380 0.509846 0.202484
O O10 0.553251 0.576031 0.255087
O O11 0.000000 0.520417 0.500000
O O12 0.944536 0.284092 0.150269
O O13 0.886540 0.582316 0.043149
O O14 0.716576 0.041195 0.142648
O O15 0.422638 0.817988 0.064844
#
# Coordination Sequence:
#
# PCOD8044892 Si02
#       8
#     2   2   1   2   2   2   2   1
#     4  10  23  52  76 113 159 203 270 320 397 465
#     4  10  20  44  79 113 137 200 277 326 377 460
#     4  10  18  44  80 114 146 196 260 340 378 456
#     4  12  24  43  75 117 153 205 266 320 394 465
#     4  11  23  49  78 115 158 197 272 322 392 471
#     4  10  23  45  79 109 152 206 267 327 373 471
#     4  12  29  50  73 114 171 206 254 327 403 476
#     4  12  28  48  70 110 166 210 254 316 410 462
#
# _framework density 24.953392000000001
#
# number of rings (size 3 to 8) (size 9 to 14) (size 15 to 20)
#    0.000    1.143    7.857    0.000    4.000    2.857 
#    6.429    0.000    0.000    0.000    0.000    0.000 
#    0.000    0.000    0.000    0.000    0.000    0.000 
#
# Total GULP energy -173580.355537 kJ/mol
# GULP energy per Si atom -12398.596824 kJ/mol
# Density = 2.489660 g / cm^3
# Si number density = 24.953392 Si / 1000 Ang^3
#
#
#
# Elastic Constant Matrix: (Units=GPa)
#
#
# Indices 1 2 3 4 5 6 
#
# 1 46.4988 35.6331 32.6335 0.0000 20.1502 0.0000
# 2 35.6331 120.4245 74.4461 0.0000 6.7247 0.0000
# 3 32.6335 74.4461 106.2308 0.0000 14.2723 0.0000
# 4 0.0000 0.0000 0.0000 53.3973 0.0000 -9.2912
# 5 20.1502 6.7247 14.2723 0.0000 38.2724 0.0000
# 6 0.0000 0.0000 0.0000 -9.2912 0.0000 45.2049
#
#
#
# Elastic Compliance Matrix: (Units=1/GPa)
#
#
# Indices 1 2 3 4 5 6 
#
# 1 0.037487 -0.007825 -0.003753 0.000000 -0.016962 0.000000
# 2 -0.007825 0.016348 -0.009707 0.000000 0.004867 0.000000
# 3 -0.003753 -0.009707 0.017765 0.000000 -0.002943 0.000000
# 4 0.000000 0.000000 0.000000 0.019422 0.000000 0.003992
# 5 -0.016962 0.004867 -0.002943 0.000000 0.035301 0.000000
# 6 0.000000 0.000000 0.000000 0.003992 0.000000 0.022942
#
#
# Mechanical properties :
#
#
# Convention : Reuss Voigt Hill
#
# Bulk Modulus (GPa) = 34.44770 62.06436 48.25603
# Shear Modulus (GPa) = 24.81249 36.07103 30.44176
#
# Velocity S-wave (km/s) = 3.15676 3.80615 3.49656
# Velocity P-wave (km/s) = 5.20784 6.65145 5.97342
#
# Compressibility (1/GPa) = 0.02902951
#
# Stress axis : x y z
#
# Youngs Moduli (GPa) = 26.67610 61.16837 56.29203
#
# Poissons Ratio (x) = 0.47862 0.21128
# Poissons Ratio (y) = 0.20873 0.54643
# Poissons Ratio (z) = 0.10012 0.59376
#
# Static dielectric constant tensor:
#      x y z
#    x 4.845890 0.000000 0.178920 
#    y 0.000000 4.607400 0.000000 
#    z 0.178920 0.000000 4.286140 
# 
# 
# High freq. dielectric constant tensor:
#      x y z
#    x 2.013740 0.000000 0.012940 
#    y 0.000000 1.992240 0.000000 
#    z 0.012940 0.000000 1.981420 
# 
# From -- ./inp_files/10880.got.cif
#   From: 2010.03.12/outbox.cif.g09.slc.cpg/sg3_6_cif.got.tgz:10880.got - 2010.03.31 09:20:49.
