data_PCOD8044382
_publ_section_title
;
Structure prediction by ZEFSAII (Michael W. Deem and Ramdas Pophale) SiO2 
 PCOD8044382
Probable space group: P -1
;
_chemical_formula_sum "Si O2"
_cell_formula_units_Z 14
_cell_length_a 10.138325
_cell_length_b 21.759697
_cell_length_c 9.285635
_cell_angle_alpha 152.521486
_cell_angle_beta 47.259605
_cell_angle_gamma 132.066739
_cell_volume 680.117913
_symmetry_space_group_name_H-M "P -1"
_symmetry_group_IT_number 2
_symmetry_cell_setting 'triclinic'
loop_
_space_group_symop_operation_xyz
x,y,z
-x,-y,-z
loop_
_atom_site_type_symbol
_atom_site_label
_atom_site_fract_x
_atom_site_fract_y
_atom_site_fract_z
Si Si1 0.112855 0.201564 0.871195
Si Si2 0.579785 0.311720 0.203924
Si Si3 0.378709 0.491861 0.929632
Si Si4 0.527323 0.729140 0.121129
Si Si5 0.006489 0.602201 0.838171
Si Si6 0.769981 0.031260 0.870934
Si Si7 0.496655 0.965819 0.161586
O O1 0.270360 0.300669 0.050675
O O2 0.961150 0.136402 0.964376
O O3 0.213333 0.095338 0.501372
O O4 0.016243 0.258997 0.929727
O O5 0.453967 0.387116 0.552324
O O6 0.796586 0.375433 0.184734
O O7 0.524292 0.331643 0.123136
O O8 0.537584 0.150337 0.933891
O O9 0.500000 0.500000 0.000000
O O10 0.394268 0.640384 0.153141
O O11 0.161795 0.444097 0.022715
O O12 0.529386 0.890059 0.455305
O O13 0.000000 0.500000 0.500000
O O14 0.625464 0.094263 0.012770
O O15 0.704105 0.991350 0.998856
#
# Coordination Sequence:
#
# PCOD8044382 Si02
#       7
#     2   2   2   2   2   2   2
#     4  10  19  38  59  94 125 165 213 260 317 380
#     4  12  25  46  66  97 137 170 210 274 332 378
#     4  12  25  44  69  95 129 173 225 265 317 386
#     4  11  25  43  65  95 139 168 204 274 336 381
#     4  12  24  39  70  96 123 169 227 266 311 383
#     4   9  19  33  64  92 121 165 215 264 305 379
#     4  10  21  38  67  95 128 164 219 262 325 379
#
# _framework density 20.584665999999999
#
# number of rings (size 3 to 8) (size 9 to 14) (size 15 to 20)
#    0.000    1.143    4.286    1.714    6.000    0.571 
#    2.571    0.714    0.000    0.000    0.000    0.000 
#    0.000    0.000    0.000    0.000    0.000    0.000 
#
# Total GULP energy -173504.017770 kJ/mol
# GULP energy per Si atom -12393.144126 kJ/mol
# Density = 2.053781 g / cm^3
# Si number density = 20.584666 Si / 1000 Ang^3
#
#
#
# Elastic Constant Matrix: (Units=GPa)
#
#
# Indices 1 2 3 4 5 6 
#
# 1 101.0603 53.2345 26.5420 -14.0557 16.3382 7.5287
# 2 53.2345 271.0810 -30.9381 -5.4749 -2.8455 42.9807
# 3 26.5420 -30.9381 119.4891 -10.6205 5.3687 -11.0624
# 4 -14.0557 -5.4749 -10.6205 37.6169 -2.6164 -8.7743
# 5 16.3382 -2.8455 5.3687 -2.6164 26.8229 -4.7365
# 6 7.5287 42.9807 -11.0624 -8.7743 -4.7365 45.8615
#
#
#
# Elastic Compliance Matrix: (Units=1/GPa)
#
#
# Indices 1 2 3 4 5 6 
#
# 1 0.014211 -0.003125 -0.003354 0.003247 -0.008075 -0.000426
# 2 -0.003125 0.005093 0.001517 -0.000814 0.001371 -0.003909
# 3 -0.003354 0.001517 0.009861 0.002281 0.000811 0.002027
# 4 0.003247 -0.000814 0.002281 0.029991 0.001584 0.006682
# 5 -0.008075 0.001371 0.000811 0.001584 0.043221 0.005004
# 6 -0.000426 -0.003909 0.002027 0.006682 0.005004 0.027822
#
#
# Mechanical properties :
#
#
# Convention : Reuss Voigt Hill
#
# Bulk Modulus (GPa) = 51.97092 65.47855 58.72474
# Shear Modulus (GPa) = 34.12093 51.57971 42.85032
#
# Velocity S-wave (km/s) = 4.07577 5.01116 4.56747
# Velocity P-wave (km/s) = 6.88850 8.08460 7.51040
#
# Compressibility (1/GPa) = 0.01924153
#
# Stress axis : x y z
#
# Youngs Moduli (GPa) = 70.36848 196.32885 101.41196
#
# Poissons Ratio (x) = 0.61356 0.34011
# Poissons Ratio (y) = 0.21991 -0.15386
# Poissons Ratio (z) = 0.23600 -0.29786
#
# Static dielectric constant tensor:
#      x y z
#    x 3.376200 0.117320 -0.034130 
#    y 0.117320 3.974780 0.031560 
#    z -0.034130 0.031560 3.576050 
# 
# 
# High freq. dielectric constant tensor:
#      x y z
#    x 1.789710 0.008490 -0.011410 
#    y 0.008490 1.821180 0.004480 
#    z -0.011410 0.004480 1.801870 
# 
# From -- ./inp_files/178345.got.cif
#   From: 2010.06.25/outbox.cif.g09.slc.cpg/sg2_90_cif.got.tgz:178345.got - 2010.06.27 13:26:56.
