data_PCOD8044811
_publ_section_title
;
Structure prediction by ZEFSAII (Michael W. Deem and Ramdas Pophale) SiO2 
 PCOD8044811
Probable space group: P -1
;
_chemical_formula_sum "Si O2"
_cell_formula_units_Z 16
_cell_length_a 7.300960
_cell_length_b 16.955418
_cell_length_c 11.992542
_cell_angle_alpha 146.359086
_cell_angle_beta 58.101646
_cell_angle_gamma 117.654194
_cell_volume 697.305707
_symmetry_space_group_name_H-M "P -1"
_symmetry_group_IT_number 2
_symmetry_cell_setting 'triclinic'
loop_
_space_group_symop_operation_xyz
x,y,z
-x,-y,-z
loop_
_atom_site_type_symbol
_atom_site_label
_atom_site_fract_x
_atom_site_fract_y
_atom_site_fract_z
Si Si1 0.335189 0.577669 0.970670
Si Si2 0.044178 0.215406 0.177628
Si Si3 0.132593 0.782842 0.999286
Si Si4 0.115315 0.333146 0.863141
Si Si5 0.469025 0.394224 0.283302
Si Si6 0.249012 0.043302 0.397394
Si Si7 0.241087 0.920850 0.711805
Si Si8 0.689810 0.115414 0.593440
O O1 0.415847 0.731391 0.175619
O O2 0.097272 0.594064 0.020525
O O3 0.317475 0.449913 0.918600
O O4 0.488195 0.532861 0.766133
O O5 0.221289 0.336900 0.298339
O O6 0.876278 0.197695 0.311839
O O7 0.905305 0.256492 0.163139
O O8 0.166373 0.075037 0.947038
O O9 0.921513 0.713872 0.051676
O O10 0.157319 0.954005 0.214634
O O11 0.360706 0.728279 0.903483
O O12 0.146294 0.196523 0.613739
O O13 0.500000 0.500000 0.500000
O O14 0.504092 0.076404 0.348053
O O15 0.180669 0.940548 0.405860
O O16 0.171439 0.879398 0.558753
O O17 0.500000 0.000000 0.500000
#
# Coordination Sequence:
#
# PCOD8044811 Si02
#       8
#     2   2   2   2   2   2   2   2
#     4  10  22  42  62  99 141 170 224 282 343 405
#     4  11  24  44  64  99 138 180 229 277 334 405
#     4  11  23  43  70 100 136 176 235 284 334 419
#     4  10  22  37  65 103 132 173 224 282 345 401
#     4  11  24  47  68  92 140 189 221 272 348 410
#     4  11  20  41  68 102 134 175 229 284 352 396
#     4  10  23  40  64 102 136 173 227 286 334 400
#     4  10  19  38  68  90 129 172 217 281 334 392
#
# _framework density 22.945460000000001
#
# number of rings (size 3 to 8) (size 9 to 14) (size 15 to 20)
#    0.000    1.500    3.750    1.875    1.750    6.000 
#    2.250    5.625    0.000    0.000    0.000    0.000 
#    0.000    0.000    0.000    0.000    0.000    0.000 
#
# Total GULP energy -198342.149535 kJ/mol
# GULP energy per Si atom -12396.384346 kJ/mol
# Density = 2.289324 g / cm^3
# Si number density = 22.945460 Si / 1000 Ang^3
#
#
#
# Elastic Constant Matrix: (Units=GPa)
#
#
# Indices 1 2 3 4 5 6 
#
# 1 30.3370 51.7764 -11.8997 -3.2988 50.2929 11.2174
# 2 51.7764 172.2724 66.7997 -13.5091 7.2862 24.0185
# 3 -11.8997 66.7997 104.7877 -3.9963 42.3034 10.5562
# 4 -3.2988 -13.5091 -3.9963 44.1399 -1.0709 3.0115
# 5 50.2929 7.2862 42.3034 -1.0709 11.4063 1.4953
# 6 11.2174 24.0185 10.5562 3.0115 1.4953 23.0566
#
#
#
# Elastic Compliance Matrix: (Units=1/GPa)
#
#
# Indices 1 2 3 4 5 6 
#
# 1 0.002108 0.001493 -0.006934 0.000396 0.015565 -0.000468
# 2 0.001493 0.007277 -0.000883 0.002629 -0.006686 -0.007812
# 3 -0.006934 -0.000883 0.006621 -0.000090 0.006461 0.000855
# 4 0.000396 0.002629 -0.000090 0.023890 -0.000061 -0.006007
# 5 0.015565 -0.006686 0.006461 -0.000061 -0.000190 -0.003546
# 6 -0.000468 -0.007812 0.000855 -0.006007 -0.003546 0.052360
#
#
# Mechanical properties :
#
#
# Convention : Reuss Voigt Hill
#
# Bulk Modulus (GPa) = 297.77732 57.86110 177.81921
# Shear Modulus (GPa) = 47.24496 29.10194 38.17345
#
# Velocity S-wave (km/s) = 4.54256 3.56520 4.08322
# Velocity P-wave (km/s) = 12.55273 6.49762 9.99475
#
# Compressibility (1/GPa) = 0.00335821
#
# Stress axis : x y z
#
# Youngs Moduli (GPa) = 474.34680 137.42864 151.04541
#
# Poissons Ratio (x) = -0.20517 1.04729
# Poissons Ratio (y) = -0.70815 0.13334
# Poissons Ratio (z) = 3.28894 0.12132
#
# Static dielectric constant tensor:
#      x y z
#    x 4.097400 0.005590 0.061790 
#    y 0.005590 4.814740 -0.189870 
#    z 0.061790 -0.189870 4.190180 
# 
# 
# High freq. dielectric constant tensor:
#      x y z
#    x 1.899310 0.013370 0.002240 
#    y 0.013370 1.909660 -0.003320 
#    z 0.002240 -0.003320 1.902090 
# 
# From -- ./inp_files/402457.got.cif
#   From: 2010.06.25/outbox.cif.g09.slc.cpg/sg2_202_cif.got.tgz:402457.got - 2010.06.27 13:26:56.
