data_PCOD8044516
_publ_section_title
;
Structure prediction by ZEFSAII (Michael W. Deem and Ramdas Pophale) SiO2 
 PCOD8044516
Probable space group: P -1
;
_chemical_formula_sum "Si O2"
_cell_formula_units_Z 16
_cell_length_a 12.878539
_cell_length_b 8.542349
_cell_length_c 20.355301
_cell_angle_alpha 130.986492
_cell_angle_beta 28.008083
_cell_angle_gamma 115.617280
_cell_volume 722.632603
_symmetry_space_group_name_H-M "P -1"
_symmetry_group_IT_number 2
_symmetry_cell_setting 'triclinic'
loop_
_space_group_symop_operation_xyz
x,y,z
-x,-y,-z
loop_
_atom_site_type_symbol
_atom_site_label
_atom_site_fract_x
_atom_site_fract_y
_atom_site_fract_z
Si Si1 0.506526 0.621375 0.769544
Si Si2 0.894375 0.177893 0.395526
Si Si3 0.461688 0.757619 0.606521
Si Si4 0.345973 0.265097 0.150554
Si Si5 0.929834 0.799539 0.363306
Si Si6 0.709629 0.684621 0.950225
Si Si7 0.995469 0.991040 0.851919
Si Si8 0.621497 0.895896 0.680169
O O1 0.615456 0.362617 0.611259
O O2 0.558984 0.606600 0.814189
O O3 0.654526 0.754810 0.690069
O O4 0.219253 0.755055 0.950761
O O5 0.905827 0.036092 0.284712
O O6 0.064269 0.315294 0.333800
O O7 0.981995 0.003325 0.359577
O O8 0.500000 0.500000 0.500000
O O9 0.695603 0.788137 0.454687
O O10 0.217807 0.948788 0.764621
O O11 0.449066 0.816747 0.707854
O O12 0.389970 0.337748 0.072680
O O13 0.500000 0.000000 0.000000
O O14 0.872245 0.842722 0.486125
O O15 0.162737 0.564307 0.158023
O O16 0.899109 0.798577 0.867440
O O17 0.498351 0.836517 0.160262
#
# Coordination Sequence:
#
# PCOD8044516 Si02
#       8
#     2   2   2   2   2   2   2   2
#     4  11  21  39  65  87 115 155 209 245 280 359
#     4  11  23  39  60  87 125 156 191 247 306 342
#     4  10  19  38  62  89 120 156 201 242 290 352
#     4  11  20  41  66  89 111 156 208 244 285 355
#     4  10  23  39  56  89 129 152 189 249 299 350
#     4  10  19  38  63  83 119 154 199 243 292 345
#     4  10  20  38  62  89 114 156 208 239 285 346
#     4   9  20  36  60  84 120 149 203 233 295 341
#
# _framework density 22.141264
#
# number of rings (size 3 to 8) (size 9 to 14) (size 15 to 20)
#    0.750    1.000    5.000    2.625    0.000    3.500 
#    2.250    3.750    0.000    0.000    0.000    0.000 
#    0.000    0.000    0.000    0.000    0.000    0.000 
#
# Total GULP energy -198308.823890 kJ/mol
# GULP energy per Si atom -12394.301493 kJ/mol
# Density = 2.209087 g / cm^3
# Si number density = 22.141264 Si / 1000 Ang^3
#
#
#
# Elastic Constant Matrix: (Units=GPa)
#
#
# Indices 1 2 3 4 5 6 
#
# 1 66.5450 -2.0984 20.1480 3.2175 0.2444 -9.9377
# 2 -2.0984 42.6547 31.2518 23.1430 7.6122 -7.7969
# 3 20.1480 31.2518 137.8467 41.6847 13.7615 -7.2174
# 4 3.2175 23.1430 41.6847 34.2058 -8.7634 -7.1340
# 5 0.2444 7.6122 13.7615 -8.7634 36.8123 -0.5127
# 6 -9.9377 -7.7969 -7.2174 -7.1340 -0.5127 19.2791
#
#
#
# Elastic Compliance Matrix: (Units=1/GPa)
#
#
# Indices 1 2 3 4 5 6 
#
# 1 0.017753 0.003603 -0.004067 0.003432 0.001619 0.010399
# 2 0.003603 0.048568 0.003433 -0.041343 -0.021096 0.006925
# 3 -0.004067 0.003433 0.015759 -0.025333 -0.012668 -0.004519
# 4 0.003432 -0.041343 -0.025333 0.101593 0.042380 0.014286
# 5 0.001619 -0.021096 -0.012668 0.042380 0.046403 0.004477
# 6 0.010399 0.006925 -0.004519 0.014286 0.004477 0.063744
#
#
# Mechanical properties :
#
#
# Convention : Reuss Voigt Hill
#
# Bulk Modulus (GPa) = 11.36120 38.40545 24.88333
# Shear Modulus (GPa) = 15.76182 31.24244 23.50213
#
# Velocity S-wave (km/s) = 2.67099 3.76047 3.26154
# Velocity P-wave (km/s) = 3.82814 6.01981 5.04444
#
# Compressibility (1/GPa) = 0.08801886
#
# Stress axis : x y z
#
# Youngs Moduli (GPa) = 56.32737 20.58972 63.45474
#
# Poissons Ratio (x) = -0.07418 0.25805
# Poissons Ratio (y) = -0.20293 -0.21785
# Poissons Ratio (z) = 0.22907 -0.07069
#
# Static dielectric constant tensor:
#      x y z
#    x 4.236400 -0.143300 0.043210 
#    y -0.143300 3.534060 0.026950 
#    z 0.043210 0.026950 4.177150 
# 
# 
# High freq. dielectric constant tensor:
#      x y z
#    x 1.853100 -0.022930 0.005590 
#    y -0.022930 1.837310 0.008820 
#    z 0.005590 0.008820 1.886060 
# 
# From -- ./inp_files/597045.got.cif
#   From: 2010.06.25/outbox.cif.g09.slc.cpg/sg2_299_cif.got.tgz:597045.got - 2010.06.27 13:26:56.
