data_PCOD8044931
_publ_section_title
;
Structure prediction by ZEFSAII (Michael W. Deem and Ramdas Pophale) SiO2 
 PCOD8044931
Probable space group: P 2
;
_chemical_formula_sum "Si O2"
_cell_formula_units_Z 14
_cell_length_a 29.920850
_cell_length_b 5.107226
_cell_length_c 17.235412
_cell_angle_alpha 90.000000
_cell_angle_beta 162.949916
_cell_angle_gamma 90.000000
_cell_volume 772.246217
_symmetry_space_group_name_H-M "P 2"
_symmetry_group_IT_number 3
_symmetry_cell_setting 'monoclinic'
loop_
_space_group_symop_operation_xyz
x,y,z
-x,y,-z
loop_
_atom_site_type_symbol
_atom_site_label
_atom_site_fract_x
_atom_site_fract_y
_atom_site_fract_z
Si Si1 0.898817 0.057610 0.696249
Si Si2 0.482646 0.420699 0.060862
Si Si3 0.236384 0.901524 0.248105
Si Si4 0.645529 0.927176 0.390069
Si Si5 0.833803 0.599076 0.009775
Si Si6 0.845923 0.557794 0.510192
Si Si7 0.333056 0.094368 0.255626
O O1 0.863022 0.348942 0.607701
O O2 0.808415 0.012460 0.625899
O O3 0.841675 0.850733 0.537132
O O4 0.078158 0.037748 0.009837
O O5 0.588560 0.670679 0.251261
O O6 0.528686 0.169725 0.188567
O O7 0.500000 0.338655 0.000000
O O8 0.309287 0.499512 0.794024
O O9 0.336379 0.849260 0.489908
O O10 0.333117 0.087462 0.350019
O O11 0.198779 0.633516 0.137736
O O12 0.013448 0.538393 0.317466
O O13 0.735016 0.369960 0.884486
O O14 0.780118 0.865445 0.963884
O O15 0.500000 0.051059 0.500000
#
# Coordination Sequence:
#
# PCOD8044931 Si02
#       7
#     2   2   2   2   2   2   2
#     4  11  19  34  53  73 109 145 179 220 255 309
#     4  12  23  35  51  73 106 148 199 218 249 294
#     4   9  23  34  53  82 112 134 179 208 280 329
#     4  12  23  34  53  75 111 153 175 227 257 301
#     4   9  19  35  55  78 110 131 170 221 266 326
#     4  11  19  35  52  73 105 144 183 222 245 301
#     4  10  19  34  58  84 108 132 164 219 282 331
#
# _framework density 18.128931999999999
#
# number of rings (size 3 to 8) (size 9 to 14) (size 15 to 20)
#    0.857    0.571    4.286    2.143    2.000    0.000 
#    0.000    2.857    0.000    0.000    0.000    6.000 
#    0.000    0.000    0.000    0.000    0.000    0.000 
#
# Total GULP energy -173528.011644 kJ/mol
# GULP energy per Si atom -12394.857975 kJ/mol
# Density = 1.808767 g / cm^3
# Si number density = 18.128932 Si / 1000 Ang^3
#
#
#
# Elastic Constant Matrix: (Units=GPa)
#
#
# Indices 1 2 3 4 5 6 
#
# 1 45.1191 11.8593 38.0314 0.0000 19.6906 0.0000
# 2 11.8593 94.5180 19.7030 0.0000 6.1513 0.0000
# 3 38.0314 19.7030 92.9480 0.0000 17.0513 0.0000
# 4 0.0000 0.0000 0.0000 27.6099 0.0000 8.0823
# 5 19.6906 6.1513 17.0513 0.0000 28.3223 0.0000
# 6 0.0000 0.0000 0.0000 8.0823 0.0000 18.3320
#
#
#
# Elastic Compliance Matrix: (Units=1/GPa)
#
#
# Indices 1 2 3 4 5 6 
#
# 1 0.043343 -0.001211 -0.013488 0.000000 -0.021750 0.000000
# 2 -0.001211 0.011134 -0.001771 0.000000 -0.000510 0.000000
# 3 -0.013488 -0.001771 0.016707 0.000000 -0.000297 0.000000
# 4 0.000000 0.000000 0.000000 0.041586 0.000000 -0.018335
# 5 -0.021750 -0.000510 -0.000297 0.000000 0.050719 0.000000
# 6 0.000000 0.000000 0.000000 -0.018335 0.000000 0.062633
#
#
# Mechanical properties :
#
#
# Convention : Reuss Voigt Hill
#
# Bulk Modulus (GPa) = 26.14751 41.30807 33.72779
# Shear Modulus (GPa) = 18.39514 25.71892 22.05703
#
# Velocity S-wave (km/s) = 3.18887 3.77061 3.49187
# Velocity P-wave (km/s) = 5.29272 6.46466 5.90782
#
# Compressibility (1/GPa) = 0.03824457
#
# Stress axis : x y z
#
# Youngs Moduli (GPa) = 23.07174 89.81209 59.85386
#
# Poissons Ratio (x) = 0.10878 0.80730
# Poissons Ratio (y) = 0.02794 0.10601
# Poissons Ratio (z) = 0.31119 0.15907
#
# Static dielectric constant tensor:
#      x y z
#    x 2.935850 0.000000 0.270760 
#    y 0.000000 3.398490 0.000000 
#    z 0.270760 0.000000 3.366390 
# 
# 
# High freq. dielectric constant tensor:
#      x y z
#    x 1.654590 0.000000 0.033640 
#    y 0.000000 1.718800 0.000000 
#    z 0.033640 0.000000 1.691660 
# 
# From -- ./inp_files/7971.got.cif
#   From: 2010.03.12/outbox.cif.g09.slc.cpg/sg3_4_cif.got.tgz:7971.got - 2010.03.31 09:20:49.
