data_PCOD8044531
_publ_section_title
;
Structure prediction by ZEFSAII (Michael W. Deem and Ramdas Pophale) SiO2 
 PCOD8044531
Probable space group: P -1
;
_chemical_formula_sum "Si O2"
_cell_formula_units_Z 16
_cell_length_a 14.333441
_cell_length_b 10.673855
_cell_length_c 11.108869
_cell_angle_alpha 118.558199
_cell_angle_beta 27.172765
_cell_angle_gamma 123.766096
_cell_volume 644.625749
_symmetry_space_group_name_H-M "P -1"
_symmetry_group_IT_number 2
_symmetry_cell_setting 'triclinic'
loop_
_space_group_symop_operation_xyz
x,y,z
-x,-y,-z
loop_
_atom_site_type_symbol
_atom_site_label
_atom_site_fract_x
_atom_site_fract_y
_atom_site_fract_z
Si Si1 0.977798 0.795134 0.270812
Si Si2 0.155616 0.139666 0.204718
Si Si3 0.855371 0.298338 0.500111
Si Si4 0.527540 0.143026 0.613995
Si Si5 0.461023 0.415659 0.376789
Si Si6 0.762230 0.361413 0.250848
Si Si7 0.492957 0.385298 0.060733
Si Si8 0.939904 0.443384 0.808626
O O1 0.746982 0.736177 0.438255
O O2 0.026395 0.971105 0.320881
O O3 0.171831 0.764913 0.956497
O O4 0.979878 0.705077 0.355674
O O5 0.006264 0.234030 0.375955
O O6 0.293690 0.131278 0.925253
O O7 0.308726 0.224330 0.176589
O O8 0.698667 0.164440 0.537279
O O9 0.724555 0.357016 0.778811
O O10 0.989266 0.441905 0.330014
O O11 0.614428 0.287500 0.498375
O O12 0.500000 0.000000 0.500000
O O13 0.408233 0.555479 0.574810
O O14 0.688737 0.386283 0.107340
O O15 0.451752 0.458899 0.264994
O O16 0.970818 0.486998 0.128620
O O17 0.500000 0.500000 0.000000
#
# Coordination Sequence:
#
# PCOD8044531 Si02
#       8
#     2   2   2   2   2   2   2   2
#     4  11  24  41  62  92 133 164 203 259 322 374
#     4  11  24  43  64  98 130 163 204 265 319 369
#     4  10  23  40  65  96 121 163 218 252 314 375
#     4  10  19  38  62  91 128 162 199 259 311 367
#     4  11  23  39  62  92 121 169 218 252 308 377
#     4  10  21  40  62  92 126 165 209 255 317 372
#     4  11  23  42  68  92 126 166 213 265 309 371
#     4  10  21  40  63  90 125 165 211 256 305 373
#
# _framework density 24.820603999999999
#
# number of rings (size 3 to 8) (size 9 to 14) (size 15 to 20)
#    0.000    1.500    1.250    6.000    0.000    9.000 
#    2.250    1.250    0.000    0.000    0.000    0.000 
#    0.000    0.000    0.000    0.000    0.000    0.000 
#
# Total GULP energy -198260.659457 kJ/mol
# GULP energy per Si atom -12391.291216 kJ/mol
# Density = 2.476411 g / cm^3
# Si number density = 24.820604 Si / 1000 Ang^3
#
#
#
# Elastic Constant Matrix: (Units=GPa)
#
#
# Indices 1 2 3 4 5 6 
#
# 1 32.5112 18.1861 24.8756 3.2523 -5.3154 -18.4064
# 2 18.1861 131.9241 38.8729 0.7463 -18.9407 -9.6442
# 3 24.8756 38.8729 152.3566 4.4341 -19.0247 -0.3710
# 4 3.2523 0.7463 4.4341 31.6997 1.3268 -6.7806
# 5 -5.3154 -18.9407 -19.0247 1.3268 53.9902 8.1120
# 6 -18.4064 -9.6442 -0.3710 -6.7806 8.1120 34.4838
#
#
#
# Elastic Compliance Matrix: (Units=1/GPa)
#
#
# Indices 1 2 3 4 5 6 
#
# 1 0.055225 -0.003412 -0.008543 0.002080 -0.003270 0.029609
# 2 -0.003412 0.008797 -0.001418 0.000282 0.002220 0.000157
# 3 -0.008543 -0.001418 0.008683 -0.001658 0.002635 -0.005809
# 4 0.002080 0.000282 -0.001658 0.033431 -0.002349 0.008297
# 5 -0.003270 0.002220 0.002635 -0.002349 0.020939 -0.006484
# 6 0.029609 0.000157 -0.005809 0.008297 -0.006484 0.047942
#
#
# Mechanical properties :
#
#
# Convention : Reuss Voigt Hill
#
# Bulk Modulus (GPa) = 21.75873 53.40678 37.58275
# Shear Modulus (GPa) = 23.03272 39.69190 31.36231
#
# Velocity S-wave (km/s) = 3.04956 4.00328 3.55851
# Velocity P-wave (km/s) = 4.60274 6.55226 5.66204
#
# Compressibility (1/GPa) = 0.04595857
#
# Stress axis : x y z
#
# Youngs Moduli (GPa) = 18.10785 113.67586 115.16448
#
# Poissons Ratio (x) = 0.38790 0.98383
# Poissons Ratio (y) = 0.06179 0.16330
# Poissons Ratio (z) = 0.15469 0.16119
#
# Static dielectric constant tensor:
#      x y z
#    x 5.002180 0.179780 0.293870 
#    y 0.179780 5.118170 0.076300 
#    z 0.293870 0.076300 7.079650 
# 
# 
# High freq. dielectric constant tensor:
#      x y z
#    x 2.008030 0.006150 0.012660 
#    y 0.006150 1.972600 -0.004830 
#    z 0.012660 -0.004830 2.026190 
# 
# From -- ./inp_files/538282.got.cif
#   From: 2010.06.25/outbox.cif.g09.slc.cpg/sg2_270_cif.got.tgz:538282.got - 2010.06.27 13:26:56.
