data_PCOD8044019
_publ_section_title
;
Structure prediction by ZEFSAII (Michael W. Deem and Ramdas Pophale) SiO2 
 PCOD8044019
Probable space group: P -1
;
_chemical_formula_sum "Si O2"
_cell_formula_units_Z 14
_cell_length_a 13.755457
_cell_length_b 19.299637
_cell_length_c 11.744168
_cell_angle_alpha 33.002834
_cell_angle_beta 137.395828
_cell_angle_gamma 158.963085
_cell_volume 591.957848
_symmetry_space_group_name_H-M "P -1"
_symmetry_group_IT_number 2
_symmetry_cell_setting 'triclinic'
loop_
_space_group_symop_operation_xyz
x,y,z
-x,-y,-z
loop_
_atom_site_type_symbol
_atom_site_label
_atom_site_fract_x
_atom_site_fract_y
_atom_site_fract_z
Si Si1 0.432879 0.639663 0.180571
Si Si2 0.509381 0.120406 0.432273
Si Si3 0.047686 0.692128 0.059630
Si Si4 0.713167 0.816218 0.949273
Si Si5 0.588968 0.097025 0.121636
Si Si6 0.861043 0.828071 0.442321
Si Si7 0.282183 0.306101 0.243720
O O1 0.719742 0.811250 0.249896
O O2 0.180759 0.349520 0.388973
O O3 0.480335 0.677921 0.032917
O O4 0.343151 0.708286 0.050753
O O5 0.267339 0.044001 0.305521
O O6 0.811918 0.415535 0.279829
O O7 0.500000 0.000000 0.500000
O O8 0.445411 0.020847 0.638809
O O9 0.306257 0.871068 0.119373
O O10 0.142961 0.738823 0.947522
O O11 0.950032 0.762818 0.882544
O O12 0.589586 0.597112 0.079047
O O13 0.000000 0.000000 0.000000
O O14 0.713094 0.740189 0.558117
O O15 0.188741 0.118337 0.338445
#
# Coordination Sequence:
#
# PCOD8044019 Si02
#       7
#     2   2   2   2   2   2   2
#     4  10  19  37  62  92 133 167 217 272 326 397
#     4  11  23  44  66  97 136 176 217 286 335 392
#     4  10  23  41  68  97 132 177 221 271 331 408
#     4  10  22  41  61  90 128 179 223 270 337 395
#     4  11  22  42  68 101 132 177 222 269 336 408
#     4   9  18  34  60  89 122 169 204 270 332 376
#     4   9  18  38  62  88 131 165 219 274 323 393
#
# _framework density 23.650333
#
# number of rings (size 3 to 8) (size 9 to 14) (size 15 to 20)
#    0.000    2.000    2.857    0.429    0.000    1.714 
#    7.714    0.714    0.000    0.000    0.000    0.000 
#    0.000    0.000    0.000    0.000    0.000    0.000 
#
# Total GULP energy -173563.082263 kJ/mol
# GULP energy per Si atom -12397.363019 kJ/mol
# Density = 2.359650 g / cm^3
# Si number density = 23.650333 Si / 1000 Ang^3
#
#
#
# Elastic Constant Matrix: (Units=GPa)
#
#
# Indices 1 2 3 4 5 6 
#
# 1 62.1619 31.1290 52.3943 -14.5257 2.5397 -12.8278
# 2 31.1290 119.5681 58.5611 -18.7887 16.0465 -12.7406
# 3 52.3943 58.5611 165.8477 -0.1786 -0.3195 -10.7437
# 4 -14.5257 -18.7887 -0.1786 43.4554 -13.5458 5.8426
# 5 2.5397 16.0465 -0.3195 -13.5458 37.9348 -6.5861
# 6 -12.8278 -12.7406 -10.7437 5.8426 -6.5861 35.7012
#
#
#
# Elastic Compliance Matrix: (Units=1/GPa)
#
#
# Indices 1 2 3 4 5 6 
#
# 1 0.025971 -0.001738 -0.007205 0.007997 0.002789 0.005749
# 2 -0.001738 0.011621 -0.003472 0.003171 -0.003467 0.001319
# 3 -0.007205 -0.003472 0.009513 -0.003621 0.000696 -0.000244
# 4 0.007997 0.003171 -0.003621 0.029792 0.008668 -0.000361
# 5 0.002789 -0.003467 0.000696 0.008668 0.031500 0.004367
# 6 0.005749 0.001319 -0.000244 -0.000361 0.004367 0.031338
#
#
# Mechanical properties :
#
#
# Convention : Reuss Voigt Hill
#
# Bulk Modulus (GPa) = 44.89195 70.19404 57.54300
# Shear Modulus (GPa) = 29.07159 37.11784 33.09472
#
# Velocity S-wave (km/s) = 3.50983 3.96592 3.74483
# Velocity P-wave (km/s) = 5.95382 7.12150 6.56368
#
# Compressibility (1/GPa) = 0.02227571
#
# Stress axis : x y z
#
# Youngs Moduli (GPa) = 38.50455 86.05459 105.11609
#
# Poissons Ratio (x) = 0.14956 0.75732
# Poissons Ratio (y) = 0.06692 0.36496
# Poissons Ratio (z) = 0.27741 0.29878
#
# Static dielectric constant tensor:
#      x y z
#    x 4.127890 -0.345700 0.010050 
#    y -0.345700 4.418180 -0.089420 
#    z 0.010050 -0.089420 4.656930 
# 
# 
# High freq. dielectric constant tensor:
#      x y z
#    x 1.916740 -0.026930 -0.000210 
#    y -0.026930 1.949750 -0.001700 
#    z -0.000210 -0.001700 1.958370 
# 
# From -- ./inp_files/238787.got.cif
#   From: 2010.06.25/outbox.cif.g09.slc.cpg/sg2_120_cif.got.tgz:238787.got - 2010.06.27 13:26:56.
