data_PCOD8044867
_publ_section_title
;
Structure prediction by ZEFSAII (Michael W. Deem and Ramdas Pophale) SiO2 
 PCOD8044867
Probable space group: P 2
;
_chemical_formula_sum "Si O2"
_cell_formula_units_Z 14
_cell_length_a 14.753721
_cell_length_b 11.239460
_cell_length_c 5.136657
_cell_angle_alpha 90.000000
_cell_angle_beta 67.863009
_cell_angle_gamma 90.000000
_cell_volume 788.991754
_symmetry_space_group_name_H-M "P 2"
_symmetry_group_IT_number 3
_symmetry_cell_setting 'monoclinic'
loop_
_space_group_symop_operation_xyz
x,y,z
-x,y,-z
loop_
_atom_site_type_symbol
_atom_site_label
_atom_site_fract_x
_atom_site_fract_y
_atom_site_fract_z
Si Si1 0.886573 0.690450 0.607633
Si Si2 0.204788 0.091913 0.685073
Si Si3 0.887585 0.841814 0.107918
Si Si4 0.732554 0.483426 0.813178
Si Si5 0.392129 0.183023 0.637942
Si Si6 0.390938 0.456238 0.551127
Si Si7 0.225360 0.218346 0.162589
O O1 0.861892 0.746964 0.356475
O O2 0.821020 0.574975 0.706017
O O3 0.000000 0.651884 0.500000
O O4 0.861058 0.786371 0.857962
O O5 0.323491 0.097043 0.540207
O O6 0.171318 0.137558 0.438386
O O7 0.174757 0.959196 0.779503
O O8 0.169680 0.184037 0.951524
O O9 0.000000 0.880587 0.000000
O O10 0.653140 0.506697 0.670850
O O11 0.785036 0.354894 0.741437
O O12 0.679035 0.500117 0.144327
O O13 0.500000 0.127628 0.500000
O O14 0.392914 0.314498 0.513561
O O15 0.342658 0.191636 0.982364
O O16 0.500000 0.503902 0.500000
#
# Coordination Sequence:
#
# PCOD8044867 Si02
#       7
#     2   2   2   2   2   2   2
#     4  10  22  38  59  80 100 141 191 224 265 318
#     4  10  18  33  51  76 108 133 173 217 262 312
#     4  10  21  38  57  77 100 138 190 226 257 314
#     4  11  18  35  54  80 115 138 174 230 265 316
#     4   8  17  29  49  76 108 139 169 208 248 318
#     4  10  19  31  53  82 113 145 179 209 261 326
#     4   9  18  30  50  79 109 132 168 206 273 319
#
# _framework density 17.744164000000001
#
# number of rings (size 3 to 8) (size 9 to 14) (size 15 to 20)
#    0.857    1.429    1.429    2.143    0.000    0.571 
#    0.000    1.429    0.000    5.143    0.000    0.000 
#    0.000    0.000    0.000    0.000    0.000    0.000 
#
# Total GULP energy -173450.649255 kJ/mol
# GULP energy per Si atom -12389.332090 kJ/mol
# Density = 1.770378 g / cm^3
# Si number density = 17.744164 Si / 1000 Ang^3
#
#
#
# Elastic Constant Matrix: (Units=GPa)
#
#
# Indices 1 2 3 4 5 6 
#
# 1 57.8082 35.8293 21.3084 0.0000 -2.8232 0.0000
# 2 35.8293 71.4902 24.9217 0.0000 -19.5294 0.0000
# 3 21.3084 24.9217 92.0457 0.0000 3.7856 0.0000
# 4 0.0000 0.0000 0.0000 28.4724 0.0000 -12.9916
# 5 -2.8232 -19.5294 3.7856 0.0000 24.7650 0.0000
# 6 0.0000 0.0000 0.0000 -12.9916 0.0000 28.1188
#
#
#
# Elastic Compliance Matrix: (Units=1/GPa)
#
#
# Indices 1 2 3 4 5 6 
#
# 1 0.027005 -0.015309 -0.001748 0.000000 -0.008727 0.000000
# 2 -0.015309 0.029698 -0.005422 0.000000 0.022503 0.000000
# 3 -0.001748 -0.005422 0.013003 0.000000 -0.006463 0.000000
# 4 0.000000 0.000000 0.000000 0.044504 0.000000 0.020562
# 5 -0.008727 0.022503 -0.006463 0.000000 0.058118 0.000000
# 6 0.000000 0.000000 0.000000 0.020562 0.000000 0.045064
#
#
# Mechanical properties :
#
#
# Convention : Reuss Voigt Hill
#
# Bulk Modulus (GPa) = 40.40797 42.82921 41.61859
# Shear Modulus (GPa) = 18.47753 25.55690 22.01721
#
# Velocity S-wave (km/s) = 3.23046 3.79924 3.52634
# Velocity P-wave (km/s) = 6.06107 6.59053 6.33134
#
# Compressibility (1/GPa) = 0.02474759
#
# Stress axis : x y z
#
# Youngs Moduli (GPa) = 37.03003 33.67229 76.90716
#
# Poissons Ratio (x) = 0.51549 0.13441
# Poissons Ratio (y) = 0.56689 0.41702
# Poissons Ratio (z) = 0.06472 0.18258
#
# Static dielectric constant tensor:
#      x y z
#    x 3.203880 0.000000 0.049790 
#    y 0.000000 2.952160 0.000000 
#    z 0.049790 0.000000 3.483020 
# 
# 
# High freq. dielectric constant tensor:
#      x y z
#    x 1.666220 0.000000 0.008330 
#    y 0.000000 1.658230 0.000000 
#    z 0.008330 0.000000 1.704550 
# 
# From -- ./inp_files/3150.got.cif
#   From: 2010.03.12/outbox.cif.g09.slc.cpg/sg3_2_cif.got.tgz:3150.got - 2010.03.31 09:20:49.
