data_PCOD8044603
_publ_section_title
;
Structure prediction by ZEFSAII (Michael W. Deem and Ramdas Pophale) SiO2 
 PCOD8044603
Probable space group: P -1
;
_chemical_formula_sum "Si O2"
_cell_formula_units_Z 16
_cell_length_a 13.277614
_cell_length_b 19.459126
_cell_length_c 9.826506
_cell_angle_alpha 43.665853
_cell_angle_beta 125.590563
_cell_angle_gamma 153.223789
_cell_volume 772.924012
_symmetry_space_group_name_H-M "P -1"
_symmetry_group_IT_number 2
_symmetry_cell_setting 'triclinic'
loop_
_space_group_symop_operation_xyz
x,y,z
-x,-y,-z
loop_
_atom_site_type_symbol
_atom_site_label
_atom_site_fract_x
_atom_site_fract_y
_atom_site_fract_z
Si Si1 0.256193 0.746527 0.486621
Si Si2 0.249340 0.601516 0.451180
Si Si3 0.275498 0.105434 0.693449
Si Si4 0.975202 0.090249 0.504046
Si Si5 0.574685 0.819487 0.788894
Si Si6 0.667577 0.558116 0.871622
Si Si7 0.226286 0.952276 0.130493
Si Si8 0.244221 0.389810 0.833430
O O1 0.309060 0.740040 0.386323
O O2 0.406754 0.794498 0.649782
O O3 0.319938 0.905682 0.304609
O O4 0.990816 0.547564 0.603067
O O5 0.448701 0.701015 0.364060
O O6 0.226595 0.496215 0.692083
O O7 0.142443 0.111046 0.639686
O O8 0.194182 0.037973 0.571772
O O9 0.243637 0.988486 0.932189
O O10 0.138950 0.296393 0.301597
O O11 0.811424 0.992070 0.645038
O O12 0.640221 0.878612 0.913545
O O13 0.449062 0.628887 0.948765
O O14 0.473067 0.509521 0.765633
O O15 0.776742 0.665629 0.949077
O O16 0.953383 0.776326 0.189519
#
# Coordination Sequence:
#
# PCOD8044603 Si02
#       8
#     2   2   2   2   2   2   2   2
#     4  10  22  41  65  89 126 180 214 264 323 369
#     4  10  19  38  67  93 125 163 221 275 305 381
#     4  11  21  41  63 103 126 162 219 269 319 385
#     4  11  23  39  70  98 133 164 212 268 322 393
#     4  12  25  46  62  97 137 172 211 266 328 386
#     4  11  21  38  68  95 129 170 209 262 321 391
#     4  11  25  41  65  90 135 174 212 268 323 376
#     4  10  19  38  63  96 125 165 213 262 324 379
#
# _framework density 20.700610999999999
#
# number of rings (size 3 to 8) (size 9 to 14) (size 15 to 20)
#    0.000    1.250    5.000    1.125    3.500    2.500 
#    6.750    1.875    0.000    0.000    0.000    0.000 
#    0.000    0.000    0.000    0.000    0.000    0.000 
#
# Total GULP energy -198244.919970 kJ/mol
# GULP energy per Si atom -12390.307498 kJ/mol
# Density = 2.065350 g / cm^3
# Si number density = 20.700611 Si / 1000 Ang^3
#
#
#
# Elastic Constant Matrix: (Units=GPa)
#
#
# Indices 1 2 3 4 5 6 
#
# 1 70.2988 54.4916 27.0494 6.4695 11.2421 19.5017
# 2 54.4916 104.1167 39.7051 1.0824 11.0344 14.7695
# 3 27.0494 39.7051 73.9831 -8.6261 6.1824 10.1942
# 4 6.4695 1.0824 -8.6261 29.7163 6.0151 -1.1835
# 5 11.2421 11.0344 6.1824 6.0151 21.9299 -0.9859
# 6 19.5017 14.7695 10.1942 -1.1835 -0.9859 42.4490
#
#
#
# Elastic Compliance Matrix: (Units=1/GPa)
#
#
# Indices 1 2 3 4 5 6 
#
# 1 0.028471 -0.011772 -0.003011 -0.005636 -0.006663 -0.008573
# 2 -0.011772 0.017816 -0.005079 0.000800 -0.001699 0.000412
# 3 -0.003011 -0.005079 0.018554 0.006796 -0.003049 -0.001187
# 4 -0.005636 0.000800 0.006796 0.038914 -0.010034 0.001531
# 5 -0.006663 -0.001699 -0.003049 -0.010034 0.053722 0.005352
# 6 -0.008573 0.000412 -0.001187 0.001531 0.005352 0.027805
#
#
# Mechanical properties :
#
#
# Convention : Reuss Voigt Hill
#
# Bulk Modulus (GPa) = 39.81332 54.54342 47.17837
# Shear Modulus (GPa) = 21.42456 27.29588 24.36022
#
# Velocity S-wave (km/s) = 3.22059 3.63520 3.43416
# Velocity P-wave (km/s) = 5.75363 6.63517 6.21006
#
# Compressibility (1/GPa) = 0.02511722
#
# Stress axis : x y z
#
# Youngs Moduli (GPa) = 35.12401 56.13040 53.89707
#
# Poissons Ratio (x) = 0.66075 0.16228
# Poissons Ratio (y) = 0.41347 0.27374
# Poissons Ratio (z) = 0.10575 0.28508
#
# Static dielectric constant tensor:
#      x y z
#    x 3.540640 0.284030 0.226180 
#    y 0.284030 3.947400 -0.087230 
#    z 0.226180 -0.087230 3.663200 
# 
# 
# High freq. dielectric constant tensor:
#      x y z
#    x 1.787250 0.025010 0.021140 
#    y 0.025010 1.818250 -0.003190 
#    z 0.021140 -0.003190 1.802780 
# 
# From -- ./inp_files/202075.got.cif
#   From: 2010.06.25/outbox.cif.g09.slc.cpg/sg2_102_cif.got.tgz:202075.got - 2010.06.27 13:26:56.
