data_PCOD8044532
_publ_section_title
;
Structure prediction by ZEFSAII (Michael W. Deem and Ramdas Pophale) SiO2 
 PCOD8044532
Probable space group: P -1
;
_chemical_formula_sum "Si O2"
_cell_formula_units_Z 16
_cell_length_a 10.804333
_cell_length_b 12.853565
_cell_length_c 12.262499
_cell_angle_alpha 149.415794
_cell_angle_beta 104.055187
_cell_angle_gamma 67.184053
_cell_volume 783.500431
_symmetry_space_group_name_H-M "P -1"
_symmetry_group_IT_number 2
_symmetry_cell_setting 'triclinic'
loop_
_space_group_symop_operation_xyz
x,y,z
-x,-y,-z
loop_
_atom_site_type_symbol
_atom_site_label
_atom_site_fract_x
_atom_site_fract_y
_atom_site_fract_z
Si Si1 0.519219 0.224815 0.925420
Si Si2 0.442117 0.169544 0.265722
Si Si3 0.965769 0.800204 0.357154
Si Si4 0.713622 0.922746 0.031335
Si Si5 0.146524 0.967356 0.042555
Si Si6 0.800001 0.650453 0.009311
Si Si7 0.324993 0.498279 0.720898
Si Si8 0.231676 0.124981 0.418119
O O1 0.356707 0.298569 0.938036
O O2 0.569126 0.051514 0.880536
O O3 0.624372 0.086445 0.727096
O O4 0.548045 0.449514 0.152562
O O5 0.602249 0.133272 0.256812
O O6 0.371668 0.386863 0.514439
O O7 0.371460 0.207735 0.166353
O O8 0.867979 0.740225 0.199488
O O9 0.883414 0.872259 0.517543
O O10 0.000000 0.000000 0.500000
O O11 0.112634 0.604199 0.224356
O O12 0.809769 0.768453 0.004443
O O13 0.791382 0.005313 0.034051
O O14 0.162675 0.130581 0.287800
O O15 0.202519 0.725865 0.886049
O O16 0.000000 0.000000 0.000000
O O17 0.270733 0.341158 0.640416
#
# Coordination Sequence:
#
# PCOD8044532 Si02
#       8
#     2   2   2   2   2   2   2   2
#     4   9  19  41  65  98 125 159 204 257 312 370
#     4   9  18  36  59  92 134 157 196 249 304 375
#     4  11  27  48  64  87 122 169 216 262 310 361
#     4  10  19  39  59  93 131 158 196 256 301 368
#     4  11  24  36  57  94 132 164 202 245 306 379
#     4  10  25  43  66  92 127 162 214 261 304 365
#     4  10  19  38  62  91 128 164 197 250 315 369
#     4  10  23  43  64  91 126 163 207 260 305 374
#
# _framework density 20.421175000000002
#
# number of rings (size 3 to 8) (size 9 to 14) (size 15 to 20)
#    0.000    2.000    3.750    0.000    3.500    8.500 
#    0.000    1.250    0.000    0.000    0.000    0.000 
#    0.000    0.000    0.000    0.000    0.000    0.000 
#
# Total GULP energy -198218.215562 kJ/mol
# GULP energy per Si atom -12388.638473 kJ/mol
# Density = 2.037470 g / cm^3
# Si number density = 20.421175 Si / 1000 Ang^3
#
#
#
# Elastic Constant Matrix: (Units=GPa)
#
#
# Indices 1 2 3 4 5 6 
#
# 1 139.6265 31.8307 37.5007 1.9431 -9.6302 0.5797
# 2 31.8307 53.5425 3.5549 -1.5622 -8.8307 -5.7304
# 3 37.5007 3.5549 73.3926 2.6909 -1.6529 2.6377
# 4 1.9431 -1.5622 2.6909 16.4523 1.3747 -4.4300
# 5 -9.6302 -8.8307 -1.6529 1.3747 35.6636 -0.4514
# 6 0.5797 -5.7304 2.6377 -4.4300 -0.4514 41.1038
#
#
#
# Elastic Compliance Matrix: (Units=1/GPa)
#
#
# Indices 1 2 3 4 5 6 
#
# 1 0.009730 -0.005406 -0.004616 -0.001192 0.001112 -0.000711
# 2 -0.005406 0.022961 0.001500 0.003182 0.004218 0.003570
# 3 -0.004616 0.001500 0.016026 -0.002196 -0.000060 -0.000991
# 4 -0.001192 0.003182 -0.002196 0.063757 -0.001999 0.007451
# 5 0.001112 0.004218 -0.000060 -0.001999 0.029467 0.000684
# 6 -0.000711 0.003570 -0.000991 0.007451 0.000684 0.025711
#
#
# Mechanical properties :
#
#
# Convention : Reuss Voigt Hill
#
# Bulk Modulus (GPa) = 31.57086 45.81492 38.69289
# Shear Modulus (GPa) = 25.60776 31.55562 28.58169
#
# Velocity S-wave (km/s) = 3.54500 3.93522 3.74520
# Velocity P-wave (km/s) = 5.67886 6.56747 6.13926
#
# Compressibility (1/GPa) = 0.03167478
#
# Stress axis : x y z
#
# Youngs Moduli (GPa) = 102.77333 43.55142 62.39908
#
# Poissons Ratio (x) = 0.23542 0.28801
# Poissons Ratio (y) = 0.55554 -0.09359
# Poissons Ratio (z) = 0.47436 -0.06532
#
# Static dielectric constant tensor:
#      x y z
#    x 3.907240 -0.155940 -0.009000 
#    y -0.155940 3.584930 -0.011090 
#    z -0.009000 -0.011090 3.685240 
# 
# 
# High freq. dielectric constant tensor:
#      x y z
#    x 1.817430 -0.000520 -0.008030 
#    y -0.000520 1.778760 -0.003280 
#    z -0.008030 -0.003280 1.793540 
# 
# From -- ./inp_files/427921.got.cif
#   From: 2010.06.25/outbox.cif.g09.slc.cpg/sg2_214_cif.got.tgz:427921.got - 2010.06.27 13:26:56.
