data_PCOD8044593
_publ_section_title
;
Structure prediction by ZEFSAII (Michael W. Deem and Ramdas Pophale) SiO2 
 PCOD8044593
Probable space group: P -1
;
_chemical_formula_sum "Si O2"
_cell_formula_units_Z 16
_cell_length_a 11.963147
_cell_length_b 12.734917
_cell_length_c 10.398464
_cell_angle_alpha 77.483784
_cell_angle_beta 103.449940
_cell_angle_gamma 37.184575
_cell_volume 679.355513
_symmetry_space_group_name_H-M "P -1"
_symmetry_group_IT_number 2
_symmetry_cell_setting 'triclinic'
loop_
_space_group_symop_operation_xyz
x,y,z
-x,-y,-z
loop_
_atom_site_type_symbol
_atom_site_label
_atom_site_fract_x
_atom_site_fract_y
_atom_site_fract_z
Si Si1 0.971178 0.340880 0.382280
Si Si2 0.803049 0.244372 0.320458
Si Si3 0.507288 0.076119 0.265990
Si Si4 0.271644 0.269032 0.892578
Si Si5 0.721899 0.352289 0.786381
Si Si6 0.919392 0.994484 0.800411
Si Si7 0.834488 0.489950 0.799409
Si Si8 0.196686 0.138104 0.223499
O O1 0.844412 0.330937 0.356276
O O2 0.754600 0.615607 0.254680
O O3 0.103026 0.258329 0.303728
O O4 0.185437 0.172001 0.596319
O O5 0.524536 0.446873 0.241360
O O6 0.851228 0.188944 0.194898
O O7 0.000000 0.000000 0.500000
O O8 0.417513 0.227662 0.318771
O O9 0.440297 0.005999 0.285840
O O10 0.349685 0.254710 0.055006
O O11 0.018281 0.408417 0.783393
O O12 0.500000 0.000000 0.000000
O O13 0.748752 0.451778 0.713509
O O14 0.740676 0.251407 0.697775
O O15 0.964373 0.124335 0.998440
O O16 0.738121 0.044101 0.702890
O O17 0.970090 0.345639 0.007122
#
# Coordination Sequence:
#
# PCOD8044593 Si02
#       8
#     2   2   2   2   2   2   2   2
#     4  11  22  39  65  95 125 168 213 261 323 381
#     4  11  24  42  61  95 134 170 219 267 324 383
#     4  11  20  38  67  91 124 163 211 262 317 387
#     4  11  24  41  61  96 133 164 204 263 327 383
#     4  10  21  41  65  93 126 168 220 267 319 385
#     4   9  21  39  65  94 121 170 221 265 324 381
#     4  10  19  38  63  94 121 163 214 256 320 386
#     4   9  17  35  63  92 123 158 209 267 317 379
#
# _framework density 23.551731
#
# number of rings (size 3 to 8) (size 9 to 14) (size 15 to 20)
#    0.000    1.750    2.500    2.250    0.000    5.000 
#    6.750    0.000    0.000    0.000    0.000    0.000 
#    0.000    0.000    0.000    0.000    0.000    0.000 
#
# Total GULP energy -198263.359111 kJ/mol
# GULP energy per Si atom -12391.459944 kJ/mol
# Density = 2.349813 g / cm^3
# Si number density = 23.551731 Si / 1000 Ang^3
#
#
#
# Elastic Constant Matrix: (Units=GPa)
#
#
# Indices 1 2 3 4 5 6 
#
# 1 121.4000 42.1811 35.6116 -11.4923 -1.7542 40.5854
# 2 42.1811 112.6781 3.4022 -21.9511 4.5831 32.9069
# 3 35.6116 3.4022 46.2568 -24.6689 1.4529 16.5454
# 4 -11.4923 -21.9511 -24.6689 30.3638 5.2690 -7.5530
# 5 -1.7542 4.5831 1.4529 5.2690 24.5122 -2.2646
# 6 40.5854 32.9069 16.5454 -7.5530 -2.2646 39.2405
#
#
#
# Elastic Compliance Matrix: (Units=1/GPa)
#
#
# Indices 1 2 3 4 5 6 
#
# 1 0.017735 -0.008901 -0.022547 -0.020688 0.008266 -0.004877
# 2 -0.008901 0.026287 0.035744 0.042770 -0.018782 -0.020761
# 3 -0.022547 0.035744 0.101911 0.098621 -0.038573 -0.032868
# 4 -0.020688 0.042770 0.098621 0.136313 -0.047632 -0.032563
# 5 0.008266 -0.018782 -0.038573 -0.047632 0.059060 0.017705
# 6 -0.004877 -0.020761 -0.032868 -0.032563 0.017705 0.056551
#
#
# Mechanical properties :
#
#
# Convention : Reuss Voigt Hill
#
# Bulk Modulus (GPa) = 6.47146 49.19160 27.83153
# Shear Modulus (GPa) = 11.34371 32.09932 21.72151
#
# Velocity S-wave (km/s) = 2.19704 3.69579 3.04022
# Velocity P-wave (km/s) = 3.03145 6.25650 4.91597
#
# Compressibility (1/GPa) = 0.15452455
#
# Stress axis : x y z
#
# Youngs Moduli (GPa) = 56.38420 38.04223 9.81250
#
# Poissons Ratio (x) = 0.33860 0.22125
# Poissons Ratio (y) = 0.50185 -0.35074
# Poissons Ratio (z) = 1.27132 -1.35978
#
# Static dielectric constant tensor:
#      x y z
#    x 4.570080 1.491610 1.468280 
#    y 1.491610 11.565400 10.646960 
#    z 1.468280 10.646960 20.066200 
# 
# 
# High freq. dielectric constant tensor:
#      x y z
#    x 1.930460 0.025620 -0.005100 
#    y 0.025620 1.925360 -0.008780 
#    z -0.005100 -0.008780 1.921570 
# 
# From -- ./inp_files/337769.got.cif
#   From: 2010.06.25/outbox.cif.g09.slc.cpg/sg2_169_cif.got.tgz:337769.got - 2010.06.27 13:26:56.
