data_PCOD8044285
_publ_section_title
;
Structure prediction by ZEFSAII (Michael W. Deem and Ramdas Pophale) SiO2 
 PCOD8044285
Probable space group: P -1
;
_chemical_formula_sum "Si O2"
_cell_formula_units_Z 16
_cell_length_a 6.669595
_cell_length_b 18.852734
_cell_length_c 5.422423
_cell_angle_alpha 97.468415
_cell_angle_beta 78.804159
_cell_angle_gamma 91.560576
_cell_volume 663.165148
_symmetry_space_group_name_H-M "P -1"
_symmetry_group_IT_number 2
_symmetry_cell_setting 'triclinic'
loop_
_space_group_symop_operation_xyz
x,y,z
-x,-y,-z
loop_
_atom_site_type_symbol
_atom_site_label
_atom_site_fract_x
_atom_site_fract_y
_atom_site_fract_z
Si Si1 0.492001 0.833665 0.042024
Si Si2 0.206078 0.229920 0.740428
Si Si3 0.587951 0.588664 0.773756
Si Si4 0.037615 0.337242 0.482958
Si Si5 0.849246 0.891712 0.685038
Si Si6 0.614989 0.021091 0.730780
Si Si7 0.136553 0.794694 0.801114
Si Si8 0.356640 0.579047 0.321070
O O1 0.577065 0.769088 0.162673
O O2 0.344480 0.892821 0.238000
O O3 0.694492 0.876732 0.939909
O O4 0.372542 0.798342 0.825969
O O5 0.183315 0.306730 0.650200
O O6 0.227178 0.161229 0.531262
O O7 0.001283 0.219091 0.937228
O O8 0.802600 0.632511 0.743384
O O9 0.454616 0.606768 0.568403
O O10 0.645377 0.505954 0.721096
O O11 0.471617 0.609047 0.063413
O O12 0.895988 0.271422 0.402239
O O13 0.881003 0.398071 0.634245
O O14 0.075766 0.869862 0.714440
O O15 0.828682 0.975639 0.655441
O O16 0.500000 0.000000 0.500000
O O17 0.500000 0.000000 0.000000
#
# Coordination Sequence:
#
# PCOD8044285 Si02
#       8
#     2   2   2   2   2   2   2   2
#     4  10  21  40  65  87 131 173 223 281 342 396
#     4  10  22  40  59  90 133 172 219 279 329 411
#     4  10  24  46  73 107 140 181 226 294 338 402
#     4  11  25  43  67  99 142 184 230 279 349 409
#     4   9  20  40  60  87 128 166 223 280 342 397
#     4  10  19  37  68  93 119 172 226 275 347 404
#     4  10  24  40  58  97 131 175 225 277 335 415
#     4  10  24  45  75 107 139 177 238 280 344 410
#
# _framework density 24.126719999999999
#
# number of rings (size 3 to 8) (size 9 to 14) (size 15 to 20)
#    0.000    2.000    1.250    0.375    3.500    6.500 
#    0.000    4.375    0.000    0.000    0.000    0.000 
#    0.000    0.000    0.000    0.000    0.000    0.000 
#
# Total GULP energy -198251.813510 kJ/mol
# GULP energy per Si atom -12390.738344 kJ/mol
# Density = 2.407181 g / cm^3
# Si number density = 24.126720 Si / 1000 Ang^3
#
#
#
# Elastic Constant Matrix: (Units=GPa)
#
#
# Indices 1 2 3 4 5 6 
#
# 1 139.1756 51.0668 37.6524 -15.4518 20.3679 -26.7523
# 2 51.0668 57.5928 16.6695 -8.8072 1.0337 -31.0261
# 3 37.6524 16.6695 110.1183 -19.1871 10.1244 -20.6375
# 4 -15.4518 -8.8072 -19.1871 19.2388 0.1535 4.5403
# 5 20.3679 1.0337 10.1244 0.1535 41.9993 -1.5244
# 6 -26.7523 -31.0261 -20.6375 4.5403 -1.5244 34.1003
#
#
#
# Elastic Compliance Matrix: (Units=1/GPa)
#
#
# Indices 1 2 3 4 5 6 
#
# 1 0.012551 -0.011033 -0.001860 0.003704 -0.005455 -0.002054
# 2 -0.011033 0.045777 0.004385 0.008232 0.004398 0.034749
# 3 -0.001860 0.004385 0.012836 0.011277 -0.002026 0.008708
# 4 0.003704 0.008232 0.011277 0.068131 -0.004678 0.007940
# 5 -0.005455 0.004398 -0.002026 -0.004678 0.026864 0.000320
# 6 -0.002054 0.034749 0.008708 0.007940 0.000320 0.063557
#
#
# Mechanical properties :
#
#
# Convention : Reuss Voigt Hill
#
# Bulk Modulus (GPa) = 18.46750 57.51823 37.99286
# Shear Modulus (GPa) = 18.88356 32.50090 25.69223
#
# Velocity S-wave (km/s) = 2.80068 3.67426 3.26680
# Velocity P-wave (km/s) = 4.25787 6.47240 5.47820
#
# Compressibility (1/GPa) = 0.05414917
#
# Stress axis : x y z
#
# Youngs Moduli (GPa) = 79.67342 21.84524 77.90491
#
# Poissons Ratio (x) = 0.24102 0.14487
# Poissons Ratio (y) = 0.87905 -0.34164
# Poissons Ratio (z) = 0.14816 -0.09580
#
# Static dielectric constant tensor:
#      x y z
#    x 4.194540 -0.569680 0.047370 
#    y -0.569680 4.663980 0.002400 
#    z 0.047370 0.002400 4.491050 
# 
# 
# High freq. dielectric constant tensor:
#      x y z
#    x 1.946220 -0.028820 0.002420 
#    y -0.028820 1.959730 -0.001400 
#    z 0.002420 -0.001400 1.962580 
# 
# From -- ./inp_files/11282.got.cif
#   From: 2010.06.25/outbox.cif.g09.slc.cpg/sg2_6_cif.got.tgz:11282.got - 2010.06.27 13:26:56.
