data_PCOD8044440
_publ_section_title
;
Structure prediction by ZEFSAII (Michael W. Deem and Ramdas Pophale) SiO2 
 PCOD8044440
Probable space group: P -1
;
_chemical_formula_sum "Si O2"
_cell_formula_units_Z 16
_cell_length_a 8.681139
_cell_length_b 21.056836
_cell_length_c 10.376499
_cell_angle_alpha 122.745481
_cell_angle_beta 91.908187
_cell_angle_gamma 132.970396
_cell_volume 883.894295
_symmetry_space_group_name_H-M "P -1"
_symmetry_group_IT_number 2
_symmetry_cell_setting 'triclinic'
loop_
_space_group_symop_operation_xyz
x,y,z
-x,-y,-z
loop_
_atom_site_type_symbol
_atom_site_label
_atom_site_fract_x
_atom_site_fract_y
_atom_site_fract_z
Si Si1 0.819429 0.496945 0.716854
Si Si2 0.074985 0.636316 0.411677
Si Si3 0.689135 0.917501 0.754761
Si Si4 0.788069 0.795457 0.581689
Si Si5 0.885170 0.371157 0.880650
Si Si6 0.180223 0.887688 0.878210
Si Si7 0.810922 0.599748 0.596991
Si Si8 0.743395 0.880942 0.453270
O O1 0.926025 0.454364 0.668960
O O2 0.487322 0.365294 0.575268
O O3 0.904802 0.574434 0.673915
O O4 0.959838 0.597811 0.953990
O O5 0.361827 0.790004 0.639909
O O6 0.046014 0.646190 0.269383
O O7 0.835181 0.575577 0.426090
O O8 0.789314 0.874132 0.752058
O O9 0.733612 0.942628 0.628943
O O10 0.863113 0.054568 0.975542
O O11 0.792977 0.819500 0.456681
O O12 0.050544 0.851718 0.693341
O O13 0.554534 0.240235 0.759239
O O14 0.000000 0.500000 0.000000
O O15 0.015624 0.753457 0.794690
O O16 0.500000 0.000000 0.000000
O O17 0.500000 0.500000 0.500000
O O18 0.000000 0.000000 0.500000
#
# Coordination Sequence:
#
# PCOD8044440 Si02
#       8
#     2   2   2   2   2   2   2   2
#     4  10  19  38  61  86 113 150 197 237 280 342
#     4   9  18  38  61  84 111 152 190 238 285 338
#     4   8  18  37  59  79 112 149 190 225 288 339
#     4   9  19  36  60  81 117 144 189 238 285 328
#     4   9  16  35  63  83 108 151 189 233 293 339
#     4  12  22  37  58  79 118 159 186 224 293 348
#     4  12  24  37  55  85 124 149 193 240 280 332
#     4   9  18  34  60  89 112 135 191 253 276 325
#
# _framework density 18.101711999999999
#
# number of rings (size 3 to 8) (size 9 to 14) (size 15 to 20)
#    0.750    1.500    5.000    0.750    0.000    1.000 
#    4.500    0.625    2.750    2.250    0.000    0.000 
#    0.000    0.000    0.000    0.000    0.000    0.000 
#
# Total GULP energy -198216.308038 kJ/mol
# GULP energy per Si atom -12388.519252 kJ/mol
# Density = 1.806051 g / cm^3
# Si number density = 18.101712 Si / 1000 Ang^3
#
#
#
# Elastic Constant Matrix: (Units=GPa)
#
#
# Indices 1 2 3 4 5 6 
#
# 1 65.1723 41.6783 44.2360 1.4420 16.8683 7.1325
# 2 41.6783 120.3450 51.2914 8.1539 4.9934 9.5681
# 3 44.2360 51.2914 104.6125 6.7576 8.9230 -1.8092
# 4 1.4420 8.1539 6.7576 30.8356 -0.0276 2.3505
# 5 16.8683 4.9934 8.9230 -0.0276 23.7245 7.7523
# 6 7.1325 9.5681 -1.8092 2.3505 7.7523 28.8900
#
#
#
# Elastic Compliance Matrix: (Units=1/GPa)
#
#
# Indices 1 2 3 4 5 6 
#
# 1 0.028799 -0.005871 -0.008129 0.002099 -0.015642 -0.001648
# 2 -0.005871 0.012224 -0.003826 -0.001823 0.004294 -0.003843
# 3 -0.008129 -0.003826 0.015150 -0.002277 -0.000610 0.004572
# 4 0.002099 -0.001823 -0.002277 0.033542 0.000764 -0.002991
# 5 -0.015642 0.004294 -0.000610 0.000764 0.056816 -0.012907
# 6 -0.001648 -0.003843 0.004572 -0.002991 -0.012907 0.040287
#
#
# Mechanical properties :
#
#
# Convention : Reuss Voigt Hill
#
# Bulk Modulus (GPa) = 48.72967 62.72681 55.72824
# Shear Modulus (GPa) = 21.80456 26.88496 24.34476
#
# Velocity S-wave (km/s) = 3.47444 3.85803 3.67125
# Velocity P-wave (km/s) = 6.56308 7.38739 6.98740
#
# Compressibility (1/GPa) = 0.02052138
#
# Stress axis : x y z
#
# Youngs Moduli (GPa) = 34.72382 81.80499 66.00480
#
# Poissons Ratio (x) = 0.48030 0.53655
# Poissons Ratio (y) = 0.20387 0.25252
# Poissons Ratio (z) = 0.28227 0.31297
#
# Static dielectric constant tensor:
#      x y z
#    x 2.794750 0.932780 0.151150 
#    y 0.932780 0.417170 -0.196660 
#    z 0.151150 -0.196660 4.287640 
# 
# 
# High freq. dielectric constant tensor:
#      x y z
#    x 1.678810 -0.003070 0.007510 
#    y -0.003070 1.688530 0.004240 
#    z 0.007510 0.004240 1.705020 
# 
# From -- ./inp_files/406661.got.cif
#   From: 2010.06.25/outbox.cif.g09.slc.cpg/sg2_204_cif.got.tgz:406661.got - 2010.06.27 13:26:56.
