data_PCOD8044848
_publ_section_title
;
Structure prediction by ZEFSAII (Michael W. Deem and Ramdas Pophale) SiO2 
 PCOD8044848
Probable space group: P 2
;
_chemical_formula_sum "Si O2"
_cell_formula_units_Z 11
_cell_length_a 7.773855
_cell_length_b 7.818740
_cell_length_c 8.435492
_cell_angle_alpha 90.000000
_cell_angle_beta 78.907221
_cell_angle_gamma 90.000000
_cell_volume 503.144712
_symmetry_space_group_name_H-M "P 2"
_symmetry_group_IT_number 3
_symmetry_cell_setting 'monoclinic'
loop_
_space_group_symop_operation_xyz
x,y,z
-x,y,-z
loop_
_atom_site_type_symbol
_atom_site_label
_atom_site_fract_x
_atom_site_fract_y
_atom_site_fract_z
Si Si1 0.936071 0.957490 0.671907
Si Si2 0.724932 0.079582 0.197265
Si Si3 0.177432 0.316283 0.385316
Si Si4 0.199055 0.776219 0.019449
Si Si5 0.500000 0.227686 0.500000
Si Si6 0.803973 0.402318 0.977869
O O1 0.000000 0.858822 0.500000
O O2 0.813596 0.828409 0.792538
O O3 0.086728 0.051111 0.751821
O O4 0.819506 0.111111 0.625786
O O5 0.571963 0.102039 0.350821
O O6 0.712492 0.246775 0.085416
O O7 0.684363 0.913645 0.096782
O O8 0.346099 0.354978 0.465979
O O9 0.204007 0.393525 0.208985
O O10 0.000000 0.386835 0.500000
O O11 0.282704 0.588901 0.971901
O O12 0.000000 0.780622 0.000000
O O13 0.000000 0.404440 0.000000
#
# Coordination Sequence:
#
# PCOD8044848 Si02
#       6
#     2   2   2   2   1   2
#     4  10  17  36  62  89 123 159 202 254 295 362
#     4  11  20  38  61  90 125 157 210 258 298 372
#     4  11  21  38  65  94 123 162 208 252 304 373
#     4   9  20  34  62  96 121 161 208 250 308 370
#     4  12  24  38  68  92 118 174 206 248 326 352
#     4  11  19  37  66  93 125 165 202 255 315 360
#
# _framework density 21.862497000000001
#
# number of rings (size 3 to 8) (size 9 to 14) (size 15 to 20)
#    0.000    1.455    7.273    0.545    0.000    1.455 
#    0.000    2.727    8.000    0.000    0.000    0.000 
#    0.000    0.000    0.000    0.000    0.000    0.000 
#
# Total GULP energy -136301.377811 kJ/mol
# GULP energy per Si atom -12391.034346 kJ/mol
# Density = 2.181274 g / cm^3
# Si number density = 21.862497 Si / 1000 Ang^3
#
#
#
# Elastic Constant Matrix: (Units=GPa)
#
#
# Indices 1 2 3 4 5 6 
#
# 1 89.7329 13.6368 34.8519 0.0000 3.7153 0.0000
# 2 13.6368 143.1816 74.1078 0.0000 -10.6034 0.0000
# 3 34.8519 74.1078 177.4815 0.0000 -1.4331 0.0000
# 4 0.0000 0.0000 0.0000 19.4909 0.0000 7.5426
# 5 3.7153 -10.6034 -1.4331 0.0000 31.8619 0.0000
# 6 0.0000 0.0000 0.0000 7.5426 0.0000 8.2101
#
#
#
# Elastic Compliance Matrix: (Units=1/GPa)
#
#
# Indices 1 2 3 4 5 6 
#
# 1 0.012138 -0.000038 -0.002380 0.000000 -0.001535 0.000000
# 2 -0.000038 0.009166 -0.003797 0.000000 0.002884 0.000000
# 3 -0.002380 -0.003797 0.007682 0.000000 -0.000640 0.000000
# 4 0.000000 0.000000 0.000000 0.079608 0.000000 -0.073135
# 5 -0.001535 0.002884 -0.000640 0.000000 0.032495 0.000000
# 6 0.000000 0.000000 0.000000 -0.073135 0.000000 0.188989
#
#
# Mechanical properties :
#
#
# Convention : Reuss Voigt Hill
#
# Bulk Modulus (GPa) = 60.39765 72.84323 66.62044
# Shear Modulus (GPa) = 14.36670 31.09922 22.73296
#
# Velocity S-wave (km/s) = 2.56625 3.77569 3.22812
# Velocity P-wave (km/s) = 6.03879 7.23871 6.66580
#
# Compressibility (1/GPa) = 0.01655694
#
# Stress axis : x y z
#
# Youngs Moduli (GPa) = 82.38648 109.09355 130.17541
#
# Poissons Ratio (x) = 0.00412 0.30983
# Poissons Ratio (y) = 0.00311 0.49424
# Poissons Ratio (z) = 0.19609 0.41420
#
# Static dielectric constant tensor:
#      x y z
#    x 3.634360 0.000000 0.195690 
#    y 0.000000 4.154210 0.000000 
#    z 0.195690 0.000000 4.432540 
# 
# 
# High freq. dielectric constant tensor:
#      x y z
#    x 1.830680 0.000000 0.014490 
#    y 0.000000 1.833370 0.000000 
#    z 0.014490 0.000000 1.878940 
# 
# From -- ./inp_files/5064.got.cif
#   From: 2010.03.12/outbox.cif.g09.slc.cpg/sg3_3_cif.got.tgz:5064.got - 2010.03.31 09:20:49.
