data_PCOD8044300
_publ_section_title
;
Structure prediction by ZEFSAII (Michael W. Deem and Ramdas Pophale) SiO2 
 PCOD8044300
Probable space group: P -1
;
_chemical_formula_sum "Si O2"
_cell_formula_units_Z 14
_cell_length_a 9.755568
_cell_length_b 8.010727
_cell_length_c 11.972347
_cell_angle_alpha 62.213012
_cell_angle_beta 125.421966
_cell_angle_gamma 112.524876
_cell_volume 666.208686
_symmetry_space_group_name_H-M "P -1"
_symmetry_group_IT_number 2
_symmetry_cell_setting 'triclinic'
loop_
_space_group_symop_operation_xyz
x,y,z
-x,-y,-z
loop_
_atom_site_type_symbol
_atom_site_label
_atom_site_fract_x
_atom_site_fract_y
_atom_site_fract_z
Si Si1 0.398422 0.132124 0.839154
Si Si2 0.457166 0.943917 0.693107
Si Si3 0.695647 0.504019 0.561055
Si Si4 0.743337 0.827864 0.622792
Si Si5 0.928971 0.995049 0.147161
Si Si6 0.182631 0.839891 0.168232
Si Si7 0.459952 0.570418 0.707547
O O1 0.485082 0.355087 0.820869
O O2 0.391625 0.046154 0.738014
O O3 0.208714 0.123411 0.799974
O O4 0.500000 0.000000 0.000000
O O5 0.419555 0.709605 0.747772
O O6 0.363634 0.007629 0.518120
O O7 0.661777 0.005358 0.758713
O O8 0.500000 0.500000 0.500000
O O9 0.789546 0.716663 0.566960
O O10 0.777125 0.367785 0.724435
O O11 0.700776 0.451735 0.448628
O O12 0.632206 0.678299 0.699462
O O13 0.922156 0.900338 0.739593
O O14 0.838717 0.138591 0.982238
O O15 0.005687 0.854992 0.141841
#
# Coordination Sequence:
#
# PCOD8044300 Si02
#       7
#     2   2   2   2   2   2   2
#     4  12  27  47  64  97 148 181 217 281 352 408
#     4  12  21  44  78  94 133 185 230 271 337 416
#     4  10  19  37  70 103 129 171 232 277 328 397
#     4  11  21  41  73 105 126 175 239 279 325 400
#     4  11  26  42  66 101 145 170 222 296 338 386
#     4  11  21  44  68 101 135 181 226 283 333 402
#     4  11  22  41  73  99 125 182 232 270 331 412
#
# _framework density 21.014436
#
# number of rings (size 3 to 8) (size 9 to 14) (size 15 to 20)
#    0.000    0.857    7.143    2.143    0.000    1.714 
#    2.571    1.429    0.000    0.000    0.000    0.000 
#    0.000    0.000    0.000    0.000    0.000    0.000 
#
# Total GULP energy -173470.939772 kJ/mol
# GULP energy per Si atom -12390.781412 kJ/mol
# Density = 2.096661 g / cm^3
# Si number density = 21.014436 Si / 1000 Ang^3
#
#
#
# Elastic Constant Matrix: (Units=GPa)
#
#
# Indices 1 2 3 4 5 6 
#
# 1 96.1265 37.7315 18.5911 -11.4250 -4.4404 3.6548
# 2 37.7315 132.9465 49.7070 -7.5056 -0.5924 -13.8190
# 3 18.5911 49.7070 134.1994 -12.6922 20.1819 8.1021
# 4 -11.4250 -7.5056 -12.6922 38.4658 1.0552 5.4108
# 5 -4.4404 -0.5924 20.1819 1.0552 25.9323 1.8676
# 6 3.6548 -13.8190 8.1021 5.4108 1.8676 33.2025
#
#
#
# Elastic Compliance Matrix: (Units=1/GPa)
#
#
# Indices 1 2 3 4 5 6 
#
# 1 0.012514 -0.003640 -0.000205 0.003370 0.002336 -0.003523
# 2 -0.003640 0.010747 -0.004363 -0.001341 0.002639 0.006008
# 3 -0.000205 -0.004363 0.010991 0.003592 -0.008505 -0.004582
# 4 0.003370 -0.001341 0.003592 0.028896 -0.002968 -0.006348
# 5 0.002336 0.002639 -0.008505 -0.002968 0.045702 0.000830
# 6 -0.003523 0.006008 -0.004582 -0.006348 0.000830 0.035113
#
#
# Mechanical properties :
#
#
# Convention : Reuss Voigt Hill
#
# Bulk Modulus (GPa) = 56.06726 63.92573 59.99649
# Shear Modulus (GPa) = 30.06160 36.66965 33.36562
#
# Velocity S-wave (km/s) = 3.78633 4.18182 3.98898
# Velocity P-wave (km/s) = 6.77151 7.33504 7.05890
#
# Compressibility (1/GPa) = 0.01783572
#
# Stress axis : x y z
#
# Youngs Moduli (GPa) = 79.91041 93.05116 90.97999
#
# Poissons Ratio (x) = 0.33875 0.01865
# Poissons Ratio (y) = 0.29091 0.39693
# Poissons Ratio (z) = 0.01638 0.40596
#
# Static dielectric constant tensor:
#      x y z
#    x 3.751480 -0.290580 -0.130800 
#    y -0.290580 4.245620 0.256040 
#    z -0.130800 0.256040 4.071370 
# 
# 
# High freq. dielectric constant tensor:
#      x y z
#    x 1.799790 -0.022500 0.003460 
#    y -0.022500 1.822450 0.005220 
#    z 0.003460 0.005220 1.831560 
# 
# From -- ./inp_files/203002.got.cif
#   From: 2010.06.25/outbox.cif.g09.slc.cpg/sg2_102_cif.got.tgz:203002.got - 2010.06.27 13:26:56.
