data_PCOD8044796
_publ_section_title
;
Structure prediction by ZEFSAII (Michael W. Deem and Ramdas Pophale) SiO2 
 PCOD8044796
Probable space group: P -1
;
_chemical_formula_sum "Si O2"
_cell_formula_units_Z 16
_cell_length_a 12.601481
_cell_length_b 18.425294
_cell_length_c 9.264083
_cell_angle_alpha 28.776581
_cell_angle_beta 121.453849
_cell_angle_gamma 132.412849
_cell_volume 749.797158
_symmetry_space_group_name_H-M "P -1"
_symmetry_group_IT_number 2
_symmetry_cell_setting 'triclinic'
loop_
_space_group_symop_operation_xyz
x,y,z
-x,-y,-z
loop_
_atom_site_type_symbol
_atom_site_label
_atom_site_fract_x
_atom_site_fract_y
_atom_site_fract_z
Si Si1 0.220791 0.100758 0.476627
Si Si2 0.177745 0.077725 0.814400
Si Si3 0.171353 0.424496 0.864661
Si Si4 0.517043 0.569420 0.548082
Si Si5 0.787559 0.467839 0.600849
Si Si6 0.899476 0.247104 0.169270
Si Si7 0.471150 0.630764 0.837503
Si Si8 0.003273 0.775420 0.429161
O O1 0.164262 0.022344 0.733365
O O2 0.393045 0.172236 0.446697
O O3 0.135925 0.945390 0.570824
O O4 0.188409 0.254929 0.155234
O O5 0.345233 0.231749 0.688902
O O6 0.066592 0.139094 0.670093
O O7 0.130644 0.908343 0.177347
O O8 0.126967 0.463467 0.609980
O O9 0.317285 0.598921 0.728816
O O10 0.050204 0.395086 0.944683
O O11 0.500000 0.500000 0.500000
O O12 0.372411 0.570124 0.484369
O O13 0.536653 0.428091 0.899600
O O14 0.872058 0.612402 0.534188
O O15 0.775956 0.286545 0.959414
O O16 0.915681 0.275031 0.305377
O O17 0.500000 0.500000 0.000000
#
# Coordination Sequence:
#
# PCOD8044796 Si02
#       8
#     2   2   2   2   2   2   2   2
#     4  11  21  40  67  95 123 160 216 261 304 365
#     4  11  22  39  67  98 117 160 218 265 304 358
#     4  11  21  41  68  94 124 165 214 256 310 369
#     4  12  22  39  67  95 123 162 211 257 314 369
#     4  12  25  43  63  94 131 167 206 257 319 381
#     4  12  26  41  62  94 133 170 203 256 321 372
#     4  10  19  38  67  94 118 155 215 266 296 361
#     4  11  25  40  61  92 131 164 208 262 309 373
#
# _framework density 21.339106999999998
#
# number of rings (size 3 to 8) (size 9 to 14) (size 15 to 20)
#    0.000    0.750    7.500    1.875    5.250    0.000 
#    0.000    4.375    0.000    0.000    0.000    0.000 
#    0.000    0.000    0.000    0.000    0.000    0.000 
#
# Total GULP energy -198341.457122 kJ/mol
# GULP energy per Si atom -12396.341070 kJ/mol
# Density = 2.129054 g / cm^3
# Si number density = 21.339107 Si / 1000 Ang^3
#
#
#
# Elastic Constant Matrix: (Units=GPa)
#
#
# Indices 1 2 3 4 5 6 
#
# 1 48.0406 25.3640 27.7749 -0.0352 -19.8091 7.2482
# 2 25.3640 109.1980 36.9947 19.1657 -18.2354 -2.7876
# 3 27.7749 36.9947 98.0962 22.6842 -17.6564 -1.7839
# 4 -0.0352 19.1657 22.6842 36.5535 2.6508 -11.3933
# 5 -19.8091 -18.2354 -17.6564 2.6508 34.0507 2.1931
# 6 7.2482 -2.7876 -1.7839 -11.3933 2.1931 33.5218
#
#
#
# Elastic Compliance Matrix: (Units=1/GPa)
#
#
# Indices 1 2 3 4 5 6 
#
# 1 0.033688 -0.003913 -0.006090 0.002266 0.014691 -0.008125
# 2 -0.003913 0.012264 -0.001402 -0.006021 0.004066 -0.000521
# 3 -0.006090 -0.001402 0.015491 -0.009708 0.004596 -0.001576
# 4 0.002266 -0.006021 -0.009708 0.041491 -0.011028 0.013316
# 5 0.014691 0.004066 0.004596 -0.011028 0.043928 -0.009216
# 6 -0.008125 -0.000521 -0.001576 0.013316 -0.009216 0.036590
#
#
# Mechanical properties :
#
#
# Convention : Reuss Voigt Hill
#
# Bulk Modulus (GPa) = 25.88539 48.40022 37.14280
# Shear Modulus (GPa) = 22.81635 31.83862 27.32748
#
# Velocity S-wave (km/s) = 3.27345 3.86687 3.58247
# Velocity P-wave (km/s) = 5.14239 6.53205 5.87843
#
# Compressibility (1/GPa) = 0.03863184
#
# Stress axis : x y z
#
# Youngs Moduli (GPa) = 29.68386 81.53713 64.55442
#
# Poissons Ratio (x) = 0.31909 0.39314
# Poissons Ratio (y) = 0.11617 0.09053
# Poissons Ratio (z) = 0.18078 0.11434
#
# Static dielectric constant tensor:
#      x y z
#    x 5.244350 1.181630 -0.584810 
#    y 1.181630 4.751500 -0.082420 
#    z -0.584810 -0.082420 3.766600 
# 
# 
# High freq. dielectric constant tensor:
#      x y z
#    x 1.827120 0.003500 -0.029220 
#    y 0.003500 1.850910 0.016000 
#    z -0.029220 0.016000 1.821460 
# 
# From -- ./inp_files/278696.got.cif
#   From: 2010.06.25/outbox.cif.g09.slc.cpg/sg2_140_cif.got.tgz:278696.got - 2010.06.27 13:26:56.
