data_PCOD8044204
_publ_section_title
;
Structure prediction by ZEFSAII (Michael W. Deem and Ramdas Pophale) SiO2 
 PCOD8044204
Probable space group: P -1
;
_chemical_formula_sum "Si O2"
_cell_formula_units_Z 12
_cell_length_a 6.777237
_cell_length_b 12.357578
_cell_length_c 8.331074
_cell_angle_alpha 61.077921
_cell_angle_beta 103.087364
_cell_angle_gamma 88.269897
_cell_volume 586.804324
_symmetry_space_group_name_H-M "P -1"
_symmetry_group_IT_number 2
_symmetry_cell_setting 'triclinic'
loop_
_space_group_symop_operation_xyz
x,y,z
-x,-y,-z
loop_
_atom_site_type_symbol
_atom_site_label
_atom_site_fract_x
_atom_site_fract_y
_atom_site_fract_z
Si Si1 0.525938 0.157820 0.510182
Si Si2 0.275974 0.417952 0.850564
Si Si3 0.848339 0.943105 0.635750
Si Si4 0.468645 0.648180 0.348805
Si Si5 0.645515 0.349491 0.182275
Si Si6 0.912636 0.289235 0.974735
O O1 0.303545 0.123498 0.454745
O O2 0.481049 0.264964 0.559354
O O3 0.637829 0.210530 0.341208
O O4 0.701158 0.037472 0.661536
O O5 0.371045 0.337280 0.774423
O O6 0.272228 0.568281 0.717100
O O7 0.411514 0.398153 0.051672
O O8 0.058724 0.382316 0.873005
O O9 0.974883 0.848430 0.854806
O O10 0.000000 0.000000 0.500000
O O11 0.500000 0.500000 0.500000
O O12 0.244264 0.711421 0.200839
O O13 0.797530 0.353776 0.060362
#
# Coordination Sequence:
#
# PCOD8044204 Si02
#       6
#     2   2   2   2   2   2
#     4  11  23  42  66  94 128 165 213 265 313 370
#     4  10  21  38  62  94 133 163 205 260 320 377
#     4  11  24  43  68  92 124 171 224 258 301 378
#     4  11  25  42  62  98 137 162 200 266 333 374
#     4  10  19  37  65  93 125 164 212 263 309 374
#     4  11  23  40  65  95 126 169 216 254 315 380
#
# _framework density 20.449749000000001
#
# number of rings (size 3 to 8) (size 9 to 14) (size 15 to 20)
#    0.000    1.333    5.000    0.500    0.000    4.000 
#    0.000    1.667    0.000    0.000    0.000    0.000 
#    0.000    0.000    0.000    0.000    0.000    0.000 
#
# Total GULP energy -148669.404308 kJ/mol
# GULP energy per Si atom -12389.117026 kJ/mol
# Density = 2.040320 g / cm^3
# Si number density = 20.449749 Si / 1000 Ang^3
#
#
#
# Elastic Constant Matrix: (Units=GPa)
#
#
# Indices 1 2 3 4 5 6 
#
# 1 130.9468 51.8957 37.8064 1.6885 -1.4306 20.8565
# 2 51.8957 135.8317 38.9690 3.6524 1.3283 0.5827
# 3 37.8064 38.9690 85.7962 -9.9265 19.0551 7.7047
# 4 1.6885 3.6524 -9.9265 30.7751 -7.8883 -3.6708
# 5 -1.4306 1.3283 19.0551 -7.8883 32.0648 -9.0340
# 6 20.8565 0.5827 7.7047 -3.6708 -9.0340 32.4113
#
#
#
# Elastic Compliance Matrix: (Units=1/GPa)
#
#
# Indices 1 2 3 4 5 6 
#
# 1 0.010805 -0.003194 -0.002988 -0.001904 0.000128 -0.006365
# 2 -0.003194 0.009727 -0.004010 -0.001230 0.002490 0.003388
# 3 -0.002988 -0.004010 0.018152 0.002928 -0.011497 -0.005193
# 4 -0.001904 -0.001230 0.002928 0.036975 0.009395 0.007357
# 5 0.000128 0.002490 -0.011497 0.009395 0.044784 0.016152
# 6 -0.006365 0.003388 -0.005193 0.007357 0.016152 0.041458
#
#
# Mechanical properties :
#
#
# Convention : Reuss Voigt Hill
#
# Bulk Modulus (GPa) = 54.64293 67.76853 61.20573
# Shear Modulus (GPa) = 26.54150 33.97714 30.25932
#
# Velocity S-wave (km/s) = 3.60653 4.08057 3.85085
# Velocity P-wave (km/s) = 6.64239 7.44395 7.05456
#
# Compressibility (1/GPa) = 0.01830063
#
# Stress axis : x y z
#
# Youngs Moduli (GPa) = 92.55240 102.80743 55.08951
#
# Poissons Ratio (x) = 0.32833 0.16459
# Poissons Ratio (y) = 0.29558 0.22092
# Poissons Ratio (z) = 0.27652 0.41229
#
# Static dielectric constant tensor:
#      x y z
#    x 3.784620 0.026240 0.056580 
#    y 0.026240 3.819000 -0.212910 
#    z 0.056580 -0.212910 3.767630 
# 
# 
# High freq. dielectric constant tensor:
#      x y z
#    x 1.813400 -0.000680 -0.001510 
#    y -0.000680 1.798540 -0.014430 
#    z -0.001510 -0.014430 1.789980 
# 
# From -- ./inp_files/20029.got.cif
#   From: 2010.06.25/outbox.cif.g09.slc.cpg/sg2_11_cif.got.tgz:20029.got - 2010.06.27 13:26:56.
