data_PCOD8044870
_publ_section_title
;
Structure prediction by ZEFSAII (Michael W. Deem and Ramdas Pophale) SiO2 
 PCOD8044870
Probable space group: P 2
;
_chemical_formula_sum "Si O2"
_cell_formula_units_Z 16
_cell_length_a 8.461213
_cell_length_b 11.876758
_cell_length_c 9.214077
_cell_angle_alpha 90.000000
_cell_angle_beta 61.132584
_cell_angle_gamma 90.000000
_cell_volume 810.881097
_symmetry_space_group_name_H-M "P 2"
_symmetry_group_IT_number 3
_symmetry_cell_setting 'monoclinic'
loop_
_space_group_symop_operation_xyz
x,y,z
-x,y,-z
loop_
_atom_site_type_symbol
_atom_site_label
_atom_site_fract_x
_atom_site_fract_y
_atom_site_fract_z
Si Si1 0.458024 0.796370 0.688581
Si Si2 0.806414 0.247577 0.159173
Si Si3 0.031665 0.274443 0.321974
Si Si4 0.308210 0.411519 0.014022
Si Si5 0.955880 0.017219 0.678567
Si Si6 0.813131 0.996418 0.166444
Si Si7 0.194145 0.655547 0.979448
Si Si8 0.311993 0.827460 0.157205
O O1 0.500000 0.790022 0.500000
O O2 0.648978 0.799083 0.690247
O O3 0.341355 0.905054 0.790415
O O4 0.344486 0.688336 0.792449
O O5 0.669219 0.332544 0.139556
O O6 0.735979 0.120519 0.162214
O O7 0.842703 0.278189 0.313160
O O8 0.000000 0.261539 0.000000
O O9 0.107479 0.146716 0.287239
O O10 0.000000 0.315487 0.500000
O O11 0.184053 0.353968 0.189504
O O12 0.500000 0.437973 0.000000
O O13 0.212926 0.525126 0.006112
O O14 0.000000 0.974167 0.500000
O O15 0.140576 0.998434 0.683880
O O16 0.798989 0.941456 0.815586
O O17 0.000000 0.968683 0.000000
O O18 0.212830 0.723943 0.121935
O O19 0.000000 0.682290 0.000000
O O20 0.500000 0.851976 0.000000
#
# Coordination Sequence:
#
# PCOD8044870 Si02
#       8
#     2   2   2   2   2   2   2   2
#     4  11  22  36  56  85 118 143 176 230 281 320
#     4   8  17  34  56  81 112 150 187 219 261 326
#     4   9  19  36  58  84 113 146 184 224 268 323
#     4  11  22  39  60  82 108 141 185 232 277 323
#     4  10  19  33  54  82 116 149 183 222 267 322
#     4  10  18  33  56  81 112 151 188 216 259 328
#     4  11  23  42  62  77 103 147 192 226 269 332
#     4  10  21  35  54  82 115 145 183 227 272 322
#
# _framework density 19.731621000000001
#
# number of rings (size 3 to 8) (size 9 to 14) (size 15 to 20)
#    0.000    2.000    0.000    6.375    0.000    1.500 
#    0.000    6.250    0.000    0.000    0.000    0.000 
#    0.000    0.000    0.000    0.000    0.000    0.000 
#
# Total GULP energy -198350.875868 kJ/mol
# GULP energy per Si atom -12396.929742 kJ/mol
# Density = 1.968671 g / cm^3
# Si number density = 19.731621 Si / 1000 Ang^3
#
#
#
# Elastic Constant Matrix: (Units=GPa)
#
#
# Indices 1 2 3 4 5 6 
#
# 1 102.9645 39.7363 30.9613 0.0000 20.3891 0.0000
# 2 39.7363 114.9638 42.8894 0.0000 4.2498 0.0000
# 3 30.9613 42.8894 89.5368 0.0000 28.2325 0.0000
# 4 0.0000 0.0000 0.0000 5.1573 0.0000 10.6815
# 5 20.3891 4.2498 28.2325 0.0000 32.4643 0.0000
# 6 0.0000 0.0000 0.0000 10.6815 0.0000 22.9643
#
#
#
# Elastic Compliance Matrix: (Units=1/GPa)
#
#
# Indices 1 2 3 4 5 6 
#
# 1 0.012797 -0.004101 -0.000132 0.000000 -0.007385 0.000000
# 2 -0.004101 0.012331 -0.006602 0.000000 0.006703 0.000000
# 3 -0.000132 -0.006602 0.019397 0.000000 -0.015922 0.000000
# 4 0.000000 0.000000 0.000000 5.292173 0.000000 -2.461587
# 5 -0.007385 0.006703 -0.015922 0.000000 0.048410 0.000000
# 6 0.000000 0.000000 0.000000 -2.461587 0.000000 1.188522
#
#
# Mechanical properties :
#
#
# Convention : Reuss Voigt Hill
#
# Bulk Modulus (GPa) = 43.75433 59.40435 51.57934
# Shear Modulus (GPa) = 0.75724 25.04238 12.89981
#
# Velocity S-wave (km/s) = 0.62016 3.56638 2.55965
# Velocity P-wave (km/s) = 4.76819 6.86515 5.91041
#
# Compressibility (1/GPa) = 0.02285488
#
# Stress axis : x y z
#
# Youngs Moduli (GPa) = 78.14422 81.09537 51.55399
#
# Poissons Ratio (x) = 0.33256 0.00680
# Poissons Ratio (y) = 0.32046 0.34038
# Poissons Ratio (z) = 0.01031 0.53542
#
# Static dielectric constant tensor:
#      x y z
#    x 3.955370 0.000000 0.591980 
#    y 0.000000 3.572220 0.000000 
#    z 0.591980 0.000000 3.659150 
# 
# 
# High freq. dielectric constant tensor:
#      x y z
#    x 1.771250 0.000000 0.033300 
#    y 0.000000 1.768160 0.000000 
#    z 0.033300 0.000000 1.754890 
# 
# From -- ./inp_files/5993.got.cif
#   From: 2010.03.12/outbox.cif.g09.slc.cpg/sg3_3_cif.got.tgz:5993.got - 2010.03.31 09:20:49.
