data_PCOD8044459
_publ_section_title
;
Structure prediction by ZEFSAII (Michael W. Deem and Ramdas Pophale) SiO2 
 PCOD8044459
Probable space group: P -1
;
_chemical_formula_sum "Si O2"
_cell_formula_units_Z 16
_cell_length_a 11.953111
_cell_length_b 16.473803
_cell_length_c 15.581112
_cell_angle_alpha 36.247937
_cell_angle_beta 55.952352
_cell_angle_gamma 30.273540
_cell_volume 812.861262
_symmetry_space_group_name_H-M "P -1"
_symmetry_group_IT_number 2
_symmetry_cell_setting 'triclinic'
loop_
_space_group_symop_operation_xyz
x,y,z
-x,-y,-z
loop_
_atom_site_type_symbol
_atom_site_label
_atom_site_fract_x
_atom_site_fract_y
_atom_site_fract_z
Si Si1 0.130542 0.435701 0.584862
Si Si2 0.211200 0.748254 0.928945
Si Si3 0.086139 0.765455 0.269776
Si Si4 0.974099 0.746274 0.146813
Si Si5 0.453236 0.229581 0.877193
Si Si6 0.999785 0.889104 0.717801
Si Si7 0.357705 0.598759 0.659065
Si Si8 0.636198 0.972899 0.838448
O O1 0.080865 0.640488 0.445112
O O2 0.430736 0.150638 0.698276
O O3 0.000000 0.500000 0.500000
O O4 0.015206 0.430573 0.710838
O O5 0.057984 0.893990 0.783015
O O6 0.500000 0.500000 0.000000
O O7 0.167116 0.639233 0.086027
O O8 0.127069 0.944990 0.858599
O O9 0.030837 0.757308 0.206336
O O10 0.352166 0.612320 0.285023
O O11 0.703621 0.031228 0.993633
O O12 0.303866 0.498951 0.722102
O O13 0.506985 0.164603 0.809176
O O14 0.294355 0.239144 0.977428
O O15 0.251555 0.680085 0.732040
O O16 0.784408 0.166117 0.534605
O O17 0.890699 0.827391 0.822107
#
# Coordination Sequence:
#
# PCOD8044459 Si02
#       8
#     2   2   2   2   2   2   2   2
#     4   9  20  36  62  90 115 154 197 240 292 359
#     4  12  25  39  60  91 121 155 199 249 292 348
#     4  11  21  38  65  87 116 161 197 241 299 356
#     4  10  20  38  60  89 118 154 197 240 294 354
#     4  10  21  35  63  87 114 157 197 241 293 354
#     4  11  24  39  58  89 124 156 196 248 295 342
#     4  11  23  39  60  88 120 157 198 244 299 355
#     4  10  19  38  61  89 118 150 199 249 289 348
#
# _framework density 19.683557
#
# number of rings (size 3 to 8) (size 9 to 14) (size 15 to 20)
#    0.000    1.500    3.750    1.125    3.500    1.500 
#    0.000    0.625    0.000    0.000    0.000    0.000 
#    0.000    0.000    0.000    0.000    0.000    0.000 
#
# Total GULP energy -198332.640942 kJ/mol
# GULP energy per Si atom -12395.790059 kJ/mol
# Density = 1.963876 g / cm^3
# Si number density = 19.683557 Si / 1000 Ang^3
#
#
#
# Elastic Constant Matrix: (Units=GPa)
#
#
# Indices 1 2 3 4 5 6 
#
# 1 87.5470 37.9924 34.9158 6.7992 -10.0169 -8.1319
# 2 37.9924 100.1069 51.8998 8.7990 -16.4466 -17.6914
# 3 34.9158 51.8998 70.7605 13.9144 -21.6484 -16.2033
# 4 6.7992 8.7990 13.9144 31.3225 -2.9596 -1.7672
# 5 -10.0169 -16.4466 -21.6484 -2.9596 43.4740 9.8149
# 6 -8.1319 -17.6914 -16.2033 -1.7672 9.8149 30.3532
#
#
#
# Elastic Compliance Matrix: (Units=1/GPa)
#
#
# Indices 1 2 3 4 5 6 
#
# 1 0.014750 -0.002998 -0.005259 -0.000076 -0.000240 -0.000530
# 2 -0.002998 0.017077 -0.010386 0.000658 -0.000194 0.003707
# 3 -0.005259 -0.010386 0.029529 -0.008020 0.007820 0.005306
# 4 -0.000076 0.000658 -0.008020 0.035137 -0.001022 -0.001542
# 5 -0.000240 -0.000194 0.007820 -0.001022 0.027841 -0.005065
# 6 -0.000530 0.003707 0.005306 -0.001542 -0.005065 0.039344
#
#
# Mechanical properties :
#
#
# Convention : Reuss Voigt Hill
#
# Bulk Modulus (GPa) = 41.54496 56.44782 48.99639
# Shear Modulus (GPa) = 23.92473 29.93703 26.93088
#
# Velocity S-wave (km/s) = 3.49014 3.90412 3.70292
# Velocity P-wave (km/s) = 6.11504 7.00448 6.57482
#
# Compressibility (1/GPa) = 0.02407031
#
# Stress axis : x y z
#
# Youngs Moduli (GPa) = 67.79617 58.55868 33.86448
#
# Poissons Ratio (x) = 0.17554 0.17811
# Poissons Ratio (y) = 0.20323 0.35172
# Poissons Ratio (z) = 0.35657 0.60819
#
# Static dielectric constant tensor:
#      x y z
#    x 3.852290 -0.202610 -0.188910 
#    y -0.202610 3.406860 0.388090 
#    z -0.188910 0.388090 4.009140 
# 
# 
# High freq. dielectric constant tensor:
#      x y z
#    x 1.783130 -0.014710 -0.001930 
#    y -0.014710 1.735190 0.028260 
#    z -0.001930 0.028260 1.780150 
# 
# From -- ./inp_files/269479.got.cif
#   From: 2010.06.25/outbox.cif.g09.slc.cpg/sg2_135_cif.got.tgz:269479.got - 2010.06.27 13:26:56.
