data_PCOD8044278
_publ_section_title
;
Structure prediction by ZEFSAII (Michael W. Deem and Ramdas Pophale) SiO2 
 PCOD8044278
Probable space group: P -1
;
_chemical_formula_sum "Si O2"
_cell_formula_units_Z 16
_cell_length_a 11.564064
_cell_length_b 15.401255
_cell_length_c 15.133505
_cell_angle_alpha 27.059584
_cell_angle_beta 40.629715
_cell_angle_gamma 40.073643
_cell_volume 761.224278
_symmetry_space_group_name_H-M "P -1"
_symmetry_group_IT_number 2
_symmetry_cell_setting 'triclinic'
loop_
_space_group_symop_operation_xyz
x,y,z
-x,-y,-z
loop_
_atom_site_type_symbol
_atom_site_label
_atom_site_fract_x
_atom_site_fract_y
_atom_site_fract_z
Si Si1 0.799055 0.269728 0.665415
Si Si2 0.016242 0.103044 0.988601
Si Si3 0.310419 0.310856 0.608806
Si Si4 0.900446 0.703023 0.670299
Si Si5 0.551737 0.172415 0.762151
Si Si6 0.149744 0.808763 0.555175
Si Si7 0.695384 0.378828 0.037351
Si Si8 0.642832 0.149840 0.445345
O O1 0.737876 0.454991 0.601239
O O2 0.612778 0.305490 0.680665
O O3 0.986465 0.277316 0.500296
O O4 0.850803 0.058973 0.876070
O O5 0.115454 0.268253 0.761083
O O6 0.816811 0.217884 0.043184
O O7 0.000000 0.000000 0.000000
O O8 0.387417 0.287199 0.687048
O O9 0.438185 0.174508 0.582171
O O10 0.807427 0.526274 0.875075
O O11 0.053965 0.653516 0.706504
O O12 0.745623 0.913670 0.590549
O O13 0.737568 0.094532 0.666518
O O14 0.500000 0.000000 0.000000
O O15 0.271680 0.723554 0.648483
O O16 0.000000 0.000000 0.500000
O O17 0.500000 0.500000 0.000000
O O18 0.638968 0.254066 0.260433
#
# Coordination Sequence:
#
# PCOD8044278 Si02
#       8
#     2   2   2   2   2   2   2   2
#     4  11  22  43  69  97 137 173 215 273 334 397
#     4  12  28  46  68  95 129 176 231 281 333 387
#     4  11  24  42  67 105 135 170 216 271 337 399
#     4  10  21  43  70  94 132 172 214 269 331 394
#     4  10  19  37  68 101 135 170 210 265 328 403
#     4   8  18  37  64  98 132 166 206 256 329 399
#     4  12  28  46  68  95 124 178 236 271 328 391
#     4  10  23  43  66 100 135 166 213 271 330 393
#
# _framework density 21.018772999999999
#
# number of rings (size 3 to 8) (size 9 to 14) (size 15 to 20)
#    0.000    1.500    3.750    0.375    3.500    2.500 
#    2.250    0.000    0.000    0.000    0.000    0.000 
#    0.000    0.000    0.000    0.000    0.000    0.000 
#
# Total GULP energy -198220.486208 kJ/mol
# GULP energy per Si atom -12388.780388 kJ/mol
# Density = 2.097093 g / cm^3
# Si number density = 21.018773 Si / 1000 Ang^3
#
#
#
# Elastic Constant Matrix: (Units=GPa)
#
#
# Indices 1 2 3 4 5 6 
#
# 1 92.8201 36.1362 29.3618 6.3129 -2.9485 6.7771
# 2 36.1362 115.5350 29.8083 0.6836 1.3157 8.7918
# 3 29.3618 29.8083 77.5237 0.1354 -3.2814 4.5202
# 4 6.3129 0.6836 0.1354 31.8472 2.8460 -2.4167
# 5 -2.9485 1.3157 -3.2814 2.8460 29.7915 1.9886
# 6 6.7771 8.7918 4.5202 -2.4167 1.9886 28.6025
#
#
#
# Elastic Compliance Matrix: (Units=1/GPa)
#
#
# Indices 1 2 3 4 5 6 
#
# 1 0.013566 -0.003122 -0.003753 -0.002891 0.001477 -0.002009
# 2 -0.003122 0.010508 -0.002787 0.000345 -0.000983 -0.001953
# 3 -0.003753 -0.002787 0.015497 0.000550 0.001457 -0.000758
# 4 -0.002891 0.000345 0.000550 0.032548 -0.003583 0.003491
# 5 0.001477 -0.000983 0.001457 -0.003583 0.034458 -0.002977
# 6 -0.002009 -0.001953 -0.000758 0.003491 -0.002977 0.036660
#
#
# Mechanical properties :
#
#
# Convention : Reuss Voigt Hill
#
# Bulk Modulus (GPa) = 49.38519 52.94347 51.16433
# Shear Modulus (GPa) = 29.53159 30.75308 30.14234
#
# Velocity S-wave (km/s) = 3.75241 3.82923 3.79102
# Velocity P-wave (km/s) = 6.50545 6.69283 6.59981
#
# Compressibility (1/GPa) = 0.02024899
#
# Stress axis : x y z
#
# Youngs Moduli (GPa) = 73.71214 95.16156 64.52818
#
# Poissons Ratio (x) = 0.29707 0.24218
# Poissons Ratio (y) = 0.23011 0.17981
# Poissons Ratio (z) = 0.27665 0.26517
#
# Static dielectric constant tensor:
#      x y z
#    x 4.016290 0.277990 -0.083550 
#    y 0.277990 4.035680 -0.005210 
#    z -0.083550 -0.005210 3.676750 
# 
# 
# High freq. dielectric constant tensor:
#      x y z
#    x 1.826160 0.002440 -0.009070 
#    y 0.002440 1.835100 0.011080 
#    z -0.009070 0.011080 1.811260 
# 
# From -- ./inp_files/515732.got.cif
#   From: 2010.06.25/outbox.cif.g09.slc.cpg/sg2_258_cif.got.tgz:515732.got - 2010.06.27 13:26:56.
