data_PCOD8044965
_publ_section_title
;
Structure prediction by ZEFSAII (Michael W. Deem and Ramdas Pophale) SiO2 
 PCOD8044965
Probable space group: P 2
;
_chemical_formula_sum "Si O2"
_cell_formula_units_Z 16
_cell_length_a 8.989752
_cell_length_b 11.155047
_cell_length_c 9.123068
_cell_angle_alpha 90.000000
_cell_angle_beta 128.249439
_cell_angle_gamma 90.000000
_cell_volume 718.469506
_symmetry_space_group_name_H-M "P 2"
_symmetry_group_IT_number 3
_symmetry_cell_setting 'monoclinic'
loop_
_space_group_symop_operation_xyz
x,y,z
-x,y,-z
loop_
_atom_site_type_symbol
_atom_site_label
_atom_site_fract_x
_atom_site_fract_y
_atom_site_fract_z
Si Si1 0.295149 0.070310 0.320663
Si Si2 0.333896 0.097152 0.005388
Si Si3 0.984956 0.955576 0.316873
Si Si4 0.833159 0.340682 0.715232
Si Si5 0.567569 0.601293 0.895732
Si Si6 0.745700 0.359877 0.992917
Si Si7 0.315180 0.577086 0.477653
Si Si8 0.956884 0.725452 0.131832
O O1 0.500000 0.045025 0.500000
O O2 0.231036 0.202870 0.331756
O O3 0.176263 0.973132 0.340248
O O4 0.299886 0.043012 0.148609
O O5 0.500000 0.045390 0.000000
O O6 0.367776 0.237372 0.049763
O O7 0.145111 0.068356 0.801686
O O8 0.900651 0.828621 0.212324
O O9 0.000000 0.952129 0.500000
O O10 0.794048 0.386691 0.854001
O O11 0.716715 0.432312 0.540601
O O12 0.052539 0.351685 0.801039
O O13 0.605442 0.462551 0.960269
O O14 0.383750 0.617029 0.679975
O O15 0.500000 0.669506 0.000000
O O16 0.772039 0.649380 0.973559
O O17 0.500000 0.612795 0.500000
O O18 0.126052 0.644339 0.305101
O O19 0.000000 0.783433 0.000000
#
# Coordination Sequence:
#
# PCOD8044965 Si02
#       8
#     2   2   2   2   2   2   2   2
#     4  11  23  43  71 105 139 186 231 282 350 425
#     4  11  23  44  71 102 143 182 231 287 347 420
#     4  12  28  49  70  99 137 181 237 298 353 412
#     4  10  19  37  71 102 139 181 228 279 342 420
#     4  12  27  44  69 107 147 183 228 288 354 418
#     4  10  19  39  67 102 144 183 219 280 351 415
#     4  12  23  43  74 106 138 186 236 281 345 423
#     4  12  26  49  75  99 135 187 240 294 347 416
#
# _framework density 22.269560999999999
#
# number of rings (size 3 to 8) (size 9 to 14) (size 15 to 20)
#    0.000    0.750    5.000    2.625    3.500    1.000 
#    4.500    0.000    0.000    0.000    0.000    0.000 
#    0.000    0.000    0.000    0.000    0.000    0.000 
#
# Total GULP energy -198218.280424 kJ/mol
# GULP energy per Si atom -12388.642527 kJ/mol
# Density = 2.221887 g / cm^3
# Si number density = 22.269561 Si / 1000 Ang^3
#
#
#
# Elastic Constant Matrix: (Units=GPa)
#
#
# Indices 1 2 3 4 5 6 
#
# 1 100.2469 8.0565 52.2862 0.0000 -12.7485 0.0000
# 2 8.0565 68.8691 29.2090 0.0000 -9.0459 0.0000
# 3 52.2862 29.2090 151.1636 0.0000 -9.4315 0.0000
# 4 0.0000 0.0000 0.0000 28.1201 0.0000 -7.4844
# 5 -12.7485 -9.0459 -9.4315 0.0000 47.5364 0.0000
# 6 0.0000 0.0000 0.0000 -7.4844 0.0000 26.8565
#
#
#
# Elastic Compliance Matrix: (Units=1/GPa)
#
#
# Indices 1 2 3 4 5 6 
#
# 1 0.012493 0.000705 -0.004293 0.000000 0.002633 0.000000
# 2 0.000705 0.016139 -0.003199 0.000000 0.002626 0.000000
# 3 -0.004293 -0.003199 0.008716 0.000000 -0.000031 0.000000
# 4 0.000000 0.000000 0.000000 0.038411 0.000000 0.010704
# 5 0.002633 0.002626 -0.000031 0.000000 0.022236 0.000000
# 6 0.000000 0.000000 0.000000 0.010704 0.000000 0.040218
#
#
# Mechanical properties :
#
#
# Convention : Reuss Voigt Hill
#
# Bulk Modulus (GPa) = 42.06048 55.48700 48.77374
# Shear Modulus (GPa) = 31.30643 35.88447 33.59545
#
# Velocity S-wave (km/s) = 3.75346 4.01854 3.88826
# Velocity P-wave (km/s) = 6.14106 6.81922 6.48900
#
# Compressibility (1/GPa) = 0.02377529
#
# Stress axis : x y z
#
# Youngs Moduli (GPa) = 80.04692 61.96054 114.72550
#
# Poissons Ratio (x) = -0.04369 0.49253
# Poissons Ratio (y) = -0.05645 0.36697
# Poissons Ratio (z) = 0.34365 0.19819
#
# Static dielectric constant tensor:
#      x y z
#    x 3.853080 0.000000 0.177720 
#    y 0.000000 3.849580 0.000000 
#    z 0.177720 0.000000 4.144630 
# 
# 
# High freq. dielectric constant tensor:
#      x y z
#    x 1.882880 0.000000 0.006820 
#    y 0.000000 1.867890 0.000000 
#    z 0.006820 0.000000 1.877120 
# 
# From -- ./inp_files/6073.got.cif
#   From: 2010.03.12/outbox.cif.g09.slc.cpg/sg3_4_cif.got.tgz:6073.got - 2010.03.31 09:20:49.
