data_PCOD8044093
_publ_section_title
;
Structure prediction by ZEFSAII (Michael W. Deem and Ramdas Pophale) SiO2 
 PCOD8044093
Probable space group: P -1
;
_chemical_formula_sum "Si O2"
_cell_formula_units_Z 12
_cell_length_a 8.623157
_cell_length_b 16.107889
_cell_length_c 9.410460
_cell_angle_alpha 35.747164
_cell_angle_beta 133.272882
_cell_angle_gamma 123.364194
_cell_volume 555.936297
_symmetry_space_group_name_H-M "P -1"
_symmetry_group_IT_number 2
_symmetry_cell_setting 'triclinic'
loop_
_space_group_symop_operation_xyz
x,y,z
-x,-y,-z
loop_
_atom_site_type_symbol
_atom_site_label
_atom_site_fract_x
_atom_site_fract_y
_atom_site_fract_z
Si Si1 0.691833 0.305826 0.316146
Si Si2 0.826031 0.921980 0.402532
Si Si3 0.758302 0.580397 0.152716
Si Si4 0.649424 0.113090 0.800531
Si Si5 0.214667 0.631819 0.302593
Si Si6 0.912261 0.350003 0.108791
O O1 0.786264 0.450149 0.239604
O O2 0.751781 0.167691 0.640913
O O3 0.774131 0.281480 0.242756
O O4 0.436129 0.315819 0.148894
O O5 0.592184 0.939325 0.302689
O O6 0.893535 0.757269 0.657268
O O7 0.000000 0.000000 0.500000
O O8 0.804511 0.992725 0.133440
O O9 0.723296 0.518725 0.375738
O O10 0.971648 0.670960 0.144761
O O11 0.632551 0.245779 0.715305
O O12 0.238584 0.624555 0.157997
O O13 0.000000 0.500000 0.000000
#
# Coordination Sequence:
#
# PCOD8044093 Si02
#       6
#     2   2   2   2   2   2
#     4  10  21  37  61  96 130 167 215 264 318 380
#     4  11  24  46  71  90 129 175 218 261 321 392
#     4   9  19  36  60  92 132 174 208 258 323 389
#     4  10  23  43  71  91 120 182 223 248 321 401
#     4  10  19  37  63  93 127 171 216 257 320 381
#     4  12  24  39  63 102 133 163 211 279 320 364
#
# _framework density 21.585207
#
# number of rings (size 3 to 8) (size 9 to 14) (size 15 to 20)
#    0.000    1.667    3.333    1.000    4.667    1.333 
#    0.000    0.833    0.000    0.000    0.000    0.000 
#    0.000    0.000    0.000    0.000    0.000    0.000 
#
# Total GULP energy -148776.165854 kJ/mol
# GULP energy per Si atom -12398.013821 kJ/mol
# Density = 2.153608 g / cm^3
# Si number density = 21.585207 Si / 1000 Ang^3
#
#
#
# Elastic Constant Matrix: (Units=GPa)
#
#
# Indices 1 2 3 4 5 6 
#
# 1 57.2020 28.1123 24.2768 13.1110 -23.6434 -5.4028
# 2 28.1123 90.1996 35.3072 13.2438 -3.4465 9.8020
# 3 24.2768 35.3072 112.7391 10.6285 -20.8734 -10.3131
# 4 13.1110 13.2438 10.6285 38.6448 -5.7729 -2.4541
# 5 -23.6434 -3.4465 -20.8734 -5.7729 47.0780 13.5323
# 6 -5.4028 9.8020 -10.3131 -2.4541 13.5323 33.5318
#
#
#
# Elastic Compliance Matrix: (Units=1/GPa)
#
#
# Indices 1 2 3 4 5 6 
#
# 1 0.027566 -0.007190 -0.000911 -0.004774 0.012023 0.001061
# 2 -0.007190 0.015963 -0.004301 -0.002674 -0.002903 -0.006172
# 3 -0.000911 -0.004301 0.011375 -0.000653 0.003258 0.003247
# 4 -0.004774 -0.002674 -0.000653 0.028727 0.000101 0.001873
# 5 0.012023 -0.002903 0.003258 0.000101 0.031033 -0.008729
# 6 0.001061 -0.006172 0.003247 0.001873 -0.008729 0.036456
#
#
# Mechanical properties :
#
#
# Convention : Reuss Voigt Hill
#
# Bulk Modulus (GPa) = 33.22194 48.39261 40.80727
# Shear Modulus (GPa) = 26.88788 35.34719 31.11754
#
# Velocity S-wave (km/s) = 3.53322 4.05107 3.80098
# Velocity P-wave (km/s) = 5.66298 6.65955 6.18138
#
# Compressibility (1/GPa) = 0.03010059
#
# Stress axis : x y z
#
# Youngs Moduli (GPa) = 36.27619 62.64334 87.91297
#
# Poissons Ratio (x) = 0.45040 0.08009
# Poissons Ratio (y) = 0.26082 0.37812
# Poissons Ratio (z) = 0.03305 0.26944
#
# Static dielectric constant tensor:
#      x y z
#    x 3.678650 0.106530 -0.314290 
#    y 0.106530 3.745770 0.277210 
#    z -0.314290 0.277210 4.249070 
# 
# 
# High freq. dielectric constant tensor:
#      x y z
#    x 1.820960 0.024350 -0.027080 
#    y 0.024350 1.827980 0.020810 
#    z -0.027080 0.020810 1.867950 
# 
# From -- ./inp_files/164573.got.cif
#   From: 2010.06.25/outbox.cif.g09.slc.cpg/sg2_83_cif.got.tgz:164573.got - 2010.06.27 13:26:56.
