data_PCOD8044527
_publ_section_title
;
Structure prediction by ZEFSAII (Michael W. Deem and Ramdas Pophale) SiO2 
 PCOD8044527
Probable space group: P -1
;
_chemical_formula_sum "Si O2"
_cell_formula_units_Z 16
_cell_length_a 11.673887
_cell_length_b 20.155400
_cell_length_c 7.943050
_cell_angle_alpha 125.687948
_cell_angle_beta 98.418732
_cell_angle_gamma 38.058668
_cell_volume 730.502487
_symmetry_space_group_name_H-M "P -1"
_symmetry_group_IT_number 2
_symmetry_cell_setting 'triclinic'
loop_
_space_group_symop_operation_xyz
x,y,z
-x,-y,-z
loop_
_atom_site_type_symbol
_atom_site_label
_atom_site_fract_x
_atom_site_fract_y
_atom_site_fract_z
Si Si1 0.912086 0.748194 0.902073
Si Si2 0.659812 0.658492 0.018058
Si Si3 0.281194 0.435016 0.746233
Si Si4 0.775756 0.320660 0.315311
Si Si5 0.835543 0.668134 0.500126
Si Si6 0.485759 0.082804 0.489286
Si Si7 0.762493 0.206375 0.404581
Si Si8 0.782639 0.148663 0.958606
O O1 0.788722 0.748814 0.779013
O O2 0.064492 0.621228 0.902905
O O3 0.080240 0.686735 0.706492
O O4 0.722228 0.930672 0.199528
O O5 0.772964 0.550383 0.050063
O O6 0.530972 0.824539 0.267682
O O7 0.457113 0.724423 0.001875
O O8 0.882918 0.526642 0.744370
O O9 0.303571 0.332475 0.508137
O O10 0.518934 0.343159 0.654784
O O11 0.500000 0.500000 0.500000
O O12 0.808217 0.271194 0.444230
O O13 0.849086 0.203274 0.026514
O O14 0.737841 0.779699 0.483670
O O15 0.500000 0.000000 0.500000
O O16 0.742861 0.158424 0.165731
O O17 0.985483 0.046221 0.336361
#
# Coordination Sequence:
#
# PCOD8044527 Si02
#       8
#     2   2   2   2   2   2   2   2
#     4  12  23  41  68  93 128 167 213 266 315 368
#     4  11  23  42  65  88 131 171 207 258 322 382
#     4  11  22  39  63  91 127 164 212 252 323 379
#     4  10  19  38  62  91 123 158 213 264 306 356
#     4  11  24  42  66  93 123 174 216 252 311 392
#     4  11  25  42  61  99 135 159 205 271 325 372
#     4   9  20  38  62  91 120 162 215 259 298 375
#     4   9  21  39  62  86 121 167 211 254 305 376
#
# _framework density 21.902733000000001
#
# number of rings (size 3 to 8) (size 9 to 14) (size 15 to 20)
#    0.750    0.750    1.250    5.250    3.500    2.500 
#    0.000    1.875    0.000    0.000    0.000    0.000 
#    0.000    0.000    0.000    0.000    0.000    0.000 
#
# Total GULP energy -198273.108397 kJ/mol
# GULP energy per Si atom -12392.069275 kJ/mol
# Density = 2.185288 g / cm^3
# Si number density = 21.902733 Si / 1000 Ang^3
#
#
#
# Elastic Constant Matrix: (Units=GPa)
#
#
# Indices 1 2 3 4 5 6 
#
# 1 79.7082 23.6318 6.5315 4.1194 -4.0235 11.8570
# 2 23.6318 89.2564 12.4217 27.2293 4.1608 5.1773
# 3 6.5315 12.4217 78.6628 17.7712 -0.9601 5.1817
# 4 4.1194 27.2293 17.7712 31.2168 0.5712 1.5294
# 5 -4.0235 4.1608 -0.9601 0.5712 22.9048 5.9587
# 6 11.8570 5.1773 5.1817 1.5294 5.9587 31.6406
#
#
#
# Elastic Compliance Matrix: (Units=1/GPa)
#
#
# Indices 1 2 3 4 5 6 
#
# 1 0.014914 -0.004526 -0.000660 0.002550 0.004854 -0.005778
# 2 -0.004526 0.016883 0.000961 -0.014619 -0.003494 0.000141
# 3 -0.000660 0.000961 0.014825 -0.009108 0.001106 -0.002106
# 4 0.002550 -0.014619 -0.009108 0.049595 0.001416 0.000264
# 5 0.004854 -0.003494 0.001106 0.001416 0.047893 -0.010516
# 6 -0.005778 0.000141 -0.002106 0.000264 -0.010516 0.036060
#
#
# Mechanical properties :
#
#
# Convention : Reuss Voigt Hill
#
# Bulk Modulus (GPa) = 26.19715 36.97750 31.58733
# Shear Modulus (GPa) = 24.83305 30.82192 27.82749
#
# Velocity S-wave (km/s) = 3.37083 3.75536 3.56828
# Velocity P-wave (km/s) = 5.20928 5.97686 5.60623
#
# Compressibility (1/GPa) = 0.03817209
#
# Stress axis : x y z
#
# Youngs Moduli (GPa) = 67.04941 59.23228 67.45190
#
# Poissons Ratio (x) = 0.26808 0.04451
# Poissons Ratio (y) = 0.30346 -0.06479
# Poissons Ratio (z) = 0.04424 -0.05689
#
# Static dielectric constant tensor:
#      x y z
#    x 3.287410 -0.112480 -0.101210 
#    y -0.112480 3.867330 0.148070 
#    z -0.101210 0.148070 3.825160 
# 
# 
# High freq. dielectric constant tensor:
#      x y z
#    x 1.848210 0.007000 -0.001550 
#    y 0.007000 1.864860 0.022590 
#    z -0.001550 0.022590 1.848370 
# 
# From -- ./inp_files/283247.got.cif
#   From: 2010.06.25/outbox.cif.g09.slc.cpg/sg2_142_cif.got.tgz:283247.got - 2010.06.27 13:26:56.
