data_PCOD8044186
_publ_section_title
;
Structure prediction by ZEFSAII (Michael W. Deem and Ramdas Pophale) SiO2 
 PCOD8044186
Probable space group: P -1
;
_chemical_formula_sum "Si O2"
_cell_formula_units_Z 16
_cell_length_a 8.820348
_cell_length_b 14.077363
_cell_length_c 8.847833
_cell_angle_alpha 71.911716
_cell_angle_beta 45.626572
_cell_angle_gamma 85.322614
_cell_volume 731.462064
_symmetry_space_group_name_H-M "P -1"
_symmetry_group_IT_number 2
_symmetry_cell_setting 'triclinic'
loop_
_space_group_symop_operation_xyz
x,y,z
-x,-y,-z
loop_
_atom_site_type_symbol
_atom_site_label
_atom_site_fract_x
_atom_site_fract_y
_atom_site_fract_z
Si Si1 0.035713 0.404155 0.116957
Si Si2 0.417980 0.200910 0.794383
Si Si3 0.747754 0.866591 0.735980
Si Si4 0.361099 0.709019 0.961993
Si Si5 0.791380 0.091268 0.491715
Si Si6 0.962339 0.211433 0.050355
Si Si7 0.536340 0.477407 0.155649
Si Si8 0.719246 0.390403 0.611303
O O1 0.962075 0.299292 0.132541
O O2 0.933117 0.401337 0.357385
O O3 0.289537 0.425088 0.957917
O O4 0.000000 0.500000 0.000000
O O5 0.586599 0.143363 0.627864
O O6 0.529063 0.317342 0.689546
O O7 0.340610 0.138252 0.030459
O O8 0.207751 0.205269 0.833074
O O9 0.600259 0.776939 0.786462
O O10 0.003228 0.859340 0.566531
O O11 0.719538 0.972064 0.630257
O O12 0.184726 0.773697 0.997806
O O13 0.393341 0.632253 0.838013
O O14 0.258170 0.654466 0.213969
O O15 0.859108 0.106839 0.260773
O O16 0.330778 0.494030 0.392007
O O17 0.500000 0.500000 0.000000
#
# Coordination Sequence:
#
# PCOD8044186 Si02
#       8
#     2   2   2   2   2   2   2   2
#     4  12  23  41  61  88 123 165 210 253 299 371
#     4  10  19  37  65  89 124 158 212 249 298 374
#     4   9  21  39  65  91 120 161 207 257 303 365
#     4  10  22  42  60  93 133 159 203 261 307 369
#     4  10  20  39  66  91 118 164 207 252 309 363
#     4  11  22  39  60  93 131 159 201 258 306 365
#     4  10  22  39  60  88 125 161 205 258 298 361
#     4  10  22  40  64  86 120 171 208 248 307 359
#
# _framework density 21.873999000000001
#
# number of rings (size 3 to 8) (size 9 to 14) (size 15 to 20)
#    0.000    1.750    3.750    0.375    1.750    3.000 
#    2.250    5.625    0.000    0.000    0.000    0.000 
#    0.000    0.000    0.000    0.000    0.000    0.000 
#
# Total GULP energy -198229.758897 kJ/mol
# GULP energy per Si atom -12389.359931 kJ/mol
# Density = 2.182421 g / cm^3
# Si number density = 21.873999 Si / 1000 Ang^3
#
#
#
# Elastic Constant Matrix: (Units=GPa)
#
#
# Indices 1 2 3 4 5 6 
#
# 1 94.5909 24.5327 24.4666 1.6097 -14.5619 -20.2785
# 2 24.5327 72.0293 36.2186 2.3060 -6.9699 -17.1671
# 3 24.4666 36.2186 61.2600 10.8550 -10.1056 -3.1583
# 4 1.6097 2.3060 10.8550 36.9935 -9.1463 -6.5889
# 5 -14.5619 -6.9699 -10.1056 -9.1463 26.6929 4.1553
# 6 -20.2785 -17.1671 -3.1583 -6.5889 4.1553 31.5735
#
#
#
# Elastic Compliance Matrix: (Units=1/GPa)
#
#
# Indices 1 2 3 4 5 6 
#
# 1 0.014672 0.000271 -0.005265 0.004001 0.006038 0.009085
# 2 0.000271 0.023996 -0.014434 0.005184 0.000739 0.012762
# 3 -0.005265 -0.014434 0.028374 -0.008359 0.002873 -0.010514
# 4 0.004001 0.005184 -0.008359 0.033321 0.010207 0.010162
# 5 0.006038 0.000739 0.002873 0.010207 0.045423 0.000719
# 6 0.009085 0.012762 -0.010514 0.010162 0.000719 0.045420
#
#
# Mechanical properties :
#
#
# Convention : Reuss Voigt Hill
#
# Bulk Modulus (GPa) = 35.47776 44.25734 39.86755
# Shear Modulus (GPa) = 20.88059 28.56280 24.72169
#
# Velocity S-wave (km/s) = 3.09299 3.61749 3.36547
# Velocity P-wave (km/s) = 5.38607 6.14207 5.77645
#
# Compressibility (1/GPa) = 0.02818667
#
# Stress axis : x y z
#
# Youngs Moduli (GPa) = 68.15563 41.67379 35.24403
#
# Poissons Ratio (x) = -0.01131 0.18556
# Poissons Ratio (y) = -0.01850 0.50872
# Poissons Ratio (z) = 0.35883 0.60153
#
# Static dielectric constant tensor:
#      x y z
#    x 3.947490 -0.248390 -0.204540 
#    y -0.248390 4.321800 -0.041800 
#    z -0.204540 -0.041800 4.009040 
# 
# 
# High freq. dielectric constant tensor:
#      x y z
#    x 1.858810 -0.018380 -0.015680 
#    y -0.018380 1.851340 -0.005940 
#    z -0.015680 -0.005940 1.854050 
# 
# From -- ./inp_files/39699.got.cif
#   From: 2010.06.25/outbox.cif.g09.slc.cpg/sg2_20_cif.got.tgz:39699.got - 2010.06.27 13:26:56.
