data_PCOD8044792
_publ_section_title
;
Structure prediction by ZEFSAII (Michael W. Deem and Ramdas Pophale) SiO2 
 PCOD8044792
Probable space group: P -1
;
_chemical_formula_sum "Si O2"
_cell_formula_units_Z 12
_cell_length_a 8.938355
_cell_length_b 16.532765
_cell_length_c 11.894684
_cell_angle_alpha 43.166964
_cell_angle_beta 139.674037
_cell_angle_gamma 147.332668
_cell_volume 594.363884
_symmetry_space_group_name_H-M "P -1"
_symmetry_group_IT_number 2
_symmetry_cell_setting 'triclinic'
loop_
_space_group_symop_operation_xyz
x,y,z
-x,-y,-z
loop_
_atom_site_type_symbol
_atom_site_label
_atom_site_fract_x
_atom_site_fract_y
_atom_site_fract_z
Si Si1 0.577142 0.205486 0.910677
Si Si2 0.132056 0.666485 0.456227
Si Si3 0.599068 0.702429 0.824317
Si Si4 0.272703 0.481506 0.052525
Si Si5 0.244287 0.879906 0.105363
Si Si6 0.612472 0.607561 0.348903
O O1 0.573453 0.150032 0.839663
O O2 0.351009 0.242367 0.748893
O O3 0.912312 0.358211 0.978391
O O4 0.458367 0.062810 0.071795
O O5 0.462066 0.759351 0.607940
O O6 0.144918 0.773611 0.263425
O O7 0.000000 0.500000 0.500000
O O8 0.924281 0.649617 0.452085
O O9 0.569387 0.577222 0.856764
O O10 0.389871 0.628038 0.892532
O O11 0.948592 0.838308 0.917596
O O12 0.377647 0.524801 0.196011
O O13 0.500000 0.500000 0.500000
#
# Coordination Sequence:
#
# PCOD8044792 Si02
#       6
#     2   2   2   2   2   2
#     4  10  23  40  62  88 131 162 198 260 312 358
#     4  12  21  38  66  91 120 164 210 248 296 373
#     4  10  19  38  67  91 115 162 214 246 297 372
#     4  10  19  39  63  90 121 162 205 255 305 358
#     4  10  22  44  61  90 127 167 201 248 314 368
#     4  12  23  37  62  98 124 158 210 260 301 358
#
# _framework density 20.189651999999999
#
# number of rings (size 3 to 8) (size 9 to 14) (size 15 to 20)
#    0.000    1.333    3.333    4.500    0.000    0.667 
#    3.000    3.333    0.000    0.000    0.000    0.000 
#    0.000    0.000    0.000    0.000    0.000    0.000 
#
# Total GULP energy -148747.711320 kJ/mol
# GULP energy per Si atom -12395.642610 kJ/mol
# Density = 2.014370 g / cm^3
# Si number density = 20.189652 Si / 1000 Ang^3
#
#
#
# Elastic Constant Matrix: (Units=GPa)
#
#
# Indices 1 2 3 4 5 6 
#
# 1 116.9236 35.1237 51.7851 -9.4443 7.9527 8.2378
# 2 35.1237 66.6417 22.0949 -10.9531 2.4255 8.1554
# 3 51.7851 22.0949 105.4186 -0.1282 1.1013 1.1893
# 4 -9.4443 -10.9531 -0.1282 32.6691 7.1850 -1.9836
# 5 7.9527 2.4255 1.1013 7.1850 38.3848 1.0915
# 6 8.2378 8.1554 1.1893 -1.9836 1.0915 23.1147
#
#
#
# Elastic Compliance Matrix: (Units=1/GPa)
#
#
# Indices 1 2 3 4 5 6 
#
# 1 0.012716 -0.004090 -0.005330 0.002720 -0.002663 -0.002455
# 2 -0.004090 0.019298 -0.001963 0.005248 -0.001163 -0.004745
# 3 -0.005330 -0.001963 0.012481 -0.002324 0.001257 0.001691
# 4 0.002720 0.005248 -0.002324 0.034804 -0.007361 0.000633
# 5 -0.002663 -0.001163 0.001257 -0.007361 0.028038 -0.000661
# 6 -0.002455 -0.004745 0.001691 0.000633 -0.000661 0.045810
#
#
# Mechanical properties :
#
#
# Convention : Reuss Voigt Hill
#
# Bulk Modulus (GPa) = 46.02630 56.33236 51.17933
# Shear Modulus (GPa) = 27.29903 30.83238 29.06570
#
# Velocity S-wave (km/s) = 3.68112 3.91210 3.79837
# Velocity P-wave (km/s) = 6.39641 6.95473 6.68140
#
# Compressibility (1/GPa) = 0.02172671
#
# Stress axis : x y z
#
# Youngs Moduli (GPa) = 78.64173 51.81939 80.12240
#
# Poissons Ratio (x) = 0.21195 0.42708
# Poissons Ratio (y) = 0.32166 0.15731
# Poissons Ratio (z) = 0.41919 0.10174
#
# Static dielectric constant tensor:
#      x y z
#    x 3.896170 0.078520 0.077480 
#    y 0.078520 3.697650 -0.050660 
#    z 0.077480 -0.050660 3.703700 
# 
# 
# High freq. dielectric constant tensor:
#      x y z
#    x 1.798070 0.015090 0.003270 
#    y 0.015090 1.767310 0.000300 
#    z 0.003270 0.000300 1.787820 
# 
# From -- ./inp_files/151164.got.cif
#   From: 2010.06.25/outbox.cif.g09.slc.cpg/sg2_76_cif.got.tgz:151164.got - 2010.06.27 13:26:56.
