data_PCOD8044064
_publ_section_title
;
Structure prediction by ZEFSAII (Michael W. Deem and Ramdas Pophale) SiO2 
 PCOD8044064
Probable space group: P -1
;
_chemical_formula_sum "Si O2"
_cell_formula_units_Z 16
_cell_length_a 9.717873
_cell_length_b 11.958641
_cell_length_c 10.637676
_cell_angle_alpha 125.154937
_cell_angle_beta 106.470218
_cell_angle_gamma 50.265678
_cell_volume 770.217417
_symmetry_space_group_name_H-M "P -1"
_symmetry_group_IT_number 2
_symmetry_cell_setting 'triclinic'
loop_
_space_group_symop_operation_xyz
x,y,z
-x,-y,-z
loop_
_atom_site_type_symbol
_atom_site_label
_atom_site_fract_x
_atom_site_fract_y
_atom_site_fract_z
Si Si1 0.799465 0.164616 0.110849
Si Si2 0.438328 0.681922 0.642767
Si Si3 0.872147 0.998817 0.371143
Si Si4 0.201509 0.393664 0.344528
Si Si5 0.037520 0.256949 0.358885
Si Si6 0.707998 0.878964 0.428128
Si Si7 0.050523 0.485429 0.857718
Si Si8 0.034070 0.810199 0.044867
O O1 0.601956 0.301158 0.206684
O O2 0.952574 0.169186 0.223782
O O3 0.797335 0.205506 0.988231
O O4 0.858912 0.972552 0.029263
O O5 0.500000 0.500000 0.500000
O O6 0.583243 0.715142 0.675463
O O7 0.249890 0.820444 0.614776
O O8 0.736295 0.973515 0.387480
O O9 0.007726 0.845929 0.209770
O O10 0.000000 0.000000 0.500000
O O11 0.161408 0.262102 0.291157
O O12 0.126728 0.545822 0.523732
O O13 0.119069 0.475284 0.238968
O O14 0.162427 0.153447 0.444527
O O15 0.769138 0.699086 0.262961
O O16 0.500000 0.000000 0.500000
O O17 0.073630 0.628685 0.914922
O O18 0.000000 0.500000 0.000000
#
# Coordination Sequence:
#
# PCOD8044064 Si02
#       8
#     2   2   2   2   2   2   2   2
#     4  10  20  38  63  90 125 162 219 267 324 383
#     4  11  22  37  64  98 130 162 219 281 318 377
#     4  11  24  42  63  90 132 175 217 267 335 398
#     4  10  21  36  61  97 124 164 221 266 321 386
#     4  10  19  37  63  88 123 172 213 263 324 392
#     4  11  23  38  63  96 126 165 219 272 325 385
#     4  11  22  41  67  91 133 178 215 263 334 403
#     4  10  21  39  63  88 119 176 218 260 323 400
#
# _framework density 20.773354000000001
#
# number of rings (size 3 to 8) (size 9 to 14) (size 15 to 20)
#    0.000    1.500    3.750    2.250    1.750    1.000 
#    0.000    7.500    0.000    4.500    0.000    0.000 
#    0.000    0.000    0.000    0.000    0.000    0.000 
#
# Total GULP energy -198250.513506 kJ/mol
# GULP energy per Si atom -12390.657094 kJ/mol
# Density = 2.072607 g / cm^3
# Si number density = 20.773354 Si / 1000 Ang^3
#
#
#
# Elastic Constant Matrix: (Units=GPa)
#
#
# Indices 1 2 3 4 5 6 
#
# 1 135.2114 34.6925 46.1644 5.0850 -30.4407 5.7592
# 2 34.6925 64.5197 34.1893 11.1708 -6.6614 6.0101
# 3 46.1644 34.1893 101.9768 11.5397 -22.3798 1.0300
# 4 5.0850 11.1708 11.5397 40.5269 5.6656 0.3973
# 5 -30.4407 -6.6614 -22.3798 5.6656 41.4986 -0.7376
# 6 5.7592 6.0101 1.0300 0.3973 -0.7376 37.9720
#
#
#
# Elastic Compliance Matrix: (Units=1/GPa)
#
#
# Indices 1 2 3 4 5 6 
#
# 1 0.010480 -0.003732 -0.002108 -0.000518 0.006008 -0.000820
# 2 -0.003732 0.020992 -0.005318 -0.003526 -0.001801 -0.002610
# 3 -0.002108 -0.005318 0.014125 -0.003091 0.005656 0.000920
# 4 -0.000518 -0.003526 -0.003091 0.027478 -0.006359 0.000309
# 5 0.006008 -0.001801 0.005656 -0.006359 0.032132 -0.000089
# 6 -0.000820 -0.002610 0.000920 0.000309 -0.000089 0.026843
#
#
# Mechanical properties :
#
#
# Convention : Reuss Voigt Hill
#
# Bulk Modulus (GPa) = 42.95312 59.08892 51.02102
# Shear Modulus (GPa) = 30.84028 36.44362 33.64195
#
# Velocity S-wave (km/s) = 3.85724 4.19303 4.02864
# Velocity P-wave (km/s) = 6.36865 7.20752 6.80103
#
# Compressibility (1/GPa) = 0.02328119
#
# Stress axis : x y z
#
# Youngs Moduli (GPa) = 95.42049 47.63786 70.79588
#
# Poissons Ratio (x) = 0.17778 0.14921
# Poissons Ratio (y) = 0.35610 0.37651
# Poissons Ratio (z) = 0.20111 0.25335
#
# Static dielectric constant tensor:
#      x y z
#    x 4.080550 0.262660 -0.363940 
#    y 0.262660 3.689160 0.025580 
#    z -0.363940 0.025580 4.026300 
# 
# 
# High freq. dielectric constant tensor:
#      x y z
#    x 1.812300 0.030580 -0.020470 
#    y 0.030580 1.793980 0.008910 
#    z -0.020470 0.008910 1.826010 
# 
# From -- ./inp_files/393138.got.cif
#   From: 2010.06.25/outbox.cif.g09.slc.cpg/sg2_197_cif.got.tgz:393138.got - 2010.06.27 13:26:56.
