data_PCOD8044742
_publ_section_title
;
Structure prediction by ZEFSAII (Michael W. Deem and Ramdas Pophale) SiO2 
 PCOD8044742
Probable space group: P -1
;
_chemical_formula_sum "Si O2"
_cell_formula_units_Z 16
_cell_length_a 16.438893
_cell_length_b 5.242175
_cell_length_c 8.751636
_cell_angle_alpha 90.191646
_cell_angle_beta 81.765173
_cell_angle_gamma 112.520037
_cell_volume 688.389287
_symmetry_space_group_name_H-M "P -1"
_symmetry_group_IT_number 2
_symmetry_cell_setting 'triclinic'
loop_
_space_group_symop_operation_xyz
x,y,z
-x,-y,-z
loop_
_atom_site_type_symbol
_atom_site_label
_atom_site_fract_x
_atom_site_fract_y
_atom_site_fract_z
Si Si1 0.671260 0.547150 0.818597
Si Si2 0.406931 0.654286 0.645921
Si Si3 0.100868 0.694851 0.303289
Si Si4 0.246996 0.797099 0.700834
Si Si5 0.496207 0.267407 0.701994
Si Si6 0.776793 0.843391 0.521845
Si Si7 0.748312 0.147490 0.947274
Si Si8 0.085300 0.372493 0.594241
O O1 0.565391 0.398989 0.820600
O O2 0.717354 0.575725 0.637429
O O3 0.698411 0.347377 0.918489
O O4 0.695927 0.843737 0.891505
O O5 0.301180 0.596013 0.653610
O O6 0.424431 0.412731 0.731525
O O7 0.453597 0.684016 0.471720
O O8 0.444309 0.938383 0.736042
O O9 0.146929 0.688599 0.128497
O O10 0.072547 0.420914 0.416240
O O11 0.012844 0.765031 0.303697
O O12 0.184509 0.920414 0.363387
O O13 0.144436 0.647107 0.673003
O O14 0.285309 0.073390 0.582477
O O15 0.251002 0.888993 0.872689
O O16 0.861845 0.827856 0.410693
#
# Coordination Sequence:
#
# PCOD8044742 Si02
#       8
#     2   2   2   2   2   2   2   2
#     4  11  23  43  68  90 127 171 217 254 318 379
#     4  10  23  38  63  98 128 156 208 274 312 370
#     4   9  20  38  61  96 121 167 214 265 309 372
#     4  11  26  39  61  95 131 168 208 260 329 372
#     4  10  22  40  66  96 121 162 215 266 312 366
#     4  10  21  37  66  93 122 167 216 267 308 378
#     4  11  25  43  62  95 134 173 205 260 317 388
#     4  10  19  38  66  89 126 161 222 262 312 368
#
# _framework density 23.242661999999999
#
# number of rings (size 3 to 8) (size 9 to 14) (size 15 to 20)
#    0.000    1.750    1.250    1.875   12.250    0.500 
#    0.000    4.375    0.000    0.000    0.000    0.000 
#    0.000    0.000    0.000    0.000    0.000    0.000 
#
# Total GULP energy -198307.448091 kJ/mol
# GULP energy per Si atom -12394.215506 kJ/mol
# Density = 2.318976 g / cm^3
# Si number density = 23.242662 Si / 1000 Ang^3
#
#
#
# Elastic Constant Matrix: (Units=GPa)
#
#
# Indices 1 2 3 4 5 6 
#
# 1 132.1680 24.0149 31.3033 0.2696 9.6959 -9.1499
# 2 24.0149 77.8270 22.8095 4.8493 11.8081 -19.4747
# 3 31.3033 22.8095 92.1106 0.2027 17.3364 2.2477
# 4 0.2696 4.8493 0.2027 18.8610 -3.6964 -2.1128
# 5 9.6959 11.8081 17.3364 -3.6964 23.4659 -0.5068
# 6 -9.1499 -19.4747 2.2477 -2.1128 -0.5068 36.8649
#
#
#
# Elastic Compliance Matrix: (Units=1/GPa)
#
#
# Indices 1 2 3 4 5 6 
#
# 1 0.008573 -0.001425 -0.002416 0.000251 -0.000968 0.001524
# 2 -0.001425 0.017635 -0.002810 -0.004831 -0.006781 0.008764
# 3 -0.002416 -0.002810 0.013998 -0.001353 -0.008210 -0.003128
# 4 0.000251 -0.004831 -0.001353 0.056796 0.012295 0.001017
# 5 -0.000968 -0.006781 -0.008210 0.012295 0.054389 -0.001869
# 6 0.001524 0.008764 -0.003128 0.001017 -0.001869 0.032357
#
#
# Mechanical properties :
#
#
# Convention : Reuss Voigt Hill
#
# Bulk Modulus (GPa) = 37.16840 50.92901 44.04871
# Shear Modulus (GPa) = 24.26973 30.77023 27.51998
#
# Velocity S-wave (km/s) = 3.23490 3.64245 3.44470
# Velocity P-wave (km/s) = 5.47530 6.29677 5.90035
#
# Compressibility (1/GPa) = 0.02690457
#
# Stress axis : x y z
#
# Youngs Moduli (GPa) = 116.64152 56.70585 71.43879
#
# Poissons Ratio (x) = 0.08079 0.17262
# Poissons Ratio (y) = 0.16619 0.20072
# Poissons Ratio (z) = 0.28184 0.15933
#
# Static dielectric constant tensor:
#      x y z
#    x 4.419260 0.054230 -0.006530 
#    y 0.054230 4.288280 -0.046350 
#    z -0.006530 -0.046350 3.988260 
# 
# 
# High freq. dielectric constant tensor:
#      x y z
#    x 1.928560 -0.000480 0.003450 
#    y -0.000480 1.920150 0.008290 
#    z 0.003450 0.008290 1.892200 
# 
# From -- ./inp_files/112908.got.cif
#   From: 2010.06.25/outbox.cif.g09.slc.cpg/sg2_57_cif.got.tgz:112908.got - 2010.06.27 13:26:56.
