data_PCOD8044478
_publ_section_title
;
Structure prediction by ZEFSAII (Michael W. Deem and Ramdas Pophale) SiO2 
 PCOD8044478
Probable space group: P -1
;
_chemical_formula_sum "Si O2"
_cell_formula_units_Z 16
_cell_length_a 12.392360
_cell_length_b 7.203737
_cell_length_c 12.299479
_cell_angle_alpha 84.822482
_cell_angle_beta 105.266699
_cell_angle_gamma 143.363070
_cell_volume 617.963596
_symmetry_space_group_name_H-M "P -1"
_symmetry_group_IT_number 2
_symmetry_cell_setting 'triclinic'
loop_
_space_group_symop_operation_xyz
x,y,z
-x,-y,-z
loop_
_atom_site_type_symbol
_atom_site_label
_atom_site_fract_x
_atom_site_fract_y
_atom_site_fract_z
Si Si1 0.845785 0.755861 0.114114
Si Si2 0.640381 0.960315 0.267004
Si Si3 0.771744 0.186571 0.841545
Si Si4 0.740436 0.715692 0.862088
Si Si5 0.803644 0.272714 0.078597
Si Si6 0.438034 0.083736 0.403748
Si Si7 0.220982 0.439416 0.663858
Si Si8 0.138037 0.856785 0.493327
O O1 0.839452 0.526171 0.115190
O O2 0.775069 0.694048 0.222911
O O3 0.716046 0.674185 0.990296
O O4 0.062445 0.116724 0.131411
O O5 0.415993 0.613485 0.227503
O O6 0.699633 0.008157 0.154985
O O7 0.689500 0.235317 0.304241
O O8 0.748659 0.955932 0.373554
O O9 0.990675 0.547591 0.890609
O O10 0.736589 0.924054 0.814755
O O11 0.667450 0.150578 0.717199
O O12 0.682651 0.109545 0.941757
O O13 0.635009 0.451561 0.395326
O O14 0.500000 0.000000 0.500000
O O15 0.293263 0.026609 0.430638
O O16 0.000856 0.159859 0.578024
O O17 0.000000 0.500000 0.500000
#
# Coordination Sequence:
#
# PCOD8044478 Si02
#       8
#     2   2   2   2   2   2   2   2
#     4   9  20  39  61  87 126 170 209 253 319 384
#     4  10  20  34  63  90 116 168 212 255 311 381
#     4  10  22  39  57  92 129 161 203 268 318 373
#     4  10  21  38  62  89 130 172 199 257 338 377
#     4   9  20  37  62  88 121 164 215 261 309 370
#     4  12  22  36  66  96 119 164 219 260 305 373
#     4  10  22  39  66  95 122 168 217 268 302 374
#     4  10  19  38  61  91 126 159 206 269 311 355
#
# _framework density 25.891492
#
# number of rings (size 3 to 8) (size 9 to 14) (size 15 to 20)
#    0.000    2.000    2.500    3.000    3.500    1.500 
#    0.000    2.500    0.000    1.500    0.000    0.000 
#    0.000    0.000    0.000    0.000    0.000    0.000 
#
# Total GULP energy -198272.696519 kJ/mol
# GULP energy per Si atom -12392.043532 kJ/mol
# Density = 2.583256 g / cm^3
# Si number density = 25.891492 Si / 1000 Ang^3
#
#
#
# Elastic Constant Matrix: (Units=GPa)
#
#
# Indices 1 2 3 4 5 6 
#
# 1 41.3179 28.5478 20.3327 -5.6951 -5.3359 31.2802
# 2 28.5478 101.9035 58.3397 -2.9740 -1.4792 30.1367
# 3 20.3327 58.3397 209.4921 -8.0271 6.6022 28.8997
# 4 -5.6951 -2.9740 -8.0271 48.0405 13.4761 -5.1318
# 5 -5.3359 -1.4792 6.6022 13.4761 35.5064 -5.7003
# 6 31.2802 30.1367 28.8997 -5.1318 -5.7003 41.1149
#
#
#
# Elastic Compliance Matrix: (Units=1/GPa)
#
#
# Indices 1 2 3 4 5 6 
#
# 1 0.059064 -0.004900 0.001486 0.002235 0.000805 -0.041999
# 2 -0.004900 0.014208 -0.002841 -0.000649 -0.000139 -0.004790
# 3 0.001486 -0.002841 0.005998 0.001205 -0.002012 -0.003393
# 4 0.002235 -0.000649 0.001205 0.023722 -0.008975 -0.000355
# 5 0.000805 -0.000139 -0.002012 -0.008975 0.032754 0.004325
# 6 -0.041999 -0.004790 -0.003393 -0.000355 0.004325 0.062726
#
#
# Mechanical properties :
#
#
# Convention : Reuss Voigt Hill
#
# Bulk Modulus (GPa) = 14.97890 63.01712 38.99801
# Shear Modulus (GPa) = 21.43767 41.29855 31.36811
#
# Velocity S-wave (km/s) = 2.88059 3.99816 3.48447
# Velocity P-wave (km/s) = 4.10628 6.76058 5.59316
#
# Compressibility (1/GPa) = 0.06676057
#
# Stress axis : x y z
#
# Youngs Moduli (GPa) = 16.93071 70.38403 166.72372
#
# Poissons Ratio (x) = 0.34487 -0.24774
# Poissons Ratio (y) = 0.08296 0.47362
# Poissons Ratio (z) = -0.02516 0.19994
#
# Static dielectric constant tensor:
#      x y z
#    x 4.385470 0.535540 0.107970 
#    y 0.535540 4.777640 -0.221820 
#    z 0.107970 -0.221820 5.244580 
# 
# 
# High freq. dielectric constant tensor:
#      x y z
#    x 2.002540 0.018580 0.010020 
#    y 0.018580 2.029980 -0.009140 
#    z 0.010020 -0.009140 2.055590 
# 
# From -- ./inp_files/447364.got.cif
#   From: 2010.06.25/outbox.cif.g09.slc.cpg/sg2_224_cif.got.tgz:447364.got - 2010.06.27 13:26:56.
