data_PCOD8044307
_publ_section_title
;
Structure prediction by ZEFSAII (Michael W. Deem and Ramdas Pophale) SiO2 
 PCOD8044307
Probable space group: P -1
;
_chemical_formula_sum "Si O2"
_cell_formula_units_Z 14
_cell_length_a 16.852420
_cell_length_b 11.414109
_cell_length_c 11.936717
_cell_angle_alpha 42.118860
_cell_angle_beta 32.583079
_cell_angle_gamma 29.170540
_cell_volume 602.523318
_symmetry_space_group_name_H-M "P -1"
_symmetry_group_IT_number 2
_symmetry_cell_setting 'triclinic'
loop_
_space_group_symop_operation_xyz
x,y,z
-x,-y,-z
loop_
_atom_site_type_symbol
_atom_site_label
_atom_site_fract_x
_atom_site_fract_y
_atom_site_fract_z
Si Si1 0.821222 0.465197 0.949989
Si Si2 0.289260 0.744958 0.121866
Si Si3 0.768971 0.157756 0.116837
Si Si4 0.794131 0.575759 0.154165
Si Si5 0.492169 0.129461 0.126854
Si Si6 0.327848 0.462725 0.448721
Si Si7 0.232238 0.246053 0.560792
O O1 0.610037 0.704580 0.980231
O O2 0.989461 0.468602 0.706660
O O3 0.889664 0.208427 0.011221
O O4 0.818441 0.455385 0.094035
O O5 0.183905 0.690656 0.371389
O O6 0.500000 0.500000 0.000000
O O7 0.152519 0.888567 0.072046
O O8 0.321403 0.903201 0.032091
O O9 0.534395 0.407718 0.234065
O O10 0.740982 0.982640 0.314618
O O11 0.748866 0.472153 0.379044
O O12 0.598018 0.858814 0.170173
O O13 0.000000 0.500000 0.000000
O O14 0.316298 0.263276 0.335296
O O15 0.341180 0.251107 0.535206
#
# Coordination Sequence:
#
# PCOD8044307 Si02
#       7
#     2   2   2   2   2   2   2
#     4  12  26  43  65 102 144 169 219 279 333 395
#     4  10  19  37  71  98 128 165 224 277 329 381
#     4  11  21  41  69 104 130 174 223 280 330 386
#     4  12  27  46  68  95 136 182 227 267 332 409
#     4  12  23  45  70  99 132 179 221 279 332 393
#     4  11  20  42  69  93 132 179 225 259 337 392
#     4  12  22  40  74 103 129 173 224 280 328 393
#
# _framework density 23.235616
#
# number of rings (size 3 to 8) (size 9 to 14) (size 15 to 20)
#    0.000    0.571    8.571    2.571    0.000    0.571 
#    0.000    0.714    0.000    0.000    0.000    0.000 
#    0.000    0.000    0.000    0.000    0.000    0.000 
#
# Total GULP energy -173491.142144 kJ/mol
# GULP energy per Si atom -12392.224439 kJ/mol
# Density = 2.318273 g / cm^3
# Si number density = 23.235616 Si / 1000 Ang^3
#
#
#
# Elastic Constant Matrix: (Units=GPa)
#
#
# Indices 1 2 3 4 5 6 
#
# 1 170.1462 24.9977 71.5855 -6.9629 20.8588 10.4483
# 2 24.9977 52.7680 20.0501 -9.7102 13.7839 8.3905
# 3 71.5855 20.0501 136.7086 -17.1109 24.0314 6.4482
# 4 -6.9629 -9.7102 -17.1109 30.1643 -3.2319 1.8364
# 5 20.8588 13.7839 24.0314 -3.2319 47.8035 -5.8739
# 6 10.4483 8.3905 6.4482 1.8364 -5.8739 27.2090
#
#
#
# Elastic Compliance Matrix: (Units=1/GPa)
#
#
# Indices 1 2 3 4 5 6 
#
# 1 0.007940 -0.001884 -0.003666 -0.000888 -0.001364 -0.001834
# 2 -0.001884 0.024337 -0.000094 0.007154 -0.006733 -0.008696
# 3 -0.003666 -0.000094 0.010603 0.004881 -0.003643 -0.002192
# 4 -0.000888 0.007154 0.004881 0.038143 -0.002299 -0.006093
# 5 -0.001364 -0.006733 -0.003643 -0.002299 0.026273 0.009290
# 6 -0.001834 -0.008696 -0.002192 -0.006093 0.009290 0.043074
#
#
# Mechanical properties :
#
#
# Convention : Reuss Voigt Hill
#
# Bulk Modulus (GPa) = 31.65335 65.87661 48.76498
# Shear Modulus (GPa) = 29.03779 37.23464 33.13622
#
# Velocity S-wave (km/s) = 3.53896 4.00744 3.78047
# Velocity P-wave (km/s) = 5.50920 7.05875 6.33156
#
# Compressibility (1/GPa) = 0.03159223
#
# Stress axis : x y z
#
# Youngs Moduli (GPa) = 125.94376 41.08976 94.31210
#
# Poissons Ratio (x) = 0.07741 0.34578
# Poissons Ratio (y) = 0.23728 0.00883
# Poissons Ratio (z) = 0.46175 0.00385
#
# Static dielectric constant tensor:
#      x y z
#    x 4.646710 -0.371020 0.059200 
#    y -0.371020 4.296520 -0.154320 
#    z 0.059200 -0.154320 4.360700 
# 
# 
# High freq. dielectric constant tensor:
#      x y z
#    x 1.923910 -0.010070 -0.000990 
#    y -0.010070 1.904710 -0.016720 
#    z -0.000990 -0.016720 1.916280 
# 
# From -- ./inp_files/174853.got.cif
#   From: 2010.06.25/outbox.cif.g09.slc.cpg/sg2_88_cif.got.tgz:174853.got - 2010.06.27 13:26:56.
