data_PCOD8044369
_publ_section_title
;
Structure prediction by ZEFSAII (Michael W. Deem and Ramdas Pophale) SiO2 
 PCOD8044369
Probable space group: P -1
;
_chemical_formula_sum "Si O2"
_cell_formula_units_Z 16
_cell_length_a 14.193513
_cell_length_b 11.561812
_cell_length_c 13.665537
_cell_angle_alpha 49.707896
_cell_angle_beta 31.341810
_cell_angle_gamma 67.136021
_cell_volume 810.372399
_symmetry_space_group_name_H-M "P -1"
_symmetry_group_IT_number 2
_symmetry_cell_setting 'triclinic'
loop_
_space_group_symop_operation_xyz
x,y,z
-x,-y,-z
loop_
_atom_site_type_symbol
_atom_site_label
_atom_site_fract_x
_atom_site_fract_y
_atom_site_fract_z
Si Si1 0.828672 0.969189 0.092556
Si Si2 0.478479 0.654911 0.288199
Si Si3 0.453078 0.875386 0.699391
Si Si4 0.851126 0.986628 0.841193
Si Si5 0.791176 0.353987 0.293935
Si Si6 0.736260 0.990852 0.564004
Si Si7 0.408173 0.853466 0.086359
Si Si8 0.462990 0.661209 0.647501
O O1 0.681107 0.786857 0.355744
O O2 0.740131 0.111167 0.088988
O O3 0.897902 0.962520 0.925010
O O4 0.000000 0.000000 0.000000
O O5 0.330563 0.587809 0.549707
O O6 0.559682 0.524333 0.248149
O O7 0.674132 0.817699 0.053435
O O8 0.358220 0.686323 0.285581
O O9 0.411649 0.694307 0.787388
O O10 0.500000 0.000000 0.500000
O O11 0.641711 0.930650 0.573891
O O12 0.063964 0.034213 0.575719
O O13 0.787104 0.139307 0.794549
O O14 0.799456 0.186975 0.420552
O O15 0.680344 0.299117 0.320043
O O16 0.000000 0.500000 0.000000
O O17 0.571527 0.873303 0.848979
O O18 0.500000 0.000000 0.000000
#
# Coordination Sequence:
#
# PCOD8044369 Si02
#       8
#     2   2   2   2   2   2   2   2
#     4  11  21  36  65  90 121 165 203 257 316 366
#     4  11  23  42  59  90 130 168 200 258 315 364
#     4  10  19  38  59  86 126 155 207 254 302 371
#     4  11  21  38  66  90 124 162 211 257 308 365
#     4  12  23  37  61  95 133 157 196 263 323 371
#     4  12  21  40  65  94 122 164 211 258 304 369
#     4  10  21  42  63  86 125 167 213 256 293 371
#     4  11  22  38  57  89 130 157 203 255 316 374
#
# _framework density 19.744011
#
# number of rings (size 3 to 8) (size 9 to 14) (size 15 to 20)
#    0.000    1.000    7.500    2.625    1.750    2.000 
#    2.250    0.625    0.000    1.500    0.000    0.000 
#    0.000    0.000    0.000    0.000    0.000    0.000 
#
# Total GULP energy -198260.675644 kJ/mol
# GULP energy per Si atom -12391.292228 kJ/mol
# Density = 1.969907 g / cm^3
# Si number density = 19.744011 Si / 1000 Ang^3
#
#
#
# Elastic Constant Matrix: (Units=GPa)
#
#
# Indices 1 2 3 4 5 6 
#
# 1 107.1625 24.7702 35.7090 3.4362 -13.6968 -2.0098
# 2 24.7702 94.4280 24.3596 13.8719 -2.1210 2.0808
# 3 35.7090 24.3596 72.4262 16.9351 -18.9569 -3.6153
# 4 3.4362 13.8719 16.9351 26.0769 -5.8298 -6.8611
# 5 -13.6968 -2.1210 -18.9569 -5.8298 30.1958 7.1845
# 6 -2.0098 2.0808 -3.6153 -6.8611 7.1845 31.4757
#
#
#
# Elastic Compliance Matrix: (Units=1/GPa)
#
#
# Indices 1 2 3 4 5 6 
#
# 1 0.011815 -0.002249 -0.005270 0.003763 0.002489 0.000550
# 2 -0.002249 0.012680 -0.002497 -0.005883 -0.002354 -0.002014
# 3 -0.005270 -0.002497 0.022235 -0.010802 0.009835 -0.002217
# 4 0.003763 -0.005883 -0.010802 0.051090 0.001979 0.010073
# 5 0.002489 -0.002354 0.009835 0.001979 0.042499 -0.007825
# 6 0.000550 -0.002014 -0.002217 0.010073 -0.007825 0.035666
#
#
# Mechanical properties :
#
#
# Convention : Reuss Voigt Hill
#
# Bulk Modulus (GPa) = 37.45573 49.29938 43.37756
# Shear Modulus (GPa) = 24.40026 30.16154 27.28090
#
# Velocity S-wave (km/s) = 3.51925 3.91273 3.72120
# Velocity P-wave (km/s) = 5.96032 6.74063 6.36245
#
# Compressibility (1/GPa) = 0.02669818
#
# Stress axis : x y z
#
# Youngs Moduli (GPa) = 84.63621 78.86494 44.97490
#
# Poissons Ratio (x) = 0.17736 0.23702
# Poissons Ratio (y) = 0.19033 0.11230
# Poissons Ratio (z) = 0.44604 0.19691
#
# Static dielectric constant tensor:
#      x y z
#    x 4.126710 0.032980 0.201510 
#    y 0.032980 4.111820 0.320400 
#    z 0.201510 0.320400 3.323110 
# 
# 
# High freq. dielectric constant tensor:
#      x y z
#    x 1.780940 0.003200 -0.005140 
#    y 0.003200 1.768770 0.022970 
#    z -0.005140 0.022970 1.740070 
# 
# From -- ./inp_files/432571.got.cif
#   From: 2010.06.25/outbox.cif.g09.slc.cpg/sg2_217_cif.got.tgz:432571.got - 2010.06.27 13:26:56.
