data_PCOD8044271
_publ_section_title
;
Structure prediction by ZEFSAII (Michael W. Deem and Ramdas Pophale) SiO2 
 PCOD8044271
Probable space group: P -1
;
_chemical_formula_sum "Si O2"
_cell_formula_units_Z 16
_cell_length_a 7.877187
_cell_length_b 9.281088
_cell_length_c 17.335198
_cell_angle_alpha 60.367322
_cell_angle_beta 138.490953
_cell_angle_gamma 110.841625
_cell_volume 729.843994
_symmetry_space_group_name_H-M "P -1"
_symmetry_group_IT_number 2
_symmetry_cell_setting 'triclinic'
loop_
_space_group_symop_operation_xyz
x,y,z
-x,-y,-z
loop_
_atom_site_type_symbol
_atom_site_label
_atom_site_fract_x
_atom_site_fract_y
_atom_site_fract_z
Si Si1 0.535229 0.635980 0.693454
Si Si2 0.946664 0.221280 0.590496
Si Si3 0.344409 0.796303 0.738637
Si Si4 0.087228 0.068117 0.823285
Si Si5 0.823158 0.839483 0.620873
Si Si6 0.537414 0.934638 0.917310
Si Si7 0.543499 0.098734 0.651908
Si Si8 0.502465 0.276794 0.734752
O O1 0.283494 0.664565 0.548195
O O2 0.473551 0.671844 0.753123
O O3 0.761055 0.746335 0.704917
O O4 0.615398 0.442635 0.765741
O O5 0.009770 0.231439 0.701416
O O6 0.196812 0.284601 0.616305
O O7 0.901543 0.026647 0.612363
O O8 0.515160 0.807557 0.871906
O O9 0.055283 0.747559 0.676814
O O10 0.330349 0.979293 0.646865
O O11 0.809994 0.989172 0.766187
O O12 0.271083 0.936817 0.874616
O O13 0.227182 0.127928 0.932843
O O14 0.558532 0.836910 0.482344
O O15 0.591881 0.122391 0.859684
O O16 0.605035 0.251618 0.689117
#
# Coordination Sequence:
#
# PCOD8044271 Si02
#       8
#     2   2   2   2   2   2   2   2
#     4  12  24  37  62  95 134 162 197 259 328 369
#     4  11  19  39  61  91 124 164 206 257 311 365
#     4  11  22  37  63  95 124 166 208 256 308 370
#     4  10  19  37  67  96 114 162 221 267 292 355
#     4  12  21  38  61  98 127 161 213 254 307 376
#     4   9  21  41  65  90 124 162 218 261 297 370
#     4  11  20  37  65  91 125 163 211 258 307 372
#     4  10  23  39  56  94 129 165 201 257 321 367
#
# _framework density 21.922495000000001
#
# number of rings (size 3 to 8) (size 9 to 14) (size 15 to 20)
#    0.000    1.250    6.250    2.625    0.000    2.500 
#    4.500    0.000    0.000   13.500    0.000    0.000 
#    0.000    0.000    0.000    0.000    0.000    0.000 
#
# Total GULP energy -198262.253758 kJ/mol
# GULP energy per Si atom -12391.390860 kJ/mol
# Density = 2.187260 g / cm^3
# Si number density = 21.922495 Si / 1000 Ang^3
#
#
#
# Elastic Constant Matrix: (Units=GPa)
#
#
# Indices 1 2 3 4 5 6 
#
# 1 131.6727 37.4191 43.0422 15.3023 -2.7980 -1.6825
# 2 37.4191 101.4009 21.6421 14.4467 -8.6197 -13.6319
# 3 43.0422 21.6421 120.3472 22.3581 -14.9356 -4.2672
# 4 15.3023 14.4467 22.3581 18.1849 -5.5433 -5.7993
# 5 -2.7980 -8.6197 -14.9356 -5.5433 29.5083 11.2234
# 6 -1.6825 -13.6319 -4.2672 -5.7993 11.2234 20.6088
#
#
#
# Elastic Compliance Matrix: (Units=1/GPa)
#
#
# Indices 1 2 3 4 5 6 
#
# 1 0.009589 -0.002851 -0.002411 -0.003835 -0.001065 -0.002101
# 2 -0.002851 0.012578 0.000001 -0.005532 -0.000150 0.006612
# 3 -0.002411 0.000001 0.011955 -0.012403 0.004986 -0.003926
# 4 -0.003835 -0.005532 -0.012403 0.083424 0.001227 0.016267
# 5 -0.001065 -0.000150 0.004986 0.001227 0.045462 -0.023566
# 6 -0.002101 0.006612 -0.003926 0.016267 -0.023566 0.069323
#
#
# Mechanical properties :
#
#
# Convention : Reuss Voigt Hill
#
# Bulk Modulus (GPa) = 42.37096 61.95863 52.16479
# Shear Modulus (GPa) = 19.94266 30.41489 25.17878
#
# Velocity S-wave (km/s) = 3.01938 3.72880 3.39268
# Velocity P-wave (km/s) = 5.61472 6.84562 6.26050
#
# Compressibility (1/GPa) = 0.02360107
#
# Stress axis : x y z
#
# Youngs Moduli (GPa) = 104.28595 79.50481 83.64519
#
# Poissons Ratio (x) = 0.22664 0.20168
# Poissons Ratio (y) = 0.29728 -0.00010
# Poissons Ratio (z) = 0.25145 -0.00010
#
# Static dielectric constant tensor:
#      x y z
#    x 4.412960 -0.076130 -0.146970 
#    y -0.076130 3.466420 0.249500 
#    z -0.146970 0.249500 4.174040 
# 
# 
# High freq. dielectric constant tensor:
#      x y z
#    x 1.887360 -0.002370 -0.008160 
#    y -0.002370 1.805920 0.027810 
#    z -0.008160 0.027810 1.846730 
# 
# From -- ./inp_files/557144.got.cif
#   From: 2010.06.25/outbox.cif.g09.slc.cpg/sg2_279_cif.got.tgz:557144.got - 2010.06.27 13:26:56.
