data_PCOD8044761
_publ_section_title
;
Structure prediction by ZEFSAII (Michael W. Deem and Ramdas Pophale) SiO2 
 PCOD8044761
Probable space group: P -1
;
_chemical_formula_sum "Si O2"
_cell_formula_units_Z 16
_cell_length_a 21.712736
_cell_length_b 17.940240
_cell_length_c 11.327715
_cell_angle_alpha 31.660003
_cell_angle_beta 139.574539
_cell_angle_gamma 160.797333
_cell_volume 738.243740
_symmetry_space_group_name_H-M "P -1"
_symmetry_group_IT_number 2
_symmetry_cell_setting 'triclinic'
loop_
_space_group_symop_operation_xyz
x,y,z
-x,-y,-z
loop_
_atom_site_type_symbol
_atom_site_label
_atom_site_fract_x
_atom_site_fract_y
_atom_site_fract_z
Si Si1 0.148969 0.210934 0.327634
Si Si2 0.903180 0.685620 0.348613
Si Si3 0.769459 0.223808 0.064897
Si Si4 0.493326 0.905080 0.499924
Si Si5 0.531175 0.627646 0.990590
Si Si6 0.917556 0.004807 0.041710
Si Si7 0.397461 0.794861 0.961128
Si Si8 0.755167 0.899029 0.545715
O O1 0.220938 0.146303 0.485364
O O2 0.060149 0.159275 0.148164
O O3 0.323794 0.538096 0.182951
O O4 0.000000 0.000000 0.500000
O O5 0.711341 0.343009 0.529488
O O6 0.844650 0.770263 0.181897
O O7 0.042757 0.808139 0.487887
O O8 0.984630 0.773829 0.215816
O O9 0.742366 0.310440 0.006319
O O10 0.672697 0.949317 0.338479
O O11 0.000000 0.500000 0.000000
O O12 0.626098 0.085292 0.936478
O O13 0.534129 0.796704 0.739199
O O14 0.500000 0.000000 0.500000
O O15 0.638236 0.161448 0.269939
O O16 0.500000 0.500000 0.000000
O O17 0.370149 0.372110 0.193422
O O18 0.738813 0.856109 0.038622
#
# Coordination Sequence:
#
# PCOD8044761 Si02
#       8
#     2   2   2   2   2   2   2   2
#     4  11  25  46  66  95 133 176 224 275 330 393
#     4  10  19  38  66  93 128 169 211 275 330 390
#     4  11  25  47  71  99 134 179 230 274 329 401
#     4  12  24  42  63  95 140 172 212 271 343 399
#     4  12  21  39  68 101 127 166 220 278 326 394
#     4  10  21  38  65  97 129 163 222 271 325 389
#     4  11  26  46  69  97 138 182 219 274 341 398
#     4  11  23  41  70  98 127 169 228 273 329 393
#
# _framework density 21.673061000000001
#
# number of rings (size 3 to 8) (size 9 to 14) (size 15 to 20)
#    0.000    1.000    2.500    5.250    1.750    2.500 
#    9.000    1.250    0.000    0.000    0.000    0.000 
#    0.000    0.000    0.000    0.000    0.000    0.000 
#
# Total GULP energy -198314.522324 kJ/mol
# GULP energy per Si atom -12394.657645 kJ/mol
# Density = 2.162373 g / cm^3
# Si number density = 21.673061 Si / 1000 Ang^3
#
#
#
# Elastic Constant Matrix: (Units=GPa)
#
#
# Indices 1 2 3 4 5 6 
#
# 1 125.9411 47.0646 31.1682 0.8750 1.5622 -10.6385
# 2 47.0646 91.9332 15.1644 -7.4462 8.7356 7.2127
# 3 31.1682 15.1644 94.1589 4.4286 5.8477 -5.9777
# 4 0.8750 -7.4462 4.4286 29.1445 4.3714 3.5348
# 5 1.5622 8.7356 5.8477 4.3714 36.8819 -0.4011
# 6 -10.6385 7.2127 -5.9777 3.5348 -0.4011 33.4223
#
#
#
# Elastic Compliance Matrix: (Units=1/GPa)
#
#
# Indices 1 2 3 4 5 6 
#
# 1 0.011193 -0.006046 -0.002427 -0.002333 0.001670 0.004700
# 2 -0.006046 0.015424 -0.000882 0.005588 -0.003985 -0.006050
# 3 -0.002427 -0.000882 0.011850 -0.001966 -0.001315 0.001729
# 4 -0.002333 0.005588 -0.001966 0.037696 -0.005450 -0.006352
# 5 0.001670 -0.003985 -0.001315 -0.005450 0.028864 0.002079
# 6 0.004700 -0.006050 0.001729 -0.006352 0.002079 0.033728
#
#
# Mechanical properties :
#
#
# Convention : Reuss Voigt Hill
#
# Bulk Modulus (GPa) = 50.61656 55.42529 53.02092
# Shear Modulus (GPa) = 30.47847 34.46547 32.47197
#
# Velocity S-wave (km/s) = 3.75411 3.99211 3.87494
# Velocity P-wave (km/s) = 6.49588 6.84676 6.67363
#
# Compressibility (1/GPa) = 0.01975638
#
# Stress axis : x y z
#
# Youngs Moduli (GPa) = 89.34284 64.83328 84.39059
#
# Poissons Ratio (x) = 0.39199 0.20481
# Poissons Ratio (y) = 0.54018 0.07444
# Poissons Ratio (z) = 0.21683 0.05719
#
# Static dielectric constant tensor:
#      x y z
#    x 2.818170 -0.387760 -0.847250 
#    y -0.387760 3.742670 -0.345040 
#    z -0.847250 -0.345040 3.268280 
# 
# 
# High freq. dielectric constant tensor:
#      x y z
#    x 1.853140 -0.001860 -0.004220 
#    y -0.001860 1.849400 0.001650 
#    z -0.004220 0.001650 1.856870 
# 
# From -- ./inp_files/472339.got.cif
#   From: 2010.06.25/outbox.cif.g09.slc.cpg/sg2_237_cif.got.tgz:472339.got - 2010.06.27 13:26:56.
