data_PCOD8044106
_publ_section_title
;
Structure prediction by ZEFSAII (Michael W. Deem and Ramdas Pophale) SiO2 
 PCOD8044106
Probable space group: P -1
;
_chemical_formula_sum "Si O2"
_cell_formula_units_Z 16
_cell_length_a 8.415034
_cell_length_b 12.183754
_cell_length_c 15.310544
_cell_angle_alpha 46.059236
_cell_angle_beta 131.968036
_cell_angle_gamma 101.012119
_cell_volume 722.915946
_symmetry_space_group_name_H-M "P -1"
_symmetry_group_IT_number 2
_symmetry_cell_setting 'triclinic'
loop_
_space_group_symop_operation_xyz
x,y,z
-x,-y,-z
loop_
_atom_site_type_symbol
_atom_site_label
_atom_site_fract_x
_atom_site_fract_y
_atom_site_fract_z
Si Si1 0.820833 0.760786 0.254236
Si Si2 0.102343 0.231055 0.152044
Si Si3 0.547585 0.983238 0.883790
Si Si4 0.502574 0.887837 0.385411
Si Si5 0.251780 0.546736 0.648283
Si Si6 0.808502 0.140782 0.226354
Si Si7 0.303837 0.412087 0.251175
Si Si8 0.962267 0.211307 0.410695
O O1 0.699536 0.648332 0.238582
O O2 0.105820 0.651287 0.448687
O O3 0.680369 0.863914 0.231798
O O4 0.785923 0.887456 0.088951
O O5 0.250935 0.281863 0.246449
O O6 0.895995 0.203555 0.139803
O O7 0.303037 0.050224 0.280382
O O8 0.950632 0.396066 0.936730
O O9 0.453600 0.849516 0.892040
O O10 0.610473 0.072460 0.776700
O O11 0.568587 0.694441 0.553205
O O12 0.764537 0.878429 0.481991
O O13 0.503551 0.549119 0.748883
O O14 0.106362 0.620981 0.645725
O O15 0.772034 0.263493 0.230523
O O16 0.031790 0.940825 0.441608
#
# Coordination Sequence:
#
# PCOD8044106 Si02
#       8
#     2   2   2   2   2   2   2   2
#     4  10  22  42  67  90 122 168 226 268 312 363
#     4  11  24  40  62  97 138 172 203 252 331 405
#     4  10  22  41  67  95 122 166 222 267 312 379
#     4  11  22  40  65  92 133 169 202 267 321 382
#     4  11  22  42  68  91 127 171 213 274 316 370
#     4  10  19  37  63  97 129 163 203 264 318 389
#     4  11  25  41  61  96 133 175 208 253 327 399
#     4  10  21  35  67 102 124 162 216 259 331 382
#
# _framework density 22.132587999999998
#
# number of rings (size 3 to 8) (size 9 to 14) (size 15 to 20)
#    0.000    1.500    3.750    1.875    5.250    1.000 
#    0.000    2.500    0.000    0.000    0.000    0.000 
#    0.000    0.000    0.000    0.000    0.000    0.000 
#
# Total GULP energy -198251.051929 kJ/mol
# GULP energy per Si atom -12390.690746 kJ/mol
# Density = 2.208221 g / cm^3
# Si number density = 22.132588 Si / 1000 Ang^3
#
#
#
# Elastic Constant Matrix: (Units=GPa)
#
#
# Indices 1 2 3 4 5 6 
#
# 1 68.8004 14.7009 37.5070 6.0176 -14.8893 2.2122
# 2 14.7009 51.9713 15.8931 8.5870 -10.1579 -1.2436
# 3 37.5070 15.8931 116.6921 -7.5889 -16.8414 -16.9965
# 4 6.0176 8.5870 -7.5889 16.5649 0.7354 -11.0276
# 5 -14.8893 -10.1579 -16.8414 0.7354 28.2526 9.6303
# 6 2.2122 -1.2436 -16.9965 -11.0276 9.6303 15.8720
#
#
#
# Elastic Compliance Matrix: (Units=1/GPa)
#
#
# Indices 1 2 3 4 5 6 
#
# 1 0.000706 -0.014927 0.011094 0.053378 -0.020209 0.059960
# 2 -0.014927 0.013969 0.009328 0.031421 -0.012645 0.042667
# 3 0.011094 0.009328 -0.003062 -0.046161 0.026355 -0.052157
# 4 0.053378 0.031421 -0.046161 -0.128298 0.080916 -0.192644
# 5 -0.020209 -0.012645 0.026355 0.080916 0.005543 0.082905
# 6 0.059960 0.042667 -0.052157 -0.192644 0.082905 -0.182011
#
#
# Mechanical properties :
#
#
# Convention : Reuss Voigt Hill
#
# Bulk Modulus (GPa) = 44.23969 41.51840 42.87905
# Shear Modulus (GPa) = -16.85727 23.42874 3.28573
#
# Velocity S-wave (km/s) = -2.76279 3.25709 1.21975
# Velocity P-wave (km/s) = 3.13919 5.73973 4.62596
#
# Compressibility (1/GPa) = 0.02260413
#
# Stress axis : x y z
#
# Youngs Moduli (GPa) = 1416.28791 71.58702 -326.60272
#
# Poissons Ratio (x) = 1.06857 3.62336
# Poissons Ratio (y) = 21.14079 3.04663
# Poissons Ratio (z) = -15.71244 -0.66778
#
# Static dielectric constant tensor:
#      x y z
#    x 3.705510 -0.035690 -0.331740 
#    y -0.035690 3.940650 0.088610 
#    z -0.331740 0.088610 4.477990 
# 
# 
# High freq. dielectric constant tensor:
#      x y z
#    x 1.838930 -0.001200 -0.012180 
#    y -0.001200 1.859120 0.004880 
#    z -0.012180 0.004880 1.889270 
# 
# From -- ./inp_files/500082.got.cif
#   From: 2010.06.25/outbox.cif.g09.slc.cpg/sg2_251_cif.got.tgz:500082.got - 2010.06.27 13:26:56.
