data_PCOD8044313
_publ_section_title
;
Structure prediction by ZEFSAII (Michael W. Deem and Ramdas Pophale) SiO2 
 PCOD8044313
Probable space group: P -1
;
_chemical_formula_sum "Si O2"
_cell_formula_units_Z 16
_cell_length_a 14.404791
_cell_length_b 15.066279
_cell_length_c 16.067236
_cell_angle_alpha 26.671454
_cell_angle_beta 48.576458
_cell_angle_gamma 36.570693
_cell_volume 911.879173
_symmetry_space_group_name_H-M "P -1"
_symmetry_group_IT_number 2
_symmetry_cell_setting 'triclinic'
loop_
_space_group_symop_operation_xyz
x,y,z
-x,-y,-z
loop_
_atom_site_type_symbol
_atom_site_label
_atom_site_fract_x
_atom_site_fract_y
_atom_site_fract_z
Si Si1 0.128671 0.439093 0.409380
Si Si2 0.353352 0.874374 0.787280
Si Si3 0.220689 0.791069 0.095216
Si Si4 0.470925 0.347333 0.705436
Si Si5 0.999103 0.302464 0.892986
Si Si6 0.307585 0.136829 0.926771
Si Si7 0.510441 0.646043 0.129544
Si Si8 0.675942 0.468672 0.013321
O O1 0.170397 0.625537 0.237269
O O2 0.000000 0.500000 0.500000
O O3 0.054606 0.485155 0.322841
O O4 0.288237 0.152187 0.566094
O O5 0.538414 0.718942 0.832359
O O6 0.254396 0.886563 0.913226
O O7 0.334086 0.750714 0.822870
O O8 0.380282 0.614574 0.204129
O O9 0.077760 0.031099 0.031131
O O10 0.500000 0.500000 0.500000
O O11 0.333865 0.344026 0.751574
O O12 0.416905 0.484979 0.713260
O O13 0.631770 0.051895 0.870315
O O14 0.121146 0.288008 0.895162
O O15 0.847444 0.387945 0.963756
O O16 0.412517 0.953799 0.938568
O O17 0.649179 0.521653 0.083611
#
# Coordination Sequence:
#
# PCOD8044313 Si02
#       8
#     2   2   2   2   2   2   2   2
#     4  12  22  31  55  81 107 148 196 231 258 311
#     4  10  21  38  53  75 114 160 191 220 260 320
#     4  10  19  38  54  77 110 150 190 227 264 307
#     4   9  17  37  64  83 101 135 180 233 274 327
#     4  11  20  36  54  83 113 148 183 230 278 313
#     4   8  19  37  59  82 106 134 184 227 273 330
#     4   8  18  36  56  81 104 141 179 223 271 327
#     4  10  20  37  55  74 122 153 177 225 277 321
#
# _framework density 17.546185000000001
#
# number of rings (size 3 to 8) (size 9 to 14) (size 15 to 20)
#    0.750    1.500    2.500    1.125    0.000    1.500 
#    2.250    0.625    0.000    0.750    0.000    0.000 
#    0.000    0.000    0.000    0.000    0.000    0.000 
#
# Total GULP energy -198305.731112 kJ/mol
# GULP energy per Si atom -12394.108195 kJ/mol
# Density = 1.750625 g / cm^3
# Si number density = 17.546185 Si / 1000 Ang^3
#
#
#
# Elastic Constant Matrix: (Units=GPa)
#
#
# Indices 1 2 3 4 5 6 
#
# 1 130.1596 48.9034 53.2222 8.5029 1.1053 -10.5229
# 2 48.9034 108.2691 35.9385 17.6693 5.6671 -13.0428
# 3 53.2222 35.9385 100.4242 2.0305 -0.8977 -8.1712
# 4 8.5029 17.6693 2.0305 25.1870 0.6325 5.8269
# 5 1.1053 5.6671 -0.8977 0.6325 15.4532 4.8434
# 6 -10.5229 -13.0428 -8.1712 5.8269 4.8434 26.8647
#
#
#
# Elastic Compliance Matrix: (Units=1/GPa)
#
#
# Indices 1 2 3 4 5 6 
#
# 1 0.010901 -0.002857 -0.004564 -0.001750 -0.000543 0.001972
# 2 -0.002857 0.014774 -0.002889 -0.011047 -0.007739 0.008966
# 3 -0.004564 -0.002889 0.013377 0.002443 0.002071 -0.000024
# 4 -0.001750 -0.011047 0.002443 0.051803 0.007824 -0.017952
# 5 -0.000543 -0.007739 0.002071 0.007824 0.073098 -0.018216
# 6 0.001972 0.008966 -0.000024 -0.017952 -0.018216 0.049520
#
#
# Mechanical properties :
#
#
# Convention : Reuss Voigt Hill
#
# Bulk Modulus (GPa) = 54.25313 68.33125 61.29219
# Shear Modulus (GPa) = 20.81281 26.88690 23.84986
#
# Velocity S-wave (km/s) = 3.44782 3.91877 3.69082
# Velocity P-wave (km/s) = 6.84378 7.71388 7.29182
#
# Compressibility (1/GPa) = 0.01843212
#
# Stress axis : x y z
#
# Youngs Moduli (GPa) = 91.73580 67.68749 74.75277
#
# Poissons Ratio (x) = 0.19340 0.34115
# Poissons Ratio (y) = 0.26211 0.21597
# Poissons Ratio (z) = 0.41865 0.19556
#
# Static dielectric constant tensor:
#      x y z
#    x 3.359420 0.079510 0.146980 
#    y 0.079510 3.126570 -0.174640 
#    z 0.146980 -0.174640 2.961020 
# 
# 
# High freq. dielectric constant tensor:
#      x y z
#    x 1.682550 -0.000840 0.002880 
#    y -0.000840 1.666370 0.001550 
#    z 0.002880 0.001550 1.654030 
# 
# From -- ./inp_files/533151.got.cif
#   From: 2010.06.25/outbox.cif.g09.slc.cpg/sg2_267_cif.got.tgz:533151.got - 2010.06.27 13:26:56.
