data_PCOD8044925
_publ_section_title
;
Structure prediction by ZEFSAII (Michael W. Deem and Ramdas Pophale) SiO2 
 PCOD8044925
Probable space group: P 2
;
_chemical_formula_sum "Si O2"
_cell_formula_units_Z 16
_cell_length_a 8.349888
_cell_length_b 17.874602
_cell_length_c 9.229859
_cell_angle_alpha 90.000000
_cell_angle_beta 32.854659
_cell_angle_gamma 90.000000
_cell_volume 747.342572
_symmetry_space_group_name_H-M "P 2"
_symmetry_group_IT_number 3
_symmetry_cell_setting 'monoclinic'
loop_
_space_group_symop_operation_xyz
x,y,z
-x,y,-z
loop_
_atom_site_type_symbol
_atom_site_label
_atom_site_fract_x
_atom_site_fract_y
_atom_site_fract_z
Si Si1 0.345103 0.506740 0.967680
Si Si2 0.122661 0.349237 0.059703
Si Si3 0.677839 0.001088 0.215615
Si Si4 0.675308 0.112071 0.718641
Si Si5 0.117831 0.761433 0.571270
Si Si6 0.845564 0.591489 0.461857
Si Si7 0.257418 0.833209 0.910954
Si Si8 0.380510 0.251630 0.434676
O O1 0.543755 0.543351 0.690978
O O2 0.500000 0.524917 0.000000
O O3 0.293355 0.418194 0.000335
O O4 0.036813 0.550078 0.194826
O O5 0.864267 0.316726 0.358796
O O6 0.349226 0.282379 0.863696
O O7 0.000000 0.378293 0.000000
O O8 0.500000 0.990465 0.500000
O O9 0.508994 0.052883 0.232025
O O10 0.731463 0.922722 0.093965
O O11 0.000000 0.037506 0.000000
O O12 0.742262 0.183998 0.567122
O O13 0.000000 0.077647 0.500000
O O14 0.500000 0.131407 0.000000
O O15 0.195508 0.676669 0.557287
O O16 0.415309 0.806780 0.379674
O O17 0.000000 0.765794 0.500000
O O18 0.838261 0.797788 0.864470
O O19 0.000000 0.588781 0.500000
O O20 0.000000 0.804435 0.000000
O O21 0.500000 0.222892 0.500000
#
# Coordination Sequence:
#
# PCOD8044925 Si02
#       8
#     2   2   2   2   2   2   2   2
#     4  10  19  34  56  81 112 152 196 247 302 359
#     4  10  21  37  58  85 115 154 203 249 293 361
#     4  11  24  45  68  89 124 175 210 242 309 393
#     4  12  26  42  65 100 130 154 203 274 313 350
#     4  11  22  39  64  90 121 164 209 255 307 370
#     4   9  19  35  55  81 114 154 199 242 299 369
#     4  11  23  41  62  91 125 160 205 256 307 367
#     4  10  22  41  62  83 119 167 202 235 304 385
#
# _framework density 21.409191
#
# number of rings (size 3 to 8) (size 9 to 14) (size 15 to 20)
#    0.000    1.500    0.000    5.625    0.000    6.500 
#    0.000    3.750    0.000    0.000    0.000    0.000 
#    0.000    0.000    0.000    0.000    0.000    0.000 
#
# Total GULP energy -198387.793833 kJ/mol
# GULP energy per Si atom -12399.237115 kJ/mol
# Density = 2.136046 g / cm^3
# Si number density = 21.409191 Si / 1000 Ang^3
#
#
#
# Elastic Constant Matrix: (Units=GPa)
#
#
# Indices 1 2 3 4 5 6 
#
# 1 72.4156 47.9209 35.5623 0.0000 -12.1976 0.0000
# 2 47.9209 107.2535 38.4339 0.0000 0.3332 0.0000
# 3 35.5623 38.4339 133.5867 0.0000 -11.4313 0.0000
# 4 0.0000 0.0000 0.0000 30.8132 0.0000 -5.8657
# 5 -12.1976 0.3332 -11.4313 0.0000 37.3386 0.0000
# 6 0.0000 0.0000 0.0000 -5.8657 0.0000 28.0822
#
#
#
# Elastic Compliance Matrix: (Units=1/GPa)
#
#
# Indices 1 2 3 4 5 6 
#
# 1 0.022175 -0.008932 -0.002780 0.000000 0.006473 0.000000
# 2 -0.008932 0.014032 -0.001971 0.000000 -0.003647 0.000000
# 3 -0.002780 -0.001971 0.008951 0.000000 0.001850 0.000000
# 4 0.000000 0.000000 0.000000 0.033797 0.000000 0.007059
# 5 0.006473 -0.003647 0.001850 0.000000 0.029495 0.000000
# 6 0.000000 0.000000 0.000000 0.007059 0.000000 0.037084
#
#
# Mechanical properties :
#
#
# Convention : Reuss Voigt Hill
#
# Bulk Modulus (GPa) = 56.20277 61.89887 59.05082
# Shear Modulus (GPa) = 27.95911 32.00273 29.98092
#
# Velocity S-wave (km/s) = 3.61770 3.87048 3.74622
# Velocity P-wave (km/s) = 6.61506 6.99637 6.80838
#
# Compressibility (1/GPa) = 0.01779272
#
# Stress axis : x y z
#
# Youngs Moduli (GPa) = 45.09556 71.26427 111.71623
#
# Poissons Ratio (x) = 0.63653 0.31053
# Poissons Ratio (y) = 0.40279 0.22024
# Poissons Ratio (z) = 0.12535 0.14050
#
# Static dielectric constant tensor:
#      x y z
#    x 3.806530 0.000000 -0.104770 
#    y 0.000000 3.751030 0.000000 
#    z -0.104770 0.000000 4.199840 
# 
# 
# High freq. dielectric constant tensor:
#      x y z
#    x 1.830090 0.000000 -0.011350 
#    y 0.000000 1.840360 0.000000 
#    z -0.011350 0.000000 1.860000 
# 
# From -- ./inp_files/6226.got.cif
#   From: 2010.03.12/outbox.cif.g09.slc.cpg/sg3_4_cif.got.tgz:6226.got - 2010.03.31 09:20:49.
