data_PCOD8044606
_publ_section_title
;
Structure prediction by ZEFSAII (Michael W. Deem and Ramdas Pophale) SiO2 
 PCOD8044606
Probable space group: P -1
;
_chemical_formula_sum "Si O2"
_cell_formula_units_Z 14
_cell_length_a 15.229154
_cell_length_b 13.047277
_cell_length_c 11.646510
_cell_angle_alpha 130.130566
_cell_angle_beta 37.027754
_cell_angle_gamma 152.941875
_cell_volume 615.011756
_symmetry_space_group_name_H-M "P -1"
_symmetry_group_IT_number 2
_symmetry_cell_setting 'triclinic'
loop_
_space_group_symop_operation_xyz
x,y,z
-x,-y,-z
loop_
_atom_site_type_symbol
_atom_site_label
_atom_site_fract_x
_atom_site_fract_y
_atom_site_fract_z
Si Si1 0.034966 0.163894 0.422768
Si Si2 0.324736 0.994393 0.702289
Si Si3 0.083652 0.426976 0.006936
Si Si4 0.640209 0.802192 0.395096
Si Si5 0.638645 0.462172 0.825910
Si Si6 0.553985 0.444530 0.142849
Si Si7 0.055750 0.384194 0.746541
O O1 0.130394 0.349803 0.367948
O O2 0.251094 0.218546 0.273163
O O3 0.948528 0.178119 0.637617
O O4 0.802440 0.913589 0.423813
O O5 0.084556 0.770337 0.863867
O O6 0.500000 0.000000 0.500000
O O7 0.242389 0.998422 0.669423
O O8 0.470325 0.213388 0.782137
O O9 0.081102 0.585177 0.133887
O O10 0.369944 0.589002 0.850610
O O11 0.990937 0.310789 0.894367
O O12 0.646778 0.666153 0.224852
O O13 0.355635 0.629029 0.597642
O O14 0.500000 0.500000 0.000000
O O15 0.705823 0.491054 0.910517
#
# Coordination Sequence:
#
# PCOD8044606 Si02
#       7
#     2   2   2   2   2   2   2
#     4  10  21  40  67  93 133 171 207 268 328 387
#     4  12  22  40  70 103 126 173 222 271 329 394
#     4  11  24  42  70  90 137 170 220 273 325 386
#     4  11  22  42  71  93 137 166 218 271 334 378
#     4  10  19  38  63  97 137 161 216 271 324 386
#     4  10  23  40  64 102 129 170 215 272 326 392
#     4  10  23  49  60  95 132 179 214 270 327 393
#
# _framework density 22.763791999999999
#
# number of rings (size 3 to 8) (size 9 to 14) (size 15 to 20)
#    0.000    1.429    5.714    0.857    4.000    4.571 
#    2.571    5.714    0.000    0.000    0.000    0.000 
#    0.000    0.000    0.000    0.000    0.000    0.000 
#
# Total GULP energy -173547.745528 kJ/mol
# GULP energy per Si atom -12396.267538 kJ/mol
# Density = 2.271198 g / cm^3
# Si number density = 22.763792 Si / 1000 Ang^3
#
#
#
# Elastic Constant Matrix: (Units=GPa)
#
#
# Indices 1 2 3 4 5 6 
#
# 1 134.7103 43.3647 48.8817 10.5593 -22.7993 10.9310
# 2 43.3647 58.5503 23.7517 15.3298 -2.6489 16.8841
# 3 48.8817 23.7517 104.2197 21.5610 3.0108 5.5540
# 4 10.5593 15.3298 21.5610 29.6913 -2.8824 11.2091
# 5 -22.7993 -2.6489 3.0108 -2.8824 31.1546 4.9544
# 6 10.9310 16.8841 5.5540 11.2091 4.9544 33.7122
#
#
#
# Elastic Compliance Matrix: (Units=1/GPa)
#
#
# Indices 1 2 3 4 5 6 
#
# 1 0.013830 -0.007926 -0.006033 0.005787 0.011054 -0.003070
# 2 -0.007926 0.027407 -0.000275 -0.008452 -0.002975 -0.007864
# 3 -0.006033 -0.000275 0.014701 -0.010767 -0.007549 0.004362
# 4 0.005787 -0.008452 -0.010767 0.050312 0.011483 -0.014286
# 5 0.011054 -0.002975 -0.007549 0.011483 0.043485 -0.011059
# 6 -0.003070 -0.007864 0.004362 -0.014286 -0.011059 0.040253
#
#
# Mechanical properties :
#
#
# Convention : Reuss Voigt Hill
#
# Bulk Modulus (GPa) = 36.40383 58.83071 47.61727
# Shear Modulus (GPa) = 21.96704 31.01044 26.48874
#
# Velocity S-wave (km/s) = 3.10981 3.69490 3.41491
# Velocity P-wave (km/s) = 5.37785 6.64102 6.04253
#
# Compressibility (1/GPa) = 0.02746964
#
# Stress axis : x y z
#
# Youngs Moduli (GPa) = 72.30496 36.48708 68.02347
#
# Poissons Ratio (x) = 0.28918 0.41042
# Poissons Ratio (y) = 0.57306 0.01872
# Poissons Ratio (z) = 0.43625 0.01004
#
# Static dielectric constant tensor:
#      x y z
#    x 4.676760 0.097880 0.327340 
#    y 0.097880 3.711100 0.061410 
#    z 0.327340 0.061410 4.351070 
# 
# 
# High freq. dielectric constant tensor:
#      x y z
#    x 1.911170 0.005800 0.014700 
#    y 0.005800 1.872940 0.010220 
#    z 0.014700 0.010220 1.901790 
# 
# From -- ./inp_files/451750.got.cif
#   From: 2010.06.25/outbox.cif.g09.slc.cpg/sg2_226_cif.got.tgz:451750.got - 2010.06.27 13:26:56.
