data_PCOD8044121
_publ_section_title
;
Structure prediction by ZEFSAII (Michael W. Deem and Ramdas Pophale) SiO2 
 PCOD8044121
Probable space group: P -1
;
_chemical_formula_sum "Si O2"
_cell_formula_units_Z 16
_cell_length_a 11.820660
_cell_length_b 9.064185
_cell_length_c 12.153952
_cell_angle_alpha 80.156556
_cell_angle_beta 54.129699
_cell_angle_gamma 53.843166
_cell_volume 821.066160
_symmetry_space_group_name_H-M "P -1"
_symmetry_group_IT_number 2
_symmetry_cell_setting 'triclinic'
loop_
_space_group_symop_operation_xyz
x,y,z
-x,-y,-z
loop_
_atom_site_type_symbol
_atom_site_label
_atom_site_fract_x
_atom_site_fract_y
_atom_site_fract_z
Si Si1 0.467308 0.173248 0.888731
Si Si2 0.328348 0.522606 0.071153
Si Si3 0.729568 0.621136 0.663268
Si Si4 0.205864 0.101511 0.131425
Si Si5 0.497626 0.025939 0.670615
Si Si6 0.957247 0.061370 0.890326
Si Si7 0.975134 0.454898 0.361596
Si Si8 0.209991 0.131622 0.655129
O O1 0.470793 0.178795 0.753556
O O2 0.674722 0.048037 0.820620
O O3 0.356469 0.372156 0.987594
O O4 0.358944 0.091354 0.981902
O O5 0.277528 0.501189 0.224896
O O6 0.190778 0.715790 0.062533
O O7 0.500000 0.500000 0.000000
O O8 0.798034 0.512147 0.519095
O O9 0.870480 0.650832 0.621823
O O10 0.548036 0.832833 0.723783
O O11 0.039745 0.307323 0.244381
O O12 0.111923 0.042087 0.115818
O O13 0.312370 0.125053 0.703855
O O14 0.654197 0.975731 0.508224
O O15 0.128814 0.020574 0.738222
O O16 0.000000 0.000000 0.000000
O O17 0.942587 0.645287 0.311032
#
# Coordination Sequence:
#
# PCOD8044121 Si02
#       8
#     2   2   2   2   2   2   2   2
#     4  11  20  37  63  89 116 155 209 243 289 353
#     4  12  24  40  59  90 123 157 200 245 297 361
#     4  10  19  37  64  87 117 153 201 241 300 346
#     4  11  21  37  61  91 120 153 202 250 291 353
#     4  10  21  38  68  89 116 164 200 246 291 356
#     4  12  26  41  59  89 127 160 190 250 310 351
#     4  10  19  37  65  88 114 156 197 251 290 350
#     4  10  22  41  61  90 125 156 203 238 301 363
#
# _framework density 19.48686
#
# number of rings (size 3 to 8) (size 9 to 14) (size 15 to 20)
#    0.000    1.250    5.000    1.500    1.750    1.000 
#    2.250    3.750    0.000    3.000    0.000    0.000 
#    0.000    0.000    0.000    0.000    0.000    0.000 
#
# Total GULP energy -198257.195341 kJ/mol
# GULP energy per Si atom -12391.074709 kJ/mol
# Density = 1.944251 g / cm^3
# Si number density = 19.486860 Si / 1000 Ang^3
#
#
#
# Elastic Constant Matrix: (Units=GPa)
#
#
# Indices 1 2 3 4 5 6 
#
# 1 125.9220 29.0301 57.8865 -7.7701 5.8587 8.8534
# 2 29.0301 75.9183 45.5693 -11.4889 -0.2634 -2.0570
# 3 57.8865 45.5693 104.5475 -1.5597 10.5117 7.9311
# 4 -7.7701 -11.4889 -1.5597 26.7432 -2.2973 5.9339
# 5 5.8587 -0.2634 10.5117 -2.2973 28.4007 -0.5128
# 6 8.8534 -2.0570 7.9311 5.9339 -0.5128 32.3252
#
#
#
# Elastic Compliance Matrix: (Units=1/GPa)
#
#
# Indices 1 2 3 4 5 6 
#
# 1 0.011009 -0.000338 -0.005739 0.003217 0.000070 -0.002218
# 2 -0.000338 0.019956 -0.008989 0.007828 0.004255 0.002198
# 3 -0.005739 -0.008989 0.017363 -0.004446 -0.005731 -0.002535
# 4 0.003217 0.007828 -0.004446 0.043407 0.004436 -0.007190
# 5 0.000070 0.004255 -0.005731 0.004436 0.037742 0.001442
# 6 -0.002218 0.002198 -0.002535 -0.007190 0.001442 0.033648
#
#
# Mechanical properties :
#
#
# Convention : Reuss Voigt Hill
#
# Bulk Modulus (GPa) = 54.95726 63.48441 59.22083
# Shear Modulus (GPa) = 25.08527 29.08728 27.08627
#
# Velocity S-wave (km/s) = 3.59178 3.86769 3.73228
# Velocity P-wave (km/s) = 6.74274 7.25218 7.00210
#
# Compressibility (1/GPa) = 0.01819596
#
# Stress axis : x y z
#
# Youngs Moduli (GPa) = 90.83759 50.11100 57.59454
#
# Poissons Ratio (x) = 0.01693 0.33053
# Poissons Ratio (y) = 0.03069 0.51771
# Poissons Ratio (z) = 0.52130 0.45044
#
# Static dielectric constant tensor:
#      x y z
#    x 3.545250 -0.137590 0.007240 
#    y -0.137590 3.478370 -0.011450 
#    z 0.007240 -0.011450 3.688190 
# 
# 
# High freq. dielectric constant tensor:
#      x y z
#    x 1.750860 -0.018030 0.000960 
#    y -0.018030 1.746590 0.007140 
#    z 0.000960 0.007140 1.770290 
# 
# From -- ./inp_files/308289.got.cif
#   From: 2010.06.25/outbox.cif.g09.slc.cpg/sg2_155_cif.got.tgz:308289.got - 2010.06.27 13:26:56.
