data_PCOD8044941
_publ_section_title
;
Structure prediction by ZEFSAII (Michael W. Deem and Ramdas Pophale) SiO2 
 PCOD8044941
Probable space group: P 2
;
_chemical_formula_sum "Si O2"
_cell_formula_units_Z 12
_cell_length_a 13.479349
_cell_length_b 4.785872
_cell_length_c 8.575268
_cell_angle_alpha 90.000000
_cell_angle_beta 94.413352
_cell_angle_gamma 90.000000
_cell_volume 551.553997
_symmetry_space_group_name_H-M "P 2"
_symmetry_group_IT_number 3
_symmetry_cell_setting 'monoclinic'
loop_
_space_group_symop_operation_xyz
x,y,z
-x,y,-z
loop_
_atom_site_type_symbol
_atom_site_label
_atom_site_fract_x
_atom_site_fract_y
_atom_site_fract_z
Si Si1 0.310514 0.918520 0.127276
Si Si2 0.634894 0.633303 0.310257
Si Si3 0.554586 0.421752 0.854997
Si Si4 0.258880 0.140280 0.804382
Si Si5 0.115569 0.105956 0.516634
Si Si6 0.778177 0.606407 0.597622
O O1 0.388488 0.693205 0.071793
O O2 0.241450 0.749323 0.239064
O O3 0.370848 0.185941 0.207502
O O4 0.241566 0.037201 0.979099
O O5 0.520101 0.536287 0.287780
O O6 0.698863 0.453636 0.193013
O O7 0.673968 0.588616 0.491354
O O8 0.654661 0.955657 0.268937
O O9 0.500000 0.289131 0.000000
O O10 0.155377 0.147676 0.697793
O O11 0.174054 0.296429 0.394961
O O12 0.000000 0.173924 0.500000
O O13 0.137520 0.785850 0.479486
#
# Coordination Sequence:
#
# PCOD8044941 Si02
#       6
#     2   2   2   2   2   2
#     4  12  22  36  58  89 123 160 194 262 296 338
#     4  10  20  36  54  82 117 163 201 236 280 358
#     4  12  21  34  59  85 121 165 218 233 277 360
#     4  10  19  35  59  84 115 153 199 239 302 352
#     4  10  21  41  66  85 111 157 201 245 304 392
#     4  10  23  39  58  88 124 149 194 255 317 346
#
# _framework density 21.756710999999999
#
# number of rings (size 3 to 8) (size 9 to 14) (size 15 to 20)
#    0.000    1.333    3.333    3.000    0.000    0.667 
#    0.000    2.500    0.000    2.000    0.000    0.000 
#    0.000    0.000    0.000    0.000    0.000    0.000 
#
# Total GULP energy -148750.296573 kJ/mol
# GULP energy per Si atom -12395.858048 kJ/mol
# Density = 2.170719 g / cm^3
# Si number density = 21.756711 Si / 1000 Ang^3
#
#
#
# Elastic Constant Matrix: (Units=GPa)
#
#
# Indices 1 2 3 4 5 6 
#
# 1 118.3345 23.8081 43.5692 0.0000 20.8688 0.0000
# 2 23.8081 87.6323 14.3742 0.0000 11.3869 0.0000
# 3 43.5692 14.3742 91.1671 0.0000 16.0265 0.0000
# 4 0.0000 0.0000 0.0000 36.8496 0.0000 -1.5533
# 5 20.8688 11.3869 16.0265 0.0000 22.0319 0.0000
# 6 0.0000 0.0000 0.0000 -1.5533 0.0000 27.0977
#
#
#
# Elastic Compliance Matrix: (Units=1/GPa)
#
#
# Indices 1 2 3 4 5 6 
#
# 1 0.011496 -0.001534 -0.003987 0.000000 -0.007196 0.000000
# 2 -0.001534 0.012508 -0.000410 0.000000 -0.004713 0.000000
# 3 -0.003987 -0.000410 0.014032 0.000000 -0.006218 0.000000
# 4 0.000000 0.000000 0.000000 0.027203 0.000000 0.001559
# 5 -0.007196 -0.004713 -0.006218 0.000000 0.059164 0.000000
# 6 0.000000 0.000000 0.000000 0.001559 0.000000 0.036993
#
#
# Mechanical properties :
#
#
# Convention : Reuss Voigt Hill
#
# Bulk Modulus (GPa) = 38.20785 51.18189 44.69487
# Shear Modulus (GPa) = 27.47485 31.55469 29.51477
#
# Velocity S-wave (km/s) = 3.55748 3.81247 3.68718
# Velocity P-wave (km/s) = 5.87143 6.55405 6.22211
#
# Compressibility (1/GPa) = 0.02617263
#
# Stress axis : x y z
#
# Youngs Moduli (GPa) = 86.98349 79.94993 71.26430
#
# Poissons Ratio (x) = 0.12267 0.28415
# Poissons Ratio (y) = 0.13346 0.02925
# Poissons Ratio (z) = 0.34683 0.03281
#
# Static dielectric constant tensor:
#      x y z
#    x 3.591810 0.000000 0.315630 
#    y 0.000000 4.241400 0.000000 
#    z 0.315630 0.000000 3.613370 
# 
# 
# High freq. dielectric constant tensor:
#      x y z
#    x 1.817520 0.000000 0.023280 
#    y 0.000000 1.884090 0.000000 
#    z 0.023280 0.000000 1.833520 
# 
# From -- ./inp_files/6608.got.cif
#   From: 2010.03.12/outbox.cif.g09.slc.cpg/sg3_4_cif.got.tgz:6608.got - 2010.03.31 09:20:49.
