data_PCOD8044026
_publ_section_title
;
Structure prediction by ZEFSAII (Michael W. Deem and Ramdas Pophale) SiO2 
 PCOD8044026
Probable space group: P -1
;
_chemical_formula_sum "Si O2"
_cell_formula_units_Z 16
_cell_length_a 8.967093
_cell_length_b 12.025307
_cell_length_c 14.216311
_cell_angle_alpha 75.500792
_cell_angle_beta 139.735219
_cell_angle_gamma 125.676780
_cell_volume 747.474981
_symmetry_space_group_name_H-M "P -1"
_symmetry_group_IT_number 2
_symmetry_cell_setting 'triclinic'
loop_
_space_group_symop_operation_xyz
x,y,z
-x,-y,-z
loop_
_atom_site_type_symbol
_atom_site_label
_atom_site_fract_x
_atom_site_fract_y
_atom_site_fract_z
Si Si1 0.292327 0.982711 0.736890
Si Si2 0.171119 0.361501 0.260333
Si Si3 0.298951 0.581334 0.421002
Si Si4 0.691146 0.794686 0.419865
Si Si5 0.333011 0.121341 0.094756
Si Si6 0.232322 0.554899 0.684031
Si Si7 0.539107 0.422047 0.804321
Si Si8 0.529078 0.203129 0.969419
O O1 0.292839 0.068654 0.630354
O O2 0.341058 0.065609 0.839158
O O3 0.531070 0.962702 0.829436
O O4 0.955082 0.831664 0.607592
O O5 0.236029 0.438454 0.375517
O O6 0.439615 0.349816 0.386322
O O7 0.189519 0.448841 0.157574
O O8 0.824314 0.216696 0.129761
O O9 0.394705 0.696902 0.359787
O O10 0.982790 0.527166 0.313617
O O11 0.695817 0.711160 0.350389
O O12 0.529272 0.266644 0.225268
O O13 0.340588 0.170885 0.980108
O O14 0.000000 0.000000 0.000000
O O15 0.400964 0.487948 0.774797
O O16 0.000000 0.500000 0.500000
O O17 0.630226 0.356365 0.940445
#
# Coordination Sequence:
#
# PCOD8044026 Si02
#       8
#     2   2   2   2   2   2   2   2
#     4  10  22  41  67  86 129 168 209 254 308 383
#     4  10  19  37  62  95 120 151 206 261 311 360
#     4  10  20  36  66  91 120 157 207 268 308 355
#     4   9  20  41  65  99 117 158 216 266 306 360
#     4  12  28  44  59  90 135 173 206 251 320 388
#     4  12  24  42  64  94 126 167 208 262 319 375
#     4  10  22  38  66  94 128 155 205 266 317 365
#     4  11  23  42  63  92 124 167 211 256 314 371
#
# _framework density 21.405401000000001
#
# number of rings (size 3 to 8) (size 9 to 14) (size 15 to 20)
#    0.000    1.500    2.500    2.250    3.500    2.500 
#    0.000    0.000    0.000    6.000    0.000    0.000 
#    0.000    0.000    0.000    0.000    0.000    0.000 
#
# Total GULP energy -198215.957163 kJ/mol
# GULP energy per Si atom -12388.497323 kJ/mol
# Density = 2.135668 g / cm^3
# Si number density = 21.405401 Si / 1000 Ang^3
#
#
#
# Elastic Constant Matrix: (Units=GPa)
#
#
# Indices 1 2 3 4 5 6 
#
# 1 123.8614 46.4221 48.0280 11.9368 15.4606 5.5833
# 2 46.4221 64.5379 25.2594 9.6303 0.3182 -7.8413
# 3 48.0280 25.2594 93.5239 14.6811 -1.2946 6.8049
# 4 11.9368 9.6303 14.6811 34.6454 5.7278 5.5497
# 5 15.4606 0.3182 -1.2946 5.7278 31.6313 2.4229
# 6 5.5833 -7.8413 6.8049 5.5497 2.4229 33.9680
#
#
#
# Elastic Compliance Matrix: (Units=1/GPa)
#
#
# Indices 1 2 3 4 5 6 
#
# 1 0.014201 -0.008795 -0.005000 0.001331 -0.007062 -0.003077
# 2 -0.008795 0.024178 -0.001756 -0.004914 0.004270 0.007877
# 3 -0.005000 -0.001756 0.014619 -0.004310 0.004001 -0.002093
# 4 0.001331 -0.004914 -0.004310 0.033543 -0.006429 -0.005511
# 5 -0.007062 0.004270 0.004001 -0.006429 0.036366 -0.000198
# 6 -0.003077 0.007877 -0.002093 -0.005511 -0.000198 0.033098
#
#
# Mechanical properties :
#
#
# Convention : Reuss Voigt Hill
#
# Bulk Modulus (GPa) = 45.67342 57.92690 51.80016
# Shear Modulus (GPa) = 25.71957 30.86319 28.29138
#
# Velocity S-wave (km/s) = 3.47009 3.80128 3.63945
# Velocity P-wave (km/s) = 6.11875 6.81079 6.47402
#
# Compressibility (1/GPa) = 0.02189457
#
# Stress axis : x y z
#
# Youngs Moduli (GPa) = 70.41970 41.36052 68.40573
#
# Poissons Ratio (x) = 0.36377 0.34203
# Poissons Ratio (y) = 0.61935 0.12012
# Poissons Ratio (z) = 0.35210 0.07263
#
# Static dielectric constant tensor:
#      x y z
#    x 4.119500 0.192830 0.112460 
#    y 0.192830 3.966510 0.015250 
#    z 0.112460 0.015250 4.208480 
# 
# 
# High freq. dielectric constant tensor:
#      x y z
#    x 1.832980 0.019000 -0.004730 
#    y 0.019000 1.843910 0.001440 
#    z -0.004730 0.001440 1.845580 
# 
# From -- ./inp_files/499137.got.cif
#   From: 2010.06.25/outbox.cif.g09.slc.cpg/sg2_250_cif.got.tgz:499137.got - 2010.06.27 13:26:56.
