data_PCOD8044754
_publ_section_title
;
Structure prediction by ZEFSAII (Michael W. Deem and Ramdas Pophale) SiO2 
 PCOD8044754
Probable space group: P -1
;
_chemical_formula_sum "Si O2"
_cell_formula_units_Z 16
_cell_length_a 19.794132
_cell_length_b 10.525532
_cell_length_c 16.342113
_cell_angle_alpha 34.910790
_cell_angle_beta 23.702197
_cell_angle_gamma 34.328732
_cell_volume 740.557415
_symmetry_space_group_name_H-M "P -1"
_symmetry_group_IT_number 2
_symmetry_cell_setting 'triclinic'
loop_
_space_group_symop_operation_xyz
x,y,z
-x,-y,-z
loop_
_atom_site_type_symbol
_atom_site_label
_atom_site_fract_x
_atom_site_fract_y
_atom_site_fract_z
Si Si1 0.962532 0.285003 0.112572
Si Si2 0.758536 0.697807 0.844860
Si Si3 0.422441 0.999406 0.977361
Si Si4 0.704249 0.116763 0.991627
Si Si5 0.643496 0.925776 0.548195
Si Si6 0.608307 0.265221 0.549594
Si Si7 0.153477 0.783898 0.904478
Si Si8 0.093658 0.545164 0.452169
O O1 0.802888 0.264925 0.357197
O O2 0.130432 0.056869 0.053033
O O3 0.000000 0.500000 0.000000
O O4 0.903452 0.306678 0.071153
O O5 0.789393 0.435615 0.982179
O O6 0.936883 0.709084 0.596281
O O7 0.584339 0.761820 0.944956
O O8 0.723807 0.908086 0.838394
O O9 0.499893 0.221650 0.770534
O O10 0.319941 0.976817 0.021424
O O11 0.748942 0.355087 0.801830
O O12 0.538887 0.138649 0.225490
O O13 0.812885 0.693066 0.475721
O O14 0.630331 0.029010 0.598887
O O15 0.676857 0.121802 0.347125
O O16 0.500000 0.500000 0.500000
O O17 0.000000 0.000000 0.000000
O O18 0.000000 0.500000 0.500000
#
# Coordination Sequence:
#
# PCOD8044754 Si02
#       8
#     2   2   2   2   2   2   2   2
#     4  11  22  38  66  98 129 171 221 276 326 393
#     4  11  23  40  68  92 134 173 215 270 332 405
#     4  10  22  42  64 101 127 169 219 274 338 385
#     4  11  23  41  66  97 129 165 223 278 322 395
#     4  10  21  39  62  93 124 169 218 265 324 392
#     4  10  19  38  66  92 126 170 222 269 323 390
#     4  11  22  43  66  95 133 180 220 267 338 401
#     4  12  23  40  64  90 128 177 218 264 328 399
#
# _framework density 21.605346000000001
#
# number of rings (size 3 to 8) (size 9 to 14) (size 15 to 20)
#    0.000    1.250    1.250    7.875    0.000    0.500 
#    0.000    4.375    2.750    0.000    0.000    0.000 
#    0.000    0.000    0.000    0.000    0.000    0.000 
#
# Total GULP energy -198246.507262 kJ/mol
# GULP energy per Si atom -12390.406704 kJ/mol
# Density = 2.155617 g / cm^3
# Si number density = 21.605346 Si / 1000 Ang^3
#
#
#
# Elastic Constant Matrix: (Units=GPa)
#
#
# Indices 1 2 3 4 5 6 
#
# 1 63.9119 19.5247 42.6783 -0.0037 -0.1994 -5.8442
# 2 19.5247 116.2152 39.3839 4.1594 -0.6677 -18.2157
# 3 42.6783 39.3839 159.1881 -0.5897 -10.9340 -0.6198
# 4 -0.0037 4.1594 -0.5897 45.2111 -0.7790 3.6890
# 5 -0.1994 -0.6677 -10.9340 -0.7790 26.9759 -1.2620
# 6 -5.8442 -18.2157 -0.6198 3.6890 -1.2620 41.5373
#
#
#
# Elastic Compliance Matrix: (Units=1/GPa)
#
#
# Indices 1 2 3 4 5 6 
#
# 1 0.019595 -0.001254 -0.005062 -0.000151 -0.001845 0.002089
# 2 -0.001254 0.010311 -0.002236 -0.001347 -0.000493 0.004417
# 3 -0.005062 -0.002236 0.008412 0.000495 0.003260 -0.001512
# 4 -0.000151 -0.001347 0.000495 0.022471 0.000694 -0.002579
# 5 -0.001845 -0.000493 0.003260 0.000694 0.038418 0.000679
# 6 0.002089 0.004417 -0.001512 -0.002579 0.000679 0.026533
#
#
# Mechanical properties :
#
#
# Convention : Reuss Voigt Hill
#
# Bulk Modulus (GPa) = 47.14174 60.27656 53.70915
# Shear Modulus (GPa) = 33.35178 38.59341 35.97259
#
# Velocity S-wave (km/s) = 3.93323 4.23104 4.08485
# Velocity P-wave (km/s) = 6.51874 7.19919 6.86740
#
# Compressibility (1/GPa) = 0.02121262
#
# Stress axis : x y z
#
# Youngs Moduli (GPa) = 51.03226 96.98420 118.87406
#
# Poissons Ratio (x) = 0.12165 0.60178
# Poissons Ratio (y) = 0.06401 0.26584
# Poissons Ratio (z) = 0.25834 0.21689
#
# Static dielectric constant tensor:
#      x y z
#    x 3.693040 -0.073860 0.216250 
#    y -0.073860 4.173880 0.023910 
#    z 0.216250 0.023910 4.709430 
# 
# 
# High freq. dielectric constant tensor:
#      x y z
#    x 1.818490 -0.005790 0.009740 
#    y -0.005790 1.863620 0.007960 
#    z 0.009740 0.007960 1.865400 
# 
# From -- ./inp_files/577898.got.cif
#   From: 2010.06.25/outbox.cif.g09.slc.cpg/sg2_289_cif.got.tgz:577898.got - 2010.06.27 13:26:56.
