data_PCOD8044703
_publ_section_title
;
Structure prediction by ZEFSAII (Michael W. Deem and Ramdas Pophale) SiO2 
 PCOD8044703
Probable space group: P -1
;
_chemical_formula_sum "Si O2"
_cell_formula_units_Z 16
_cell_length_a 8.583821
_cell_length_b 15.104412
_cell_length_c 8.490153
_cell_angle_alpha 107.877664
_cell_angle_beta 125.129103
_cell_angle_gamma 102.868361
_cell_volume 735.438744
_symmetry_space_group_name_H-M "P -1"
_symmetry_group_IT_number 2
_symmetry_cell_setting 'triclinic'
loop_
_space_group_symop_operation_xyz
x,y,z
-x,-y,-z
loop_
_atom_site_type_symbol
_atom_site_label
_atom_site_fract_x
_atom_site_fract_y
_atom_site_fract_z
Si Si1 0.721412 0.116199 0.692298
Si Si2 0.664627 0.745618 0.354644
Si Si3 0.559629 0.908551 0.974814
Si Si4 0.453496 0.359204 0.285335
Si Si5 0.135263 0.154765 0.779078
Si Si6 0.762898 0.595641 0.533580
Si Si7 0.738543 0.257331 0.050897
Si Si8 0.497155 0.203144 0.423732
O O1 0.772485 0.169047 0.924234
O O2 0.706421 0.203851 0.621583
O O3 0.907253 0.099227 0.710937
O O4 0.500000 0.000000 0.500000
O O5 0.868789 0.816221 0.391472
O O6 0.686869 0.645750 0.376002
O O7 0.425935 0.709438 0.112513
O O8 0.684687 0.818607 0.558243
O O9 0.777980 0.931222 0.212755
O O10 0.357402 0.797095 0.865568
O O11 0.613051 0.895101 0.818339
O O12 0.500000 0.000000 0.000000
O O13 0.633513 0.466667 0.357322
O O14 0.293941 0.382007 0.312688
O O15 0.580661 0.318336 0.451606
O O16 0.308274 0.267692 0.024830
O O17 0.024510 0.638559 0.713956
#
# Coordination Sequence:
#
# PCOD8044703 Si02
#       8
#     2   2   2   2   2   2   2   2
#     4  11  22  40  62  91 125 165 209 256 314 373
#     4   9  21  39  61  91 128 163 205 255 307 372
#     4  10  21  41  62  90 119 161 212 256 313 375
#     4   9  19  39  62  90 122 164 208 255 308 380
#     4  10  21  41  62  89 129 161 204 264 308 369
#     4  10  19  38  65  91 125 165 209 251 320 367
#     4  10  21  40  60  92 130 159 207 267 305 368
#     4   9  20  40  59  86 126 154 203 260 300 370
#
# _framework density 21.75572
#
# number of rings (size 3 to 8) (size 9 to 14) (size 15 to 20)
#    0.000    2.250    1.250    0.750    1.750    0.500 
#    9.000   13.750    0.000    0.000    0.000    0.000 
#    0.000    0.000    0.000    0.000    0.000    0.000 
#
# Total GULP energy -198251.266726 kJ/mol
# GULP energy per Si atom -12390.704170 kJ/mol
# Density = 2.170620 g / cm^3
# Si number density = 21.755720 Si / 1000 Ang^3
#
#
#
# Elastic Constant Matrix: (Units=GPa)
#
#
# Indices 1 2 3 4 5 6 
#
# 1 126.7518 48.5074 38.5462 0.7107 8.2151 12.8250
# 2 48.5074 114.0254 44.2745 -5.6602 8.2414 -2.2716
# 3 38.5462 44.2745 63.6470 -0.8745 7.5043 12.2314
# 4 0.7107 -5.6602 -0.8745 28.5158 6.2677 -0.2412
# 5 8.2151 8.2414 7.5043 6.2677 40.7214 -2.1033
# 6 12.8250 -2.2716 12.2314 -0.2412 -2.1033 29.9039
#
#
#
# Elastic Compliance Matrix: (Units=1/GPa)
#
#
# Indices 1 2 3 4 5 6 
#
# 1 0.010569 -0.003221 -0.003401 -0.000838 -0.000903 -0.003457
# 2 -0.003221 0.013818 -0.008692 0.002752 -0.000661 0.005962
# 3 -0.003401 -0.008692 0.026083 -0.000303 -0.002835 -0.010072
# 4 -0.000838 0.002752 -0.000303 0.036948 -0.005990 0.000569
# 5 -0.000903 -0.000661 -0.002835 -0.005990 0.026489 0.003312
# 6 -0.003457 0.005962 -0.010072 0.000569 0.003312 0.039733
#
#
# Mechanical properties :
#
#
# Convention : Reuss Voigt Hill
#
# Bulk Modulus (GPa) = 50.39458 63.00895 56.70176
# Shear Modulus (GPa) = 26.19418 31.36794 28.78106
#
# Velocity S-wave (km/s) = 3.47365 3.80126 3.64114
# Velocity P-wave (km/s) = 6.26917 6.94917 6.61791
#
# Compressibility (1/GPa) = 0.01984341
#
# Stress axis : x y z
#
# Youngs Moduli (GPa) = 94.61296 72.36877 38.33850
#
# Poissons Ratio (x) = 0.23308 0.13040
# Poissons Ratio (y) = 0.30473 0.33322
# Poissons Ratio (z) = 0.32181 0.62900
#
# Static dielectric constant tensor:
#      x y z
#    x 4.235650 -0.076040 -0.193870 
#    y -0.076040 4.128350 -0.302220 
#    z -0.193870 -0.302220 3.674130 
# 
# 
# High freq. dielectric constant tensor:
#      x y z
#    x 1.869640 -0.003250 -0.016750 
#    y -0.003250 1.853850 -0.020500 
#    z -0.016750 -0.020500 1.824710 
# 
# From -- ./inp_files/208546.got.cif
#   From: 2010.06.25/outbox.cif.g09.slc.cpg/sg2_105_cif.got.tgz:208546.got - 2010.06.27 13:26:56.
