data_PCOD8044170
_publ_section_title
;
Structure prediction by ZEFSAII (Michael W. Deem and Ramdas Pophale) SiO2 
 PCOD8044170
Probable space group: P -1
;
_chemical_formula_sum "Si O2"
_cell_formula_units_Z 16
_cell_length_a 11.577960
_cell_length_b 17.060682
_cell_length_c 9.030546
_cell_angle_alpha 126.189543
_cell_angle_beta 128.776520
_cell_angle_gamma 33.154818
_cell_volume 751.334135
_symmetry_space_group_name_H-M "P -1"
_symmetry_group_IT_number 2
_symmetry_cell_setting 'triclinic'
loop_
_space_group_symop_operation_xyz
x,y,z
-x,-y,-z
loop_
_atom_site_type_symbol
_atom_site_label
_atom_site_fract_x
_atom_site_fract_y
_atom_site_fract_z
Si Si1 0.337181 0.387705 0.912876
Si Si2 0.214377 0.920437 0.994774
Si Si3 0.697971 0.914578 0.669565
Si Si4 0.001892 0.697511 0.132045
Si Si5 0.884835 0.967074 0.285241
Si Si6 0.965142 0.655388 0.386654
Si Si7 0.400573 0.161764 0.228683
Si Si8 0.760845 0.581222 0.449712
O O1 0.584691 0.255509 0.029981
O O2 0.203697 0.351625 0.782125
O O3 0.355525 0.409523 0.777610
O O4 0.214765 0.533768 0.064808
O O5 0.281743 0.982103 0.203750
O O6 0.146144 0.973042 0.832161
O O7 0.000000 0.000000 0.000000
O O8 0.899230 0.758366 0.583710
O O9 0.645571 0.911355 0.793097
O O10 0.500000 0.000000 0.500000
O O11 0.030871 0.796523 0.216332
O O12 0.993720 0.698728 0.305064
O O13 0.780757 0.752111 0.952154
O O14 0.648632 0.043489 0.237913
O O15 0.000000 0.000000 0.500000
O O16 0.204683 0.503206 0.471656
O O17 0.385390 0.258280 0.436322
O O18 0.000000 0.500000 0.500000
#
# Coordination Sequence:
#
# PCOD8044170 Si02
#       8
#     2   2   2   2   2   2   2   2
#     4  11  22  43  69 105 139 177 231 288 350 407
#     4  12  29  48  70 101 144 186 231 285 350 424
#     4  12  22  40  72 102 134 183 238 283 340 407
#     4  12  24  43  73 103 138 177 238 293 342 411
#     4  12  31  48  67 100 146 191 230 286 354 410
#     4  11  21  35  69 110 138 170 225 295 345 397
#     4  12  22  43  72 102 138 181 235 291 342 407
#     4  10  19  37  65 106 142 166 218 295 352 393
#
# _framework density 21.295451
#
# number of rings (size 3 to 8) (size 9 to 14) (size 15 to 20)
#    0.000    0.500    7.500    2.250    7.000    0.000 
#    0.000    2.500    0.000    0.000    0.000    0.000 
#    0.000    0.000    0.000    0.000    0.000    0.000 
#
# Total GULP energy -198279.148732 kJ/mol
# GULP energy per Si atom -12392.446796 kJ/mol
# Density = 2.124698 g / cm^3
# Si number density = 21.295451 Si / 1000 Ang^3
#
#
#
# Elastic Constant Matrix: (Units=GPa)
#
#
# Indices 1 2 3 4 5 6 
#
# 1 90.0328 61.8794 53.2052 -13.2764 -24.0264 3.4141
# 2 61.8794 149.1264 50.0104 5.4092 -2.5940 7.2549
# 3 53.2052 50.0104 109.2593 -0.7026 -11.5428 5.7305
# 4 -13.2764 5.4092 -0.7026 43.3946 9.9044 -13.5431
# 5 -24.0264 -2.5940 -11.5428 9.9044 37.8950 -5.7497
# 6 3.4141 7.2549 5.7305 -13.5431 -5.7497 27.7195
#
#
#
# Elastic Compliance Matrix: (Units=1/GPa)
#
#
# Indices 1 2 3 4 5 6 
#
# 1 0.025743 -0.008557 -0.007642 0.008262 0.012348 0.007247
# 2 -0.008557 0.010935 -0.001104 -0.004419 -0.004569 -0.004686
# 3 -0.007642 -0.001104 0.013462 -0.002805 -0.000547 -0.003037
# 4 0.008262 -0.004419 -0.002805 0.031369 -0.001738 0.015685
# 5 0.012348 -0.004569 -0.000547 -0.001738 0.035137 0.006227
# 6 0.007247 -0.004686 -0.003037 0.015685 0.006227 0.045992
#
#
# Mechanical properties :
#
#
# Convention : Reuss Voigt Hill
#
# Bulk Modulus (GPa) = 64.36576 75.40092 69.88334
# Shear Modulus (GPa) = 24.70093 34.02340 29.36216
#
# Velocity S-wave (km/s) = 3.40945 4.00144 3.71725
# Velocity P-wave (km/s) = 6.76682 7.53874 7.16319
#
# Compressibility (1/GPa) = 0.01553621
#
# Stress axis : x y z
#
# Youngs Moduli (GPa) = 38.84615 91.44767 74.28125
#
# Poissons Ratio (x) = 0.78248 0.56762
# Poissons Ratio (y) = 0.33239 0.08200
# Poissons Ratio (z) = 0.29684 0.10095
#
# Static dielectric constant tensor:
#      x y z
#    x 3.174700 2.795900 2.045070 
#    y 2.795900 -4.417510 -8.652120 
#    z 2.045070 -8.652120 -4.476150 
# 
# 
# High freq. dielectric constant tensor:
#      x y z
#    x 1.810050 0.019460 -0.027270 
#    y 0.019460 1.851850 0.006320 
#    z -0.027270 0.006320 1.842050 
# 
# From -- ./inp_files/243328.got.cif
#   From: 2010.06.25/outbox.cif.g09.slc.cpg/sg2_122_cif.got.tgz:243328.got - 2010.06.27 13:26:56.
