data_PCOD8044572
_publ_section_title
;
Structure prediction by ZEFSAII (Michael W. Deem and Ramdas Pophale) SiO2 
 PCOD8044572
Probable space group: P -1
;
_chemical_formula_sum "Si O2"
_cell_formula_units_Z 16
_cell_length_a 9.731830
_cell_length_b 30.733024
_cell_length_c 8.715307
_cell_angle_alpha 38.329447
_cell_angle_beta 137.434438
_cell_angle_gamma 150.554250
_cell_volume 782.441824
_symmetry_space_group_name_H-M "P -1"
_symmetry_group_IT_number 2
_symmetry_cell_setting 'triclinic'
loop_
_space_group_symop_operation_xyz
x,y,z
-x,-y,-z
loop_
_atom_site_type_symbol
_atom_site_label
_atom_site_fract_x
_atom_site_fract_y
_atom_site_fract_z
Si Si1 0.518714 0.277276 0.005322
Si Si2 0.926364 0.546859 0.196628
Si Si3 0.916750 0.760967 0.032656
Si Si4 0.803582 0.017616 0.764506
Si Si5 0.681851 0.623397 0.931388
Si Si6 0.682281 0.172244 0.559863
Si Si7 0.648128 0.025497 0.299268
Si Si8 0.138985 0.222948 0.577218
O O1 0.523219 0.205417 0.298552
O O2 0.332789 0.223419 0.848204
O O3 0.363513 0.294610 0.942298
O O4 0.823937 0.380371 0.921909
O O5 0.653418 0.472705 0.065033
O O6 0.000000 0.500000 0.500000
O O7 0.868877 0.600421 0.108403
O O8 0.166243 0.783738 0.272489
O O9 0.050290 0.867615 0.792406
O O10 0.823472 0.687670 0.022868
O O11 0.662661 0.977507 0.592296
O O12 0.985706 0.132655 0.587267
O O13 0.575607 0.967124 0.856407
O O14 0.000000 0.000000 0.000000
O O15 0.674758 0.678899 0.637806
O O16 0.915059 0.216269 0.500213
O O17 0.467647 0.053048 0.715287
#
# Coordination Sequence:
#
# PCOD8044572 Si02
#       8
#     2   2   2   2   2   2   2   2
#     4  11  23  41  65  93 125 168 210 256 318 379
#     4  11  24  43  71  94 118 161 214 263 324 384
#     4  11  25  40  62  96 135 164 205 259 314 372
#     4  10  20  33  59  94 128 163 215 263 296 357
#     4  11  23  42  67  94 122 158 210 270 311 373
#     4  10  22  40  61  89 132 174 202 252 308 373
#     4  10  21  38  58  91 131 173 211 249 305 367
#     4  10  19  38  63  88 125 162 212 255 308 366
#
# _framework density 20.448806000000001
#
# number of rings (size 3 to 8) (size 9 to 14) (size 15 to 20)
#    0.000    1.500    3.750    1.125    0.000    4.000 
#    0.000    1.250    0.000    0.000    0.000    0.000 
#    0.000    0.000    0.000    0.000    0.000    0.000 
#
# Total GULP energy -198368.921224 kJ/mol
# GULP energy per Si atom -12398.057576 kJ/mol
# Density = 2.040226 g / cm^3
# Si number density = 20.448806 Si / 1000 Ang^3
#
#
#
# Elastic Constant Matrix: (Units=GPa)
#
#
# Indices 1 2 3 4 5 6 
#
# 1 85.7899 65.5427 48.7527 3.2744 0.7074 -3.8884
# 2 65.5427 131.3143 29.5577 5.5869 -3.6903 -6.0230
# 3 48.7527 29.5577 116.1097 14.6295 10.0430 -7.9971
# 4 3.2744 5.5869 14.6295 31.3823 3.5200 -9.6002
# 5 0.7074 -3.6903 10.0430 3.5200 24.3399 5.2283
# 6 -3.8884 -6.0230 -7.9971 -9.6002 5.2283 41.9394
#
#
#
# Elastic Compliance Matrix: (Units=1/GPa)
#
#
# Indices 1 2 3 4 5 6 
#
# 1 0.023784 -0.010227 -0.007808 0.002858 0.000604 -0.000173
# 2 -0.010227 0.012604 0.001180 -0.001804 0.001888 0.000438
# 3 -0.007808 0.001180 0.012623 -0.004344 -0.004479 0.001416
# 4 0.002858 -0.001804 -0.004344 0.037123 -0.005735 0.008390
# 5 0.000604 0.001888 -0.004479 -0.005735 0.045649 -0.007530
# 6 -0.000173 0.000438 0.001416 0.008390 -0.007530 0.027020
#
#
# Mechanical properties :
#
#
# Convention : Reuss Voigt Hill
#
# Bulk Modulus (GPa) = 65.35011 68.99112 67.17061
# Shear Modulus (GPa) = 25.30194 32.15636 28.72915
#
# Velocity S-wave (km/s) = 3.52139 3.96982 3.75231
# Velocity P-wave (km/s) = 6.96856 7.40434 7.18975
#
# Compressibility (1/GPa) = 0.01530219
#
# Stress axis : x y z
#
# Youngs Moduli (GPa) = 42.04429 79.33893 79.22158
#
# Poissons Ratio (x) = 0.81137 0.61853
# Poissons Ratio (y) = 0.42997 -0.09345
# Poissons Ratio (z) = 0.32827 -0.09359
#
# Static dielectric constant tensor:
#      x y z
#    x 3.638750 -0.172370 0.068650 
#    y -0.172370 4.902990 -0.204700 
#    z 0.068650 -0.204700 3.726230 
# 
# 
# High freq. dielectric constant tensor:
#      x y z
#    x 1.788790 0.005140 -0.001550 
#    y 0.005140 1.807240 0.010240 
#    z -0.001550 0.010240 1.800820 
# 
# From -- ./inp_files/37569.got.cif
#   From: 2010.06.25/outbox.cif.g09.slc.cpg/sg2_19_cif.got.tgz:37569.got - 2010.06.27 13:26:56.
