data_PCOD8044129
_publ_section_title
;
Structure prediction by ZEFSAII (Michael W. Deem and Ramdas Pophale) SiO2 
 PCOD8044129
Probable space group: P -1
;
_chemical_formula_sum "Si O2"
_cell_formula_units_Z 16
_cell_length_a 8.328961
_cell_length_b 15.012983
_cell_length_c 6.557573
_cell_angle_alpha 116.150639
_cell_angle_beta 85.116720
_cell_angle_gamma 92.589765
_cell_volume 733.342986
_symmetry_space_group_name_H-M "P -1"
_symmetry_group_IT_number 2
_symmetry_cell_setting 'triclinic'
loop_
_space_group_symop_operation_xyz
x,y,z
-x,-y,-z
loop_
_atom_site_type_symbol
_atom_site_label
_atom_site_fract_x
_atom_site_fract_y
_atom_site_fract_z
Si Si1 0.383504 0.062640 0.220872
Si Si2 0.181405 0.014500 0.571753
Si Si3 0.549663 0.640072 0.742645
Si Si4 0.893500 0.292991 0.204645
Si Si5 0.218670 0.182735 0.051537
Si Si6 0.314460 0.831056 0.596942
Si Si7 0.712341 0.443607 0.595273
Si Si8 0.283380 0.659212 0.112326
O O1 0.307495 0.002439 0.358587
O O2 0.231079 0.102902 0.151466
O O3 0.495548 0.152094 0.377214
O O4 0.500000 0.000000 0.000000
O O5 0.223147 0.932726 0.653650
O O6 0.202804 0.124437 0.779881
O O7 0.000000 0.000000 0.500000
O O8 0.621310 0.749697 0.876211
O O9 0.690741 0.558243 0.655253
O O10 0.444986 0.622946 0.529316
O O11 0.432667 0.622942 0.927706
O O12 0.766252 0.212982 0.232461
O O13 0.871093 0.399240 0.425162
O O14 0.070390 0.253697 0.181030
O O15 0.866449 0.313531 0.989088
O O16 0.307030 0.758373 0.335748
O O17 0.743808 0.432329 0.822095
#
# Coordination Sequence:
#
# PCOD8044129 Si02
#       8
#     2   2   2   2   2   2   2   2
#     4  12  26  41  65  92 123 166 219 269 313 369
#     4  12  27  42  63  92 129 172 212 260 319 381
#     4  10  21  38  66  93 124 160 209 266 318 375
#     4  10  23  39  62  91 126 169 206 262 319 381
#     4  12  25  41  61  92 130 165 214 262 320 375
#     4  11  23  40  64  89 124 165 217 260 312 377
#     4   9  20  41  64  94 121 162 210 260 323 380
#     4  10  19  37  64  88 122 162 211 256 317 376
#
# _framework density 21.817896000000001
#
# number of rings (size 3 to 8) (size 9 to 14) (size 15 to 20)
#    0.000    1.250    1.250    5.250    5.250    2.500 
#    0.000    0.625    0.000    0.000    0.000    0.000 
#    0.000    0.000    0.000    0.000    0.000    0.000 
#
# Total GULP energy -198326.496266 kJ/mol
# GULP energy per Si atom -12395.406017 kJ/mol
# Density = 2.176824 g / cm^3
# Si number density = 21.817896 Si / 1000 Ang^3
#
#
#
# Elastic Constant Matrix: (Units=GPa)
#
#
# Indices 1 2 3 4 5 6 
#
# 1 81.4647 17.2657 25.4359 -5.8922 1.6494 -25.6393
# 2 17.2657 78.3737 32.2072 -3.3695 6.8405 -24.0480
# 3 25.4359 32.2072 92.7207 -12.4212 3.2161 -11.5315
# 4 -5.8922 -3.3695 -12.4212 42.0619 -8.9859 2.8344
# 5 1.6494 6.8405 3.2161 -8.9859 32.4932 6.4785
# 6 -25.6393 -24.0480 -11.5315 2.8344 6.4785 46.7434
#
#
#
# Elastic Compliance Matrix: (Units=1/GPa)
#
#
# Indices 1 2 3 4 5 6 
#
# 1 0.015963 0.000751 -0.003465 0.000207 -0.002281 0.008591
# 2 0.000751 0.018068 -0.005382 -0.001875 -0.005678 0.009281
# 3 -0.003465 -0.005382 0.013832 0.003546 0.001248 -0.001645
# 4 0.000207 -0.001875 0.003546 0.026573 0.007917 -0.002685
# 5 -0.002281 -0.005678 0.001248 0.007917 0.036014 -0.009336
# 6 0.008591 0.009281 -0.001645 -0.002685 -0.009336 0.031931
#
#
# Mechanical properties :
#
#
# Convention : Reuss Voigt Hill
#
# Bulk Modulus (GPa) = 31.57364 44.70851 38.14107
# Shear Modulus (GPa) = 29.56300 36.10305 32.83303
#
# Velocity S-wave (km/s) = 3.68501 4.07227 3.88347
# Velocity P-wave (km/s) = 5.71039 6.53049 6.13416
#
# Compressibility (1/GPa) = 0.03167199
#
# Stress axis : x y z
#
# Youngs Moduli (GPa) = 62.64528 55.34553 72.29487
#
# Poissons Ratio (x) = -0.04158 0.25048
# Poissons Ratio (y) = -0.04707 0.38911
# Poissons Ratio (z) = 0.21705 0.29789
#
# Static dielectric constant tensor:
#      x y z
#    x 3.851660 -0.248020 0.125640 
#    y -0.248020 3.995960 -0.017810 
#    z 0.125640 -0.017810 4.096920 
# 
# 
# High freq. dielectric constant tensor:
#      x y z
#    x 1.845960 -0.026330 0.006610 
#    y -0.026330 1.860640 0.003040 
#    z 0.006610 0.003040 1.864630 
# 
# From -- ./inp_files/37445.got.cif
#   From: 2010.06.25/outbox.cif.g09.slc.cpg/sg2_19_cif.got.tgz:37445.got - 2010.06.27 13:26:56.
