data_PCOD8044681
_publ_section_title
;
Structure prediction by ZEFSAII (Michael W. Deem and Ramdas Pophale) SiO2 
 PCOD8044681
Probable space group: P -1
;
_chemical_formula_sum "Si O2"
_cell_formula_units_Z 16
_cell_length_a 11.366560
_cell_length_b 16.923787
_cell_length_c 22.391516
_cell_angle_alpha 159.789558
_cell_angle_beta 146.073288
_cell_angle_gamma 33.248960
_cell_volume 792.565730
_symmetry_space_group_name_H-M "P -1"
_symmetry_group_IT_number 2
_symmetry_cell_setting 'triclinic'
loop_
_space_group_symop_operation_xyz
x,y,z
-x,-y,-z
loop_
_atom_site_type_symbol
_atom_site_label
_atom_site_fract_x
_atom_site_fract_y
_atom_site_fract_z
Si Si1 0.681609 0.816733 0.093987
Si Si2 0.614524 0.385038 0.881936
Si Si3 0.976741 0.534746 0.928381
Si Si4 0.610293 0.485038 0.240788
Si Si5 0.373249 0.714664 0.422039
Si Si6 0.919691 0.803298 0.793143
Si Si7 0.563000 0.112154 0.777551
Si Si8 0.474980 0.319957 0.411525
O O1 0.840357 0.594835 0.038767
O O2 0.657540 0.070995 0.293441
O O3 0.792758 0.776264 0.046123
O O4 0.443900 0.769435 0.960078
O O5 0.525264 0.347952 0.752016
O O6 0.583364 0.172528 0.759481
O O7 0.470162 0.648961 0.028742
O O8 0.874393 0.372081 0.989939
O O9 0.861851 0.335873 0.717917
O O10 0.536368 0.616148 0.365466
O O11 0.873383 0.422596 0.299075
O O12 0.471336 0.590631 0.437856
O O13 0.358173 0.998722 0.619613
O O14 0.770526 0.705250 0.707100
O O15 0.780999 0.915064 0.754789
O O16 0.000000 0.000000 0.000000
O O17 0.500000 0.500000 0.500000
#
# Coordination Sequence:
#
# PCOD8044681 Si02
#       8
#     2   2   2   2   2   2   2   2
#     4   9  18  37  60  82 114 150 192 233 282 350
#     4  10  20  38  58  88 118 148 194 241 277 349
#     4   9  18  36  61  83 109 154 189 230 294 340
#     4  10  19  38  65  84 111 153 200 230 287 348
#     4  10  22  39  58  86 117 150 187 242 290 338
#     4  11  19  39  65  80 109 167 192 225 289 353
#     4  10  22  36  57  88 121 145 192 245 285 337
#     4  11  24  40  55  86 122 148 194 244 282 340
#
# _framework density 20.1876
#
# number of rings (size 3 to 8) (size 9 to 14) (size 15 to 20)
#    0.000    2.000    2.500    3.000    0.000    5.500 
#    6.750    1.250    0.000    0.000    0.000    0.000 
#    0.000    0.000    0.000    0.000    0.000    0.000 
#
# Total GULP energy -198240.815470 kJ/mol
# GULP energy per Si atom -12390.050967 kJ/mol
# Density = 2.014165 g / cm^3
# Si number density = 20.187600 Si / 1000 Ang^3
#
#
#
# Elastic Constant Matrix: (Units=GPa)
#
#
# Indices 1 2 3 4 5 6 
#
# 1 127.0534 59.8019 39.4341 0.9625 20.3764 17.7679
# 2 59.8019 74.3881 32.2069 -5.1185 10.8368 -2.5916
# 3 39.4341 32.2069 69.4910 -9.3130 6.1649 9.5285
# 4 0.9625 -5.1185 -9.3130 24.0377 -2.8133 4.6654
# 5 20.3764 10.8368 6.1649 -2.8133 33.1593 -7.7569
# 6 17.7679 -2.5916 9.5285 4.6654 -7.7569 35.9862
#
#
#
# Elastic Compliance Matrix: (Units=1/GPa)
#
#
# Indices 1 2 3 4 5 6 
#
# 1 0.017140 -0.012030 -0.002409 -0.003238 -0.008807 -0.010170
# 2 -0.012030 0.026063 -0.006584 0.001865 0.002566 0.009872
# 3 -0.002409 -0.006584 0.020762 0.007789 -0.000971 -0.006001
# 4 -0.003238 0.001865 0.007789 0.046571 0.002521 -0.005824
# 5 -0.008807 0.002566 -0.000971 0.002521 0.038090 0.012674
# 6 -0.010170 0.009872 -0.006001 -0.005824 0.012674 0.038596
#
#
# Mechanical properties :
#
#
# Convention : Reuss Voigt Hill
#
# Bulk Modulus (GPa) = 45.62348 59.31314 52.46831
# Shear Modulus (GPa) = 21.13494 27.93595 24.53545
#
# Velocity S-wave (km/s) = 3.23914 3.72400 3.49000
# Velocity P-wave (km/s) = 6.05295 6.92356 6.50284
#
# Compressibility (1/GPa) = 0.02191854
#
# Stress axis : x y z
#
# Youngs Moduli (GPa) = 58.34319 38.36809 48.16544
#
# Poissons Ratio (x) = 0.46158 0.11603
# Poissons Ratio (y) = 0.70188 0.31712
# Poissons Ratio (z) = 0.14055 0.25262
#
# Static dielectric constant tensor:
#      x y z
#    x 4.167600 -0.198430 0.120340 
#    y -0.198430 3.475580 -0.231660 
#    z 0.120340 -0.231660 3.723710 
# 
# 
# High freq. dielectric constant tensor:
#      x y z
#    x 1.800100 -0.010540 0.000060 
#    y -0.010540 1.758060 -0.014110 
#    z 0.000060 -0.014110 1.783860 
# 
# From -- ./inp_files/277243.got.cif
#   From: 2010.06.25/outbox.cif.g09.slc.cpg/sg2_139_cif.got.tgz:277243.got - 2010.06.27 13:26:56.
