data_PCOD8044005
_publ_section_title
;
Structure prediction by ZEFSAII (Michael W. Deem and Ramdas Pophale) SiO2 
 PCOD8044005
Probable space group: P -1
;
_chemical_formula_sum "Si O2"
_cell_formula_units_Z 14
_cell_length_a 9.834760
_cell_length_b 23.802204
_cell_length_c 10.357843
_cell_angle_alpha 42.111804
_cell_angle_beta 124.802330
_cell_angle_gamma 153.871011
_cell_volume 677.756419
_symmetry_space_group_name_H-M "P -1"
_symmetry_group_IT_number 2
_symmetry_cell_setting 'triclinic'
loop_
_space_group_symop_operation_xyz
x,y,z
-x,-y,-z
loop_
_atom_site_type_symbol
_atom_site_label
_atom_site_fract_x
_atom_site_fract_y
_atom_site_fract_z
Si Si1 0.927278 0.317020 0.929335
Si Si2 0.502928 0.994044 0.359722
Si Si3 0.380885 0.759426 0.742746
Si Si4 0.348163 0.166376 0.967243
Si Si5 0.829810 0.731118 0.337271
Si Si6 0.305165 0.414882 0.742308
Si Si7 0.305118 0.547475 0.971869
O O1 0.819851 0.178097 0.160303
O O2 0.628243 0.252190 0.879227
O O3 0.054232 0.363973 0.771887
O O4 0.222877 0.482232 0.893869
O O5 0.486340 0.887417 0.498814
O O6 0.194541 0.910669 0.276389
O O7 0.500000 0.000000 0.500000
O O8 0.412596 0.691850 0.784394
O O9 0.610584 0.854513 0.832133
O O10 0.005752 0.604507 0.846117
O O11 0.380536 0.280626 0.802708
O O12 0.000000 0.000000 0.000000
O O13 0.641990 0.609312 0.564205
O O14 0.862891 0.682475 0.317677
O O15 0.387153 0.370205 0.950234
#
# Coordination Sequence:
#
# PCOD8044005 Si02
#       7
#     2   2   2   2   2   2   2
#     4  11  24  37  66  93 131 156 212 263 309 357
#     4  12  20  40  63  96 117 169 209 253 304 381
#     4  10  20  35  65  91 119 162 218 240 307 378
#     4  11  20  39  62  92 123 168 202 259 309 370
#     4  11  23  39  67  85 127 166 211 245 322 377
#     4  11  23  40  61  97 122 165 205 266 307 368
#     4  10  19  37  62  89 126 160 203 259 305 367
#
# _framework density 20.656386999999999
#
# number of rings (size 3 to 8) (size 9 to 14) (size 15 to 20)
#    0.000    1.143    7.143    0.429    0.000    1.143 
#    0.000    0.714    0.000    0.000    0.000    0.000 
#    0.000    0.000    0.000    0.000    0.000    0.000 
#
# Total GULP energy -173612.130993 kJ/mol
# GULP energy per Si atom -12400.866499 kJ/mol
# Density = 2.060937 g / cm^3
# Si number density = 20.656387 Si / 1000 Ang^3
#
#
#
# Elastic Constant Matrix: (Units=GPa)
#
#
# Indices 1 2 3 4 5 6 
#
# 1 122.7690 35.7705 51.7140 1.0012 -5.2024 -10.5305
# 2 35.7705 99.5985 19.7875 6.6419 -6.2716 -1.8256
# 3 51.7140 19.7875 65.6818 3.2891 5.2121 -5.5824
# 4 1.0012 6.6419 3.2891 23.3100 -0.9999 14.6786
# 5 -5.2024 -6.2716 5.2121 -0.9999 43.2221 4.3925
# 6 -10.5305 -1.8256 -5.5824 14.6786 4.3925 24.0163
#
#
#
# Elastic Compliance Matrix: (Units=1/GPa)
#
#
# Indices 1 2 3 4 5 6 
#
# 1 0.013313 -0.002667 -0.009528 -0.000492 0.002012 0.003353
# 2 -0.002667 0.011605 -0.001148 -0.004041 0.001236 0.001689
# 3 -0.009528 -0.001148 0.024407 -0.007155 -0.005105 0.006715
# 4 -0.000492 -0.004041 -0.007155 0.077369 0.007168 -0.050785
# 5 0.002012 0.001236 -0.005105 0.007168 0.025276 -0.009214
# 6 0.003353 0.001689 0.006715 -0.050785 -0.009214 0.077522
#
#
# Mechanical properties :
#
#
# Convention : Reuss Voigt Hill
#
# Bulk Modulus (GPa) = 44.17563 55.84369 50.00966
# Shear Modulus (GPa) = 18.95915 30.16152 24.56033
#
# Velocity S-wave (km/s) = 3.03287 3.82534 3.45192
# Velocity P-wave (km/s) = 5.80489 6.82673 6.33644
#
# Compressibility (1/GPa) = 0.02263691
#
# Stress axis : x y z
#
# Youngs Moduli (GPa) = 75.11408 86.17239 40.97185
#
# Poissons Ratio (x) = 0.22985 0.39040
# Poissons Ratio (y) = 0.20035 0.04704
# Poissons Ratio (z) = 0.71572 0.09893
#
# Static dielectric constant tensor:
#      x y z
#    x 3.902500 -0.158690 0.494820 
#    y -0.158690 3.767140 -0.097830 
#    z 0.494820 -0.097830 3.746360 
# 
# 
# High freq. dielectric constant tensor:
#      x y z
#    x 1.802550 -0.012170 0.029200 
#    y -0.012170 1.814620 0.004410 
#    z 0.029200 0.004410 1.785550 
# 
# From -- ./inp_files/177576.got.cif
#   From: 2010.06.25/outbox.cif.g09.slc.cpg/sg2_89_cif.got.tgz:177576.got - 2010.06.27 13:26:56.
