data_PCOD8044960
_publ_section_title
;
Structure prediction by ZEFSAII (Michael W. Deem and Ramdas Pophale) SiO2 
 PCOD8044960
Probable space group: P 2
;
_chemical_formula_sum "Si O2"
_cell_formula_units_Z 11
_cell_length_a 11.929689
_cell_length_b 8.013130
_cell_length_c 8.748538
_cell_angle_alpha 90.000000
_cell_angle_beta 40.448242
_cell_angle_gamma 90.000000
_cell_volume 542.564585
_symmetry_space_group_name_H-M "P 2"
_symmetry_group_IT_number 3
_symmetry_cell_setting 'monoclinic'
loop_
_space_group_symop_operation_xyz
x,y,z
-x,y,-z
loop_
_atom_site_type_symbol
_atom_site_label
_atom_site_fract_x
_atom_site_fract_y
_atom_site_fract_z
Si Si1 0.500000 0.152740 0.500000
Si Si2 0.959687 0.342304 0.717941
Si Si3 0.659694 0.334646 0.618540
Si Si4 0.843381 0.694377 0.779471
Si Si5 0.741190 0.016800 0.016438
Si Si6 0.500000 0.595286 0.000000
Si Si7 0.500000 0.090542 0.000000
O O1 0.572199 0.274387 0.554450
O O2 0.645531 0.030493 0.278683
O O3 0.851395 0.513576 0.853999
O O4 0.000000 0.315461 0.500000
O O5 0.138629 0.367307 0.624029
O O6 0.855053 0.183774 0.886554
O O7 0.555457 0.492654 0.791347
O O8 0.649324 0.198015 0.763502
O O9 0.663447 0.708453 0.874251
O O10 0.000000 0.716053 0.500000
O O11 0.854371 0.846699 0.891098
O O12 0.600968 0.991257 0.026574
#
# Coordination Sequence:
#
# PCOD8044960 Si02
#       7
#     1   2   2   2   2   1   1
#     4  10  24  40  60  90 132 180 210 248 322 396
#     4  11  19  38  66  97 127 155 212 280 315 365
#     4  10  19  37  64  93 125 168 209 256 320 379
#     4  11  22  36  64 103 124 158 213 274 319 361
#     4  11  22  39  61  92 129 168 211 260 317 382
#     4  11  19  40  68  97 129 160 217 275 312 373
#     4   9  17  32  60  87 117 164 209 253 306 363
#
# _framework density 20.274084999999999
#
# number of rings (size 3 to 8) (size 9 to 14) (size 15 to 20)
#    0.000    1.455    5.455    3.273    0.000    0.727 
#    0.000    3.636    0.000    4.364    0.000    0.000 
#    0.000    0.000    0.000    0.000    0.000    0.000 
#
# Total GULP energy -136325.780347 kJ/mol
# GULP energy per Si atom -12393.252759 kJ/mol
# Density = 2.022794 g / cm^3
# Si number density = 20.274085 Si / 1000 Ang^3
#
#
#
# Elastic Constant Matrix: (Units=GPa)
#
#
# Indices 1 2 3 4 5 6 
#
# 1 67.6247 18.6774 39.7173 0.0000 -8.4335 0.0000
# 2 18.6774 149.1568 76.2824 0.0000 0.8247 0.0000
# 3 39.7173 76.2824 126.7352 0.0000 -7.8416 0.0000
# 4 0.0000 0.0000 0.0000 9.6095 0.0000 3.3524
# 5 -8.4335 0.8247 -7.8416 0.0000 40.8781 0.0000
# 6 0.0000 0.0000 0.0000 3.3524 0.0000 11.7331
#
#
#
# Elastic Compliance Matrix: (Units=1/GPa)
#
#
# Indices 1 2 3 4 5 6 
#
# 1 0.018483 0.000795 -0.006108 0.000000 0.002625 0.000000
# 2 0.000795 0.009792 -0.006219 0.000000 -0.001226 0.000000
# 3 -0.006108 -0.006219 0.013640 0.000000 0.001482 0.000000
# 4 0.000000 0.000000 0.000000 0.115584 0.000000 -0.033024
# 5 0.002625 -0.001226 0.001482 0.000000 0.025314 0.000000
# 6 0.000000 0.000000 0.000000 -0.033024 0.000000 0.094664
#
#
# Mechanical properties :
#
#
# Convention : Reuss Voigt Hill
#
# Bulk Modulus (GPa) = 53.05032 68.09677 60.57354
# Shear Modulus (GPa) = 16.29595 26.36680 21.33138
#
# Velocity S-wave (km/s) = 2.83818 3.61018 3.24720
# Velocity P-wave (km/s) = 6.07978 7.14415 6.63335
#
# Compressibility (1/GPa) = 0.01885003
#
# Stress axis : x y z
#
# Youngs Moduli (GPa) = 54.10402 102.12312 73.31555
#
# Poissons Ratio (x) = -0.08119 0.44784
# Poissons Ratio (y) = -0.04302 0.45595
# Poissons Ratio (z) = 0.33049 0.63510
#
# Static dielectric constant tensor:
#      x y z
#    x 3.615380 0.000000 -0.265770 
#    y 0.000000 3.742000 0.000000 
#    z -0.265770 0.000000 3.868810 
# 
# 
# High freq. dielectric constant tensor:
#      x y z
#    x 1.770440 0.000000 -0.024550 
#    y 0.000000 1.790970 0.000000 
#    z -0.024550 0.000000 1.791660 
# 
# From -- ./inp_files/6828.got.cif
#   From: 2010.03.12/outbox.cif.g09.slc.cpg/sg3_4_cif.got.tgz:6828.got - 2010.03.31 09:20:49.
