data_PCOD8044372
_publ_section_title
;
Structure prediction by ZEFSAII (Michael W. Deem and Ramdas Pophale) SiO2 
 PCOD8044372
Probable space group: P -1
;
_chemical_formula_sum "Si O2"
_cell_formula_units_Z 16
_cell_length_a 12.236093
_cell_length_b 9.453763
_cell_length_c 10.112073
_cell_angle_alpha 125.409548
_cell_angle_beta 83.156377
_cell_angle_gamma 125.644611
_cell_volume 731.382409
_symmetry_space_group_name_H-M "P -1"
_symmetry_group_IT_number 2
_symmetry_cell_setting 'triclinic'
loop_
_space_group_symop_operation_xyz
x,y,z
-x,-y,-z
loop_
_atom_site_type_symbol
_atom_site_label
_atom_site_fract_x
_atom_site_fract_y
_atom_site_fract_z
Si Si1 0.071720 0.840552 0.307269
Si Si2 0.245306 0.046156 0.139918
Si Si3 0.216465 0.304264 0.673578
Si Si4 0.562079 0.280523 0.311277
Si Si5 0.298628 0.932682 0.807405
Si Si6 0.587156 0.756110 0.255128
Si Si7 0.212413 0.757439 0.453512
Si Si8 0.320841 0.493295 0.311014
O O1 0.139892 0.863013 0.166963
O O2 0.094076 0.712379 0.345137
O O3 0.902082 0.695238 0.237074
O O4 0.141436 0.090547 0.474405
O O5 0.408790 0.183843 0.230883
O O6 0.220489 0.226903 0.212741
O O7 0.213977 0.906152 0.935481
O O8 0.312820 0.517578 0.684173
O O9 0.311890 0.307603 0.771125
O O10 0.583601 0.096595 0.198245
O O11 0.576877 0.363110 0.502756
O O12 0.181310 0.756776 0.616266
O O13 0.396244 0.188044 0.873723
O O14 0.425290 0.553157 0.206557
O O15 0.643205 0.983635 0.453108
O O16 0.227455 0.567000 0.323421
#
# Coordination Sequence:
#
# PCOD8044372 Si02
#       8
#     2   2   2   2   2   2   2   2
#     4  10  21  36  64  83 115 147 201 230 284 331
#     4  12  22  36  57  93 112 149 194 242 275 340
#     4  10  19  38  59  88 108 154 192 241 272 341
#     4  11  20  37  59  87 115 150 193 239 280 335
#     4   9  23  36  54  84 126 149 179 237 302 332
#     4   9  18  35  55  81 119 150 180 230 296 331
#     4   8  19  37  55  84 115 154 177 238 288 340
#     4  11  19  32  60  88 113 143 195 237 279 331
#
# _framework density 21.876380999999999
#
# number of rings (size 3 to 8) (size 9 to 14) (size 15 to 20)
#    0.750    1.250    2.500    2.625    1.750    0.500 
#    0.000    5.000    0.000    0.000    0.000    0.000 
#    0.000    0.000    0.000    0.000    0.000    0.000 
#
# Total GULP energy -198286.176152 kJ/mol
# GULP energy per Si atom -12392.886010 kJ/mol
# Density = 2.182659 g / cm^3
# Si number density = 21.876381 Si / 1000 Ang^3
#
#
#
# Elastic Constant Matrix: (Units=GPa)
#
#
# Indices 1 2 3 4 5 6 
#
# 1 119.2817 68.4419 49.3302 -15.2296 -17.0975 -7.1175
# 2 68.4419 98.8063 23.5575 -26.0516 -6.9631 -10.1140
# 3 49.3302 23.5575 48.7548 -15.8594 -21.3719 -9.4017
# 4 -15.2296 -26.0516 -15.8594 24.0284 6.7235 -6.0012
# 5 -17.0975 -6.9631 -21.3719 6.7235 12.8081 -2.0268
# 6 -7.1175 -10.1140 -9.4017 -6.0012 -2.0268 34.9192
#
#
#
# Elastic Compliance Matrix: (Units=1/GPa)
#
#
# Indices 1 2 3 4 5 6 
#
# 1 0.047202 -0.035447 -0.110891 -0.060932 -0.116867 -0.047757
# 2 -0.035447 0.042673 0.083385 0.065255 0.087708 0.043891
# 3 -0.110891 0.083385 0.420296 0.195461 0.524297 0.178733
# 4 -0.060932 0.065255 0.195461 0.169896 0.206977 0.100319
# 5 -0.116867 0.087708 0.524297 0.206977 0.771256 0.223082
# 6 -0.047757 0.043891 0.178733 0.100319 0.223082 0.109927
#
#
# Mechanical properties :
#
#
# Convention : Reuss Voigt Hill
#
# Bulk Modulus (GPa) = 2.60238 61.05579 31.82909
# Shear Modulus (GPa) = 2.75445 22.71867 12.73656
#
# Velocity S-wave (km/s) = 1.12331 3.22608 2.41551
# Velocity P-wave (km/s) = 1.69547 6.46891 4.72871
#
# Compressibility (1/GPa) = 0.38426425
#
# Stress axis : x y z
#
# Youngs Moduli (GPa) = 21.18553 23.43393 2.37928
#
# Poissons Ratio (x) = 0.83067 0.26384
# Poissons Ratio (y) = 0.75097 -0.19839
# Poissons Ratio (z) = 2.34928 -1.95403
#
# Static dielectric constant tensor:
#      x y z
#    x 3.838860 -0.293010 -0.205420 
#    y -0.293010 4.037980 -0.121320 
#    z -0.205420 -0.121320 3.560730 
# 
# 
# High freq. dielectric constant tensor:
#      x y z
#    x 1.844840 -0.024860 -0.018570 
#    y -0.024860 1.868050 -0.008530 
#    z -0.018570 -0.008530 1.826980 
# 
# From -- ./inp_files/420006.got.cif
#   From: 2010.06.25/outbox.cif.g09.slc.cpg/sg2_211_cif.got.tgz:420006.got - 2010.06.27 13:26:56.
