data_PCOD8044608
_publ_section_title
;
Structure prediction by ZEFSAII (Michael W. Deem and Ramdas Pophale) SiO2 
 PCOD8044608
Probable space group: P -1
;
_chemical_formula_sum "Si O2"
_cell_formula_units_Z 16
_cell_length_a 9.275247
_cell_length_b 20.783178
_cell_length_c 11.803707
_cell_angle_alpha 43.433680
_cell_angle_beta 154.540939
_cell_angle_gamma 133.397015
_cell_volume 668.661673
_symmetry_space_group_name_H-M "P -1"
_symmetry_group_IT_number 2
_symmetry_cell_setting 'triclinic'
loop_
_space_group_symop_operation_xyz
x,y,z
-x,-y,-z
loop_
_atom_site_type_symbol
_atom_site_label
_atom_site_fract_x
_atom_site_fract_y
_atom_site_fract_z
Si Si1 0.848137 0.766412 0.369538
Si Si2 0.361836 0.463388 0.567834
Si Si3 0.393198 0.600574 0.830244
Si Si4 0.685616 0.734356 0.690288
Si Si5 0.752759 0.952613 0.482453
Si Si6 0.730097 0.967697 0.102341
Si Si7 0.516806 0.699004 0.004842
Si Si8 0.391109 0.666755 0.341969
O O1 0.692345 0.856324 0.196656
O O2 0.628448 0.675968 0.385797
O O3 0.232530 0.765727 0.682855
O O4 0.794106 0.761643 0.199850
O O5 0.500000 0.500000 0.500000
O O6 0.354034 0.561918 0.504099
O O7 0.982919 0.407583 0.372141
O O8 0.610299 0.395650 0.890982
O O9 0.396704 0.671571 0.635880
O O10 0.646543 0.653834 0.037232
O O11 0.500000 0.500000 0.000000
O O12 0.743332 0.841782 0.630770
O O13 0.572136 0.735381 0.477595
O O14 0.030294 0.690409 0.013906
O O15 0.000000 0.000000 0.500000
O O16 0.882776 0.996060 0.639864
O O17 0.379735 0.981299 0.155299
O O18 0.500000 0.000000 0.000000
#
# Coordination Sequence:
#
# PCOD8044608 Si02
#       8
#     2   2   2   2   2   2   2   2
#     4  12  24  43  72 106 146 185 241 306 369 434
#     4  12  26  47  70 104 146 191 248 298 354 430
#     4  12  27  49  72 106 152 199 247 298 359 432
#     4  12  26  41  70 106 144 190 235 302 368 432
#     4  10  19  38  63  99 139 172 230 295 360 420
#     4  10  20  38  65 101 139 175 225 303 368 423
#     4  12  26  46  69 102 141 200 243 294 363 438
#     4  12  24  40  67 102 144 187 238 292 367 420
#
# _framework density 23.928395999999999
#
# number of rings (size 3 to 8) (size 9 to 14) (size 15 to 20)
#    0.000    0.500    3.750    6.000    1.750    2.000 
#    0.000    0.000    0.000    4.500    0.000    0.000 
#    0.000    0.000    0.000    0.000    0.000    0.000 
#
# Total GULP energy -198256.941063 kJ/mol
# GULP energy per Si atom -12391.058816 kJ/mol
# Density = 2.387393 g / cm^3
# Si number density = 23.928396 Si / 1000 Ang^3
#
#
#
# Elastic Constant Matrix: (Units=GPa)
#
#
# Indices 1 2 3 4 5 6 
#
# 1 89.3511 20.3727 39.6920 6.1384 -7.4478 -5.8737
# 2 20.3727 113.1794 34.8737 -9.8522 -4.4331 -10.2543
# 3 39.6920 34.8737 156.7951 8.4877 -18.2164 -20.5099
# 4 6.1384 -9.8522 8.4877 48.6032 -10.2010 -5.0988
# 5 -7.4478 -4.4331 -18.2164 -10.2010 31.4944 6.5017
# 6 -5.8737 -10.2543 -20.5099 -5.0988 6.5017 41.0623
#
#
#
# Elastic Compliance Matrix: (Units=1/GPa)
#
#
# Indices 1 2 3 4 5 6 
#
# 1 0.012933 -0.001572 -0.002785 -0.001312 0.000849 -0.000231
# 2 -0.001572 0.010069 -0.001700 0.002847 0.000635 0.001693
# 3 -0.002785 -0.001700 0.008207 -0.000484 0.003131 0.002720
# 4 -0.001312 0.002847 -0.000484 0.023057 0.006854 0.002060
# 5 0.000849 0.000635 0.003131 0.006854 0.036716 -0.003119
# 6 -0.000231 0.001693 0.002720 0.002060 -0.003119 0.026851
#
#
# Mechanical properties :
#
#
# Convention : Reuss Voigt Hill
#
# Bulk Modulus (GPa) = 52.37215 61.02250 56.69732
# Shear Modulus (GPa) = 36.68073 41.85778 39.26926
#
# Velocity S-wave (km/s) = 3.91952 4.18699 4.05546
# Velocity P-wave (km/s) = 6.51292 6.99514 6.75833
#
# Compressibility (1/GPa) = 0.01909412
#
# Stress axis : x y z
#
# Youngs Moduli (GPa) = 77.32159 99.31950 121.85217
#
# Poissons Ratio (x) = 0.15610 0.33935
# Poissons Ratio (y) = 0.12153 0.20720
# Poissons Ratio (z) = 0.21533 0.16889
#
# Static dielectric constant tensor:
#      x y z
#    x 2.978480 1.551790 2.199630 
#    y 1.551790 1.705840 -3.995420 
#    z 2.199630 -3.995420 -0.593990 
# 
# 
# High freq. dielectric constant tensor:
#      x y z
#    x 1.918960 -0.028460 -0.020640 
#    y -0.028460 1.959910 -0.008690 
#    z -0.020640 -0.008690 1.962870 
# 
# From -- ./inp_files/404806.got.cif
#   From: 2010.06.25/outbox.cif.g09.slc.cpg/sg2_203_cif.got.tgz:404806.got - 2010.06.27 13:26:56.
