data_PCOD8044157
_publ_section_title
;
Structure prediction by ZEFSAII (Michael W. Deem and Ramdas Pophale) SiO2 
 PCOD8044157
Probable space group: P -1
;
_chemical_formula_sum "Si O2"
_cell_formula_units_Z 16
_cell_length_a 9.887873
_cell_length_b 10.866220
_cell_length_c 10.899175
_cell_angle_alpha 81.187607
_cell_angle_beta 107.968361
_cell_angle_gamma 142.038718
_cell_volume 677.054161
_symmetry_space_group_name_H-M "P -1"
_symmetry_group_IT_number 2
_symmetry_cell_setting 'triclinic'
loop_
_space_group_symop_operation_xyz
x,y,z
-x,-y,-z
loop_
_atom_site_type_symbol
_atom_site_label
_atom_site_fract_x
_atom_site_fract_y
_atom_site_fract_z
Si Si1 0.358997 0.276288 0.006217
Si Si2 0.577432 0.959225 0.313133
Si Si3 0.931826 0.900151 0.812063
Si Si4 0.212795 0.635574 0.629919
Si Si5 0.968754 0.296983 0.048600
Si Si6 0.386925 0.752232 0.052922
Si Si7 0.683362 0.900284 0.591164
Si Si8 0.090492 0.737635 0.241853
O O1 0.259755 0.196393 0.125721
O O2 0.500000 0.500000 0.000000
O O3 0.513813 0.258735 0.030669
O O4 0.159579 0.138996 0.867978
O O5 0.588497 0.909852 0.186872
O O6 0.676545 0.926322 0.441384
O O7 0.310451 0.798563 0.295876
O O8 0.726501 0.187554 0.325880
O O9 0.990675 0.794908 0.841860
O O10 0.810184 0.854497 0.656088
O O11 0.428830 0.726998 0.604349
O O12 0.000000 0.500000 0.500000
O O13 0.137350 0.494070 0.742318
O O14 0.176146 0.535482 0.094877
O O15 0.721534 0.190000 0.031304
O O16 0.961586 0.247818 0.911866
O O17 0.856207 0.113794 0.675003
#
# Coordination Sequence:
#
# PCOD8044157 Si02
#       8
#     2   2   2   2   2   2   2   2
#     4  11  23  45  68  94 134 180 230 277 328 401
#     4  10  21  41  59  97 138 167 221 284 330 395
#     4  11  25  42  66 101 135 174 230 274 332 401
#     4  11  19  37  65  98 128 181 234 267 333 400
#     4  10  22  45  66  99 136 175 221 279 335 401
#     4  10  23  44  69  94 135 179 219 283 341 388
#     4  11  22  36  63  96 137 173 218 282 332 392
#     4  10  19  37  64  94 132 169 226 284 320 390
#
# _framework density 23.631788
#
# number of rings (size 3 to 8) (size 9 to 14) (size 15 to 20)
#    0.000    1.500    3.750    2.250    1.750    0.500 
#    6.750    1.250    0.000    0.000    0.000    0.000 
#    0.000    0.000    0.000    0.000    0.000    0.000 
#
# Total GULP energy -198410.729988 kJ/mol
# GULP energy per Si atom -12400.670624 kJ/mol
# Density = 2.357800 g / cm^3
# Si number density = 23.631788 Si / 1000 Ang^3
#
#
#
# Elastic Constant Matrix: (Units=GPa)
#
#
# Indices 1 2 3 4 5 6 
#
# 1 124.2031 36.5427 41.5540 -6.1313 14.8454 -16.6851
# 2 36.5427 122.4311 37.6464 7.0102 10.0375 3.7455
# 3 41.5540 37.6464 107.3237 7.9054 38.7929 -25.0038
# 4 -6.1313 7.0102 7.9054 35.4874 -9.6613 2.4774
# 5 14.8454 10.0375 38.7929 -9.6613 35.6797 -2.3057
# 6 -16.6851 3.7455 -25.0038 2.4774 -2.3057 30.5615
#
#
#
# Elastic Compliance Matrix: (Units=1/GPa)
#
#
# Indices 1 2 3 4 5 6 
#
# 1 0.010236 -0.002593 -0.002332 0.002517 -0.000068 0.003789
# 2 -0.002593 0.010644 -0.006040 0.000482 0.004305 -0.007375
# 3 -0.002332 -0.006040 0.032285 -0.017832 -0.035669 0.024635
# 4 0.002517 0.000482 -0.017832 0.041244 0.028438 -0.014472
# 5 -0.000068 0.004305 -0.035669 0.028438 0.071603 -0.026650
# 6 0.003789 -0.007375 0.024635 -0.014472 -0.026650 0.055011
#
#
# Mechanical properties :
#
#
# Convention : Reuss Voigt Hill
#
# Bulk Modulus (GPa) = 32.01420 65.04934 48.53177
# Shear Modulus (GPa) = 19.73461 36.22671 27.98066
#
# Velocity S-wave (km/s) = 2.89292 3.91956 3.44470
# Velocity P-wave (km/s) = 4.97345 6.93324 6.03345
#
# Compressibility (1/GPa) = 0.03123614
#
# Stress axis : x y z
#
# Youngs Moduli (GPa) = 97.69824 93.95049 30.97450
#
# Poissons Ratio (x) = 0.24357 0.07223
# Poissons Ratio (y) = 0.25328 0.18707
# Poissons Ratio (z) = 0.22783 0.56741
#
# Static dielectric constant tensor:
#      x y z
#    x 4.215450 0.065680 0.170810 
#    y 0.065680 4.530940 0.174190 
#    z 0.170810 0.174190 4.254160 
# 
# 
# High freq. dielectric constant tensor:
#      x y z
#    x 1.919960 0.006660 0.017540 
#    y 0.006660 1.951880 0.009710 
#    z 0.017540 0.009710 1.927040 
# 
# From -- ./inp_files/428025.got.cif
#   From: 2010.06.25/outbox.cif.g09.slc.cpg/sg2_215_cif.got.tgz:428025.got - 2010.06.27 13:26:56.
