data_PCOD8044275
_publ_section_title
;
Structure prediction by ZEFSAII (Michael W. Deem and Ramdas Pophale) SiO2 
 PCOD8044275
Probable space group: P -1
;
_chemical_formula_sum "Si O2"
_cell_formula_units_Z 16
_cell_length_a 9.313353
_cell_length_b 20.099935
_cell_length_c 9.018624
_cell_angle_alpha 55.425361
_cell_angle_beta 107.388840
_cell_angle_gamma 60.764863
_cell_volume 725.101473
_symmetry_space_group_name_H-M "P -1"
_symmetry_group_IT_number 2
_symmetry_cell_setting 'triclinic'
loop_
_space_group_symop_operation_xyz
x,y,z
-x,-y,-z
loop_
_atom_site_type_symbol
_atom_site_label
_atom_site_fract_x
_atom_site_fract_y
_atom_site_fract_z
Si Si1 0.253998 0.269808 0.047009
Si Si2 0.131847 0.522433 0.067756
Si Si3 0.830997 0.347148 0.290295
Si Si4 0.659702 0.286950 0.696871
Si Si5 0.931329 0.321995 0.685378
Si Si6 0.135536 0.999886 0.342916
Si Si7 0.094181 0.842844 0.622139
Si Si8 0.368482 0.379006 0.782790
O O1 0.534831 0.141596 0.391560
O O2 0.237828 0.352904 0.823283
O O3 0.997943 0.392376 0.924780
O O4 0.211799 0.204938 0.019622
O O5 0.464272 0.361660 0.398486
O O6 0.068089 0.617855 0.804548
O O7 0.000000 0.500000 0.000000
O O8 0.971304 0.280114 0.580095
O O9 0.971285 0.207385 0.429218
O O10 0.500000 0.500000 0.000000
O O11 0.707534 0.361897 0.638826
O O12 0.526030 0.299337 0.776623
O O13 0.974207 0.109511 0.010659
O O14 0.844221 0.453798 0.506353
O O15 0.064043 0.083847 0.362548
O O16 0.028664 0.955738 0.374563
O O17 0.420770 0.690209 0.936944
#
# Coordination Sequence:
#
# PCOD8044275 Si02
#       8
#     2   2   2   2   2   2   2   2
#     4  11  25  42  69  99 134 178 226 274 335 395
#     4  12  27  43  67 105 136 170 225 291 335 384
#     4  12  24  42  69  98 139 176 222 285 334 396
#     4  11  23  40  69  98 129 175 227 271 329 402
#     4  12  23  38  66 102 129 174 222 277 335 386
#     4   9  22  43  71  95 133 183 220 274 324 415
#     4   9  19  41  68  95 129 178 232 259 337 399
#     4  10  19  37  67  96 129 167 221 282 321 389
#
# _framework density 22.065877
#
# number of rings (size 3 to 8) (size 9 to 14) (size 15 to 20)
#    0.000    1.250    3.750    2.250    7.000    0.500 
#    0.000    3.125    0.000    0.000    0.000    0.000 
#    0.000    0.000    0.000    0.000    0.000    0.000 
#
# Total GULP energy -198241.702138 kJ/mol
# GULP energy per Si atom -12390.106384 kJ/mol
# Density = 2.201565 g / cm^3
# Si number density = 22.065877 Si / 1000 Ang^3
#
#
#
# Elastic Constant Matrix: (Units=GPa)
#
#
# Indices 1 2 3 4 5 6 
#
# 1 126.9441 35.5929 32.3024 7.7104 -1.0959 12.9492
# 2 35.5929 78.6688 22.7150 6.6401 -10.2043 19.4516
# 3 32.3024 22.7150 111.8452 1.7047 8.8099 14.2251
# 4 7.7104 6.6401 1.7047 26.3851 -0.7265 0.7246
# 5 -1.0959 -10.2043 8.8099 -0.7265 24.5495 9.0378
# 6 12.9492 19.4516 14.2251 0.7246 9.0378 37.1753
#
#
#
# Elastic Compliance Matrix: (Units=1/GPa)
#
#
# Indices 1 2 3 4 5 6 
#
# 1 0.009510 -0.003432 -0.001923 -0.001774 -0.000098 -0.000723
# 2 -0.003432 0.019743 -0.002565 -0.003132 0.013026 -0.011259
# 3 -0.001923 -0.002565 0.010485 0.000429 -0.004572 -0.000897
# 4 -0.001774 -0.003132 0.000429 0.039110 -0.000953 0.001562
# 5 -0.000098 0.013026 -0.004572 -0.000953 0.054478 -0.018258
# 6 -0.000723 -0.011259 -0.000897 0.001562 -0.018258 0.037794
#
#
# Mechanical properties :
#
#
# Convention : Reuss Voigt Hill
#
# Bulk Modulus (GPa) = 41.84384 55.40876 48.62630
# Shear Modulus (GPa) = 25.65111 32.74517 29.19814
#
# Velocity S-wave (km/s) = 3.41321 3.85642 3.64156
# Velocity P-wave (km/s) = 5.87688 6.70779 6.30603
#
# Compressibility (1/GPa) = 0.02389838
#
# Stress axis : x y z
#
# Youngs Moduli (GPa) = 105.15731 50.65213 95.37585
#
# Poissons Ratio (x) = 0.17382 0.18339
# Poissons Ratio (y) = 0.36086 0.24462
# Poissons Ratio (z) = 0.20220 0.12991
#
# Static dielectric constant tensor:
#      x y z
#    x 4.012690 0.025730 -0.031610 
#    y 0.025730 3.726270 0.096180 
#    z -0.031610 0.096180 4.317190 
# 
# 
# High freq. dielectric constant tensor:
#      x y z
#    x 1.878410 0.009470 -0.003500 
#    y 0.009470 1.834360 0.010380 
#    z -0.003500 0.010380 1.872380 
# 
# From -- ./inp_files/223236.got.cif
#   From: 2010.06.25/outbox.cif.g09.slc.cpg/sg2_112_cif.got.tgz:223236.got - 2010.06.27 13:26:56.
