data_PCOD8044449
_publ_section_title
;
Structure prediction by ZEFSAII (Michael W. Deem and Ramdas Pophale) SiO2 
 PCOD8044449
Probable space group: P -1
;
_chemical_formula_sum "Si O2"
_cell_formula_units_Z 16
_cell_length_a 11.043783
_cell_length_b 10.762305
_cell_length_c 10.068434
_cell_angle_alpha 93.718259
_cell_angle_beta 62.934519
_cell_angle_gamma 125.956365
_cell_volume 827.927523
_symmetry_space_group_name_H-M "P -1"
_symmetry_group_IT_number 2
_symmetry_cell_setting 'triclinic'
loop_
_space_group_symop_operation_xyz
x,y,z
-x,-y,-z
loop_
_atom_site_type_symbol
_atom_site_label
_atom_site_fract_x
_atom_site_fract_y
_atom_site_fract_z
Si Si1 0.697159 0.151161 0.927440
Si Si2 0.875655 0.291044 0.391032
Si Si3 0.685824 0.547896 0.569280
Si Si4 0.528327 0.346393 0.371106
Si Si5 0.966237 0.126492 0.653763
Si Si6 0.818648 0.978510 0.446381
Si Si7 0.763399 0.377740 0.690430
Si Si8 0.187120 0.652977 0.867146
O O1 0.835931 0.126599 0.813000
O O2 0.701541 0.281428 0.850831
O O3 0.744958 0.199767 0.060358
O O4 0.500000 0.000000 0.000000
O O5 0.752911 0.265458 0.572347
O O6 0.811609 0.302130 0.282011
O O7 0.053427 0.457798 0.352894
O O8 0.879435 0.143812 0.364929
O O9 0.634402 0.462468 0.448198
O O10 0.574732 0.607408 0.657251
O O11 0.647726 0.427322 0.697870
O O12 0.893352 0.697061 0.468187
O O13 0.387750 0.164298 0.482988
O O14 0.669006 0.373532 0.199372
O O15 0.068464 0.072427 0.675254
O O16 0.848320 0.996705 0.590532
O O17 0.000000 0.500000 0.000000
#
# Coordination Sequence:
#
# PCOD8044449 Si02
#       8
#     2   2   2   2   2   2   2   2
#     4  12  25  40  59  90 129 162 194 246 313 366
#     4  11  21  38  65  92 116 157 213 250 288 360
#     4  10  19  38  65  88 120 153 205 255 293 350
#     4  10  22  36  58  97 122 152 197 256 305 341
#     4  10  19  38  61  87 119 161 195 246 306 352
#     4  10  20  35  64  92 114 147 212 259 285 341
#     4  11  20  39  64  91 116 159 212 244 295 358
#     4  12  24  40  59  89 129 163 195 240 312 372
#
# _framework density 19.325361999999998
#
# number of rings (size 3 to 8) (size 9 to 14) (size 15 to 20)
#    0.000    1.250    5.000    2.250    0.000    1.500 
#    0.000    2.500    0.000    0.000    0.000    0.000 
#    0.000    0.000    0.000    0.000    0.000    0.000 
#
# Total GULP energy -198301.881108 kJ/mol
# GULP energy per Si atom -12393.867569 kJ/mol
# Density = 1.928138 g / cm^3
# Si number density = 19.325362 Si / 1000 Ang^3
#
#
#
# Elastic Constant Matrix: (Units=GPa)
#
#
# Indices 1 2 3 4 5 6 
#
# 1 99.2407 40.3339 48.2054 2.2515 -16.5878 -12.5250
# 2 40.3339 103.9916 29.7343 0.5250 -11.6935 -6.8332
# 3 48.2054 29.7343 76.2359 8.9336 -16.0360 -4.1213
# 4 2.2515 0.5250 8.9336 28.8177 1.3185 4.4130
# 5 -16.5878 -11.6935 -16.0360 1.3185 40.6520 -1.5414
# 6 -12.5250 -6.8332 -4.1213 4.4130 -1.5414 35.3638
#
#
#
# Elastic Compliance Matrix: (Units=1/GPa)
#
#
# Indices 1 2 3 4 5 6 
#
# 1 0.016502 -0.003435 -0.008395 0.000609 0.002575 0.004239
# 2 -0.003435 0.011752 -0.002200 0.000566 0.001122 0.000776
# 3 -0.008395 -0.002200 0.020905 -0.005981 0.004381 -0.000025
# 4 0.000609 0.000566 -0.005981 0.037446 -0.003359 -0.005191
# 5 0.002575 0.001122 0.004381 -0.003359 0.027934 0.003276
# 6 0.004239 0.000776 -0.000025 -0.005191 0.003276 0.030716
#
#
# Mechanical properties :
#
#
# Convention : Reuss Voigt Hill
#
# Bulk Modulus (GPa) = 47.39777 57.33504 52.36641
# Shear Modulus (GPa) = 27.72414 31.71299 29.71857
#
# Velocity S-wave (km/s) = 3.79172 4.05533 3.92574
# Velocity P-wave (km/s) = 6.61430 7.18751 6.90685
#
# Compressibility (1/GPa) = 0.02109804
#
# Stress axis : x y z
#
# Youngs Moduli (GPa) = 60.59832 85.09361 47.83567
#
# Poissons Ratio (x) = 0.29230 0.40160
# Poissons Ratio (y) = 0.20815 0.10523
# Poissons Ratio (z) = 0.50875 0.18720
#
# Static dielectric constant tensor:
#      x y z
#    x 3.787090 -0.032510 -0.159410 
#    y -0.032510 3.725450 0.186550 
#    z -0.159410 0.186550 3.214590 
# 
# 
# High freq. dielectric constant tensor:
#      x y z
#    x 1.763290 0.003320 -0.004870 
#    y 0.003320 1.769990 0.011860 
#    z -0.004870 0.011860 1.714540 
# 
# From -- ./inp_files/262678.got.cif
#   From: 2010.06.25/outbox.cif.g09.slc.cpg/sg2_132_cif.got.tgz:262678.got - 2010.06.27 13:26:56.
