data_PCOD8044812
_publ_section_title
;
Structure prediction by ZEFSAII (Michael W. Deem and Ramdas Pophale) SiO2 
 PCOD8044812
Probable space group: P -1
;
_chemical_formula_sum "Si O2"
_cell_formula_units_Z 16
_cell_length_a 19.732052
_cell_length_b 5.215150
_cell_length_c 9.477587
_cell_angle_alpha 80.947395
_cell_angle_beta 140.411482
_cell_angle_gamma 109.244522
_cell_volume 579.173868
_symmetry_space_group_name_H-M "P -1"
_symmetry_group_IT_number 2
_symmetry_cell_setting 'triclinic'
loop_
_space_group_symop_operation_xyz
x,y,z
-x,-y,-z
loop_
_atom_site_type_symbol
_atom_site_label
_atom_site_fract_x
_atom_site_fract_y
_atom_site_fract_z
Si Si1 0.362500 0.508178 0.738313
Si Si2 0.405554 0.553739 0.100563
Si Si3 0.310597 0.023228 0.139929
Si Si4 0.259162 0.945125 0.501824
Si Si5 0.986596 0.647366 0.257398
Si Si6 0.176693 0.603925 0.740935
Si Si7 0.435566 0.909915 0.588869
Si Si8 0.110188 0.912088 0.019053
O O1 0.451283 0.569155 0.009157
O O2 0.284471 0.191344 0.633575
O O3 0.427152 0.624771 0.682269
O O4 0.275737 0.674874 0.621566
O O5 0.269171 0.459799 0.866416
O O6 0.415335 0.296893 0.232246
O O7 0.443564 0.846563 0.218179
O O8 0.384064 0.856736 0.352352
O O9 0.224074 0.090604 0.103635
O O10 0.236929 0.874078 0.903992
O O11 0.356559 0.054693 0.530342
O O12 0.138785 0.879979 0.233450
O O13 0.921511 0.608322 0.305627
O O14 0.977934 0.922521 0.146387
O O15 0.118621 0.691914 0.500372
O O16 0.936890 0.391779 0.095111
#
# Coordination Sequence:
#
# PCOD8044812 Si02
#       8
#     2   2   2   2   2   2   2   2
#     4  10  23  40  66  89 128 170 211 249 307 373
#     4  12  23  39  60  94 133 164 205 265 313 364
#     4  10  22  37  62  95 128 163 207 259 318 364
#     4   9  21  40  65  93 118 165 218 249 301 374
#     4  10  21  38  63  94 122 165 204 260 308 380
#     4  10  24  35  59  92 128 162 207 256 319 365
#     4   9  23  40  62  94 124 173 211 251 305 381
#     4  10  19  38  68  91 120 157 215 254 309 365
#
# _framework density 27.625557000000001
#
# number of rings (size 3 to 8) (size 9 to 14) (size 15 to 20)
#    0.750    1.250    1.250    1.500    5.250    3.500 
#    0.000    0.000    0.000    4.500    0.000    0.000 
#    0.000    0.000    0.000    0.000    0.000    0.000 
#
# Total GULP energy -198318.826998 kJ/mol
# GULP energy per Si atom -12394.926687 kJ/mol
# Density = 2.756268 g / cm^3
# Si number density = 27.625557 Si / 1000 Ang^3
#
#
#
# Elastic Constant Matrix: (Units=GPa)
#
#
# Indices 1 2 3 4 5 6 
#
# 1 33.2168 -3.4777 0.6864 5.9082 -6.6191 -3.4206
# 2 -3.4777 98.9278 18.3439 -18.9456 -25.3940 -19.4389
# 3 0.6864 18.3439 154.4292 -19.9429 -34.4335 1.2408
# 4 5.9082 -18.9456 -19.9429 49.5109 3.7336 -6.0611
# 5 -6.6191 -25.3940 -34.4335 3.7336 48.2651 12.8006
# 6 -3.4206 -19.4389 1.2408 -6.0611 12.8006 20.7772
#
#
#
# Elastic Compliance Matrix: (Units=1/GPa)
#
#
# Indices 1 2 3 4 5 6 
#
# 1 0.032285 0.002662 0.000348 -0.002632 0.005282 0.003763
# 2 0.002662 0.015442 -0.000170 0.006995 0.003987 0.014480
# 3 0.000348 -0.000170 0.008341 0.002227 0.006841 -0.004165
# 4 -0.002632 0.006995 0.002227 0.025863 -0.000811 0.014022
# 5 0.005282 0.003987 0.006841 -0.000811 0.032794 -0.016250
# 6 0.003763 0.014480 -0.004165 0.014022 -0.016250 0.076647
#
#
# Mechanical properties :
#
#
# Convention : Reuss Voigt Hill
#
# Bulk Modulus (GPa) = 16.19550 35.29766 25.74658
# Shear Modulus (GPa) = 24.23970 41.77870 33.00920
#
# Velocity S-wave (km/s) = 2.96537 3.89308 3.46045
# Velocity P-wave (km/s) = 4.19521 5.74569 5.03054
#
# Compressibility (1/GPa) = 0.06174555
#
# Stress axis : x y z
#
# Youngs Moduli (GPa) = 30.97438 64.76026 119.89645
#
# Poissons Ratio (x) = -0.17236 -0.04172
# Poissons Ratio (y) = -0.08244 0.02041
# Poissons Ratio (z) = -0.01078 0.01102
#
# Static dielectric constant tensor:
#      x y z
#    x 5.194270 0.215470 0.137690 
#    y 0.215470 4.410630 -0.318280 
#    z 0.137690 -0.318280 5.092650 
# 
# 
# High freq. dielectric constant tensor:
#      x y z
#    x 2.147170 0.003210 0.007110 
#    y 0.003210 2.090430 -0.025500 
#    z 0.007110 -0.025500 2.126830 
# 
# From -- ./inp_files/475896.got.cif
#   From: 2010.06.25/outbox.cif.g09.slc.cpg/sg2_238_cif.got.tgz:475896.got - 2010.06.27 13:26:56.
