data_PCOD8044424
_publ_section_title
;
Structure prediction by ZEFSAII (Michael W. Deem and Ramdas Pophale) SiO2 
 PCOD8044424
Probable space group: P -1
;
_chemical_formula_sum "Si O2"
_cell_formula_units_Z 16
_cell_length_a 12.888799
_cell_length_b 10.962361
_cell_length_c 14.026598
_cell_angle_alpha 31.843624
_cell_angle_beta 116.535822
_cell_angle_gamma 93.158581
_cell_volume 679.511893
_symmetry_space_group_name_H-M "P -1"
_symmetry_group_IT_number 2
_symmetry_cell_setting 'triclinic'
loop_
_space_group_symop_operation_xyz
x,y,z
-x,-y,-z
loop_
_atom_site_type_symbol
_atom_site_label
_atom_site_fract_x
_atom_site_fract_y
_atom_site_fract_z
Si Si1 0.827028 0.683981 0.929772
Si Si2 0.886706 0.611751 0.290408
Si Si3 0.401737 0.277007 0.855084
Si Si4 0.350330 0.806073 0.318435
Si Si5 0.631224 0.664381 0.450312
Si Si6 0.626654 0.264324 0.348154
Si Si7 0.302545 0.625160 0.888674
Si Si8 0.117813 0.321646 0.404084
O O1 0.713363 0.952241 0.783738
O O2 0.765150 0.882091 0.674467
O O3 0.813209 0.425586 0.096870
O O4 0.011514 0.494926 0.149754
O O5 0.783492 0.533994 0.334374
O O6 0.000000 0.500000 0.500000
O O7 0.001510 0.403486 0.386960
O O8 0.759435 0.986339 0.959115
O O9 0.411929 0.543567 0.695189
O O10 0.500000 0.000000 0.000000
O O11 0.503903 0.045323 0.141445
O O12 0.541246 0.598177 0.523967
O O13 0.334383 0.541366 0.497266
O O14 0.797832 0.544608 0.633793
O O15 0.688421 0.364886 0.228734
O O16 0.474584 0.335972 0.197481
O O17 0.245420 0.944912 0.696764
#
# Coordination Sequence:
#
# PCOD8044424 Si02
#       8
#     2   2   2   2   2   2   2   2
#     4  11  24  42  65 100 132 172 228 284 336 397
#     4  10  22  37  59  95 134 176 219 274 346 403
#     4  11  21  38  65  93 129 171 227 272 330 409
#     4   9  21  38  61  90 133 171 222 286 324 403
#     4  10  19  38  60  91 125 177 218 266 343 393
#     4  11  24  42  71  98 126 185 228 278 333 404
#     4  11  24  45  68  96 138 179 229 276 335 404
#     4  11  23  41  67  93 137 179 217 287 345 397
#
# _framework density 23.546313999999999
#
# number of rings (size 3 to 8) (size 9 to 14) (size 15 to 20)
#    0.000    1.500    1.250    4.500    1.750    3.500 
#    0.000    0.000    0.000    0.000    0.000    0.000 
#    0.000    0.000    0.000    0.000    0.000    0.000 
#
# Total GULP energy -198221.953785 kJ/mol
# GULP energy per Si atom -12388.872112 kJ/mol
# Density = 2.349272 g / cm^3
# Si number density = 23.546314 Si / 1000 Ang^3
#
#
#
# Elastic Constant Matrix: (Units=GPa)
#
#
# Indices 1 2 3 4 5 6 
#
# 1 101.5134 37.0032 28.7453 4.2948 21.9384 27.8433
# 2 37.0032 94.8246 24.5146 -5.5261 4.2897 21.4541
# 3 28.7453 24.5146 98.1010 15.9939 6.8766 11.5779
# 4 4.2948 -5.5261 15.9939 41.9883 10.3253 6.2996
# 5 21.9384 4.2897 6.8766 10.3253 30.2519 -1.4212
# 6 27.8433 21.4541 11.5779 6.2996 -1.4212 39.6383
#
#
#
# Elastic Compliance Matrix: (Units=1/GPa)
#
#
# Indices 1 2 3 4 5 6 
#
# 1 0.017409 -0.002738 -0.002807 0.003889 -0.013444 -0.011027
# 2 -0.002738 0.013825 -0.002610 0.004181 -0.001067 -0.005500
# 3 -0.002807 -0.002610 0.012340 -0.005202 0.001407 0.000657
# 4 0.003889 0.004181 -0.005202 0.030476 -0.013045 -0.008787
# 5 -0.013444 -0.001067 0.001407 -0.013045 0.047718 0.013394
# 6 -0.011027 -0.005500 0.000657 -0.008787 0.013394 0.037635
#
#
# Mechanical properties :
#
#
# Convention : Reuss Voigt Hill
#
# Bulk Modulus (GPa) = 36.67902 52.77390 44.72646
# Shear Modulus (GPa) = 27.05564 35.98742 31.52153
#
# Velocity S-wave (km/s) = 3.39343 3.91368 3.66280
# Velocity P-wave (km/s) = 5.56462 6.54858 6.07655
#
# Compressibility (1/GPa) = 0.02726354
#
# Stress axis : x y z
#
# Youngs Moduli (GPa) = 57.44049 72.33027 81.03551
#
# Poissons Ratio (x) = 0.19806 0.22748
# Poissons Ratio (y) = 0.15729 0.21153
# Poissons Ratio (z) = 0.16124 0.18881
#
# Static dielectric constant tensor:
#      x y z
#    x 5.474030 0.724400 -1.766700 
#    y 0.724400 4.679990 -0.839920 
#    z -1.766700 -0.839920 6.821580 
# 
# 
# High freq. dielectric constant tensor:
#      x y z
#    x 1.917910 0.002990 0.002130 
#    y 0.002990 1.934560 -0.001620 
#    z 0.002130 -0.001620 1.946030 
# 
# From -- ./inp_files/519511.got.cif
#   From: 2010.06.25/outbox.cif.g09.slc.cpg/sg2_260_cif.got.tgz:519511.got - 2010.06.27 13:26:56.
