data_PCOD8044498
_publ_section_title
;
Structure prediction by ZEFSAII (Michael W. Deem and Ramdas Pophale) SiO2 
 PCOD8044498
Probable space group: P -1
;
_chemical_formula_sum "Si O2"
_cell_formula_units_Z 16
_cell_length_a 11.519896
_cell_length_b 15.523978
_cell_length_c 11.363511
_cell_angle_alpha 39.507899
_cell_angle_beta 39.966415
_cell_angle_gamma 64.180328
_cell_volume 767.735655
_symmetry_space_group_name_H-M "P -1"
_symmetry_group_IT_number 2
_symmetry_cell_setting 'triclinic'
loop_
_space_group_symop_operation_xyz
x,y,z
-x,-y,-z
loop_
_atom_site_type_symbol
_atom_site_label
_atom_site_fract_x
_atom_site_fract_y
_atom_site_fract_z
Si Si1 0.466200 0.944915 0.716370
Si Si2 0.541742 0.764632 0.518161
Si Si3 0.425139 0.795906 0.337823
Si Si4 0.458875 0.593815 0.330861
Si Si5 0.242441 0.664589 0.068777
Si Si6 0.814183 0.598459 0.449227
Si Si7 0.191774 0.969238 0.278619
Si Si8 0.230944 0.144273 0.289819
O O1 0.661855 0.940758 0.628124
O O2 0.500000 0.000000 0.500000
O O3 0.393583 0.058173 0.721972
O O4 0.309111 0.778436 0.007205
O O5 0.425536 0.698974 0.555084
O O6 0.730136 0.721144 0.422323
O O7 0.401499 0.697741 0.807602
O O8 0.401797 0.714944 0.315882
O O9 0.240258 0.842352 0.440476
O O10 0.627865 0.939638 0.041982
O O11 0.500000 0.500000 0.500000
O O12 0.283105 0.487374 0.502155
O O13 0.639618 0.681195 0.009426
O O14 0.213061 0.505702 0.307355
O O15 0.044153 0.673762 0.162031
O O16 0.986119 0.892462 0.447693
O O17 0.180445 0.085986 0.258354
#
# Coordination Sequence:
#
# PCOD8044498 Si02
#       8
#     2   2   2   2   2   2   2   2
#     4  10  21  39  64  93 122 160 212 266 308 371
#     4  11  22  40  67  92 129 161 212 268 316 376
#     4  10  20  37  59  92 129 155 201 262 317 383
#     4  11  22  39  61  89 125 167 210 260 315 377
#     4  10  24  43  66  90 125 174 217 258 318 372
#     4  11  23  44  65  90 129 173 213 262 313 381
#     4   9  20  35  60  91 117 161 199 254 328 369
#     4  10  19  38  62  84 126 161 206 261 316 372
#
# _framework density 20.840506999999999
#
# number of rings (size 3 to 8) (size 9 to 14) (size 15 to 20)
#    0.000    1.750    3.750    0.375    0.000    3.500 
#    2.250    5.000    0.000    0.000    0.000    0.000 
#    0.000    0.000    0.000    0.000    0.000    0.000 
#
# Total GULP energy -198266.688040 kJ/mol
# GULP energy per Si atom -12391.668002 kJ/mol
# Density = 2.079307 g / cm^3
# Si number density = 20.840507 Si / 1000 Ang^3
#
#
#
# Elastic Constant Matrix: (Units=GPa)
#
#
# Indices 1 2 3 4 5 6 
#
# 1 125.2913 45.7380 33.5033 3.6597 -15.7900 -18.8385
# 2 45.7380 94.1025 29.0348 1.4104 -15.6514 -21.3526
# 3 33.5033 29.0348 41.1459 -4.9985 -8.7662 -9.6370
# 4 3.6597 1.4104 -4.9985 21.1377 -0.8268 5.4590
# 5 -15.7900 -15.6514 -8.7662 -0.8268 40.2846 0.1880
# 6 -18.8385 -21.3526 -9.6370 5.4590 0.1880 42.3519
#
#
#
# Elastic Compliance Matrix: (Units=1/GPa)
#
#
# Indices 1 2 3 4 5 6 
#
# 1 0.011561 -0.002375 -0.007165 -0.004196 0.001950 0.002847
# 2 -0.002375 0.016157 -0.007828 -0.003875 0.003536 0.005792
# 3 -0.007165 -0.007828 0.037506 0.010729 0.002532 0.000007
# 4 -0.004196 -0.003875 0.010729 0.052963 0.000310 -0.008207
# 5 0.001950 0.003536 0.002532 0.000310 0.027505 0.003064
# 6 0.002847 0.005792 0.000007 -0.008207 0.003064 0.028844
#
#
# Mechanical properties :
#
#
# Convention : Reuss Voigt Hill
#
# Bulk Modulus (GPa) = 32.80024 53.01020 42.90522
# Shear Modulus (GPa) = 22.78589 30.90574 26.84582
#
# Velocity S-wave (km/s) = 3.31017 3.85511 3.59298
# Velocity P-wave (km/s) = 5.51203 6.73106 6.15181
#
# Compressibility (1/GPa) = 0.03048758
#
# Stress axis : x y z
#
# Youngs Moduli (GPa) = 86.49970 61.89294 26.66229
#
# Poissons Ratio (x) = 0.14701 0.19103
# Poissons Ratio (y) = 0.20545 0.20871
# Poissons Ratio (z) = 0.61976 0.48450
#
# Static dielectric constant tensor:
#      x y z
#    x 3.943700 0.052690 -0.155590 
#    y 0.052690 4.056100 -0.293680 
#    z -0.155590 -0.293680 4.037100 
# 
# 
# High freq. dielectric constant tensor:
#      x y z
#    x 1.824020 -0.005190 0.007690 
#    y -0.005190 1.809760 -0.008060 
#    z 0.007690 -0.008060 1.801250 
# 
# From -- ./inp_files/433703.got.cif
#   From: 2010.06.25/outbox.cif.g09.slc.cpg/sg2_217_cif.got.tgz:433703.got - 2010.06.27 13:26:56.
