data_PCOD8044141
_publ_section_title
;
Structure prediction by ZEFSAII (Michael W. Deem and Ramdas Pophale) SiO2 
 PCOD8044141
Probable space group: P -1
;
_chemical_formula_sum "Si O2"
_cell_formula_units_Z 16
_cell_length_a 15.969368
_cell_length_b 11.545047
_cell_length_c 14.691243
_cell_angle_alpha 30.888592
_cell_angle_beta 34.747265
_cell_angle_gamma 54.386243
_cell_volume 719.334820
_symmetry_space_group_name_H-M "P -1"
_symmetry_group_IT_number 2
_symmetry_cell_setting 'triclinic'
loop_
_space_group_symop_operation_xyz
x,y,z
-x,-y,-z
loop_
_atom_site_type_symbol
_atom_site_label
_atom_site_fract_x
_atom_site_fract_y
_atom_site_fract_z
Si Si1 0.738014 0.638001 0.603824
Si Si2 0.709790 0.439378 0.150574
Si Si3 0.631186 0.861546 0.405154
Si Si4 0.912375 0.942795 0.711022
Si Si5 0.047942 0.723307 0.875397
Si Si6 0.240349 0.566640 0.093597
Si Si7 0.125351 0.702205 0.369582
Si Si8 0.910896 0.943408 0.976418
O O1 0.602186 0.713335 0.627995
O O2 0.687912 0.549786 0.812604
O O3 0.751254 0.420732 0.676342
O O4 0.903437 0.884804 0.283652
O O5 0.517208 0.285518 0.430588
O O6 0.786734 0.247695 0.242485
O O7 0.763665 0.669867 0.017736
O O8 0.766925 0.546941 0.924284
O O9 0.795670 0.851613 0.228057
O O10 0.649684 0.140118 0.214943
O O11 0.047451 0.954023 0.659395
O O12 0.847367 0.149400 0.658272
O O13 0.000000 0.000000 0.500000
O O14 0.914881 0.697801 0.089611
O O15 0.000000 0.500000 0.000000
O O16 0.058734 0.512837 0.326267
O O17 0.165150 0.909483 0.116536
#
# Coordination Sequence:
#
# PCOD8044141 Si02
#       8
#     2   2   2   2   2   2   2   2
#     4  11  22  37  64  94 120 172 212 248 309 361
#     4  11  24  41  59  96 128 162 204 260 319 365
#     4  12  24  38  60  98 133 160 203 255 323 374
#     4  10  20  40  66  87 118 161 214 258 297 372
#     4   9  21  39  63  89 115 163 214 247 304 369
#     4  11  21  40  62  89 131 161 205 264 299 369
#     4  10  19  38  65  90 116 159 223 254 295 360
#     4  10  19  37  64  91 124 161 211 257 297 377
#
# _framework density 22.242771000000001
#
# number of rings (size 3 to 8) (size 9 to 14) (size 15 to 20)
#    0.000    1.500    3.750    2.250    1.750    0.500 
#    2.250    6.250    0.000    0.000    0.000    0.000 
#    0.000    0.000    0.000    0.000    0.000    0.000 
#
# Total GULP energy -198257.410998 kJ/mol
# GULP energy per Si atom -12391.088187 kJ/mol
# Density = 2.219215 g / cm^3
# Si number density = 22.242771 Si / 1000 Ang^3
#
#
#
# Elastic Constant Matrix: (Units=GPa)
#
#
# Indices 1 2 3 4 5 6 
#
# 1 135.1852 36.0113 40.3226 -8.2017 7.8370 -3.4051
# 2 36.0113 83.2262 7.2503 -23.1309 6.2144 13.1870
# 3 40.3226 7.2503 64.8754 -12.9792 4.0990 -4.3645
# 4 -8.2017 -23.1309 -12.9792 22.1439 7.2961 1.2865
# 5 7.8370 6.2144 4.0990 7.2961 25.8044 0.2248
# 6 -3.4051 13.1870 -4.3645 1.2865 0.2248 34.1324
#
#
#
# Elastic Compliance Matrix: (Units=1/GPa)
#
#
# Indices 1 2 3 4 5 6 
#
# 1 0.011067 -0.007266 -0.007769 -0.008931 0.002120 0.003240
# 2 -0.007266 0.028121 0.009319 0.038360 -0.016790 -0.011733
# 3 -0.007769 0.009319 0.024768 0.025084 -0.010894 -0.002082
# 4 -0.008931 0.038360 0.025084 0.111369 -0.041857 -0.016426
# 5 0.002120 -0.016790 -0.010894 -0.041857 0.055661 0.006516
# 6 0.003240 -0.011733 -0.002082 -0.016426 0.006516 0.034464
#
#
# Mechanical properties :
#
#
# Convention : Reuss Voigt Hill
#
# Bulk Modulus (GPa) = 19.03861 50.05059 34.54460
# Shear Modulus (GPa) = 16.98418 29.72964 23.35691
#
# Velocity S-wave (km/s) = 2.76630 3.65992 3.24402
# Velocity P-wave (km/s) = 4.33373 6.35695 5.44022
#
# Compressibility (1/GPa) = 0.05252485
#
# Stress axis : x y z
#
# Youngs Moduli (GPa) = 90.35863 35.56005 40.37416
#
# Poissons Ratio (x) = 0.25837 0.31368
# Poissons Ratio (y) = 0.65652 -0.37625
# Poissons Ratio (z) = 0.70202 -0.33138
#
# Static dielectric constant tensor:
#      x y z
#    x 4.407340 0.145940 0.189990 
#    y 0.145940 4.331970 -0.374800 
#    z 0.189990 -0.374800 3.861260 
# 
# 
# High freq. dielectric constant tensor:
#      x y z
#    x 1.878820 0.013900 0.019520 
#    y 0.013900 1.881520 -0.016410 
#    z 0.019520 -0.016410 1.845870 
# 
# From -- ./inp_files/398100.got.cif
#   From: 2010.06.25/outbox.cif.g09.slc.cpg/sg2_200_cif.got.tgz:398100.got - 2010.06.27 13:26:56.
