data_PCOD8044755
_publ_section_title
;
Structure prediction by ZEFSAII (Michael W. Deem and Ramdas Pophale) SiO2 
 PCOD8044755
Probable space group: P -1
;
_chemical_formula_sum "Si O2"
_cell_formula_units_Z 16
_cell_length_a 6.633738
_cell_length_b 16.694097
_cell_length_c 9.716020
_cell_angle_alpha 58.220274
_cell_angle_beta 50.747612
_cell_angle_gamma 65.451661
_cell_volume 702.749488
_symmetry_space_group_name_H-M "P -1"
_symmetry_group_IT_number 2
_symmetry_cell_setting 'triclinic'
loop_
_space_group_symop_operation_xyz
x,y,z
-x,-y,-z
loop_
_atom_site_type_symbol
_atom_site_label
_atom_site_fract_x
_atom_site_fract_y
_atom_site_fract_z
Si Si1 0.759464 0.312768 0.526953
Si Si2 0.172797 0.584445 0.326390
Si Si3 0.369820 0.208066 0.934573
Si Si4 0.414556 0.845855 0.826703
Si Si5 0.826934 0.318567 0.042051
Si Si6 0.280579 0.535169 0.820799
Si Si7 0.014558 0.126516 0.461409
Si Si8 0.955096 0.945495 0.786058
O O1 0.881187 0.340210 0.594491
O O2 0.496240 0.262880 0.708204
O O3 0.705724 0.409713 0.378021
O O4 0.948059 0.236970 0.426527
O O5 0.486009 0.551050 0.209760
O O6 0.000000 0.500000 0.500000
O O7 0.079512 0.636337 0.179488
O O8 0.572679 0.193626 0.986923
O O9 0.300360 0.103524 0.013108
O O10 0.094163 0.269171 0.043551
O O11 0.376950 0.756505 0.827330
O O12 0.671917 0.894576 0.638261
O O13 0.169352 0.926519 0.832409
O O14 0.668172 0.396827 0.136657
O O15 0.000000 0.500000 0.000000
O O16 0.930392 0.102181 0.365102
O O17 0.886340 0.058736 0.687758
#
# Coordination Sequence:
#
# PCOD8044755 Si02
#       8
#     2   2   2   2   2   2   2   2
#     4  12  24  42  64  96 133 171 210 278 343 380
#     4  12  26  43  64  96 135 168 221 284 340 396
#     4  10  21  41  65  92 137 168 212 271 328 393
#     4  10  19  38  66  92 127 173 215 266 314 396
#     4  11  23  42  68  92 123 178 223 261 326 396
#     4  12  26  43  69  95 129 176 229 280 329 399
#     4  10  22  38  66  98 134 168 220 268 319 399
#     4   9  20  41  65  98 129 176 216 263 322 388
#
# _framework density 22.767713000000001
#
# number of rings (size 3 to 8) (size 9 to 14) (size 15 to 20)
#    0.000    1.250    1.250    5.625    3.500    0.500 
#    2.250    0.625    0.000    0.000    0.000    0.000 
#    0.000    0.000    0.000    0.000    0.000    0.000 
#
# Total GULP energy -198367.778470 kJ/mol
# GULP energy per Si atom -12397.986154 kJ/mol
# Density = 2.271589 g / cm^3
# Si number density = 22.767713 Si / 1000 Ang^3
#
#
#
# Elastic Constant Matrix: (Units=GPa)
#
#
# Indices 1 2 3 4 5 6 
#
# 1 108.9747 5.7456 27.4027 -5.1465 3.7108 -5.4173
# 2 5.7456 44.2541 2.7426 -12.4744 5.4389 3.0852
# 3 27.4027 2.7426 117.8725 -25.0022 -6.1292 3.4651
# 4 -5.1465 -12.4744 -25.0022 36.7858 5.4299 2.2349
# 5 3.7108 5.4389 -6.1292 5.4299 45.6868 -7.5555
# 6 -5.4173 3.0852 3.4651 2.2349 -7.5555 26.9268
#
#
#
# Elastic Compliance Matrix: (Units=1/GPa)
#
#
# Indices 1 2 3 4 5 6 
#
# 1 0.010001 -0.001525 -0.002590 -0.000961 -0.000455 0.002472
# 2 -0.001525 0.026957 0.002069 0.011466 -0.005174 -0.006065
# 3 -0.002590 0.002069 0.010782 0.007835 0.000018 -0.002791
# 4 -0.000961 0.011466 0.007835 0.037578 -0.005908 -0.007292
# 5 -0.000455 -0.005174 0.000018 -0.005908 0.024548 0.007877
# 6 0.002472 -0.006065 -0.002791 -0.007292 0.007877 0.041505
#
#
# Mechanical properties :
#
#
# Convention : Reuss Voigt Hill
#
# Bulk Modulus (GPa) = 22.91037 38.09813 30.50425
# Shear Modulus (GPa) = 29.40924 37.56057 33.48491
#
# Velocity S-wave (km/s) = 3.59793 4.06609 3.83916
# Velocity P-wave (km/s) = 5.22921 6.23008 5.75146
#
# Compressibility (1/GPa) = 0.04364835
#
# Stress axis : x y z
#
# Youngs Moduli (GPa) = 99.98911 37.09546 92.74312
#
# Poissons Ratio (x) = 0.05658 0.24018
# Poissons Ratio (y) = 0.15252 -0.19187
# Poissons Ratio (z) = 0.25895 -0.07674
#
# Static dielectric constant tensor:
#      x y z
#    x 4.067490 0.115740 0.031060 
#    y 0.115740 4.018090 -0.367450 
#    z 0.031060 -0.367450 4.167320 
# 
# 
# High freq. dielectric constant tensor:
#      x y z
#    x 1.896100 0.009440 0.002210 
#    y 0.009440 1.886640 -0.029850 
#    z 0.002210 -0.029850 1.907080 
# 
# From -- ./inp_files/138675.got.cif
#   From: 2010.06.25/outbox.cif.g09.slc.cpg/sg2_70_cif.got.tgz:138675.got - 2010.06.27 13:26:56.
