data_PCOD8044184
_publ_section_title
;
Structure prediction by ZEFSAII (Michael W. Deem and Ramdas Pophale) SiO2 
 PCOD8044184
Probable space group: P -1
;
_chemical_formula_sum "Si O2"
_cell_formula_units_Z 16
_cell_length_a 9.337180
_cell_length_b 11.580637
_cell_length_c 10.129276
_cell_angle_alpha 53.075972
_cell_angle_beta 103.266683
_cell_angle_gamma 114.958609
_cell_volume 793.399495
_symmetry_space_group_name_H-M "P -1"
_symmetry_group_IT_number 2
_symmetry_cell_setting 'triclinic'
loop_
_space_group_symop_operation_xyz
x,y,z
-x,-y,-z
loop_
_atom_site_type_symbol
_atom_site_label
_atom_site_fract_x
_atom_site_fract_y
_atom_site_fract_z
Si Si1 0.741176 0.632469 0.279445
Si Si2 0.175700 0.262819 0.495174
Si Si3 0.375892 0.069327 0.578872
Si Si4 0.158213 0.084467 0.057924
Si Si5 0.693563 0.305703 0.530659
Si Si6 0.158356 0.903536 0.419416
Si Si7 0.606605 0.396456 0.732373
Si Si8 0.502617 0.906015 0.937113
O O1 0.844686 0.728043 0.357229
O O2 0.773044 0.475655 0.366265
O O3 0.562511 0.586091 0.329652
O O4 0.787151 0.731111 0.086738
O O5 0.253463 0.137473 0.568329
O O6 0.263748 0.431867 0.331224
O O7 0.993850 0.188600 0.458572
O O8 0.534013 0.214047 0.479443
O O9 0.309650 0.977847 0.493284
O O10 0.415114 0.952975 0.766434
O O11 0.310283 0.042770 0.081869
O O12 0.126564 0.040824 0.235773
O O13 0.000000 0.000000 0.000000
O O14 0.812970 0.215631 0.597994
O O15 0.652065 0.319408 0.665864
O O16 0.590299 0.278819 0.931728
O O17 0.500000 0.000000 0.000000
#
# Coordination Sequence:
#
# PCOD8044184 Si02
#       8
#     2   2   2   2   2   2   2   2
#     4  10  19  37  66  87 115 152 205 247 288 349
#     4  11  21  40  61  86 119 158 200 245 296 352
#     4  12  22  41  62  85 122 163 202 233 291 373
#     4  11  22  39  58  91 124 150 193 252 298 343
#     4  11  20  38  61  90 117 155 200 245 292 349
#     4  12  26  38  57  93 126 158 190 244 310 351
#     4  10  19  37  65  89 112 152 206 249 287 343
#     4  11  21  38  63  90 113 155 207 244 283 349
#
# _framework density 20.166384999999998
#
# number of rings (size 3 to 8) (size 9 to 14) (size 15 to 20)
#    0.000    1.000    6.250    2.250    0.000    2.000 
#    2.250    2.500    0.000    0.000    0.000    0.000 
#    0.000    0.000    0.000    0.000    0.000    0.000 
#
# Total GULP energy -198298.435119 kJ/mol
# GULP energy per Si atom -12393.652195 kJ/mol
# Density = 2.012049 g / cm^3
# Si number density = 20.166385 Si / 1000 Ang^3
#
#
#
# Elastic Constant Matrix: (Units=GPa)
#
#
# Indices 1 2 3 4 5 6 
#
# 1 83.3607 26.4552 21.3316 -11.1866 -0.2341 6.1225
# 2 26.4552 71.5915 48.4470 -15.2278 -5.0002 -3.6567
# 3 21.3316 48.4470 118.5785 -15.6563 5.7952 0.2348
# 4 -11.1866 -15.2278 -15.6563 32.8866 5.6164 2.6486
# 5 -0.2341 -5.0002 5.7952 5.6164 18.3341 -9.7908
# 6 6.1225 -3.6567 0.2348 2.6486 -9.7908 29.1661
#
#
#
# Elastic Compliance Matrix: (Units=1/GPa)
#
#
# Indices 1 2 3 4 5 6 
#
# 1 0.014645 -0.005624 0.000525 0.004171 -0.006108 -0.006213
# 2 -0.005624 0.024086 -0.009262 0.001835 0.013472 0.008631
# 3 0.000525 -0.009262 0.013272 0.004536 -0.011039 -0.005496
# 4 0.004171 0.001835 0.004536 0.038791 -0.018287 -0.010344
# 5 -0.006108 0.013472 -0.011039 -0.018287 0.084987 0.033250
# 6 -0.006213 0.008631 -0.005496 -0.010344 0.033250 0.048818
#
#
# Mechanical properties :
#
#
# Convention : Reuss Voigt Hill
#
# Bulk Modulus (GPa) = 42.95328 51.77760 47.36544
# Shear Modulus (GPa) = 19.15090 27.89715 23.52403
#
# Velocity S-wave (km/s) = 3.08497 3.72338 3.41911
# Velocity P-wave (km/s) = 5.83396 6.64948 6.25503
#
# Compressibility (1/GPa) = 0.02328111
#
# Stress axis : x y z
#
# Youngs Moduli (GPa) = 68.28073 41.51760 75.34393
#
# Poissons Ratio (x) = 0.23348 -0.03952
# Poissons Ratio (y) = 0.38398 0.69786
# Poissons Ratio (z) = -0.03581 0.38455
#
# Static dielectric constant tensor:
#      x y z
#    x 3.707390 0.082380 0.031950 
#    y 0.082380 3.712250 -0.439260 
#    z 0.031950 -0.439260 3.797190 
# 
# 
# High freq. dielectric constant tensor:
#      x y z
#    x 1.794420 0.009400 0.003690 
#    y 0.009400 1.776380 -0.031280 
#    z 0.003690 -0.031280 1.773710 
# 
# From -- ./inp_files/185255.got.cif
#   From: 2010.06.25/outbox.cif.g09.slc.cpg/sg2_93_cif.got.tgz:185255.got - 2010.06.27 13:26:56.
