data_PCOD8044526
_publ_section_title
;
Structure prediction by ZEFSAII (Michael W. Deem and Ramdas Pophale) SiO2 
 PCOD8044526
Probable space group: P -1
;
_chemical_formula_sum "Si O2"
_cell_formula_units_Z 14
_cell_length_a 8.435568
_cell_length_b 11.143870
_cell_length_c 16.383154
_cell_angle_alpha 30.131726
_cell_angle_beta 71.859716
_cell_angle_gamma 62.392726
_cell_volume 671.097269
_symmetry_space_group_name_H-M "P -1"
_symmetry_group_IT_number 2
_symmetry_cell_setting 'triclinic'
loop_
_space_group_symop_operation_xyz
x,y,z
-x,-y,-z
loop_
_atom_site_type_symbol
_atom_site_label
_atom_site_fract_x
_atom_site_fract_y
_atom_site_fract_z
Si Si1 0.911498 0.789077 0.511833
Si Si2 0.822484 0.033694 0.212395
Si Si3 0.455487 0.168571 0.274615
Si Si4 0.929040 0.504491 0.918664
Si Si5 0.205201 0.500246 0.743537
Si Si6 0.068039 0.210360 0.830838
Si Si7 0.563870 0.253435 0.370264
O O1 0.101022 0.744332 0.554629
O O2 0.899813 0.501916 0.686394
O O3 0.929775 0.863630 0.372189
O O4 0.748823 0.010496 0.455558
O O5 0.606915 0.178930 0.181649
O O6 0.850403 0.853258 0.235303
O O7 0.906029 0.241126 0.055823
O O8 0.265935 0.255275 0.206536
O O9 0.440863 0.350714 0.250568
O O10 0.524655 0.867935 0.475080
O O11 0.080513 0.538495 0.819842
O O12 0.000000 0.500000 0.000000
O O13 0.228554 0.229874 0.852425
O O14 0.394920 0.510491 0.736232
O O15 0.000000 0.000000 0.000000
#
# Coordination Sequence:
#
# PCOD8044526 Si02
#       7
#     2   2   2   2   2   2   2
#     4   9  19  33  62  85 115 154 203 247 277 349
#     4  11  21  37  56  91 120 160 197 240 306 351
#     4  10  22  36  58  89 125 155 188 252 308 356
#     4  12  23  36  61  92 119 152 201 252 300 351
#     4  10  21  36  63  84 118 153 209 244 285 348
#     4  10  20  37  58  87 122 162 203 241 289 356
#     4  10  19  38  62  91 115 156 200 249 303 341
#
# _framework density 20.861357000000002
#
# number of rings (size 3 to 8) (size 9 to 14) (size 15 to 20)
#    0.857    0.857    2.857    3.000    2.000    0.000 
#    0.000    0.714    0.000    8.571    0.000    0.000 
#    0.000    0.000    0.000    0.000    0.000    0.000 
#
# Total GULP energy -173438.515104 kJ/mol
# GULP energy per Si atom -12388.465365 kJ/mol
# Density = 2.081388 g / cm^3
# Si number density = 20.861357 Si / 1000 Ang^3
#
#
#
# Elastic Constant Matrix: (Units=GPa)
#
#
# Indices 1 2 3 4 5 6 
#
# 1 76.5968 20.8174 12.4107 11.4907 -8.6403 32.8436
# 2 20.8174 95.7276 13.0285 13.8091 0.7386 27.1886
# 3 12.4107 13.0285 67.7232 5.7208 -3.4905 9.9457
# 4 11.4907 13.8091 5.7208 34.0289 10.4626 0.2048
# 5 -8.6403 0.7386 -3.4905 10.4626 37.5747 -1.1748
# 6 32.8436 27.1886 9.9457 0.2048 -1.1748 31.5188
#
#
#
# Elastic Compliance Matrix: (Units=1/GPa)
#
#
# Indices 1 2 3 4 5 6 
#
# 1 0.030578 0.005863 0.000494 -0.015700 0.010190 -0.036595
# 2 0.005863 0.016143 -0.000344 -0.009264 0.002961 -0.019755
# 3 0.000494 -0.000344 0.015905 -0.003404 0.002385 -0.005126
# 4 -0.015700 -0.009264 -0.003404 0.043512 -0.015092 0.024581
# 5 0.010190 0.002961 0.002385 -0.015092 0.032928 -0.012599
# 6 -0.036595 -0.019755 -0.005126 0.024581 -0.012599 0.087890
#
#
# Mechanical properties :
#
#
# Convention : Reuss Voigt Hill
#
# Bulk Modulus (GPa) = 13.39536 36.95122 25.17329
# Shear Modulus (GPa) = 20.84959 33.54388 27.19674
#
# Velocity S-wave (km/s) = 3.16482 4.01427 3.61458
# Velocity P-wave (km/s) = 4.44857 6.26394 5.43262
#
# Compressibility (1/GPa) = 0.07465272
#
# Stress axis : x y z
#
# Youngs Moduli (GPa) = 32.70327 61.94810 62.87401
#
# Poissons Ratio (x) = -0.36320 -0.03107
# Poissons Ratio (y) = -0.19174 0.02160
# Poissons Ratio (z) = -0.01616 0.02128
#
# Static dielectric constant tensor:
#      x y z
#    x 3.773050 0.347650 -0.051960 
#    y 0.347650 3.709350 0.198570 
#    z -0.051960 0.198570 3.801850 
# 
# 
# High freq. dielectric constant tensor:
#      x y z
#    x 1.803430 0.025360 -0.009200 
#    y 0.025360 1.802500 0.022660 
#    z -0.009200 0.022660 1.816570 
# 
# From -- ./inp_files/494236.got.cif
#   From: 2010.06.25/outbox.cif.g09.slc.cpg/sg2_248_cif.got.tgz:494236.got - 2010.06.27 13:26:56.
