data_PCOD8044033
_publ_section_title
;
Structure prediction by ZEFSAII (Michael W. Deem and Ramdas Pophale) SiO2 
 PCOD8044033
Probable space group: P -1
;
_chemical_formula_sum "Si O2"
_cell_formula_units_Z 16
_cell_length_a 23.519834
_cell_length_b 13.703894
_cell_length_c 8.861411
_cell_angle_alpha 134.604298
_cell_angle_beta 139.336546
_cell_angle_gamma 24.350280
_cell_volume 766.702234
_symmetry_space_group_name_H-M "P -1"
_symmetry_group_IT_number 2
_symmetry_cell_setting 'triclinic'
loop_
_space_group_symop_operation_xyz
x,y,z
-x,-y,-z
loop_
_atom_site_type_symbol
_atom_site_label
_atom_site_fract_x
_atom_site_fract_y
_atom_site_fract_z
Si Si1 0.393015 0.344309 0.923829
Si Si2 0.833345 0.584071 0.114595
Si Si3 0.155827 0.830525 0.821211
Si Si4 0.837268 0.897642 0.692052
Si Si5 0.262501 0.025920 0.756396
Si Si6 0.354842 0.090959 0.632754
Si Si7 0.841491 0.105082 0.452053
Si Si8 0.662612 0.554068 0.732534
O O1 0.329706 0.464353 0.091243
O O2 0.564435 0.173531 0.064874
O O3 0.292698 0.551797 0.824976
O O4 0.375556 0.203046 0.698629
O O5 0.830634 0.711778 0.127918
O O6 0.693275 0.798086 0.176500
O O7 0.991126 0.366989 0.282773
O O8 0.792555 0.489677 0.857689
O O9 0.162970 0.865860 0.702052
O O10 0.998614 0.956095 0.678347
O O11 0.174918 0.940260 0.080280
O O12 0.748143 0.016570 0.483342
O O13 0.768765 0.862720 0.622253
O O14 0.179914 0.028248 0.705707
O O15 0.505444 0.810154 0.635273
O O16 0.699912 0.359325 0.525205
#
# Coordination Sequence:
#
# PCOD8044033 Si02
#       8
#     2   2   2   2   2   2   2   2
#     4  11  22  39  65  95 126 152 199 252 308 363
#     4  10  19  37  62  98 124 150 196 256 306 359
#     4  11  27  46  56  86 125 168 210 249 294 361
#     4  11  22  38  67  94 123 157 202 249 305 360
#     4  11  22  39  64  98 122 154 199 256 303 362
#     4  10  20  37  63  98 127 147 191 259 311 358
#     4  11  27  44  61  81 126 170 208 249 297 354
#     4  11  19  40  67  91 122 161 193 253 308 358
#
# _framework density 20.868594999999999
#
# number of rings (size 3 to 8) (size 9 to 14) (size 15 to 20)
#    0.000    1.250    5.000    3.000    7.000    2.500 
#    0.000    2.500    0.000    0.000    0.000    0.000 
#    0.000    0.000    0.000    0.000    0.000    0.000 
#
# Total GULP energy -198335.358414 kJ/mol
# GULP energy per Si atom -12395.959901 kJ/mol
# Density = 2.082110 g / cm^3
# Si number density = 20.868595 Si / 1000 Ang^3
#
#
#
# Elastic Constant Matrix: (Units=GPa)
#
#
# Indices 1 2 3 4 5 6 
#
# 1 83.8863 24.8165 33.8885 -3.1434 30.9328 15.3233
# 2 24.8165 100.5374 15.6897 -21.6525 9.2973 8.7004
# 3 33.8885 15.6897 55.7893 -12.9088 22.0536 2.3401
# 4 -3.1434 -21.6525 -12.9088 25.7997 1.5870 9.6113
# 5 30.9328 9.2973 22.0536 1.5870 32.3733 -0.9391
# 6 15.3233 8.7004 2.3401 9.6113 -0.9391 25.5032
#
#
#
# Elastic Compliance Matrix: (Units=1/GPa)
#
#
# Indices 1 2 3 4 5 6 
#
# 1 0.026128 0.000504 -0.002898 0.011398 -0.024298 -0.020795
# 2 0.000504 0.016032 0.004835 0.022098 -0.009896 -0.014909
# 3 -0.002898 0.004835 0.035087 0.028218 -0.024330 -0.014658
# 4 0.011398 0.022098 0.028218 0.095804 -0.042742 -0.054656
# 5 -0.024298 -0.009896 -0.024330 -0.042742 0.076753 0.039142
# 6 -0.020795 -0.014909 -0.014658 -0.054656 0.039142 0.080176
#
#
# Mechanical properties :
#
#
# Convention : Reuss Voigt Hill
#
# Bulk Modulus (GPa) = 12.17592 43.22251 27.69921
# Shear Modulus (GPa) = 14.18543 27.78979 20.98761
#
# Velocity S-wave (km/s) = 2.61003 3.65315 3.17472
# Velocity P-wave (km/s) = 3.86397 6.20892 5.17112
#
# Compressibility (1/GPa) = 0.08212934
#
# Stress axis : x y z
#
# Youngs Moduli (GPa) = 38.27301 62.37502 28.50060
#
# Poissons Ratio (x) = -0.03145 0.08261
# Poissons Ratio (y) = -0.01930 -0.13781
# Poissons Ratio (z) = 0.11093 -0.30161
#
# Static dielectric constant tensor:
#      x y z
#    x 3.705400 0.196130 0.575590 
#    y 0.196130 3.844420 0.054480 
#    z 0.575590 0.054480 3.892300 
# 
# 
# High freq. dielectric constant tensor:
#      x y z
#    x 1.792000 0.010070 0.043260 
#    y 0.010070 1.829980 -0.001530 
#    z 0.043260 -0.001530 1.812960 
# 
# From -- ./inp_files/238994.got.cif
#   From: 2010.06.25/outbox.cif.g09.slc.cpg/sg2_120_cif.got.tgz:238994.got - 2010.06.27 13:26:56.
