data_PCOD8044969
_publ_section_title
;
Structure prediction by ZEFSAII (Michael W. Deem and Ramdas Pophale) SiO2 
 PCOD8044969
Probable space group: P 2
;
_chemical_formula_sum "Si O2"
_cell_formula_units_Z 12
_cell_length_a 9.454771
_cell_length_b 6.540968
_cell_length_c 13.792402
_cell_angle_alpha 90.000000
_cell_angle_beta 136.836006
_cell_angle_gamma 90.000000
_cell_volume 583.506194
_symmetry_space_group_name_H-M "P 2"
_symmetry_group_IT_number 3
_symmetry_cell_setting 'monoclinic'
loop_
_space_group_symop_operation_xyz
x,y,z
-x,y,-z
loop_
_atom_site_type_symbol
_atom_site_label
_atom_site_fract_x
_atom_site_fract_y
_atom_site_fract_z
Si Si1 0.000004 0.972720 0.255548
Si Si2 0.315729 0.094493 0.566865
Si Si3 0.315723 0.850951 0.748867
Si Si4 0.509285 0.472724 0.754641
Si Si5 0.366739 0.175446 0.023628
Si Si6 0.633266 0.770018 0.656897
O O1 0.131533 0.817784 0.255319
O O2 0.846614 0.839365 0.245005
O O3 0.153425 0.106062 0.398403
O O4 0.868458 0.127672 0.123795
O O5 0.362595 0.326346 0.618606
O O6 0.217639 0.972724 0.608821
O O7 0.525035 0.978134 0.639544
O O8 0.362608 0.619102 0.743998
O O9 0.525017 0.967316 0.885509
O O10 0.648522 0.341719 0.898302
O O11 0.648517 0.603717 0.750211
O O12 0.500000 0.264196 0.000000
O O13 0.500000 0.681303 0.500000
#
# Coordination Sequence:
#
# PCOD8044969 Si02
#       6
#     2   2   2   2   2   2
#     4  10  19  38  63  86 118 156 194 242 294 344
#     4   9  19  38  60  85 119 154 194 243 291 345
#     4   9  19  38  60  85 119 154 194 243 291 345
#     4  10  20  40  64  86 118 156 194 242 294 344
#     4   9  20  38  60  87 120 156 194 241 292 344
#     4   9  20  38  60  87 120 156 194 241 292 344
#
# _framework density 20.565335999999999
#
# number of rings (size 3 to 8) (size 9 to 14) (size 15 to 20)
#    0.000    2.667    0.000    0.500    0.000    4.000 
#    0.000   50.833    0.000    4.000    0.000    0.000 
#    0.000    0.000    0.000    0.000    0.000    0.000 
#
# Total GULP energy -148805.551677 kJ/mol
# GULP energy per Si atom -12400.462640 kJ/mol
# Density = 2.051853 g / cm^3
# Si number density = 20.565336 Si / 1000 Ang^3
#
#
#
# Elastic Constant Matrix: (Units=GPa)
#
#
# Indices 1 2 3 4 5 6 
#
# 1 144.2299 73.3125 67.6829 0.0000 -0.7563 0.0000
# 2 73.3125 134.8394 70.6399 0.0000 -4.8252 0.0000
# 3 67.6829 70.6399 141.2044 0.0000 -4.6268 0.0000
# 4 0.0000 0.0000 0.0000 20.3048 0.0000 -18.9774
# 5 -0.7563 -4.8252 -4.6268 0.0000 31.0320 0.0000
# 6 0.0000 0.0000 0.0000 -18.9774 0.0000 30.7682
#
#
#
# Elastic Compliance Matrix: (Units=1/GPa)
#
#
# Indices 1 2 3 4 5 6 
#
# 1 0.010422 -0.004153 -0.002945 0.000000 -0.000831 0.000000
# 2 -0.004153 0.011726 -0.003838 0.000000 0.001150 0.000000
# 3 -0.002945 -0.003838 0.010443 0.000000 0.000888 0.000000
# 4 0.000000 0.000000 0.000000 0.116281 0.000000 0.071721
# 5 -0.000831 0.001150 0.000888 0.000000 0.032516 0.000000
# 6 0.000000 0.000000 0.000000 0.071721 0.000000 0.076737
#
#
# Mechanical properties :
#
#
# Convention : Reuss Voigt Hill
#
# Bulk Modulus (GPa) = 93.29599 93.72715 93.51157
# Shear Modulus (GPa) = 17.63230 30.33023 23.98126
#
# Velocity S-wave (km/s) = 2.93128 3.84451 3.41853
# Velocity P-wave (km/s) = 7.54458 8.08587 7.81991
#
# Compressibility (1/GPa) = 0.01071857
#
# Stress axis : x y z
#
# Youngs Moduli (GPa) = 95.94837 85.27988 95.76242
#
# Poissons Ratio (x) = 0.35421 0.28202
# Poissons Ratio (y) = 0.39852 0.36750
# Poissons Ratio (z) = 0.28257 0.32727
#
# Static dielectric constant tensor:
#      x y z
#    x 3.915860 0.000000 -0.349490 
#    y 0.000000 3.477320 0.000000 
#    z -0.349490 0.000000 3.723100 
# 
# 
# High freq. dielectric constant tensor:
#      x y z
#    x 1.811670 0.000000 -0.021850 
#    y 0.000000 1.785100 0.000000 
#    z -0.021850 0.000000 1.799620 
# 
# From -- ./inp_files/8134.got.cif
#   From: 2010.03.12/outbox.cif.g09.slc.cpg/sg3_5_cif.got.tgz:8134.got - 2010.03.31 09:20:49.
