data_PCOD8044501
_publ_section_title
;
Structure prediction by ZEFSAII (Michael W. Deem and Ramdas Pophale) SiO2 
 PCOD8044501
Probable space group: P -1
;
_chemical_formula_sum "Si O2"
_cell_formula_units_Z 16
_cell_length_a 9.094476
_cell_length_b 17.927603
_cell_length_c 12.529353
_cell_angle_alpha 21.525527
_cell_angle_beta 90.772332
_cell_angle_gamma 82.139330
_cell_volume 684.604611
_symmetry_space_group_name_H-M "P -1"
_symmetry_group_IT_number 2
_symmetry_cell_setting 'triclinic'
loop_
_space_group_symop_operation_xyz
x,y,z
-x,-y,-z
loop_
_atom_site_type_symbol
_atom_site_label
_atom_site_fract_x
_atom_site_fract_y
_atom_site_fract_z
Si Si1 0.974481 0.573652 0.618008
Si Si2 0.941885 0.239209 0.925596
Si Si3 0.349678 0.683947 0.310008
Si Si4 0.775186 0.153265 0.240276
Si Si5 0.854112 0.267249 0.438727
Si Si6 0.476194 0.572338 0.694622
Si Si7 0.637166 0.881545 0.242209
Si Si8 0.015435 0.707043 0.808341
O O1 0.030215 0.401294 0.747537
O O2 0.800657 0.760617 0.336683
O O3 0.100628 0.677982 0.514084
O O4 0.945808 0.481073 0.854269
O O5 0.820214 0.330979 0.701617
O O6 0.828386 0.254663 0.003910
O O7 0.077098 0.997537 0.223671
O O8 0.500000 0.500000 0.500000
O O9 0.378449 0.657786 0.470714
O O10 0.339337 0.925110 0.945731
O O11 0.870647 0.161910 0.337436
O O12 0.584640 0.305350 0.050558
O O13 0.826839 0.888553 0.570626
O O14 0.660141 0.371570 0.289774
O O15 0.928352 0.378703 0.198921
O O16 0.589049 0.706261 0.542509
O O17 0.500000 0.000000 0.000000
#
# Coordination Sequence:
#
# PCOD8044501 Si02
#       8
#     2   2   2   2   2   2   2   2
#     4  11  20  42  65  90 119 169 213 244 287 388
#     4  10  19  38  62  85 121 162 208 239 302 367
#     4  11  20  38  67  90 116 167 209 245 303 372
#     4   9  17  36  62  88 115 162 209 248 291 368
#     4  11  24  38  59  95 130 159 196 264 314 347
#     4  11  22  39  61  94 129 150 204 265 307 350
#     4  10  20  38  64  88 117 159 210 249 291 369
#     4   9  19  36  65  87 117 167 212 239 300 369
#
# _framework density 23.371151999999999
#
# number of rings (size 3 to 8) (size 9 to 14) (size 15 to 20)
#    0.000    1.750    5.000    1.875    0.000    1.000 
#    2.250    1.250    0.000    0.000    0.000    0.875 
#    0.000    0.000    0.000    0.000    0.000    0.000 
#
# Total GULP energy -198215.955992 kJ/mol
# GULP energy per Si atom -12388.497249 kJ/mol
# Density = 2.331796 g / cm^3
# Si number density = 23.371152 Si / 1000 Ang^3
#
#
#
# Elastic Constant Matrix: (Units=GPa)
#
#
# Indices 1 2 3 4 5 6 
#
# 1 77.6341 20.2089 20.3808 -19.0340 17.4255 1.6728
# 2 20.2089 83.1922 21.6438 -18.9544 0.1212 17.0551
# 3 20.3808 21.6438 76.2336 -17.4404 24.7918 -4.6115
# 4 -19.0340 -18.9544 -17.4404 35.6895 1.3665 3.4080
# 5 17.4255 0.1212 24.7918 1.3665 35.7087 -10.9360
# 6 1.6728 17.0551 -4.6115 3.4080 -10.9360 40.1806
#
#
#
# Elastic Compliance Matrix: (Units=1/GPa)
#
#
# Indices 1 2 3 4 5 6 
#
# 1 0.018094 -0.001612 0.001460 0.010316 -0.011422 -0.003885
# 2 -0.001612 0.016447 -0.003191 0.007050 0.000288 -0.007800
# 3 0.001460 -0.003191 0.021160 0.010197 -0.016263 -0.001569
# 4 0.010316 0.007050 0.010197 0.043916 -0.017071 -0.010623
# 5 -0.011422 0.000288 -0.016263 -0.017071 0.049640 0.013445
# 6 -0.003885 -0.007800 -0.001569 -0.010623 0.013445 0.032740
#
#
# Mechanical properties :
#
#
# Convention : Reuss Voigt Hill
#
# Bulk Modulus (GPa) = 20.40193 40.16963 30.28578
# Shear Modulus (GPa) = 24.38770 33.97086 29.17928
#
# Velocity S-wave (km/s) = 3.23382 3.81667 3.53727
# Velocity P-wave (km/s) = 4.76361 6.05373 5.44700
#
# Compressibility (1/GPa) = 0.04901497
#
# Stress axis : x y z
#
# Youngs Moduli (GPa) = 55.26705 60.80169 47.25873
#
# Poissons Ratio (x) = 0.09799 -0.06899
# Poissons Ratio (y) = 0.08907 0.15081
# Poissons Ratio (z) = -0.08068 0.19403
#
# Static dielectric constant tensor:
#      x y z
#    x 4.395060 0.627920 -0.188350 
#    y 0.627920 4.539150 -0.325190 
#    z -0.188350 -0.325190 4.445230 
# 
# 
# High freq. dielectric constant tensor:
#      x y z
#    x 1.899040 0.022250 0.015640 
#    y 0.022250 1.918340 -0.017140 
#    z 0.015640 -0.017140 1.928910 
# 
# From -- ./inp_files/329346.got.cif
#   From: 2010.06.25/outbox.cif.g09.slc.cpg/sg2_165_cif.got.tgz:329346.got - 2010.06.27 13:26:56.
