data_PCOD8044363
_publ_section_title
;
Structure prediction by ZEFSAII (Michael W. Deem and Ramdas Pophale) SiO2 
 PCOD8044363
Probable space group: P -1
;
_chemical_formula_sum "Si O2"
_cell_formula_units_Z 14
_cell_length_a 9.531798
_cell_length_b 19.073627
_cell_length_c 8.190357
_cell_angle_alpha 69.338236
_cell_angle_beta 84.471345
_cell_angle_gamma 32.497332
_cell_volume 685.947026
_symmetry_space_group_name_H-M "P -1"
_symmetry_group_IT_number 2
_symmetry_cell_setting 'triclinic'
loop_
_space_group_symop_operation_xyz
x,y,z
-x,-y,-z
loop_
_atom_site_type_symbol
_atom_site_label
_atom_site_fract_x
_atom_site_fract_y
_atom_site_fract_z
Si Si1 0.801379 0.722903 0.362051
Si Si2 0.696522 0.578965 0.257786
Si Si3 0.734187 0.437669 0.124149
Si Si4 0.718930 0.117372 0.782645
Si Si5 0.205411 0.138328 0.516353
Si Si6 0.840379 0.664167 0.041519
Si Si7 0.223484 0.974600 0.807734
O O1 0.513644 0.810270 0.373998
O O2 0.775789 0.814738 0.372028
O O3 0.804533 0.726591 0.163137
O O4 0.086651 0.548196 0.523550
O O5 0.594522 0.553985 0.184793
O O6 0.418125 0.745230 0.229357
O O7 0.873934 0.559335 0.150151
O O8 0.956963 0.275787 0.306152
O O9 0.500000 0.500000 0.000000
O O10 0.890334 0.425836 0.003113
O O11 0.798076 0.020461 0.995370
O O12 0.001037 0.013079 0.738002
O O13 0.500000 0.000000 0.500000
O O14 0.119582 0.100082 0.639821
O O15 0.549103 0.810270 0.849050
#
# Coordination Sequence:
#
# PCOD8044363 Si02
#       7
#     2   2   2   2   2   2   2
#     4   9  20  35  61  86 110 152 195 235 289 342
#     4   9  19  37  61  81 117 148 185 247 289 331
#     4  11  24  39  56  87 117 153 195 231 290 347
#     4   9  18  36  61  91 110 140 209 234 282 333
#     4  11  22  41  56  82 124 157 185 233 295 346
#     4  10  19  38  59  83 115 150 198 232 290 335
#     4   9  19  36  58  83 118 151 184 243 281 338
#
# _framework density 20.409738000000001
#
# number of rings (size 3 to 8) (size 9 to 14) (size 15 to 20)
#    0.000    2.571    1.429    2.143    0.000    5.714 
#   10.286    3.571    0.000    0.000    0.000    0.000 
#    0.000    0.000    0.000    0.000    0.000    0.000 
#
# Total GULP energy -173474.468468 kJ/mol
# GULP energy per Si atom -12391.033462 kJ/mol
# Density = 2.036328 g / cm^3
# Si number density = 20.409738 Si / 1000 Ang^3
#
#
#
# Elastic Constant Matrix: (Units=GPa)
#
#
# Indices 1 2 3 4 5 6 
#
# 1 97.7059 15.6156 30.1994 0.6550 7.9910 -15.6682
# 2 15.6156 34.8798 25.2461 -9.5140 -0.3908 -7.0365
# 3 30.1994 25.2461 78.4635 -12.8195 -3.0969 3.7716
# 4 0.6550 -9.5140 -12.8195 16.9315 1.0995 -0.3150
# 5 7.9910 -0.3908 -3.0969 1.0995 40.4373 -3.8352
# 6 -15.6682 -7.0365 3.7716 -0.3150 -3.8352 29.9883
#
#
#
# Elastic Compliance Matrix: (Units=1/GPa)
#
#
# Indices 1 2 3 4 5 6 
#
# 1 0.013817 -0.001991 -0.006091 -0.005978 -0.002375 0.007151
# 2 -0.001991 0.044585 -0.011362 0.016697 0.000553 0.011096
# 3 -0.006091 -0.011362 0.020718 0.009278 0.001656 -0.008145
# 4 -0.005978 0.016697 0.009278 0.075706 0.000035 0.000427
# 5 -0.002375 0.000553 0.001656 0.000035 0.025515 0.001944
# 6 0.007151 0.011096 -0.008145 0.000427 0.001944 0.040964
#
#
# Mechanical properties :
#
#
# Convention : Reuss Voigt Hill
#
# Bulk Modulus (GPa) = 24.85759 39.24124 32.04941
# Shear Modulus (GPa) = 18.27455 26.80397 22.53926
#
# Velocity S-wave (km/s) = 2.99554 3.62787 3.32676
# Velocity P-wave (km/s) = 4.91631 6.06771 5.52210
#
# Compressibility (1/GPa) = 0.04022917
#
# Stress axis : x y z
#
# Youngs Moduli (GPa) = 72.37469 22.42915 48.26726
#
# Poissons Ratio (x) = 0.04467 0.29402
# Poissons Ratio (y) = 0.14413 0.54844
# Poissons Ratio (z) = 0.44087 0.25485
#
# Static dielectric constant tensor:
#      x y z
#    x 3.827940 -0.075400 0.040680 
#    y -0.075400 3.554860 -0.212160 
#    z 0.040680 -0.212160 3.728060 
# 
# 
# High freq. dielectric constant tensor:
#      x y z
#    x 1.800430 -0.007740 0.001650 
#    y -0.007740 1.777850 -0.019210 
#    z 0.001650 -0.019210 1.797860 
# 
# From -- ./inp_files/216997.got.cif
#   From: 2010.06.25/outbox.cif.g09.slc.cpg/sg2_109_cif.got.tgz:216997.got - 2010.06.27 13:26:56.
