data_PCOD8044223
_publ_section_title
;
Structure prediction by ZEFSAII (Michael W. Deem and Ramdas Pophale) SiO2 
 PCOD8044223
Probable space group: P -1
;
_chemical_formula_sum "Si O2"
_cell_formula_units_Z 16
_cell_length_a 17.239436
_cell_length_b 8.202518
_cell_length_c 14.776431
_cell_angle_alpha 113.875718
_cell_angle_beta 151.769507
_cell_angle_gamma 85.431026
_cell_volume 694.233960
_symmetry_space_group_name_H-M "P -1"
_symmetry_group_IT_number 2
_symmetry_cell_setting 'triclinic'
loop_
_space_group_symop_operation_xyz
x,y,z
-x,-y,-z
loop_
_atom_site_type_symbol
_atom_site_label
_atom_site_fract_x
_atom_site_fract_y
_atom_site_fract_z
Si Si1 0.525390 0.387167 0.308403
Si Si2 0.843040 0.408678 0.922594
Si Si3 0.847060 0.917291 0.457089
Si Si4 0.331327 0.786245 0.116558
Si Si5 0.876915 0.991773 0.078803
Si Si6 0.124087 0.306207 0.127623
Si Si7 0.254527 0.362349 0.877547
Si Si8 0.698629 0.135714 0.450151
O O1 0.721382 0.623157 0.612554
O O2 0.594798 0.235088 0.317743
O O3 0.325026 0.246138 0.137953
O O4 0.465808 0.448965 0.169384
O O5 0.905949 0.251815 0.922988
O O6 0.053328 0.664320 0.227667
O O7 0.667329 0.281248 0.793029
O O8 0.751053 0.462233 0.756918
O O9 0.725706 0.692405 0.217466
O O10 0.680620 0.956685 0.322908
O O11 0.925217 0.872006 0.617973
O O12 0.044241 0.138484 0.656386
O O13 0.568929 0.007792 0.381251
O O14 0.244491 0.569733 0.913256
O O15 0.165104 0.833063 0.950051
O O16 0.934583 0.920721 0.031432
#
# Coordination Sequence:
#
# PCOD8044223 Si02
#       8
#     2   2   2   2   2   2   2   2
#     4   9  20  37  61  92 125 161 207 249 307 366
#     4  10  20  40  63  92 124 163 204 250 307 368
#     4  10  20  40  68  86 128 163 201 259 307 363
#     4  11  23  39  63  91 128 160 207 253 303 369
#     4  10  20  37  60  92 126 163 203 253 306 363
#     4  10  19  37  66  86 125 168 198 254 311 355
#     4  10  21  40  64  94 119 167 208 249 309 366
#     4  10  20  40  63  91 126 159 198 258 309 360
#
# _framework density 23.046983999999998
#
# number of rings (size 3 to 8) (size 9 to 14) (size 15 to 20)
#    0.000    2.000    2.500    1.125    0.000    2.000 
#    4.500   15.625    0.000    0.000    0.000    0.000 
#    0.000    0.000    0.000    0.000    0.000    0.000 
#
# Total GULP energy -198403.826543 kJ/mol
# GULP energy per Si atom -12400.239159 kJ/mol
# Density = 2.299453 g / cm^3
# Si number density = 23.046984 Si / 1000 Ang^3
#
#
#
# Elastic Constant Matrix: (Units=GPa)
#
#
# Indices 1 2 3 4 5 6 
#
# 1 118.8720 43.4810 41.3974 0.8731 -17.5414 -26.3158
# 2 43.4810 103.4350 44.3662 4.6069 -16.9990 -26.2231
# 3 41.3974 44.3662 86.8476 -12.6951 -30.3099 -10.2444
# 4 0.8731 4.6069 -12.6951 22.1792 -0.6337 -2.1977
# 5 -17.5414 -16.9990 -30.3099 -0.6337 32.5200 9.4638
# 6 -26.3158 -26.2231 -10.2444 -2.1977 9.4638 40.5622
#
#
#
# Elastic Compliance Matrix: (Units=1/GPa)
#
#
# Indices 1 2 3 4 5 6 
#
# 1 0.011753 -0.001531 -0.004665 -0.002289 -0.000435 0.005434
# 2 -0.001531 0.015648 -0.008463 -0.007397 -0.002784 0.007234
# 3 -0.004665 -0.008463 0.027000 0.017433 0.020146 -0.005435
# 4 -0.002289 -0.007397 0.017433 0.056883 0.012768 -0.001761
# 5 -0.000435 -0.002784 0.020146 0.012768 0.050434 -0.008070
# 6 0.005434 0.007234 -0.005435 -0.001761 -0.008070 0.033270
#
#
# Mechanical properties :
#
#
# Convention : Reuss Voigt Hill
#
# Bulk Modulus (GPa) = 39.87198 63.07156 51.47177
# Shear Modulus (GPa) = 21.48988 31.04626 26.26807
#
# Velocity S-wave (km/s) = 3.05690 3.67425 3.37970
# Velocity P-wave (km/s) = 5.45869 6.73989 6.13284
#
# Compressibility (1/GPa) = 0.02508027
#
# Stress axis : x y z
#
# Youngs Moduli (GPa) = 85.08536 63.90737 37.03724
#
# Poissons Ratio (x) = 0.09786 0.17280
# Poissons Ratio (y) = 0.13029 0.31346
# Poissons Ratio (z) = 0.39696 0.54087
#
# Static dielectric constant tensor:
#      x y z
#    x 4.303920 -0.225940 -0.182530 
#    y -0.225940 4.171760 -0.113740 
#    z -0.182530 -0.113740 3.899330 
# 
# 
# High freq. dielectric constant tensor:
#      x y z
#    x 1.913910 -0.017830 -0.001980 
#    y -0.017830 1.911190 -0.001090 
#    z -0.001980 -0.001090 1.881560 
# 
# From -- ./inp_files/342520.got.cif
#   From: 2010.06.25/outbox.cif.g09.slc.cpg/sg2_172_cif.got.tgz:342520.got - 2010.06.27 13:26:56.
