data_PCOD8044646
_publ_section_title
;
Structure prediction by ZEFSAII (Michael W. Deem and Ramdas Pophale) SiO2 
 PCOD8044646
Probable space group: P -1
;
_chemical_formula_sum "Si O2"
_cell_formula_units_Z 16
_cell_length_a 8.346361
_cell_length_b 8.297442
_cell_length_c 25.275442
_cell_angle_alpha 120.799608
_cell_angle_beta 147.839580
_cell_angle_gamma 50.431444
_cell_volume 716.653106
_symmetry_space_group_name_H-M "P -1"
_symmetry_group_IT_number 2
_symmetry_cell_setting 'triclinic'
loop_
_space_group_symop_operation_xyz
x,y,z
-x,-y,-z
loop_
_atom_site_type_symbol
_atom_site_label
_atom_site_fract_x
_atom_site_fract_y
_atom_site_fract_z
Si Si1 0.434337 0.688966 0.301857
Si Si2 0.729359 0.411485 0.645195
Si Si3 0.329300 0.325391 0.177046
Si Si4 0.778352 0.014131 0.326476
Si Si5 0.900512 0.207088 0.972447
Si Si6 0.938775 0.219003 0.493448
Si Si7 0.859448 0.019150 0.820161
Si Si8 0.821474 0.435572 0.149273
O O1 0.334328 0.669146 0.329855
O O2 0.492658 0.486510 0.248098
O O3 0.138520 0.881521 0.219998
O O4 0.767953 0.719254 0.402208
O O5 0.401712 0.578195 0.550995
O O6 0.986781 0.510623 0.740893
O O7 0.898307 0.208859 0.621206
O O8 0.619935 0.099495 0.239039
O O9 0.015067 0.414925 0.144942
O O10 0.185363 0.289540 0.074932
O O11 0.888858 0.183652 0.411229
O O12 0.489676 0.998554 0.278297
O O13 0.880771 0.165204 0.898019
O O14 0.553162 0.383290 0.928190
O O15 0.000000 0.000000 0.000000
O O16 0.000000 0.000000 0.500000
O O17 0.172425 0.788516 0.872741
#
# Coordination Sequence:
#
# PCOD8044646 Si02
#       8
#     2   2   2   2   2   2   2   2
#     4  11  24  44  61  91 135 163 201 266 318 362
#     4  11  22  40  67  93 126 165 207 257 315 368
#     4  10  22  40  64  91 129 163 207 260 307 368
#     4  11  21  42  65  95 121 166 216 250 303 382
#     4  12  21  37  70  95 119 170 217 254 303 376
#     4  12  23  43  68  91 127 167 208 258 313 372
#     4  11  22  41  63  93 129 163 208 263 306 371
#     4  10  19  38  64  92 123 165 211 249 309 370
#
# _framework density 22.326004000000001
#
# number of rings (size 3 to 8) (size 9 to 14) (size 15 to 20)
#    0.000    1.000    8.750    0.750    0.000    1.500 
#    2.250    0.625    0.000    0.000    0.000    0.000 
#    0.000    0.000    0.000    0.000    0.000    0.000 
#
# Total GULP energy -198311.775428 kJ/mol
# GULP energy per Si atom -12394.485964 kJ/mol
# Density = 2.227519 g / cm^3
# Si number density = 22.326004 Si / 1000 Ang^3
#
#
#
# Elastic Constant Matrix: (Units=GPa)
#
#
# Indices 1 2 3 4 5 6 
#
# 1 26.7939 29.6269 18.1026 -11.9271 -3.1763 10.4524
# 2 29.6269 152.8541 56.2780 -20.8835 12.6025 -10.4829
# 3 18.1026 56.2780 136.4658 8.6980 0.4442 -1.0013
# 4 -11.9271 -20.8835 8.6980 58.1318 4.3716 1.5171
# 5 -3.1763 12.6025 0.4442 4.3716 17.0373 -3.9619
# 6 10.4524 -10.4829 -1.0013 1.5171 -3.9619 34.8073
#
#
#
# Elastic Compliance Matrix: (Units=1/GPa)
#
#
# Indices 1 2 3 4 5 6 
#
# 1 0.071358 -0.013691 -0.004680 0.009904 0.015344 -0.024371
# 2 -0.013691 0.012058 -0.003244 0.002640 -0.010593 0.006329
# 3 -0.004680 -0.003244 0.009527 -0.003770 0.002514 0.001153
# 4 0.009904 0.002640 -0.003770 0.021331 -0.006399 -0.003946
# 5 0.015344 -0.010593 0.002514 -0.006399 0.071118 0.000648
# 6 -0.024371 0.006329 0.001153 -0.003946 0.000648 0.038233
#
#
# Mechanical properties :
#
#
# Convention : Reuss Voigt Hill
#
# Bulk Modulus (GPa) = 20.11533 58.23652 39.17592
# Shear Modulus (GPa) = 17.64130 36.13571 26.88850
#
# Velocity S-wave (km/s) = 2.81404 4.02748 3.47415
# Velocity P-wave (km/s) = 4.42581 6.91149 5.80330
#
# Compressibility (1/GPa) = 0.04971333
#
# Stress axis : x y z
#
# Youngs Moduli (GPa) = 14.01390 82.93036 104.96518
#
# Poissons Ratio (x) = 1.13542 0.49120
# Poissons Ratio (y) = 0.19187 0.34050
# Poissons Ratio (z) = 0.06558 0.26902
#
# Static dielectric constant tensor:
#      x y z
#    x 3.541030 0.086710 -0.153910 
#    y 0.086710 4.473010 0.162370 
#    z -0.153910 0.162370 4.421080 
# 
# 
# High freq. dielectric constant tensor:
#      x y z
#    x 1.825490 0.003450 -0.016240 
#    y 0.003450 1.899900 0.000650 
#    z -0.016240 0.000650 1.896560 
# 
# From -- ./inp_files/616674.got.cif
#   From: 2010.06.25/outbox.cif.g09.slc.cpg/sg2_309_cif.got.tgz:616674.got - 2010.06.27 13:26:56.
