data_PCOD8044073
_publ_section_title
;
Structure prediction by ZEFSAII (Michael W. Deem and Ramdas Pophale) SiO2 
 PCOD8044073
Probable space group: P -1
;
_chemical_formula_sum "Si O2"
_cell_formula_units_Z 16
_cell_length_a 7.862173
_cell_length_b 6.589828
_cell_length_c 21.617482
_cell_angle_alpha 81.910809
_cell_angle_beta 140.362057
_cell_angle_gamma 98.284725
_cell_volume 706.250526
_symmetry_space_group_name_H-M "P -1"
_symmetry_group_IT_number 2
_symmetry_cell_setting 'triclinic'
loop_
_space_group_symop_operation_xyz
x,y,z
-x,-y,-z
loop_
_atom_site_type_symbol
_atom_site_label
_atom_site_fract_x
_atom_site_fract_y
_atom_site_fract_z
Si Si1 0.775998 0.970116 0.656710
Si Si2 0.700351 0.454277 0.939930
Si Si3 0.603384 0.223137 0.806672
Si Si4 0.020543 0.530514 0.866051
Si Si5 0.355149 0.674263 0.485831
Si Si6 0.828376 0.481773 0.355112
Si Si7 0.411488 0.142437 0.264672
Si Si8 0.808331 0.340688 0.222387
O O1 0.564325 0.789167 0.584329
O O2 0.684323 0.010428 0.699847
O O3 0.076579 0.886973 0.741380
O O4 0.766920 0.170848 0.604461
O O5 0.582625 0.259806 0.873904
O O6 0.515496 0.648946 0.867676
O O7 0.717019 0.409535 0.020280
O O8 0.000000 0.500000 0.000000
O O9 0.379626 0.343799 0.703036
O O10 0.894655 0.306631 0.859769
O O11 0.558685 0.985605 0.785010
O O12 0.091880 0.524490 0.814401
O O13 0.804025 0.692925 0.815210
O O14 0.500000 0.500000 0.500000
O O15 0.108376 0.565808 0.461508
O O16 0.698712 0.264426 0.353668
O O17 0.919824 0.449738 0.310775
#
# Coordination Sequence:
#
# PCOD8044073 Si02
#       8
#     2   2   2   2   2   2   2   2
#     4  10  24  40  64  94 121 161 208 253 307 365
#     4   9  18  36  60  92 126 165 202 253 309 358
#     4   9  20  36  59  85 126 166 200 249 308 362
#     4   9  19  36  59  90 126 161 208 253 305 353
#     4  11  23  42  65  91 125 157 204 259 310 364
#     4  10  22  37  61  90 119 164 204 248 312 359
#     4  10  22  39  60  91 126 162 206 251 300 372
#     4  10  19  37  63  89 123 162 203 257 298 367
#
# _framework density 22.654852000000002
#
# number of rings (size 3 to 8) (size 9 to 14) (size 15 to 20)
#    0.000    2.250    1.250    1.125    3.500    2.000 
#    0.000    1.250    0.000    7.500    0.000    0.000 
#    0.000    0.000    0.000    0.000    0.000    0.000 
#
# Total GULP energy -198240.617602 kJ/mol
# GULP energy per Si atom -12390.038600 kJ/mol
# Density = 2.260329 g / cm^3
# Si number density = 22.654852 Si / 1000 Ang^3
#
#
#
# Elastic Constant Matrix: (Units=GPa)
#
#
# Indices 1 2 3 4 5 6 
#
# 1 89.8625 22.3745 16.5511 -6.8996 13.2088 -14.6216
# 2 22.3745 83.6010 13.7435 1.9300 12.8187 -11.0567
# 3 16.5511 13.7435 58.5729 -8.6415 21.0276 -9.5196
# 4 -6.8996 1.9300 -8.6415 22.7340 1.6752 -2.1211
# 5 13.2088 12.8187 21.0276 1.6752 35.9791 1.3474
# 6 -14.6216 -11.0567 -9.5196 -2.1211 1.3474 24.5988
#
#
#
# Elastic Compliance Matrix: (Units=1/GPa)
#
#
# Indices 1 2 3 4 5 6 
#
# 1 0.014172 -0.002073 0.000727 0.005959 -0.005488 0.008588
# 2 -0.002073 0.013901 -0.000676 -0.001325 -0.003916 0.004855
# 3 0.000727 -0.000676 0.027079 0.013000 -0.016931 0.012656
# 4 0.005959 -0.001325 0.013000 0.052987 -0.012275 0.013219
# 5 -0.005488 -0.003916 -0.016931 -0.012275 0.042231 -0.014947
# 6 0.008588 0.004855 0.012656 0.013219 -0.014947 0.054795
#
#
# Mechanical properties :
#
#
# Convention : Reuss Voigt Hill
#
# Bulk Modulus (GPa) = 19.56660 37.48607 28.52633
# Shear Modulus (GPa) = 22.09997 28.62020 25.36009
#
# Velocity S-wave (km/s) = 3.12670 3.55817 3.34939
# Velocity P-wave (km/s) = 4.65731 5.78475 5.25137
#
# Compressibility (1/GPa) = 0.05110750
#
# Stress axis : x y z
#
# Youngs Moduli (GPa) = 70.56227 71.93920 36.92883
#
# Poissons Ratio (x) = 0.14910 -0.02685
# Poissons Ratio (y) = 0.14625 0.02498
# Poissons Ratio (z) = -0.05130 0.04866
#
# Static dielectric constant tensor:
#      x y z
#    x 4.320990 -0.067560 -0.032300 
#    y -0.067560 3.779640 0.108960 
#    z -0.032300 0.108960 4.541410 
# 
# 
# High freq. dielectric constant tensor:
#      x y z
#    x 1.900850 -0.011740 0.006400 
#    y -0.011740 1.865530 0.002610 
#    z 0.006400 0.002610 1.892460 
# 
# From -- ./inp_files/322723.got.cif
#   From: 2010.06.25/outbox.cif.g09.slc.cpg/sg2_162_cif.got.tgz:322723.got - 2010.06.27 13:26:56.
