data_PCOD8044213
_publ_section_title
;
Structure prediction by ZEFSAII (Michael W. Deem and Ramdas Pophale) SiO2 
 PCOD8044213
Probable space group: P -1
;
_chemical_formula_sum "Si O2"
_cell_formula_units_Z 16
_cell_length_a 12.135589
_cell_length_b 17.995289
_cell_length_c 14.983795
_cell_angle_alpha 29.342391
_cell_angle_beta 30.451200
_cell_angle_gamma 51.307650
_cell_volume 699.660291
_symmetry_space_group_name_H-M "P -1"
_symmetry_group_IT_number 2
_symmetry_cell_setting 'triclinic'
loop_
_space_group_symop_operation_xyz
x,y,z
-x,-y,-z
loop_
_atom_site_type_symbol
_atom_site_label
_atom_site_fract_x
_atom_site_fract_y
_atom_site_fract_z
Si Si1 0.256584 0.828189 0.881474
Si Si2 0.259040 0.816789 0.336549
Si Si3 0.633148 0.356753 0.845178
Si Si4 0.989794 0.672359 0.505997
Si Si5 0.850000 0.808614 0.759419
Si Si6 0.728317 0.328804 0.139535
Si Si7 0.217523 0.269812 0.580361
Si Si8 0.882922 0.538838 0.124620
O O1 0.159287 0.724917 0.965149
O O2 0.500000 0.000000 0.500000
O O3 0.357769 0.737054 0.973336
O O4 0.035411 0.853585 0.055194
O O5 0.300926 0.648851 0.500404
O O6 0.196217 0.824468 0.267768
O O7 0.030628 0.789405 0.584926
O O8 0.500000 0.000000 0.000000
O O9 0.643873 0.535597 0.677456
O O10 0.883709 0.410776 0.557409
O O11 0.391779 0.222301 0.095390
O O12 0.856103 0.743289 0.459005
O O13 0.783755 0.524893 0.870779
O O14 0.752517 0.650494 0.067196
O O15 0.000000 0.000000 0.500000
O O16 0.427254 0.209151 0.498338
O O17 0.884102 0.327628 0.116243
O O18 0.000000 0.500000 0.000000
#
# Coordination Sequence:
#
# PCOD8044213 Si02
#       8
#     2   2   2   2   2   2   2   2
#     4  11  25  41  61  99 135 161 215 275 334 389
#     4  10  21  40  63  92 128 175 222 275 331 394
#     4  11  21  41  67  93 128 171 217 276 324 398
#     4  10  19  37  65  98 125 164 219 271 321 397
#     4  11  24  41  65  94 130 177 226 272 334 390
#     4  11  21  39  71  91 128 170 215 269 333 394
#     4  11  21  40  68  96 125 171 216 265 332 406
#     4   9  21  42  64  92 129 173 222 272 326 393
#
# _framework density 22.868241000000001
#
# number of rings (size 3 to 8) (size 9 to 14) (size 15 to 20)
#    0.000    1.500    2.500    4.125    3.500    0.500 
#    2.250    9.375    2.750    0.000    0.000    0.000 
#    0.000    0.000    0.000    0.000    0.000    0.000 
#
# Total GULP energy -198262.540159 kJ/mol
# GULP energy per Si atom -12391.408760 kJ/mol
# Density = 2.281619 g / cm^3
# Si number density = 22.868241 Si / 1000 Ang^3
#
#
#
# Elastic Constant Matrix: (Units=GPa)
#
#
# Indices 1 2 3 4 5 6 
#
# 1 140.7903 23.8029 22.7066 -2.7495 -11.4694 30.1399
# 2 23.8029 35.3519 6.0963 7.2118 12.6339 6.3631
# 3 22.7066 6.0963 99.4720 1.6053 -1.8583 2.4206
# 4 -2.7495 7.2118 1.6053 40.8374 6.1101 -6.3230
# 5 -11.4694 12.6339 -1.8583 6.1101 28.7756 -1.1878
# 6 30.1399 6.3631 2.4206 -6.3230 -1.1878 28.9173
#
#
#
# Elastic Compliance Matrix: (Units=1/GPa)
#
#
# Indices 1 2 3 4 5 6 
#
# 1 0.011536 -0.008451 -0.001725 -0.000354 0.007869 -0.009774
# 2 -0.008451 0.043406 -0.000978 -0.005408 -0.021453 -0.002725
# 3 -0.001725 -0.000978 0.010494 -0.000264 0.000521 0.001098
# 4 -0.000354 -0.005408 -0.000264 0.027051 -0.003224 0.007363
# 5 0.007869 -0.021453 0.000521 -0.003224 0.047932 -0.002260
# 6 -0.009774 -0.002725 0.001098 0.007363 -0.002260 0.046794
#
#
# Mechanical properties :
#
#
# Convention : Reuss Voigt Hill
#
# Bulk Modulus (GPa) = 23.18643 42.31396 32.75020
# Shear Modulus (GPa) = 22.33166 34.57327 28.45246
#
# Velocity S-wave (km/s) = 3.12835 3.89247 3.53114
# Velocity P-wave (km/s) = 4.81766 6.22457 5.56575
#
# Compressibility (1/GPa) = 0.04312868
#
# Stress axis : x y z
#
# Youngs Moduli (GPa) = 86.68360 23.03818 95.29204
#
# Poissons Ratio (x) = 0.19469 0.16437
# Poissons Ratio (y) = 0.73253 0.09323
# Poissons Ratio (z) = 0.14952 0.02254
#
# Static dielectric constant tensor:
#      x y z
#    x 4.418600 0.002660 -0.031050 
#    y 0.002660 4.059740 -0.123690 
#    z -0.031050 -0.123690 4.645640 
# 
# 
# High freq. dielectric constant tensor:
#      x y z
#    x 1.912180 0.025140 -0.005130 
#    y 0.025140 1.889850 0.005820 
#    z -0.005130 0.005820 1.898000 
# 
# From -- ./inp_files/319353.got.cif
#   From: 2010.06.25/outbox.cif.g09.slc.cpg/sg2_160_cif.got.tgz:319353.got - 2010.06.27 13:26:56.
