data_PCOD8044807
_publ_section_title
;
Structure prediction by ZEFSAII (Michael W. Deem and Ramdas Pophale) SiO2 
 PCOD8044807
Probable space group: P -1
;
_chemical_formula_sum "Si O2"
_cell_formula_units_Z 16
_cell_length_a 17.619634
_cell_length_b 20.664689
_cell_length_c 11.070958
_cell_angle_alpha 134.875906
_cell_angle_beta 34.156117
_cell_angle_gamma 158.858000
_cell_volume 771.388927
_symmetry_space_group_name_H-M "P -1"
_symmetry_group_IT_number 2
_symmetry_cell_setting 'triclinic'
loop_
_space_group_symop_operation_xyz
x,y,z
-x,-y,-z
loop_
_atom_site_type_symbol
_atom_site_label
_atom_site_fract_x
_atom_site_fract_y
_atom_site_fract_z
Si Si1 0.397893 0.436275 0.224411
Si Si2 0.986964 0.025348 0.224413
Si Si3 0.731212 0.875292 0.617719
Si Si4 0.336551 0.480629 0.617717
Si Si5 0.591699 0.824466 0.268067
Si Si6 0.422049 0.974017 0.430465
Si Si7 0.790004 0.557235 0.731931
Si Si8 0.679801 0.059934 0.953624
O O1 0.409410 0.504073 0.415575
O O2 0.389962 0.504004 0.217191
O O3 0.127334 0.209113 0.281615
O O4 0.687619 0.548872 0.978000
O O5 0.806599 0.901265 0.415578
O O6 0.767917 0.881959 0.217192
O O7 0.228626 0.089880 0.978001
O O8 0.460194 0.653398 0.718401
O O9 0.655331 0.936233 0.815682
O O10 0.000000 0.000000 0.500000
O O11 0.500000 0.500000 0.500000
O O12 0.001964 0.282864 0.815676
O O13 0.288988 0.596329 0.356372
O O14 0.540483 0.897208 0.463413
O O15 0.110662 0.753935 0.536582
O O16 0.500000 0.000000 0.500000
O O17 0.586406 0.028804 0.172599
O O18 0.500000 0.000000 0.000000
#
# Coordination Sequence:
#
# PCOD8044807 Si02
#       8
#     2   2   2   2   2   2   2   2
#     4  10  19  38  68 101 133 164 228 290 343 407
#     4  10  19  38  68 101 133 164 228 290 343 407
#     4  12  25  43  72 103 138 183 237 300 354 415
#     4  12  25  43  72 103 138 183 237 300 354 415
#     4  10  22  39  65  98 131 179 224 278 340 419
#     4  12  28  44  66  96 150 182 224 281 355 416
#     4  10  22  39  65  98 131 179 224 278 340 419
#     4  12  28  50  72 104 149 193 238 289 359 442
#
# _framework density 20.741806
#
# number of rings (size 3 to 8) (size 9 to 14) (size 15 to 20)
#    0.000    1.000    3.750    2.250    7.000    2.000 
#    0.000    0.000    0.000    0.000    0.000    0.000 
#    0.000    0.000    0.000    0.000    0.000    0.000 
#
# Total GULP energy -198258.595330 kJ/mol
# GULP energy per Si atom -12391.162208 kJ/mol
# Density = 2.069460 g / cm^3
# Si number density = 20.741806 Si / 1000 Ang^3
#
#
#
# Elastic Constant Matrix: (Units=GPa)
#
#
# Indices 1 2 3 4 5 6 
#
# 1 88.5316 33.0645 60.6224 -1.8111 4.2922 2.5658
# 2 33.0645 161.5027 76.8447 0.9062 -7.8481 -19.8567
# 3 60.6224 76.8447 141.5733 2.6893 12.0806 -4.0829
# 4 -1.8111 0.9062 2.6893 31.7048 0.2075 2.8767
# 5 4.2922 -7.8481 12.0806 0.2075 36.0186 1.3753
# 6 2.5658 -19.8567 -4.0829 2.8767 1.3753 27.0930
#
#
#
# Elastic Compliance Matrix: (Units=1/GPa)
#
#
# Indices 1 2 3 4 5 6 
#
# 1 0.016288 -0.000424 -0.006902 0.001807 0.000390 -0.003105
# 2 -0.000424 0.009706 -0.005213 -0.000449 0.003678 0.006229
# 3 -0.006902 -0.005213 0.013252 -0.001266 -0.004720 -0.000796
# 4 0.001807 -0.000449 -0.001266 0.032137 0.000083 -0.004107
# 5 0.000390 0.003678 -0.004720 0.000083 0.030086 0.000412
# 6 -0.003105 0.006229 -0.000796 -0.004107 0.000412 0.042065
#
#
# Mechanical properties :
#
#
# Convention : Reuss Voigt Hill
#
# Bulk Modulus (GPa) = 70.57226 81.40787 75.99007
# Shear Modulus (GPa) = 28.84655 33.70169 31.27412
#
# Velocity S-wave (km/s) = 3.73331 4.03528 3.88723
# Velocity P-wave (km/s) = 7.25821 7.81311 7.54076
#
# Compressibility (1/GPa) = 0.01416987
#
# Stress axis : x y z
#
# Youngs Moduli (GPa) = 61.39653 103.03006 75.46019
#
# Poissons Ratio (x) = 0.04365 0.52079
# Poissons Ratio (y) = 0.02601 0.39334
# Poissons Ratio (z) = 0.42373 0.53705
#
# Static dielectric constant tensor:
#      x y z
#    x 3.778760 -0.019340 0.054110 
#    y -0.019340 3.850150 0.006290 
#    z 0.054110 0.006290 3.985040 
# 
# 
# High freq. dielectric constant tensor:
#      x y z
#    x 1.806670 -0.006280 0.015280 
#    y -0.006280 1.830160 0.004250 
#    z 0.015280 0.004250 1.812960 
# 
# From -- ./inp_files/467126.got.cif
#   From: 2010.06.25/outbox.cif.g09.slc.cpg/sg2_234_cif.got.tgz:467126.got - 2010.06.27 13:26:56.
