data_PCOD8044067
_publ_section_title
;
Structure prediction by ZEFSAII (Michael W. Deem and Ramdas Pophale) SiO2 
 PCOD8044067
Probable space group: P -1
;
_chemical_formula_sum "Si O2"
_cell_formula_units_Z 14
_cell_length_a 19.550154
_cell_length_b 16.261019
_cell_length_c 11.872269
_cell_angle_alpha 147.939416
_cell_angle_beta 39.176253
_cell_angle_gamma 158.756390
_cell_volume 723.791843
_symmetry_space_group_name_H-M "P -1"
_symmetry_group_IT_number 2
_symmetry_cell_setting 'triclinic'
loop_
_space_group_symop_operation_xyz
x,y,z
-x,-y,-z
loop_
_atom_site_type_symbol
_atom_site_label
_atom_site_fract_x
_atom_site_fract_y
_atom_site_fract_z
Si Si1 0.496663 0.114471 0.238667
Si Si2 0.196306 0.917207 0.711160
Si Si3 0.521971 0.572774 0.428549
Si Si4 0.415919 0.180602 0.946700
Si Si5 0.753469 0.321854 0.354955
Si Si6 0.233010 0.599699 0.320808
Si Si7 0.829731 0.088696 0.514322
O O1 0.580895 0.381307 0.403766
O O2 0.603932 0.180666 0.286880
O O3 0.278383 0.877916 0.279900
O O4 0.500000 0.000000 0.000000
O O5 0.241846 0.788485 0.491514
O O6 0.217887 0.018360 0.677670
O O7 0.982879 0.706262 0.780038
O O8 0.345943 0.164664 0.896189
O O9 0.500000 0.500000 0.500000
O O10 0.743798 0.852132 0.430511
O O11 0.420534 0.326679 0.196233
O O12 0.618902 0.330850 0.857255
O O13 0.252574 0.870235 0.838132
O O14 0.706775 0.348621 0.564746
O O15 0.953077 0.619721 0.401561
#
# Coordination Sequence:
#
# PCOD8044067 Si02
#       7
#     2   2   2   2   2   2   2
#     4  10  21  39  62  79 110 154 200 233 280 342
#     4   9  17  34  57  94 114 153 187 232 281 346
#     4  10  24  43  55  82 121 151 190 249 291 329
#     4  11  20  35  62  88 121 150 185 238 292 336
#     4  10  19  37  63  89 109 156 194 228 284 346
#     4   9  18  32  59  90 125 143 189 231 285 347
#     4   9  21  38  61  83 121 144 197 238 276 348
#
# _framework density 19.342578
#
# number of rings (size 3 to 8) (size 9 to 14) (size 15 to 20)
#    0.857    1.429    0.000    5.143    0.000    1.143 
#    2.571    2.143    0.000    0.000    0.000    0.000 
#    0.000    0.000    0.000    0.000    0.000    0.000 
#
# Total GULP energy -173444.367653 kJ/mol
# GULP energy per Si atom -12388.883404 kJ/mol
# Density = 1.929855 g / cm^3
# Si number density = 19.342578 Si / 1000 Ang^3
#
#
#
# Elastic Constant Matrix: (Units=GPa)
#
#
# Indices 1 2 3 4 5 6 
#
# 1 74.2880 20.9678 26.0035 -7.0275 8.8392 -9.9520
# 2 20.9678 67.7956 24.4490 5.0978 6.5084 -19.9206
# 3 26.0035 24.4490 119.5750 -4.8220 3.4610 -1.9649
# 4 -7.0275 5.0978 -4.8220 15.5384 -6.5702 -1.3867
# 5 8.8392 6.5084 3.4610 -6.5702 15.9769 2.3030
# 6 -9.9520 -19.9206 -1.9649 -1.3867 2.3030 30.8411
#
#
#
# Elastic Compliance Matrix: (Units=1/GPa)
#
#
# Indices 1 2 3 4 5 6 
#
# 1 0.017009 -0.002984 -0.002620 0.005749 -0.005852 0.004089
# 2 -0.002984 0.024392 -0.004276 -0.016180 -0.016175 0.015000
# 3 -0.002620 -0.004276 0.009839 0.004399 0.003306 -0.003030
# 4 0.005749 -0.016180 0.004399 0.090135 0.040575 -0.007293
# 5 -0.005852 -0.016175 0.003306 0.040575 0.090849 -0.017085
# 6 0.004089 0.015000 -0.003030 -0.007293 -0.017085 0.044187
#
#
# Mechanical properties :
#
#
# Convention : Reuss Voigt Hill
#
# Bulk Modulus (GPa) = 31.76785 44.94435 38.35610
# Shear Modulus (GPa) = 16.30435 25.15385 20.72910
#
# Velocity S-wave (km/s) = 2.90647 3.61007 3.27721
# Velocity P-wave (km/s) = 5.26525 6.37677 5.84748
#
# Compressibility (1/GPa) = 0.03147837
#
# Stress axis : x y z
#
# Youngs Moduli (GPa) = 58.79381 40.99654 101.63650
#
# Poissons Ratio (x) = 0.12235 0.26630
# Poissons Ratio (y) = 0.17546 0.43462
# Poissons Ratio (z) = 0.15405 0.17531
#
# Static dielectric constant tensor:
#      x y z
#    x 3.527150 -0.066080 0.069270 
#    y -0.066080 3.548580 -0.002660 
#    z 0.069270 -0.002660 3.432500 
# 
# 
# High freq. dielectric constant tensor:
#      x y z
#    x 1.749080 -0.005670 0.013570 
#    y -0.005670 1.747380 0.001580 
#    z 0.013570 0.001580 1.730930 
# 
# From -- ./inp_files/472479.got.cif
#   From: 2010.06.25/outbox.cif.g09.slc.cpg/sg2_237_cif.got.tgz:472479.got - 2010.06.27 13:26:56.
