data_PCOD8044333
_publ_section_title
;
Structure prediction by ZEFSAII (Michael W. Deem and Ramdas Pophale) SiO2 
 PCOD8044333
Probable space group: P -1
;
_chemical_formula_sum "Si O2"
_cell_formula_units_Z 16
_cell_length_a 17.799495
_cell_length_b 14.987241
_cell_length_c 20.537154
_cell_angle_alpha 30.712760
_cell_angle_beta 18.930273
_cell_angle_gamma 41.842619
_cell_volume 827.146387
_symmetry_space_group_name_H-M "P -1"
_symmetry_group_IT_number 2
_symmetry_cell_setting 'triclinic'
loop_
_space_group_symop_operation_xyz
x,y,z
-x,-y,-z
loop_
_atom_site_type_symbol
_atom_site_label
_atom_site_fract_x
_atom_site_fract_y
_atom_site_fract_z
Si Si1 0.649783 0.700711 0.918451
Si Si2 0.077974 0.433031 0.545436
Si Si3 0.411071 0.923064 0.273466
Si Si4 0.223149 0.367195 0.284498
Si Si5 0.929536 0.073139 0.821231
Si Si6 0.878585 0.610897 0.909694
Si Si7 0.899660 0.676261 0.088668
Si Si8 0.560973 0.630634 0.272925
O O1 0.376653 0.525000 0.255192
O O2 0.766956 0.724703 0.735297
O O3 0.838648 0.660899 0.837166
O O4 0.627759 0.895275 0.836440
O O5 0.000000 0.500000 0.500000
O O6 0.932630 0.497894 0.679790
O O7 0.990635 0.204206 0.754050
O O8 0.501141 0.819439 0.207424
O O9 0.148842 0.767559 0.616181
O O10 0.625686 0.990278 0.111349
O O11 0.080851 0.191971 0.559974
O O12 0.500000 0.500000 0.000000
O O13 0.014836 0.900435 0.872667
O O14 0.878205 0.399771 0.045559
O O15 0.649477 0.614677 0.137870
O O16 0.781241 0.647142 0.132167
O O17 0.689240 0.559144 0.387964
#
# Coordination Sequence:
#
# PCOD8044333 Si02
#       8
#     2   2   2   2   2   2   2   2
#     4  12  23  37  58  91 122 151 188 236 300 353
#     4  10  19  38  57  84 117 142 194 244 283 336
#     4  10  21  37  56  87 120 149 192 237 282 352
#     4  11  20  37  63  88 113 149 190 245 295 332
#     4  10  19  39  63  88 113 147 199 249 279 333
#     4  11  24  38  57  86 125 157 189 231 292 353
#     4   9  20  39  58  85 114 151 203 238 273 343
#     4   9  20  40  59  80 115 160 198 240 276 328
#
# _framework density 19.343613999999999
#
# number of rings (size 3 to 8) (size 9 to 14) (size 15 to 20)
#    0.000    1.750    5.000    1.500    3.500    2.500 
#    2.250    0.625    0.000    1.500    0.000    0.000 
#    0.000    0.000    0.000    0.000    0.000    0.000 
#
# Total GULP energy -198386.364317 kJ/mol
# GULP energy per Si atom -12399.147770 kJ/mol
# Density = 1.929959 g / cm^3
# Si number density = 19.343614 Si / 1000 Ang^3
#
#
#
# Elastic Constant Matrix: (Units=GPa)
#
#
# Indices 1 2 3 4 5 6 
#
# 1 56.2339 45.9328 26.4964 -0.3646 7.9895 -0.1126
# 2 45.9328 186.2434 52.3208 -20.4053 5.6485 4.6630
# 3 26.4964 52.3208 93.5027 -6.3230 -6.5846 11.3840
# 4 -0.3646 -20.4053 -6.3230 39.1419 4.0614 2.9871
# 5 7.9895 5.6485 -6.5846 4.0614 17.9510 4.6337
# 6 -0.1126 4.6630 11.3840 2.9871 4.6337 21.4304
#
#
#
# Elastic Compliance Matrix: (Units=1/GPa)
#
#
# Indices 1 2 3 4 5 6 
#
# 1 0.027211 -0.004671 -0.007379 -0.002476 -0.015026 0.008673
# 2 -0.004671 0.007840 -0.002940 0.003821 -0.002277 -0.000209
# 3 -0.007379 -0.002940 0.016762 0.000602 0.013119 -0.011224
# 4 -0.002476 0.003821 0.000602 0.028467 -0.005291 -0.003988
# 5 -0.015026 -0.002277 0.013119 -0.005291 0.074796 -0.021987
# 6 0.008673 -0.000209 -0.011224 -0.003988 -0.021987 0.058026
#
#
# Mechanical properties :
#
#
# Convention : Reuss Voigt Hill
#
# Bulk Modulus (GPa) = 45.80065 65.05332 55.42699
# Shear Modulus (GPa) = 19.97122 29.78665 24.87893
#
# Velocity S-wave (km/s) = 3.21665 3.92837 3.59019
# Velocity P-wave (km/s) = 6.12573 7.36747 6.77511
#
# Compressibility (1/GPa) = 0.02183375
#
# Stress axis : x y z
#
# Youngs Moduli (GPa) = 36.74967 127.54913 59.65866
#
# Poissons Ratio (x) = 0.59575 0.44022
# Poissons Ratio (y) = 0.17165 0.17540
# Poissons Ratio (z) = 0.27118 0.37499
#
# Static dielectric constant tensor:
#      x y z
#    x 3.148220 0.135910 -0.097320 
#    y 0.135910 4.056980 -0.097400 
#    z -0.097320 -0.097400 3.604200 
# 
# 
# High freq. dielectric constant tensor:
#      x y z
#    x 1.705490 0.006350 -0.009120 
#    y 0.006350 1.773420 0.000920 
#    z -0.009120 0.000920 1.750340 
# 
# From -- ./inp_files/467577.got.cif
#   From: 2010.06.25/outbox.cif.g09.slc.cpg/sg2_234_cif.got.tgz:467577.got - 2010.06.27 13:26:56.
