data_PCOD8044160
_publ_section_title
;
Structure prediction by ZEFSAII (Michael W. Deem and Ramdas Pophale) SiO2 
 PCOD8044160
Probable space group: P -1
;
_chemical_formula_sum "Si O2"
_cell_formula_units_Z 16
_cell_length_a 11.753670
_cell_length_b 11.944617
_cell_length_c 11.541805
_cell_angle_alpha 124.895689
_cell_angle_beta 121.472065
_cell_angle_gamma 35.785491
_cell_volume 771.452527
_symmetry_space_group_name_H-M "P -1"
_symmetry_group_IT_number 2
_symmetry_cell_setting 'triclinic'
loop_
_space_group_symop_operation_xyz
x,y,z
-x,-y,-z
loop_
_atom_site_type_symbol
_atom_site_label
_atom_site_fract_x
_atom_site_fract_y
_atom_site_fract_z
Si Si1 0.032604 0.194300 0.601392
Si Si2 0.983537 0.356575 0.439468
Si Si3 0.633674 0.504564 0.205092
Si Si4 0.954403 0.192851 0.001059
Si Si5 0.222952 0.944811 0.203556
Si Si6 0.941442 0.387681 0.901066
Si Si7 0.696639 0.230727 0.467589
Si Si8 0.469738 0.434653 0.254460
O O1 0.001069 0.337210 0.576122
O O2 0.057199 0.237169 0.766753
O O3 0.858480 0.218613 0.511810
O O4 0.228678 0.961469 0.542825
O O5 0.769336 0.472401 0.354070
O O6 0.000000 0.500000 0.500000
O O7 0.156328 0.130291 0.346488
O O8 0.763571 0.374236 0.084140
O O9 0.455901 0.741084 0.216195
O O10 0.558864 0.416584 0.167985
O O11 0.894756 0.102000 0.841520
O O12 0.011312 0.269739 0.988918
O O13 0.151411 0.017708 0.075646
O O14 0.711693 0.528434 0.845936
O O15 0.000000 0.500000 0.000000
O O16 0.604182 0.250496 0.307179
O O17 0.561172 0.400988 0.593021
#
# Coordination Sequence:
#
# PCOD8044160 Si02
#       8
#     2   2   2   2   2   2   2   2
#     4  10  21  38  63  88 125 161 205 259 319 371
#     4  11  25  41  64  96 129 164 208 269 334 371
#     4  11  21  40  69  94 128 164 220 266 309 376
#     4  10  23  40  64  97 125 170 217 260 311 371
#     4  10  22  40  66  96 124 166 219 265 310 378
#     4  11  25  41  61  86 134 170 201 253 323 385
#     4   9  19  35  63  97 116 154 210 264 308 374
#     4  10  19  37  64  96 123 159 213 259 313 371
#
# _framework density 20.740096000000001
#
# number of rings (size 3 to 8) (size 9 to 14) (size 15 to 20)
#    0.000    1.750    2.500    1.125    7.000    1.500 
#    0.000    1.875    0.000    0.000    0.000    0.000 
#    0.000    0.000    0.000    0.000    0.000    0.000 
#
# Total GULP energy -198272.539912 kJ/mol
# GULP energy per Si atom -12392.033745 kJ/mol
# Density = 2.069289 g / cm^3
# Si number density = 20.740096 Si / 1000 Ang^3
#
#
#
# Elastic Constant Matrix: (Units=GPa)
#
#
# Indices 1 2 3 4 5 6 
#
# 1 105.8019 49.6668 49.3188 3.3491 3.7710 33.3612
# 2 49.6668 139.0658 38.8227 -3.5078 -1.6449 10.9699
# 3 49.3188 38.8227 75.9953 -1.9473 -0.6716 7.7218
# 4 3.3491 -3.5078 -1.9473 28.3129 3.7211 -0.4628
# 5 3.7710 -1.6449 -0.6716 3.7211 33.4198 -1.3377
# 6 33.3612 10.9699 7.7218 -0.4628 -1.3377 35.8441
#
#
#
# Elastic Compliance Matrix: (Units=1/GPa)
#
#
# Indices 1 2 3 4 5 6 
#
# 1 0.021631 -0.003552 -0.010623 -0.003598 -0.003106 -0.016919
# 2 -0.003552 0.009087 -0.002408 0.001307 0.000698 0.001087
# 3 -0.010623 -0.002408 0.020720 0.002289 0.001492 0.006246
# 4 -0.003598 0.001307 0.002289 0.036563 -0.003443 0.002799
# 5 -0.003106 0.000698 0.001492 -0.003443 0.030859 0.003463
# 6 -0.016919 0.001087 0.006246 0.002799 0.003463 0.042133
#
#
# Mechanical properties :
#
#
# Convention : Reuss Voigt Hill
#
# Bulk Modulus (GPa) = 54.73135 66.27553 60.50344
# Shear Modulus (GPa) = 24.96876 31.71900 28.34388
#
# Velocity S-wave (km/s) = 3.47347 3.91494 3.70080
# Velocity P-wave (km/s) = 6.52174 7.24295 6.89179
#
# Compressibility (1/GPa) = 0.01827107
#
# Stress axis : x y z
#
# Youngs Moduli (GPa) = 46.23042 110.04497 48.26215
#
# Poissons Ratio (x) = 0.39093 0.51271
# Poissons Ratio (y) = 0.16423 0.11620
# Poissons Ratio (z) = 0.49113 0.26494
#
# Static dielectric constant tensor:
#      x y z
#    x 3.702630 -0.175640 -1.044200 
#    y -0.175640 4.406320 0.800510 
#    z -1.044200 0.800510 8.349980 
# 
# 
# High freq. dielectric constant tensor:
#      x y z
#    x 1.784390 0.006920 -0.016300 
#    y 0.006920 1.828090 -0.015620 
#    z -0.016300 -0.015620 1.806180 
# 
# From -- ./inp_files/426718.got.cif
#   From: 2010.06.25/outbox.cif.g09.slc.cpg/sg2_214_cif.got.tgz:426718.got - 2010.06.27 13:26:56.
