data_PCOD8044872
_publ_section_title
;
Structure prediction by ZEFSAII (Michael W. Deem and Ramdas Pophale) SiO2 
 PCOD8044872
Probable space group: P 2
;
_chemical_formula_sum "Si O2"
_cell_formula_units_Z 13
_cell_length_a 15.043686
_cell_length_b 8.246826
_cell_length_c 14.946181
_cell_angle_alpha 90.000000
_cell_angle_beta 19.644802
_cell_angle_gamma 90.000000
_cell_volume 623.381153
_symmetry_space_group_name_H-M "P 2"
_symmetry_group_IT_number 3
_symmetry_cell_setting 'monoclinic'
loop_
_space_group_symop_operation_xyz
x,y,z
-x,y,-z
loop_
_atom_site_type_symbol
_atom_site_label
_atom_site_fract_x
_atom_site_fract_y
_atom_site_fract_z
Si Si1 0.345723 0.303790 0.800461
Si Si2 0.500000 0.542713 0.500000
Si Si3 0.945267 0.032673 0.450580
Si Si4 0.554108 0.815282 0.044834
Si Si5 0.133685 0.113298 0.670785
Si Si6 0.318869 0.608573 0.922801
Si Si7 0.222918 0.741788 0.623025
O O1 0.345934 0.425974 0.715694
O O2 0.579246 0.175706 0.574540
O O3 0.386329 0.419660 0.847780
O O4 0.072242 0.207836 0.070933
O O5 0.276978 0.662320 0.669160
O O6 0.000000 0.110423 0.500000
O O7 0.181673 0.916855 0.201934
O O8 0.923099 0.146410 0.382559
O O9 0.678478 0.930467 0.701131
O O10 0.500000 0.744223 0.000000
O O11 0.593913 0.650969 0.060508
O O12 0.126180 0.927075 0.710252
O O13 0.495504 0.725926 0.693218
O O14 0.007345 0.635093 0.203276
#
# Coordination Sequence:
#
# PCOD8044872 Si02
#       7
#     2   1   2   2   2   2   2
#     4  11  26  40  67  86 140 158 211 259 349 369
#     4  10  26  50  60  96 116 184 208 280 320 390
#     4  10  20  35  62  96 132 164 212 263 306 366
#     4  10  18  33  61  93 125 164 217 265 296 364
#     4  12  22  42  64 102 120 176 203 272 310 394
#     4  11  20  41  60  95 120 176 200 266 308 397
#     4  11  23  40  72  83 126 155 234 255 314 374
#
# _framework density 20.854015
#
# number of rings (size 3 to 8) (size 9 to 14) (size 15 to 20)
#    0.000    1.231    3.077    3.692    0.000    6.154 
#    0.000    4.615    0.000    0.000    0.000    0.000 
#    0.000    0.000    0.000    0.000    0.000    0.000 
#
# Total GULP energy -161062.958581 kJ/mol
# GULP energy per Si atom -12389.458352 kJ/mol
# Density = 2.080655 g / cm^3
# Si number density = 20.854015 Si / 1000 Ang^3
#
#
#
# Elastic Constant Matrix: (Units=GPa)
#
#
# Indices 1 2 3 4 5 6 
#
# 1 119.2591 34.0740 25.8361 0.0000 2.0346 0.0000
# 2 34.0740 84.7435 25.3753 0.0000 9.9227 0.0000
# 3 25.8361 25.3753 117.7882 0.0000 -4.5717 0.0000
# 4 0.0000 0.0000 0.0000 32.1655 0.0000 4.3743
# 5 2.0346 9.9227 -4.5717 0.0000 30.3467 0.0000
# 6 0.0000 0.0000 0.0000 4.3743 0.0000 41.9194
#
#
#
# Elastic Compliance Matrix: (Units=1/GPa)
#
#
# Indices 1 2 3 4 5 6 
#
# 1 0.009679 -0.003522 -0.001353 0.000000 0.000299 0.000000
# 2 -0.003522 0.014556 -0.002554 0.000000 -0.004908 0.000000
# 3 -0.001353 -0.002554 0.009428 0.000000 0.002346 0.000000
# 4 0.000000 0.000000 0.000000 0.031537 0.000000 -0.003291
# 5 0.000299 -0.004908 0.002346 0.000000 0.034891 0.000000
# 6 0.000000 0.000000 0.000000 -0.003291 0.000000 0.024199
#
#
# Mechanical properties :
#
#
# Convention : Reuss Voigt Hill
#
# Bulk Modulus (GPa) = 53.17429 54.70682 53.94055
# Shear Modulus (GPa) = 34.38450 36.65336 35.51893
#
# Velocity S-wave (km/s) = 4.06497 4.19694 4.13148
# Velocity P-wave (km/s) = 6.89824 7.05521 6.97716
#
# Compressibility (1/GPa) = 0.01880608
#
# Stress axis : x y z
#
# Youngs Moduli (GPa) = 103.31322 68.70131 106.06971
#
# Poissons Ratio (x) = 0.24195 0.14349
# Poissons Ratio (y) = 0.36385 0.27088
# Poissons Ratio (z) = 0.13976 0.17545
#
# Static dielectric constant tensor:
#      x y z
#    x 4.116810 0.000000 0.174550 
#    y 0.000000 3.659810 0.000000 
#    z 0.174550 0.000000 3.930140 
# 
# 
# High freq. dielectric constant tensor:
#      x y z
#    x 1.821680 0.000000 -0.003650 
#    y 0.000000 1.793920 0.000000 
#    z -0.003650 0.000000 1.838590 
# 
# From -- ./inp_files/13961.got.cif
#   From: 2010.03.12/outbox.cif.g09.slc.cpg/sg3_7_cif.got.tgz:13961.got - 2010.03.31 09:20:49.
