data_PCOD8044049
_publ_section_title
;
Structure prediction by ZEFSAII (Michael W. Deem and Ramdas Pophale) SiO2 
 PCOD8044049
Probable space group: P -1
;
_chemical_formula_sum "Si O2"
_cell_formula_units_Z 16
_cell_length_a 8.544061
_cell_length_b 8.382940
_cell_length_c 15.047708
_cell_angle_alpha 130.415262
_cell_angle_beta 71.128352
_cell_angle_gamma 109.050934
_cell_volume 766.219926
_symmetry_space_group_name_H-M "P -1"
_symmetry_group_IT_number 2
_symmetry_cell_setting 'triclinic'
loop_
_space_group_symop_operation_xyz
x,y,z
-x,-y,-z
loop_
_atom_site_type_symbol
_atom_site_label
_atom_site_fract_x
_atom_site_fract_y
_atom_site_fract_z
Si Si1 0.766183 0.068687 0.629173
Si Si2 0.470542 0.866312 0.719284
Si Si3 0.987417 0.994530 0.893958
Si Si4 0.627288 0.882131 0.879790
Si Si5 0.871603 0.350781 0.354665
Si Si6 0.686094 0.730735 0.097329
Si Si7 0.374118 0.525617 0.157502
Si Si8 0.958674 0.182581 0.465102
O O1 0.751496 0.308893 0.743528
O O2 0.810279 0.071479 0.517245
O O3 0.590088 0.919387 0.630525
O O4 0.911737 0.983943 0.629108
O O5 0.576817 0.808775 0.762875
O O6 0.323069 0.677364 0.649893
O O7 0.394667 0.065773 0.844234
O O8 0.021070 0.761471 0.775267
O O9 0.806838 0.035332 0.906804
O O10 0.118345 0.180596 0.888744
O O11 0.000000 0.000000 0.000000
O O12 0.660290 0.664004 0.836890
O O13 0.500000 0.000000 0.000000
O O14 0.878251 0.231682 0.404702
O O15 0.941525 0.599430 0.433175
O O16 0.573543 0.629022 0.164884
O O17 0.670336 0.553162 0.961582
#
# Coordination Sequence:
#
# PCOD8044049 Si02
#       8
#     2   2   2   2   2   2   2   2
#     4  10  22  39  62  90 117 165 199 258 304 362
#     4  10  21  39  62  90 125 158 205 252 309 363
#     4  11  20  36  62  93 121 159 201 248 312 361
#     4  12  21  36  59  92 126 166 201 247 304 375
#     4  10  22  42  65  89 122 159 205 262 300 364
#     4   9  19  37  59  88 122 165 192 253 304 374
#     4  10  19  37  63  85 130 160 199 244 318 355
#     4  10  22  42  64  90 119 159 213 252 305 353
#
# _framework density 20.881733000000001
#
# number of rings (size 3 to 8) (size 9 to 14) (size 15 to 20)
#    0.000    1.750    2.500    2.250    0.000    2.000 
#    0.000    9.375    0.000    0.000    0.000    0.000 
#    0.000    0.000    0.000    0.000    0.000    0.000 
#
# Total GULP energy -198296.265329 kJ/mol
# GULP energy per Si atom -12393.516583 kJ/mol
# Density = 2.083421 g / cm^3
# Si number density = 20.881733 Si / 1000 Ang^3
#
#
#
# Elastic Constant Matrix: (Units=GPa)
#
#
# Indices 1 2 3 4 5 6 
#
# 1 142.3957 42.1248 49.9130 -6.2864 -2.8141 20.1246
# 2 42.1248 70.9338 33.8852 -3.6296 -9.5954 5.8243
# 3 49.9130 33.8852 96.9317 -1.0963 -8.2000 3.2566
# 4 -6.2864 -3.6296 -1.0963 31.1501 -3.8419 -2.2356
# 5 -2.8141 -9.5954 -8.2000 -3.8419 36.7403 -4.0358
# 6 20.1246 5.8243 3.2566 -2.2356 -4.0358 35.8081
#
#
#
# Elastic Compliance Matrix: (Units=1/GPa)
#
#
# Indices 1 2 3 4 5 6 
#
# 1 0.010256 -0.004023 -0.003832 0.000924 -0.001560 -0.004879
# 2 -0.004023 0.019141 -0.004270 0.001759 0.003932 0.000089
# 3 -0.003832 -0.004270 0.013874 -0.000429 0.001837 0.001767
# 4 0.000924 0.001759 -0.000429 0.033110 0.004090 0.001762
# 5 -0.001560 0.003932 0.001837 0.004090 0.029362 0.003635
# 6 -0.004879 0.000089 0.001767 0.001762 0.003635 0.031013
#
#
# Mechanical properties :
#
#
# Convention : Reuss Voigt Hill
#
# Bulk Modulus (GPa) = 52.57668 62.45635 57.51652
# Shear Modulus (GPa) = 29.87811 33.02891 31.45351
#
# Velocity S-wave (km/s) = 3.78673 3.98139 3.88528
# Velocity P-wave (km/s) = 6.65973 7.14911 6.90876
#
# Compressibility (1/GPa) = 0.01901984
#
# Stress axis : x y z
#
# Youngs Moduli (GPa) = 97.50855 52.24334 72.07816
#
# Poissons Ratio (x) = 0.21017 0.27621
# Poissons Ratio (y) = 0.39226 0.30780
# Poissons Ratio (z) = 0.37367 0.22310
#
# Static dielectric constant tensor:
#      x y z
#    x 3.868080 0.302500 -0.174060 
#    y 0.302500 3.895380 -0.027170 
#    z -0.174060 -0.027170 3.743190 
# 
# 
# High freq. dielectric constant tensor:
#      x y z
#    x 1.810620 0.019660 -0.019960 
#    y 0.019660 1.817040 -0.004210 
#    z -0.019960 -0.004210 1.815370 
# 
# From -- ./inp_files/455206.got.cif
#   From: 2010.06.25/outbox.cif.g09.slc.cpg/sg2_228_cif.got.tgz:455206.got - 2010.06.27 13:26:56.
