data_PCOD8044901
_publ_section_title
;
Structure prediction by ZEFSAII (Michael W. Deem and Ramdas Pophale) SiO2 
 PCOD8044901
Probable space group: P 2
;
_chemical_formula_sum "Si O2"
_cell_formula_units_Z 16
_cell_length_a 9.557758
_cell_length_b 18.788422
_cell_length_c 8.634795
_cell_angle_alpha 90.000000
_cell_angle_beta 32.080019
_cell_angle_gamma 90.000000
_cell_volume 823.525831
_symmetry_space_group_name_H-M "P 2"
_symmetry_group_IT_number 3
_symmetry_cell_setting 'monoclinic'
loop_
_space_group_symop_operation_xyz
x,y,z
-x,y,-z
loop_
_atom_site_type_symbol
_atom_site_label
_atom_site_fract_x
_atom_site_fract_y
_atom_site_fract_z
Si Si1 0.937360 0.764820 0.377201
Si Si2 0.733325 0.130106 0.164760
Si Si3 0.053905 0.924555 0.630824
Si Si4 0.227070 0.391377 0.168968
Si Si5 0.738010 0.293685 0.159347
Si Si6 0.556516 0.006337 0.127759
Si Si7 0.568645 0.686868 0.116477
Si Si8 0.231102 0.547545 0.167286
O O1 0.867538 0.844905 0.390582
O O2 0.701198 0.710932 0.545925
O O3 0.000000 0.761035 0.500000
O O4 0.205917 0.741606 0.040619
O O5 0.500000 0.117469 0.500000
O O6 0.748906 0.211660 0.095652
O O7 0.661556 0.083026 0.083095
O O8 0.000000 0.105925 0.000000
O O9 0.000000 0.926117 0.500000
O O10 0.288942 0.978286 0.459534
O O11 0.782163 0.949622 0.963388
O O12 0.143139 0.470433 0.182515
O O13 0.000000 0.364000 0.500000
O O14 0.500000 0.393639 0.000000
O O15 0.275006 0.339151 0.982570
O O16 0.500000 0.309345 0.500000
O O17 0.000000 0.316665 0.000000
O O18 0.500000 0.012512 0.000000
O O19 0.500000 0.690556 0.000000
O O20 0.691298 0.607659 0.034261
O O21 0.000000 0.576863 0.500000
O O22 0.500000 0.530423 0.000000
#
# Coordination Sequence:
#
# PCOD8044901 Si02
#       8
#     2   2   2   2   2   2   2   2
#     4   9  15  22  35  56  87 127 161 191 236 294
#     4  10  21  37  55  75 101 132 167 210 255 302
#     4   9  17  28  42  65  97 129 161 202 249 293
#     4  10  20  34  54  80 109 140 174 216 263 312
#     4  10  21  38  57  78 107 140 174 216 263 312
#     4  10  19  32  50  72  99 130 163 203 252 301
#     4   9  14  21  34  55  86 127 164 192 235 294
#     4   9  16  26  40  63  97 131 163 204 251 294
#
# _framework density 19.428656
#
# number of rings (size 3 to 8) (size 9 to 14) (size 15 to 20)
#    0.000    2.500    0.000    4.125    0.000    3.500 
#    0.000    1.875    0.000    0.000    0.000    0.000 
#    0.000   20.000    0.000    0.000    0.000    0.000 
#
# Total GULP energy -198209.079060 kJ/mol
# GULP energy per Si atom -12388.067441 kJ/mol
# Density = 1.938444 g / cm^3
# Si number density = 19.428656 Si / 1000 Ang^3
#
#
#
# Elastic Constant Matrix: (Units=GPa)
#
#
# Indices 1 2 3 4 5 6 
#
# 1 45.3779 49.1359 37.6187 0.0000 -12.5680 0.0000
# 2 49.1359 125.9117 38.8501 0.0000 -6.8184 0.0000
# 3 37.6187 38.8501 105.9889 0.0000 -33.2734 0.0000
# 4 0.0000 0.0000 0.0000 5.6093 0.0000 -2.0781
# 5 -12.5680 -6.8184 -33.2734 0.0000 22.5769 0.0000
# 6 0.0000 0.0000 0.0000 -2.0781 0.0000 2.9985
#
#
#
# Elastic Compliance Matrix: (Units=1/GPa)
#
#
# Indices 1 2 3 4 5 6 
#
# 1 0.049194 -0.016062 -0.008372 0.000000 0.010195 0.000000
# 2 -0.016062 0.014395 -0.001894 0.000000 -0.007385 0.000000
# 3 -0.008372 -0.001894 0.021324 0.000000 0.026194 0.000000
# 4 0.000000 0.000000 0.000000 0.239860 0.000000 0.166231
# 5 0.010195 -0.007385 0.026194 0.000000 0.086342 0.000000
# 6 0.000000 0.000000 0.000000 0.166231 0.000000 0.448701
#
#
# Mechanical properties :
#
#
# Convention : Reuss Voigt Hill
#
# Bulk Modulus (GPa) = 31.00199 58.72087 44.86143
# Shear Modulus (GPa) = 5.41581 16.34854 10.88217
#
# Velocity S-wave (km/s) = 1.67140 2.90395 2.36923
# Velocity P-wave (km/s) = 4.44030 6.44464 5.53397
#
# Compressibility (1/GPa) = 0.03225599
#
# Stress axis : x y z
#
# Youngs Moduli (GPa) = 20.32780 69.47065 46.89589
#
# Poissons Ratio (x) = 1.11584 0.39262
# Poissons Ratio (y) = 0.32651 0.08881
# Poissons Ratio (z) = 0.17019 0.13157
#
# Static dielectric constant tensor:
#      x y z
#    x 3.027230 0.000000 -0.276650 
#    y 0.000000 3.990580 0.000000 
#    z -0.276650 0.000000 4.091930 
# 
# 
# High freq. dielectric constant tensor:
#      x y z
#    x 1.694120 0.000000 -0.039290 
#    y 0.000000 1.768300 0.000000 
#    z -0.039290 0.000000 1.769860 
# 
# From -- ./inp_files/6320.got.cif
#   From: 2010.03.12/outbox.cif.g09.slc.cpg/sg3_4_cif.got.tgz:6320.got - 2010.03.31 09:20:49.
