data_PCOD8044957
_publ_section_title
;
Structure prediction by ZEFSAII (Michael W. Deem and Ramdas Pophale) SiO2 
 PCOD8044957
Probable space group: P 2
;
_chemical_formula_sum "Si O2"
_cell_formula_units_Z 16
_cell_length_a 9.419278
_cell_length_b 8.893495
_cell_length_c 12.026270
_cell_angle_alpha 90.000000
_cell_angle_beta 51.977560
_cell_angle_gamma 90.000000
_cell_volume 793.633936
_symmetry_space_group_name_H-M "P 2"
_symmetry_group_IT_number 3
_symmetry_cell_setting 'monoclinic'
loop_
_space_group_symop_operation_xyz
x,y,z
-x,y,-z
loop_
_atom_site_type_symbol
_atom_site_label
_atom_site_fract_x
_atom_site_fract_y
_atom_site_fract_z
Si Si1 0.179325 0.906290 0.372031
Si Si2 0.792835 0.585179 0.324035
Si Si3 0.624737 0.474672 0.183414
Si Si4 0.375321 0.325384 0.462191
Si Si5 0.302469 0.915800 0.555680
Si Si6 0.615589 0.655600 0.844402
Si Si7 0.028088 0.148368 0.663603
Si Si8 0.842571 0.428735 0.859115
O O1 0.306300 0.929862 0.418420
O O2 0.257416 0.795063 0.243420
O O3 0.000000 0.820662 0.500000
O O4 0.114062 0.066043 0.349827
O O5 0.744903 0.538363 0.223117
O O6 0.682777 0.490422 0.467817
O O7 0.745975 0.754946 0.372849
O O8 0.004942 0.555599 0.223754
O O9 0.493891 0.342243 0.292813
O O10 0.508086 0.617268 0.200646
O O11 0.752224 0.411966 0.023805
O O12 0.500000 0.250568 0.500000
O O13 0.192736 0.234742 0.520539
O O14 0.500000 0.966319 0.500000
O O15 0.141737 0.024406 0.679824
O O16 0.701259 0.494280 0.838240
O O17 0.500000 0.722425 0.000000
O O18 0.917351 0.263364 0.793605
#
# Coordination Sequence:
#
# PCOD8044957 Si02
#       8
#     2   2   2   2   2   2   2   2
#     4  10  21  38  58  84 116 153 191 233 286 342
#     4  10  19  36  63  88 112 145 191 246 291 334
#     4  10  20  35  62  89 110 145 195 244 289 335
#     4   9  18  35  60  87 112 146 193 243 287 334
#     4  11  21  36  59  88 117 149 191 240 287 340
#     4  10  21  37  57  82 113 149 193 243 287 335
#     4  10  22  37  54  82 120 157 189 229 284 344
#     4  10  21  38  58  84 118 152 192 238 286 340
#
# _framework density 20.160429000000001
#
# number of rings (size 3 to 8) (size 9 to 14) (size 15 to 20)
#    0.000    2.000    0.000    4.875    0.000    4.000 
#    0.000    4.375    0.000   33.000    0.000    0.000 
#    0.000    0.000    0.000    0.000    0.000    0.000 
#
# Total GULP energy -198213.711377 kJ/mol
# GULP energy per Si atom -12388.356961 kJ/mol
# Density = 2.011454 g / cm^3
# Si number density = 20.160429 Si / 1000 Ang^3
#
#
#
# Elastic Constant Matrix: (Units=GPa)
#
#
# Indices 1 2 3 4 5 6 
#
# 1 84.8178 24.4846 38.7197 0.0000 -2.0566 0.0000
# 2 24.4846 124.7090 60.2881 0.0000 -8.1283 0.0000
# 3 38.7197 60.2881 132.2216 0.0000 -8.7059 0.0000
# 4 0.0000 0.0000 0.0000 -5.4492 0.0000 -20.9803
# 5 -2.0566 -8.1283 -8.7059 0.0000 26.0938 0.0000
# 6 0.0000 0.0000 0.0000 -20.9803 0.0000 -4.4606
#
#
#
# Elastic Compliance Matrix: (Units=1/GPa)
#
#
# Indices 1 2 3 4 5 6 
#
# 1 0.013703 -0.000981 -0.003594 0.000000 -0.000424 0.000000
# 2 -0.000981 0.010428 -0.004355 0.000000 0.001718 0.000000
# 3 -0.003594 -0.004355 0.010729 0.000000 0.001940 0.000000
# 4 0.000000 0.000000 0.000000 0.010726 0.000000 -0.050450
# 5 -0.000424 0.001718 0.001940 0.000000 0.039472 0.000000
# 6 0.000000 0.000000 0.000000 -0.050450 0.000000 0.013103
#
#
# Mechanical properties :
#
#
# Convention : Reuss Voigt Hill
#
# Bulk Modulus (GPa) = 58.81552 65.41479 62.11516
# Shear Modulus (GPa) = 41.08885 17.78719 29.43802
#
# Velocity S-wave (km/s) = 4.51942 2.97355 3.82539
# Velocity P-wave (km/s) = 7.51470 6.65634 7.09850
#
# Compressibility (1/GPa) = 0.01700231
#
# Stress axis : x y z
#
# Youngs Moduli (GPa) = 72.97506 95.89226 93.20830
#
# Poissons Ratio (x) = 0.09405 0.33495
# Poissons Ratio (y) = 0.07158 0.40588
# Poissons Ratio (z) = 0.26224 0.41757
#
# Static dielectric constant tensor:
#      x y z
#    x 4.005650 0.000000 -0.185240 
#    y 0.000000 3.635510 0.000000 
#    z -0.185240 0.000000 3.706700 
# 
# 
# High freq. dielectric constant tensor:
#      x y z
#    x 1.804420 0.000000 -0.009520 
#    y 0.000000 1.781640 0.000000 
#    z -0.009520 0.000000 1.774660 
# 
# From -- ./inp_files/10747.got.cif
#   From: 2010.03.12/outbox.cif.g09.slc.cpg/sg3_6_cif.got.tgz:10747.got - 2010.03.31 09:20:49.
