data_PCOD8044429
_publ_section_title
;
Structure prediction by ZEFSAII (Michael W. Deem and Ramdas Pophale) SiO2 
 PCOD8044429
Probable space group: P -1
;
_chemical_formula_sum "Si O2"
_cell_formula_units_Z 14
_cell_length_a 16.875247
_cell_length_b 11.797507
_cell_length_c 11.688211
_cell_angle_alpha 132.965166
_cell_angle_beta 30.838387
_cell_angle_gamma 114.247716
_cell_volume 772.673550
_symmetry_space_group_name_H-M "P -1"
_symmetry_group_IT_number 2
_symmetry_cell_setting 'triclinic'
loop_
_space_group_symop_operation_xyz
x,y,z
-x,-y,-z
loop_
_atom_site_type_symbol
_atom_site_label
_atom_site_fract_x
_atom_site_fract_y
_atom_site_fract_z
Si Si1 0.320256 0.437305 0.318506
Si Si2 0.343732 0.274079 0.646999
Si Si3 0.977160 0.617169 0.718354
Si Si4 0.198851 0.452976 0.715943
Si Si5 0.670622 0.302298 0.356796
Si Si6 0.500605 0.892616 0.268227
Si Si7 0.767012 0.962812 0.106552
O O1 0.269753 0.359867 0.440916
O O2 0.386410 0.575273 0.373833
O O3 0.153396 0.543972 0.519704
O O4 0.474436 0.275568 0.951034
O O5 0.301754 0.325582 0.603199
O O6 0.496554 0.317544 0.526093
O O7 0.403757 0.068200 0.434827
O O8 0.177702 0.377644 0.006530
O O9 0.000000 0.500000 0.500000
O O10 0.931061 0.814682 0.869059
O O11 0.226771 0.627792 0.807505
O O12 0.000000 0.500000 0.000000
O O13 0.808037 0.099253 0.077166
O O14 0.692472 0.862252 0.047583
O O15 0.388886 0.906138 0.527801
#
# Coordination Sequence:
#
# PCOD8044429 Si02
#       7
#     2   2   2   2   2   2   2
#     4  10  21  34  55  87 108 143 185 226 270 319
#     4  10  19  38  61  78 109 149 184 220 276 328
#     4  11  20  34  60  83 111 150 179 219 280 330
#     4  10  20  38  58  79 111 145 187 226 273 327
#     4   9  21  34  57  83 107 147 184 229 271 315
#     4   9  18  33  55  83 108 147 180 221 272 329
#     4   9  18  34  54  79 116 145 179 219 275 332
#
# _framework density 18.118907
#
# number of rings (size 3 to 8) (size 9 to 14) (size 15 to 20)
#    0.857    1.429    2.857    1.286    0.000    1.714 
#    0.000    0.000    0.000    4.286    0.000    0.000 
#    0.000    0.000    0.000    0.000    0.000    0.000 
#
# Total GULP energy -173480.072255 kJ/mol
# GULP energy per Si atom -12391.433732 kJ/mol
# Density = 1.807767 g / cm^3
# Si number density = 18.118907 Si / 1000 Ang^3
#
#
#
# Elastic Constant Matrix: (Units=GPa)
#
#
# Indices 1 2 3 4 5 6 
#
# 1 103.2318 18.9095 25.0532 17.8511 -12.1102 -14.8149
# 2 18.9095 67.0219 12.1566 12.4686 -19.6099 -12.4662
# 3 25.0532 12.1566 58.3682 15.3106 -2.9086 -1.0914
# 4 17.8511 12.4686 15.3106 20.4863 2.2597 -0.3725
# 5 -12.1102 -19.6099 -2.9086 2.2597 26.3505 1.4159
# 6 -14.8149 -12.4662 -1.0914 -0.3725 1.4159 35.0542
#
#
#
# Elastic Compliance Matrix: (Units=1/GPa)
#
#
# Indices 1 2 3 4 5 6 
#
# 1 0.013978 0.002654 -0.002673 -0.012659 0.008852 0.006276
# 2 0.002654 0.026122 0.000067 -0.020511 0.021926 0.009310
# 3 -0.002673 0.000067 0.022213 -0.014607 0.002562 -0.000673
# 4 -0.012659 -0.020511 -0.014607 0.086299 -0.029504 -0.010990
# 5 0.008852 0.021926 0.002562 -0.029504 0.060672 0.008854
# 6 0.006276 0.009310 -0.000673 -0.010990 0.008854 0.033995
#
#
# Mechanical properties :
#
#
# Convention : Reuss Voigt Hill
#
# Bulk Modulus (GPa) = 16.02353 37.87336 26.94844
# Shear Modulus (GPa) = 18.94036 27.87837 23.40937
#
# Velocity S-wave (km/s) = 3.23667 3.92680 3.59832
# Velocity P-wave (km/s) = 4.77816 6.44265 5.67180
#
# Compressibility (1/GPa) = 0.06240824
#
# Stress axis : x y z
#
# Youngs Moduli (GPa) = 71.54215 38.28163 45.01914
#
# Poissons Ratio (x) = -0.10159 0.12034
# Poissons Ratio (y) = -0.18985 -0.00303
# Poissons Ratio (z) = 0.19124 -0.00257
#
# Static dielectric constant tensor:
#      x y z
#    x 3.484050 -0.204730 -0.027270 
#    y -0.204730 3.395440 0.091740 
#    z -0.027270 0.091740 3.121670 
# 
# 
# High freq. dielectric constant tensor:
#      x y z
#    x 1.705800 -0.012130 -0.005000 
#    y -0.012130 1.701940 0.010620 
#    z -0.005000 0.010620 1.678620 
# 
# From -- ./inp_files/169160.got.cif
#   From: 2010.06.25/outbox.cif.g09.slc.cpg/sg2_85_cif.got.tgz:169160.got - 2010.06.27 13:26:56.
