data_PCOD8044277
_publ_section_title
;
Structure prediction by ZEFSAII (Michael W. Deem and Ramdas Pophale) SiO2 
 PCOD8044277
Probable space group: P -1
;
_chemical_formula_sum "Si O2"
_cell_formula_units_Z 16
_cell_length_a 18.955854
_cell_length_b 21.865042
_cell_length_c 8.956854
_cell_angle_alpha 42.163218
_cell_angle_beta 29.745982
_cell_angle_gamma 23.291348
_cell_volume 697.731677
_symmetry_space_group_name_H-M "P -1"
_symmetry_group_IT_number 2
_symmetry_cell_setting 'triclinic'
loop_
_space_group_symop_operation_xyz
x,y,z
-x,-y,-z
loop_
_atom_site_type_symbol
_atom_site_label
_atom_site_fract_x
_atom_site_fract_y
_atom_site_fract_z
Si Si1 0.526836 0.053447 0.492395
Si Si2 0.694716 0.479176 0.188039
Si Si3 0.951308 0.716135 0.843824
Si Si4 0.717342 0.211856 0.272448
Si Si5 0.776869 0.498026 0.526832
Si Si6 0.032082 0.881788 0.314711
Si Si7 0.520991 0.714518 0.864802
Si Si8 0.077774 0.728077 0.116470
O O1 0.531583 0.153392 0.238763
O O2 0.500000 0.000000 0.500000
O O3 0.314211 0.158924 0.817536
O O4 0.785808 0.897788 0.386189
O O5 0.500000 0.500000 0.500000
O O6 0.811717 0.435846 0.212723
O O7 0.583658 0.633372 0.053229
O O8 0.923566 0.330142 0.926988
O O9 0.975353 0.639303 0.788469
O O10 0.974410 0.810710 0.597708
O O11 0.443122 0.365184 0.432326
O O12 0.927759 0.134761 0.906335
O O13 0.764339 0.261865 0.225851
O O14 0.786291 0.074578 0.453849
O O15 0.751941 0.585066 0.550369
O O16 0.767967 0.404585 0.794535
O O17 0.278991 0.791210 0.104471
#
# Coordination Sequence:
#
# PCOD8044277 Si02
#       8
#     2   2   2   2   2   2   2   2
#     4  12  27  49  65  93 139 188 223 267 329 407
#     4  11  22  40  69 103 132 170 225 278 326 393
#     4  12  24  43  66 100 139 169 226 278 327 392
#     4  10  19  37  68 101 135 163 218 276 346 386
#     4  10  23  40  69 105 130 167 220 287 335 388
#     4  10  20  38  67 103 132 168 220 282 329 392
#     4  10  23  44  72  93 135 181 221 268 345 394
#     4  11  21  42  67  95 134 183 212 267 344 397
#
# _framework density 22.931452
#
# number of rings (size 3 to 8) (size 9 to 14) (size 15 to 20)
#    0.000    1.250    5.000    1.125    1.750    1.500 
#    4.500    1.875    0.000    0.000    0.000    0.000 
#    0.000    0.000    0.000    0.000    0.000    0.000 
#
# Total GULP energy -198247.110653 kJ/mol
# GULP energy per Si atom -12390.444416 kJ/mol
# Density = 2.287926 g / cm^3
# Si number density = 22.931452 Si / 1000 Ang^3
#
#
#
# Elastic Constant Matrix: (Units=GPa)
#
#
# Indices 1 2 3 4 5 6 
#
# 1 45.5928 34.9542 -10.3951 -11.2577 4.2500 1.8982
# 2 34.9542 159.3172 29.5152 -12.9761 2.4254 -1.7672
# 3 -10.3951 29.5152 54.8342 0.4600 3.0734 -5.3638
# 4 -11.2577 -12.9761 0.4600 28.3935 0.3934 3.7596
# 5 4.2500 2.4254 3.0734 0.3934 28.3644 -0.3327
# 6 1.8982 -1.7672 -5.3638 3.7596 -0.3327 30.3875
#
#
#
# Elastic Compliance Matrix: (Units=1/GPa)
#
#
# Indices 1 2 3 4 5 6 
#
# 1 0.034203 -0.008727 0.011234 0.009726 -0.005753 -0.001927
# 2 -0.008727 0.009528 -0.006883 0.001019 0.001222 -0.000228
# 3 0.011234 -0.006883 0.024582 0.000548 -0.003729 0.003128
# 4 0.009726 0.001019 0.000548 0.040286 -0.002227 -0.005460
# 5 -0.005753 0.001222 -0.003729 -0.002227 0.036453 0.000447
# 6 -0.001927 -0.000228 0.003128 -0.005460 0.000447 0.034248
#
#
# Mechanical properties :
#
#
# Convention : Reuss Voigt Hill
#
# Bulk Modulus (GPa) = 16.78932 40.87697 28.83314
# Shear Modulus (GPa) = 24.04930 31.14042 27.59486
#
# Velocity S-wave (km/s) = 3.24195 3.68907 3.47272
# Velocity P-wave (km/s) = 4.62072 6.00084 5.35543
#
# Compressibility (1/GPa) = 0.05956168
#
# Stress axis : x y z
#
# Youngs Moduli (GPa) = 29.23693 104.94883 40.68099
#
# Poissons Ratio (x) = 0.91589 -0.45700
# Poissons Ratio (y) = 0.25515 0.27999
# Poissons Ratio (z) = -0.32844 0.72232
#
# Static dielectric constant tensor:
#      x y z
#    x 4.121690 0.266120 0.360600 
#    y 0.266120 4.566690 0.108010 
#    z 0.360600 0.108010 3.975170 
# 
# 
# High freq. dielectric constant tensor:
#      x y z
#    x 1.896400 0.008930 0.018070 
#    y 0.008930 1.931600 0.004290 
#    z 0.018070 0.004290 1.877760 
# 
# From -- ./inp_files/243959.got.cif
#   From: 2010.06.25/outbox.cif.g09.slc.cpg/sg2_122_cif.got.tgz:243959.got - 2010.06.27 13:26:56.
