data_PCOD8044163
_publ_section_title
;
Structure prediction by ZEFSAII (Michael W. Deem and Ramdas Pophale) SiO2 
 PCOD8044163
Probable space group: P -1
;
_chemical_formula_sum "Si O2"
_cell_formula_units_Z 16
_cell_length_a 8.546334
_cell_length_b 14.991112
_cell_length_c 12.248178
_cell_angle_alpha 31.053082
_cell_angle_beta 101.312559
_cell_angle_gamma 110.926212
_cell_volume 736.164000
_symmetry_space_group_name_H-M "P -1"
_symmetry_group_IT_number 2
_symmetry_cell_setting 'triclinic'
loop_
_space_group_symop_operation_xyz
x,y,z
-x,-y,-z
loop_
_atom_site_type_symbol
_atom_site_label
_atom_site_fract_x
_atom_site_fract_y
_atom_site_fract_z
Si Si1 0.698878 0.935458 0.598093
Si Si2 0.334812 0.040966 0.971716
Si Si3 0.883108 0.834017 0.338302
Si Si4 0.232603 0.149908 0.065728
Si Si5 0.305822 0.690292 0.800569
Si Si6 0.282544 0.327291 0.296678
Si Si7 0.324734 0.568876 0.702071
Si Si8 0.095065 0.674675 0.401736
O O1 0.720396 0.938419 0.727645
O O2 0.499941 0.823732 0.662819
O O3 0.784135 0.813264 0.668849
O O4 0.775952 0.155352 0.339432
O O5 0.352777 0.134489 0.997119
O O6 0.168955 0.850280 0.148260
O O7 0.291161 0.170045 0.740415
O O8 0.500000 0.000000 0.000000
O O9 0.852076 0.772985 0.523320
O O10 0.945249 0.682634 0.450882
O O11 0.032240 0.037496 0.131656
O O12 0.257426 0.359777 0.869982
O O13 0.234533 0.581168 0.792154
O O14 0.281601 0.533110 0.054124
O O15 0.470325 0.350950 0.340952
O O16 0.261955 0.679378 0.487559
O O17 0.000000 0.500000 0.500000
#
# Coordination Sequence:
#
# PCOD8044163 Si02
#       8
#     2   2   2   2   2   2   2   2
#     4  10  20  38  66  95 129 172 211 266 321 376
#     4  11  24  43  65  92 122 168 221 266 321 380
#     4  11  25  42  61  93 135 167 205 272 328 383
#     4  11  21  42  66  91 131 171 209 266 336 373
#     4  10  19  37  64  98 129 168 219 261 317 378
#     4  11  22  42  63  99 134 164 224 263 311 386
#     4  11  20  40  68  93 122 171 219 266 309 388
#     4  11  23  43  65  91 127 169 216 263 330 382
#
# _framework density 21.734286999999998
#
# number of rings (size 3 to 8) (size 9 to 14) (size 15 to 20)
#    0.000    1.250    2.500    6.000    0.000    3.500 
#    4.500    3.750    0.000    0.000    0.000    0.000 
#    0.000    0.000    0.000    0.000    0.000    0.000 
#
# Total GULP energy -198285.545128 kJ/mol
# GULP energy per Si atom -12392.846570 kJ/mol
# Density = 2.168482 g / cm^3
# Si number density = 21.734287 Si / 1000 Ang^3
#
#
#
# Elastic Constant Matrix: (Units=GPa)
#
#
# Indices 1 2 3 4 5 6 
#
# 1 55.0703 39.5551 42.2538 -4.4422 8.2242 -17.0890
# 2 39.5551 143.9582 49.7086 -7.1620 5.1312 -21.6224
# 3 42.2538 49.7086 107.9908 3.8319 17.5920 -25.8467
# 4 -4.4422 -7.1620 3.8319 42.4808 -1.5240 8.1874
# 5 8.2242 5.1312 17.5920 -1.5240 34.5588 6.6119
# 6 -17.0890 -21.6224 -25.8467 8.1874 6.6119 32.4879
#
#
#
# Elastic Compliance Matrix: (Units=1/GPa)
#
#
# Indices 1 2 3 4 5 6 
#
# 1 0.029958 -0.004364 -0.007284 0.001452 -0.004151 0.007538
# 2 -0.004364 0.009205 -0.002251 0.000994 0.000540 0.001680
# 3 -0.007284 -0.002251 0.017804 -0.005432 -0.009559 0.012149
# 4 0.001452 0.000994 -0.005432 0.026613 0.005497 -0.010721
# 5 -0.004151 0.000540 -0.009559 0.005497 0.038522 -0.018655
# 6 0.007538 0.001680 0.012149 -0.010721 -0.018655 0.052028
#
#
# Mechanical properties :
#
#
# Convention : Reuss Voigt Hill
#
# Bulk Modulus (GPa) = 34.28261 63.33935 48.81098
# Shear Modulus (GPa) = 23.62375 33.60561 28.61468
#
# Velocity S-wave (km/s) = 3.30045 3.93644 3.63239
# Velocity P-wave (km/s) = 5.50742 7.06163 6.33239
#
# Compressibility (1/GPa) = 0.02916931
#
# Stress axis : x y z
#
# Youngs Moduli (GPa) = 33.37989 108.63297 56.16674
#
# Poissons Ratio (x) = 0.47407 0.40913
# Poissons Ratio (y) = 0.14567 0.12643
# Poissons Ratio (z) = 0.24315 0.24453
#
# Static dielectric constant tensor:
#      x y z
#    x 3.869800 -0.197940 0.334710 
#    y -0.197940 4.342090 -0.050420 
#    z 0.334710 -0.050420 3.999770 
# 
# 
# High freq. dielectric constant tensor:
#      x y z
#    x 1.833320 -0.004060 0.019210 
#    y -0.004060 1.869290 -0.002310 
#    z 0.019210 -0.002310 1.857000 
# 
# From -- ./inp_files/398221.got.cif
#   From: 2010.06.25/outbox.cif.g09.slc.cpg/sg2_200_cif.got.tgz:398221.got - 2010.06.27 13:26:56.
