data_PCOD8044847
_publ_section_title
;
Structure prediction by ZEFSAII (Michael W. Deem and Ramdas Pophale) SiO2 
 PCOD8044847
Probable space group: P 2
;
_chemical_formula_sum "Si O2"
_cell_formula_units_Z 15
_cell_length_a 12.158470
_cell_length_b 7.460357
_cell_length_c 9.495156
_cell_angle_alpha 90.000000
_cell_angle_beta 120.768142
_cell_angle_gamma 90.000000
_cell_volume 740.043741
_symmetry_space_group_name_H-M "P 2"
_symmetry_group_IT_number 3
_symmetry_cell_setting 'monoclinic'
loop_
_space_group_symop_operation_xyz
x,y,z
-x,y,-z
loop_
_atom_site_type_symbol
_atom_site_label
_atom_site_fract_x
_atom_site_fract_y
_atom_site_fract_z
Si Si1 0.131714 0.860430 0.354366
Si Si2 0.321035 0.021229 0.105980
Si Si3 0.188043 0.573638 0.157939
Si Si4 0.456692 0.683318 0.313211
Si Si5 0.679804 0.752605 0.278156
Si Si6 0.500000 0.023525 0.000000
Si Si7 0.125410 0.190960 0.168651
Si Si8 0.142948 0.736897 0.847194
O O1 0.177760 0.751378 0.246653
O O2 0.228898 0.841063 0.545469
O O3 0.991967 0.792791 0.309531
O O4 0.128212 0.071633 0.311368
O O5 0.254519 0.162395 0.163653
O O6 0.412882 0.885490 0.250119
O O7 0.413876 0.131795 0.057226
O O8 0.210426 0.912884 0.952781
O O9 0.337871 0.547763 0.215616
O O10 0.129197 0.403997 0.203101
O O11 0.115830 0.600182 0.959959
O O12 0.500000 0.674773 0.500000
O O13 0.575502 0.625212 0.288569
O O14 0.768404 0.650615 0.219445
O O15 0.603432 0.904182 0.147856
O O16 0.000000 0.135559 0.000000
#
# Coordination Sequence:
#
# PCOD8044847 Si02
#       8
#     2   2   2   2   2   1   2   2
#     4  12  20  38  62  91 122 159 204 256 307 365
#     4   9  17  32  56  80 114 154 192 242 293 352
#     4  11  23  36  62  89 121 162 209 246 306 364
#     4  10  17  36  57  85 120 155 202 256 296 360
#     4  10  20  34  67  88 119 166 200 254 318 359
#     4   8  18  34  54  88 114 150 206 234 298 374
#     4  12  21  36  61  92 123 160 204 252 303 366
#     4  10  19  37  58  92 119 160 204 247 308 375
#
# _framework density 20.269074
#
# number of rings (size 3 to 8) (size 9 to 14) (size 15 to 20)
#    0.000    1.600    5.333    2.400    0.000    0.000 
#    0.000    4.667    5.867    1.600    0.000    0.000 
#    0.000    0.000    0.000    0.000    0.000    0.000 
#
# Total GULP energy -185842.198567 kJ/mol
# GULP energy per Si atom -12389.479904 kJ/mol
# Density = 2.022294 g / cm^3
# Si number density = 20.269074 Si / 1000 Ang^3
#
#
#
# Elastic Constant Matrix: (Units=GPa)
#
#
# Indices 1 2 3 4 5 6 
#
# 1 99.6679 12.8779 10.4032 0.0000 -9.4722 0.0000
# 2 12.8779 60.5173 16.6334 0.0000 0.8814 0.0000
# 3 10.4032 16.6334 101.5998 0.0000 5.5600 0.0000
# 4 0.0000 0.0000 0.0000 10.5869 0.0000 6.0153
# 5 -9.4722 0.8814 5.5600 0.0000 33.1443 0.0000
# 6 0.0000 0.0000 0.0000 6.0153 0.0000 6.9117
#
#
#
# Elastic Compliance Matrix: (Units=1/GPa)
#
#
# Indices 1 2 3 4 5 6 
#
# 1 0.010710 -0.002069 -0.000937 0.000000 0.003273 0.000000
# 2 -0.002069 0.017703 -0.002653 0.000000 -0.000617 0.000000
# 3 -0.000937 -0.002653 0.010480 0.000000 -0.001955 0.000000
# 4 0.000000 0.000000 0.000000 0.186855 0.000000 -0.162621
# 5 0.003273 -0.000617 -0.001955 0.000000 0.031451 0.000000
# 6 0.000000 0.000000 0.000000 -0.162621 0.000000 0.286212
#
#
# Mechanical properties :
#
#
# Convention : Reuss Voigt Hill
#
# Bulk Modulus (GPa) = 36.26522 37.95710 37.11116
# Shear Modulus (GPa) = 8.86653 24.91995 16.89324
#
# Velocity S-wave (km/s) = 2.09378 3.51017 2.89008
# Velocity P-wave (km/s) = 4.87606 5.93259 5.43008
#
# Compressibility (1/GPa) = 0.02757463
#
# Stress axis : x y z
#
# Youngs Moduli (GPa) = 93.37502 56.48908 95.42226
#
# Poissons Ratio (x) = 0.11688 0.08941
# Poissons Ratio (y) = 0.19320 0.25311
# Poissons Ratio (z) = 0.08749 0.14984
#
# Static dielectric constant tensor:
#      x y z
#    x 4.588430 0.000000 -0.038520 
#    y 0.000000 3.064100 0.000000 
#    z -0.038520 0.000000 3.697120 
# 
# 
# High freq. dielectric constant tensor:
#      x y z
#    x 1.828010 0.000000 0.009560 
#    y 0.000000 1.723180 0.000000 
#    z 0.009560 0.000000 1.790150 
# 
# From -- ./inp_files/7245.got.cif
#   From: 2010.03.12/outbox.cif.g09.slc.cpg/sg3_4_cif.got.tgz:7245.got - 2010.03.31 09:20:49.
