data_PCOD8044702
_publ_section_title
;
Structure prediction by ZEFSAII (Michael W. Deem and Ramdas Pophale) SiO2 
 PCOD8044702
Probable space group: P -1
;
_chemical_formula_sum "Si O2"
_cell_formula_units_Z 16
_cell_length_a 9.888297
_cell_length_b 8.586950
_cell_length_c 23.667812
_cell_angle_alpha 57.151854
_cell_angle_beta 42.504961
_cell_angle_gamma 90.437681
_cell_volume 794.068877
_symmetry_space_group_name_H-M "P -1"
_symmetry_group_IT_number 2
_symmetry_cell_setting 'triclinic'
loop_
_space_group_symop_operation_xyz
x,y,z
-x,-y,-z
loop_
_atom_site_type_symbol
_atom_site_label
_atom_site_fract_x
_atom_site_fract_y
_atom_site_fract_z
Si Si1 0.111982 0.745568 0.381554
Si Si2 0.882829 0.881227 0.621336
Si Si3 0.199774 0.403961 0.608842
Si Si4 0.809006 0.501885 0.884188
Si Si5 0.827589 0.847728 0.884120
Si Si6 0.264036 0.782982 0.933135
Si Si7 0.799214 0.233281 0.391578
Si Si8 0.246181 0.408602 0.935595
O O1 0.000000 0.500000 0.500000
O O2 0.899434 0.645014 0.415293
O O3 0.119224 0.929745 0.381745
O O4 0.432520 0.909767 0.228238
O O5 0.558970 0.580925 0.777337
O O6 0.092814 0.879906 0.588713
O O7 0.000000 0.000000 0.500000
O O8 0.500000 0.500000 0.500000
O O9 0.229695 0.628266 0.580024
O O10 0.970917 0.137636 0.768572
O O11 0.962373 0.772526 0.818372
O O12 0.988589 0.559551 0.763621
O O13 0.508819 0.375626 0.979213
O O14 0.770534 0.296335 0.975485
O O15 0.861351 0.829294 0.944020
O O16 0.265120 0.604182 0.928868
O O17 0.995352 0.735763 0.009999
O O18 0.500000 0.000000 0.500000
#
# Coordination Sequence:
#
# PCOD8044702 Si02
#       8
#     2   2   2   2   2   2   2   2
#     4  11  23  42  64  93 130 170 212 259 314 377
#     4  11  23  42  64  93 130 170 212 259 314 377
#     4  12  26  43  64  92 126 168 215 269 323 378
#     4  10  19  38  65  91 123 163 206 258 315 378
#     4  10  19  38  65  91 123 163 206 258 315 378
#     4   9  19  36  61  91 123 163 206 247 305 376
#     4  12  26  43  64  92 126 168 215 269 323 378
#     4   9  19  36  61  91 123 163 206 247 305 376
#
# _framework density 20.149383
#
# number of rings (size 3 to 8) (size 9 to 14) (size 15 to 20)
#    0.000    1.500    2.500    3.000    3.500    0.500 
#    0.000    0.000    0.000    3.750    0.000    0.000 
#    0.000    0.000    0.000    0.000    0.000    0.000 
#
# Total GULP energy -198424.491080 kJ/mol
# GULP energy per Si atom -12401.530692 kJ/mol
# Density = 2.010352 g / cm^3
# Si number density = 20.149383 Si / 1000 Ang^3
#
#
#
# Elastic Constant Matrix: (Units=GPa)
#
#
# Indices 1 2 3 4 5 6 
#
# 1 160.5960 24.3300 69.3220 5.2212 5.5306 0.5636
# 2 24.3300 67.5706 31.3600 2.1205 0.4309 -0.3950
# 3 69.3220 31.3600 119.0067 4.4672 8.1360 1.3220
# 4 5.2212 2.1205 4.4672 30.3255 -0.2653 7.0506
# 5 5.5306 0.4309 8.1360 -0.2653 45.0133 -1.0038
# 6 0.5636 -0.3950 1.3220 7.0506 -1.0038 28.0506
#
#
#
# Elastic Compliance Matrix: (Units=1/GPa)
#
#
# Indices 1 2 3 4 5 6 
#
# 1 0.008379 -0.000847 -0.004619 -0.000756 -0.000186 0.000221
# 2 -0.000847 0.016985 -0.004013 -0.000588 0.000677 0.000617
# 3 -0.004619 -0.004013 0.012292 -0.000647 -0.001629 -0.000439
# 4 -0.000756 -0.000588 -0.000647 0.035296 0.000227 -0.008826
# 5 -0.000186 0.000677 -0.001629 0.000227 0.022547 0.000840
# 6 0.000221 0.000617 -0.000439 -0.008826 0.000840 0.037923
#
#
# Mechanical properties :
#
#
# Convention : Reuss Voigt Hill
#
# Bulk Modulus (GPa) = 53.48593 66.35526 59.92059
# Shear Modulus (GPa) = 31.52329 35.48864 33.50596
#
# Velocity S-wave (km/s) = 3.95964 4.20131 4.08226
# Velocity P-wave (km/s) = 6.89256 7.51916 7.21267
#
# Compressibility (1/GPa) = 0.01869651
#
# Stress axis : x y z
#
# Youngs Moduli (GPa) = 119.34336 58.87642 81.35618
#
# Poissons Ratio (x) = 0.04988 0.37579
# Poissons Ratio (y) = 0.10110 0.32651
# Poissons Ratio (z) = 0.55125 0.23629
#
# Static dielectric constant tensor:
#      x y z
#    x 3.914160 0.049530 -0.029510 
#    y 0.049530 3.510290 0.019780 
#    z -0.029510 0.019780 3.734580 
# 
# 
# High freq. dielectric constant tensor:
#      x y z
#    x 1.804250 0.004190 0.003130 
#    y 0.004190 1.760170 0.001850 
#    z 0.003130 0.001850 1.796540 
# 
# From -- ./inp_files/337384.got.cif
#   From: 2010.06.25/outbox.cif.g09.slc.cpg/sg2_169_cif.got.tgz:337384.got - 2010.06.27 13:26:56.
