data_PCOD8044431
_publ_section_title
;
Structure prediction by ZEFSAII (Michael W. Deem and Ramdas Pophale) SiO2 
 PCOD8044431
Probable space group: P -1
;
_chemical_formula_sum "Si O2"
_cell_formula_units_Z 16
_cell_length_a 15.505770
_cell_length_b 10.624268
_cell_length_c 8.303931
_cell_angle_alpha 137.259739
_cell_angle_beta 113.092558
_cell_angle_gamma 82.960355
_cell_volume 823.459319
_symmetry_space_group_name_H-M "P -1"
_symmetry_group_IT_number 2
_symmetry_cell_setting 'triclinic'
loop_
_space_group_symop_operation_xyz
x,y,z
-x,-y,-z
loop_
_atom_site_type_symbol
_atom_site_label
_atom_site_fract_x
_atom_site_fract_y
_atom_site_fract_z
Si Si1 0.907621 0.643643 0.207635
Si Si2 0.083276 0.054318 0.243696
Si Si3 0.544583 0.948918 0.755742
Si Si4 0.539289 0.591134 0.281098
Si Si5 0.729982 0.871082 0.757132
Si Si6 0.902743 0.227664 0.738923
Si Si7 0.553063 0.764337 0.930773
Si Si8 0.225543 0.134299 0.853148
O O1 0.912794 0.737711 0.478521
O O2 0.834417 0.723525 0.121572
O O3 0.014546 0.703674 0.268431
O O4 0.871886 0.410179 0.964958
O O5 0.187810 0.057187 0.248322
O O6 0.058125 0.887635 0.201882
O O7 0.000000 0.000000 0.000000
O O8 0.495816 0.777585 0.435415
O O9 0.661849 0.020378 0.872350
O O10 0.490527 0.114436 0.855199
O O11 0.529663 0.837910 0.811400
O O12 0.657458 0.665526 0.453761
O O13 0.500000 0.500000 0.000000
O O14 0.502910 0.455003 0.280363
O O15 0.780600 0.852428 0.946471
O O16 0.813491 0.083800 0.445084
O O17 0.666374 0.791554 0.067627
#
# Coordination Sequence:
#
# PCOD8044431 Si02
#       8
#     2   2   2   2   2   2   2   2
#     4  10  22  40  61  88 115 149 198 237 289 347
#     4  11  21  39  65  88 123 153 183 238 294 348
#     4   8  20  38  56  82 112 149 202 237 278 341
#     4  10  22  36  55  81 119 156 190 241 288 347
#     4   9  21  40  54  87 119 154 194 234 299 345
#     4  10  22  40  61  87 115 152 192 242 288 344
#     4  10  19  38  61  80 111 155 201 238 284 330
#     4  10  20  37  62  85 113 152 200 244 282 339
#
# _framework density 19.430225
#
# number of rings (size 3 to 8) (size 9 to 14) (size 15 to 20)
#    0.750    1.500    0.000    3.375    3.500    2.000 
#    6.750    0.000    0.000    0.000    0.000    0.000 
#    0.000    0.000    0.000    0.000    0.000    0.000 
#
# Total GULP energy -198230.244830 kJ/mol
# GULP energy per Si atom -12389.390302 kJ/mol
# Density = 1.938600 g / cm^3
# Si number density = 19.430225 Si / 1000 Ang^3
#
#
#
# Elastic Constant Matrix: (Units=GPa)
#
#
# Indices 1 2 3 4 5 6 
#
# 1 80.6726 3.2128 13.0240 8.3078 -11.6318 5.6440
# 2 3.2128 30.6304 27.3707 0.2439 -2.1603 1.1524
# 3 13.0240 27.3707 120.0196 -4.9254 -11.4098 -6.1899
# 4 8.3078 0.2439 -4.9254 36.2953 0.3752 -3.0457
# 5 -11.6318 -2.1603 -11.4098 0.3752 35.3926 7.1001
# 6 5.6440 1.1524 -6.1899 -3.0457 7.1001 29.8684
#
#
#
# Elastic Compliance Matrix: (Units=1/GPa)
#
#
# Indices 1 2 3 4 5 6 
#
# 1 0.014088 0.000469 -0.001546 -0.003878 0.005127 -0.004615
# 2 0.000469 0.041529 -0.009778 -0.002054 0.000364 -0.004013
# 3 -0.001546 -0.009778 0.011141 0.002142 0.001914 0.002742
# 4 -0.003878 -0.002054 0.002142 0.029158 -0.001960 0.004695
# 5 0.005127 0.000364 0.001914 -0.001960 0.032298 -0.008464
# 6 -0.004615 -0.004013 0.002742 0.004695 -0.008464 0.037566
#
#
# Mechanical properties :
#
#
# Convention : Reuss Voigt Hill
#
# Bulk Modulus (GPa) = 22.19807 35.39308 28.79557
# Shear Modulus (GPa) = 24.69079 32.82558 28.75819
#
# Velocity S-wave (km/s) = 3.56861 4.11470 3.85135
# Velocity P-wave (km/s) = 5.33191 6.38979 5.88467
#
# Compressibility (1/GPa) = 0.04504896
#
# Stress axis : x y z
#
# Youngs Moduli (GPa) = 70.98193 24.07964 89.75922
#
# Poissons Ratio (x) = -0.01130 0.13873
# Poissons Ratio (y) = -0.03332 0.87770
# Poissons Ratio (z) = 0.10971 0.23546
#
# Static dielectric constant tensor:
#      x y z
#    x 3.542720 0.100410 -0.195450 
#    y 0.100410 3.304870 0.089680 
#    z -0.195450 0.089680 3.726930 
# 
# 
# High freq. dielectric constant tensor:
#      x y z
#    x 1.759490 0.006570 -0.007130 
#    y 0.006570 1.739400 -0.004970 
#    z -0.007130 -0.004970 1.763700 
# 
# From -- ./inp_files/308836.got.cif
#   From: 2010.06.25/outbox.cif.g09.slc.cpg/sg2_155_cif.got.tgz:308836.got - 2010.06.27 13:26:56.
