data_PCOD8044669
_publ_section_title
;
Structure prediction by ZEFSAII (Michael W. Deem and Ramdas Pophale) SiO2 
 PCOD8044669
Probable space group: P -1
;
_chemical_formula_sum "Si O2"
_cell_formula_units_Z 14
_cell_length_a 13.441887
_cell_length_b 10.054227
_cell_length_c 9.341090
_cell_angle_alpha 69.256694
_cell_angle_beta 44.858860
_cell_angle_gamma 48.879514
_cell_volume 655.748997
_symmetry_space_group_name_H-M "P -1"
_symmetry_group_IT_number 2
_symmetry_cell_setting 'triclinic'
loop_
_space_group_symop_operation_xyz
x,y,z
-x,-y,-z
loop_
_atom_site_type_symbol
_atom_site_label
_atom_site_fract_x
_atom_site_fract_y
_atom_site_fract_z
Si Si1 0.459151 0.189239 0.490933
Si Si2 0.441247 0.199872 0.098415
Si Si3 0.021371 0.057401 0.610893
Si Si4 0.083526 0.356429 0.841395
Si Si5 0.404761 0.918973 0.310493
Si Si6 0.902567 0.429770 0.696881
Si Si7 0.244712 0.969714 0.956181
O O1 0.249359 0.345696 0.608760
O O2 0.487493 0.212191 0.617299
O O3 0.601672 0.187963 0.248614
O O4 0.500000 0.000000 0.500000
O O5 0.311212 0.415796 0.166898
O O6 0.646539 0.087558 0.984057
O O7 0.350844 0.120257 0.303465
O O8 0.454201 0.170694 0.927295
O O9 0.948424 0.262259 0.621770
O O10 0.921786 0.031234 0.847654
O O11 0.000000 0.000000 0.500000
O O12 0.232435 0.926330 0.472771
O O13 0.951878 0.393567 0.831158
O O14 0.164399 0.166232 0.906255
O O15 0.000000 0.500000 0.000000
O O16 0.000000 0.500000 0.500000
#
# Coordination Sequence:
#
# PCOD8044669 Si02
#       7
#     2   2   2   2   2   2   2
#     4  10  19  38  64  95 130 175 225 274 335 407
#     4  11  22  41  70  98 131 182 233 277 335 420
#     4  12  26  45  67 104 142 183 227 294 349 403
#     4  11  24  42  71 109 137 174 233 291 334 409
#     4  11  21  39  69  96 131 180 228 272 341 415
#     4  12  26  42  71 104 138 179 235 283 337 414
#     4  11  24  44  67  97 140 183 224 282 354 399
#
# _framework density 21.349633000000001
#
# number of rings (size 3 to 8) (size 9 to 14) (size 15 to 20)
#    0.000    0.857    5.714    3.429    4.000    2.857 
#    0.000    0.000    0.000    3.429    0.000    0.000 
#    0.000    0.000    0.000    0.000    0.000    0.000 
#
# Total GULP energy -173449.680793 kJ/mol
# GULP energy per Si atom -12389.262914 kJ/mol
# Density = 2.130104 g / cm^3
# Si number density = 21.349633 Si / 1000 Ang^3
#
#
#
# Elastic Constant Matrix: (Units=GPa)
#
#
# Indices 1 2 3 4 5 6 
#
# 1 97.2891 33.5641 19.9614 -1.0190 2.7987 -2.9327
# 2 33.5641 93.8462 26.3724 13.0951 1.9511 1.5454
# 3 19.9614 26.3724 120.1505 -5.5951 -8.1771 8.3622
# 4 -1.0190 13.0951 -5.5951 28.0925 3.9221 -0.2520
# 5 2.7987 1.9511 -8.1771 3.9221 47.8257 3.0077
# 6 -2.9327 1.5454 8.3622 -0.2520 3.0077 32.5759
#
#
#
# Elastic Compliance Matrix: (Units=1/GPa)
#
#
# Indices 1 2 3 4 5 6 
#
# 1 0.012121 -0.004359 -0.001134 0.002405 -0.001030 0.001703
# 2 -0.004359 0.013974 -0.002659 -0.007184 -0.000155 -0.000414
# 3 -0.001134 -0.002659 0.009523 0.002830 0.001732 -0.002558
# 4 0.002405 -0.007184 0.002830 0.039972 -0.002666 0.000386
# 5 -0.001030 -0.000155 0.001732 -0.002666 0.021651 -0.002550
# 6 0.001703 -0.000414 -0.002558 0.000386 -0.002550 0.031766
#
#
# Mechanical properties :
#
#
# Convention : Reuss Voigt Hill
#
# Bulk Modulus (GPa) = 51.77411 52.34241 52.05826
# Shear Modulus (GPa) = 32.94926 37.12469 35.03697
#
# Velocity S-wave (km/s) = 3.93277 4.17453 4.05545
# Velocity P-wave (km/s) = 6.70265 6.91416 6.80922
#
# Compressibility (1/GPa) = 0.01931467
#
# Stress axis : x y z
#
# Youngs Moduli (GPa) = 82.50074 71.55921 105.01245
#
# Poissons Ratio (x) = 0.31191 0.11905
# Poissons Ratio (y) = 0.35960 0.27927
# Poissons Ratio (z) = 0.09353 0.19031
#
# Static dielectric constant tensor:
#      x y z
#    x 4.054170 -0.064070 -0.125460 
#    y -0.064070 3.085400 0.694960 
#    z -0.125460 0.694960 3.972060 
# 
# 
# High freq. dielectric constant tensor:
#      x y z
#    x 1.842400 -0.017170 0.006050 
#    y -0.017170 1.801490 0.014340 
#    z 0.006050 0.014340 1.858450 
# 
# From -- ./inp_files/243294.got.cif
#   From: 2010.06.25/outbox.cif.g09.slc.cpg/sg2_122_cif.got.tgz:243294.got - 2010.06.27 13:26:56.
