data_PCOD8044390
_publ_section_title
;
Structure prediction by ZEFSAII (Michael W. Deem and Ramdas Pophale) SiO2 
 PCOD8044390
Probable space group: P -1
;
_chemical_formula_sum "Si O2"
_cell_formula_units_Z 12
_cell_length_a 11.530882
_cell_length_b 8.898662
_cell_length_c 14.281078
_cell_angle_alpha 142.787244
_cell_angle_beta 149.444243
_cell_angle_gamma 39.376207
_cell_volume 432.037637
_symmetry_space_group_name_H-M "P -1"
_symmetry_group_IT_number 2
_symmetry_cell_setting 'triclinic'
loop_
_space_group_symop_operation_xyz
x,y,z
-x,-y,-z
loop_
_atom_site_type_symbol
_atom_site_label
_atom_site_fract_x
_atom_site_fract_y
_atom_site_fract_z
Si Si1 0.106625 0.922089 0.686775
Si Si2 0.262450 0.148169 0.279265
Si Si3 0.490770 0.609079 0.290008
Si Si4 0.167122 0.395123 0.858444
Si Si5 0.299532 0.336969 0.727646
Si Si6 0.878581 0.074251 0.100586
O O1 0.317457 0.663006 0.696431
O O2 0.113427 0.065388 0.863400
O O3 0.857879 0.860084 0.471389
O O4 0.131451 0.120063 0.722104
O O5 0.489708 0.208605 0.517976
O O6 0.078121 0.425390 0.264328
O O7 0.134493 0.987178 0.180738
O O8 0.321197 0.987578 0.139971
O O9 0.521118 0.755740 0.283465
O O10 0.243570 0.533337 0.070858
O O11 0.377241 0.358649 0.903561
O O12 0.150026 0.628396 0.742749
#
# Coordination Sequence:
#
# PCOD8044390 Si02
#       6
#     2   2   2   2   2   2
#     4  11  19  37  60  82 114 146 179 232 282 319
#     4  10  20  38  59  79 112 150 184 224 274 330
#     4  11  20  38  59  83 111 146 187 228 271 327
#     4  11  23  33  59  89 112 139 187 230 279 324
#     4  10  19  38  60  82 108 150 187 224 272 329
#     4   9  18  36  62  77 107 156 183 220 276 328
#
# _framework density 27.775359000000002
#
# number of rings (size 3 to 8) (size 9 to 14) (size 15 to 20)
#    0.000    1.667    5.000    2.500    0.000    0.667 
#    0.000    8.333    3.667    0.000    0.000    0.000 
#    0.000    0.000    0.000    0.000    0.000    0.000 
#
# Total GULP energy -148697.729117 kJ/mol
# GULP energy per Si atom -12391.477426 kJ/mol
# Density = 2.771214 g / cm^3
# Si number density = 27.775359 Si / 1000 Ang^3
#
#
#
# Elastic Constant Matrix: (Units=GPa)
#
#
# Indices 1 2 3 4 5 6 
#
# 1 94.1929 26.2472 12.5557 19.1776 -29.1074 -3.0256
# 2 26.2472 105.3425 26.0142 21.1121 -8.9224 12.4058
# 3 12.5557 26.0142 176.0945 -8.6016 -24.8678 3.6393
# 4 19.1776 21.1121 -8.6016 38.3769 2.0894 1.8521
# 5 -29.1074 -8.9224 -24.8678 2.0894 44.7190 5.4324
# 6 -3.0256 12.4058 3.6393 1.8521 5.4324 28.8601
#
#
#
# Elastic Compliance Matrix: (Units=1/GPa)
#
#
# Indices 1 2 3 4 5 6 
#
# 1 0.015811 -0.001716 0.000194 -0.007518 0.010297 0.000915
# 2 -0.001716 0.012272 -0.001701 -0.006099 0.001289 -0.005092
# 3 0.000194 -0.001701 0.006522 0.002156 0.003416 -0.000852
# 4 -0.007518 -0.006099 0.002156 0.033981 -0.006574 0.000619
# 5 0.010297 0.001289 0.003416 -0.006574 0.032202 -0.005545
# 6 0.000915 -0.005092 -0.000852 0.000619 -0.005545 0.038046
#
#
# Mechanical properties :
#
#
# Convention : Reuss Voigt Hill
#
# Bulk Modulus (GPa) = 35.51448 56.14047 45.82747
# Shear Modulus (GPa) = 32.32789 43.11205 37.71997
#
# Velocity S-wave (km/s) = 3.41531 3.94403 3.68915
# Velocity P-wave (km/s) = 5.32602 6.40287 5.88911
#
# Compressibility (1/GPa) = 0.02815753
#
# Stress axis : x y z
#
# Youngs Moduli (GPa) = 63.24761 81.48812 153.33650
#
# Poissons Ratio (x) = 0.13986 -0.02978
# Poissons Ratio (y) = 0.10855 0.26086
# Poissons Ratio (z) = -0.01228 0.13863
#
# Static dielectric constant tensor:
#      x y z
#    x 5.299350 -0.086910 -0.618510 
#    y -0.086910 5.118430 -0.165380 
#    z -0.618510 -0.165380 5.424860 
# 
# 
# High freq. dielectric constant tensor:
#      x y z
#    x 2.098070 -0.022400 -0.034740 
#    y -0.022400 2.148430 -0.007470 
#    z -0.034740 -0.007470 2.142830 
# 
# From -- ./inp_files/147057.got.cif
#   From: 2010.06.25/outbox.cif.g09.slc.cpg/sg2_74_cif.got.tgz:147057.got - 2010.06.27 13:26:56.
