data_PCOD8044858
_publ_section_title
;
Structure prediction by ZEFSAII (Michael W. Deem and Ramdas Pophale) SiO2 
 PCOD8044858
Probable space group: P 2
;
_chemical_formula_sum "Si O2"
_cell_formula_units_Z 14
_cell_length_a 9.135409
_cell_length_b 7.820084
_cell_length_c 12.775180
_cell_angle_alpha 90.000000
_cell_angle_beta 131.639785
_cell_angle_gamma 90.000000
_cell_volume 682.060446
_symmetry_space_group_name_H-M "P 2"
_symmetry_group_IT_number 3
_symmetry_cell_setting 'monoclinic'
loop_
_space_group_symop_operation_xyz
x,y,z
-x,y,-z
loop_
_atom_site_type_symbol
_atom_site_label
_atom_site_fract_x
_atom_site_fract_y
_atom_site_fract_z
Si Si1 0.658943 0.329390 0.498470
Si Si2 0.423928 0.730327 0.771261
Si Si3 0.090306 0.877756 0.739802
Si Si4 0.675427 0.726639 0.513851
Si Si5 0.938680 0.224466 0.358813
Si Si6 0.463762 0.341734 0.794772
Si Si7 0.352651 0.024261 0.025161
O O1 0.500000 0.242616 0.500000
O O2 0.672910 0.526861 0.530551
O O3 0.590787 0.286567 0.348725
O O4 0.876003 0.257974 0.629058
O O5 0.249641 0.738972 0.775098
O O6 0.340806 0.766235 0.616534
O O7 0.523570 0.541487 0.829006
O O8 0.588498 0.874267 0.866424
O O9 0.879641 0.795400 0.655239
O O10 0.093823 0.021387 0.650922
O O11 0.142926 0.973035 0.875517
O O12 0.500000 0.809121 0.500000
O O13 0.733179 0.313181 0.227670
O O14 0.000000 0.301294 0.500000
O O15 0.637152 0.213902 0.916750
O O16 0.500000 0.019895 0.000000
#
# Coordination Sequence:
#
# PCOD8044858 Si02
#       7
#     2   2   2   2   2   2   2
#     4   9  20  36  57  87 115 148 200 246 290 346
#     4  10  20  37  62  86 114 155 189 240 294 339
#     4  11  21  36  56  89 119 148 194 243 286 348
#     4  10  21  38  60  86 114 152 199 243 291 348
#     4  10  18  31  55  85 113 145 185 242 287 336
#     4  10  19  36  60  82 119 153 188 238 295 346
#     4  10  21  37  54  87 121 148 194 235 282 352
#
# _framework density 20.526040999999999
#
# number of rings (size 3 to 8) (size 9 to 14) (size 15 to 20)
#    0.000    2.000    2.857    2.143    2.000    4.571 
#    2.571    0.714    0.000    0.000    0.000    0.000 
#    0.000    0.000    0.000    0.000    0.000    0.000 
#
# Total GULP energy -173477.068205 kJ/mol
# GULP energy per Si atom -12391.219157 kJ/mol
# Density = 2.047932 g / cm^3
# Si number density = 20.526041 Si / 1000 Ang^3
#
#
#
# Elastic Constant Matrix: (Units=GPa)
#
#
# Indices 1 2 3 4 5 6 
#
# 1 89.3710 21.4360 36.2942 0.0000 8.3205 0.0000
# 2 21.4360 97.8512 52.7356 0.0000 -1.3146 0.0000
# 3 36.2942 52.7356 110.9401 0.0000 14.3358 0.0000
# 4 0.0000 0.0000 0.0000 36.7586 0.0000 0.9929
# 5 8.3205 -1.3146 14.3358 0.0000 15.3839 0.0000
# 6 0.0000 0.0000 0.0000 0.9929 0.0000 13.8958
#
#
#
# Elastic Compliance Matrix: (Units=1/GPa)
#
#
# Indices 1 2 3 4 5 6 
#
# 1 0.013171 -0.001235 -0.003169 0.000000 -0.004275 0.000000
# 2 -0.001235 0.014843 -0.007847 0.000000 0.009248 0.000000
# 3 -0.003169 -0.007847 0.015514 0.000000 -0.013414 0.000000
# 4 0.000000 0.000000 0.000000 0.027257 0.000000 -0.001948
# 5 -0.004275 0.009248 -0.013414 0.000000 0.080605 0.000000
# 6 0.000000 0.000000 0.000000 -0.001948 0.000000 0.072103
#
#
# Mechanical properties :
#
#
# Convention : Reuss Voigt Hill
#
# Bulk Modulus (GPa) = 52.55955 57.67710 55.11833
# Shear Modulus (GPa) = 19.65889 25.72077 22.68983
#
# Velocity S-wave (km/s) = 3.09812 3.54373 3.32839
# Velocity P-wave (km/s) = 6.20158 6.70108 6.45616
#
# Compressibility (1/GPa) = 0.01902604
#
# Stress axis : x y z
#
# Youngs Moduli (GPa) = 75.92665 67.37032 64.45719
#
# Poissons Ratio (x) = 0.08317 0.20430
# Poissons Ratio (y) = 0.09373 0.50580
# Poissons Ratio (z) = 0.24065 0.52866
#
# Static dielectric constant tensor:
#      x y z
#    x 3.718620 0.000000 0.156300 
#    y 0.000000 3.763740 0.000000 
#    z 0.156300 0.000000 4.090190 
# 
# 
# High freq. dielectric constant tensor:
#      x y z
#    x 1.769280 0.000000 0.003910 
#    y 0.000000 1.807970 0.000000 
#    z 0.003910 0.000000 1.793870 
# 
# From -- ./inp_files/7491.got.cif
#   From: 2010.03.12/outbox.cif.g09.slc.cpg/sg3_4_cif.got.tgz:7491.got - 2010.03.31 09:20:49.
