data_PCOD8044833
_publ_section_title
;
Structure prediction by ZEFSAII (Michael W. Deem and Ramdas Pophale) SiO2 
 PCOD8044833
Probable space group: P 2
;
_chemical_formula_sum "Si O2"
_cell_formula_units_Z 12
_cell_length_a 8.658527
_cell_length_b 5.218094
_cell_length_c 20.336699
_cell_angle_alpha 90.000000
_cell_angle_beta 137.902512
_cell_angle_gamma 90.000000
_cell_volume 615.979913
_symmetry_space_group_name_H-M "P 2"
_symmetry_group_IT_number 3
_symmetry_cell_setting 'monoclinic'
loop_
_space_group_symop_operation_xyz
x,y,z
-x,y,-z
loop_
_atom_site_type_symbol
_atom_site_label
_atom_site_fract_x
_atom_site_fract_y
_atom_site_fract_z
Si Si1 0.598586 0.823340 0.731893
Si Si2 0.077540 0.256404 0.450992
Si Si3 0.371096 0.761331 0.525927
Si Si4 0.764289 0.324973 0.966874
Si Si5 0.922428 0.824657 0.051281
Si Si6 0.418114 0.323184 0.742538
O O1 0.562358 0.794452 0.642849
O O2 0.866904 0.791324 0.832464
O O3 0.457561 0.605880 0.725940
O O4 0.515969 0.106584 0.725032
O O5 0.209220 0.524937 0.493750
O O6 0.000000 0.185542 0.500000
O O7 0.854284 0.283643 0.333780
O O8 0.229217 0.023386 0.471421
O O9 0.500000 0.692443 0.500000
O O10 0.540420 0.295238 0.851199
O O11 0.000000 0.356592 0.000000
O O12 0.749359 0.584661 0.005165
O O13 0.781209 0.084687 0.022055
O O14 0.000000 0.856556 0.000000
#
# Coordination Sequence:
#
# PCOD8044833 Si02
#       6
#     2   2   2   2   2   2
#     4  12  19  32  54  83 113 151 186 236 289 337
#     4  12  23  40  62  89 115 152 200 257 295 335
#     4  12  26  43  59  83 122 164 200 235 292 363
#     4  10  16  28  43  78 119 139 167 228 301 338
#     4  10  16  26  46  75 118 135 177 229 295 325
#     4  12  20  30  56  85 117 141 184 240 302 330
#
# _framework density 19.481155000000001
#
# number of rings (size 3 to 8) (size 9 to 14) (size 15 to 20)
#    0.000    0.667   10.000    2.000    0.000    0.000 
#    0.000    0.000    0.000    0.000    0.000    7.000 
#    0.000    0.000    0.000    0.000    0.000    0.000 
#
# Total GULP energy -148785.014764 kJ/mol
# GULP energy per Si atom -12398.751230 kJ/mol
# Density = 1.943681 g / cm^3
# Si number density = 19.481155 Si / 1000 Ang^3
#
#
#
# Elastic Constant Matrix: (Units=GPa)
#
#
# Indices 1 2 3 4 5 6 
#
# 1 30.8186 0.5972 23.1713 0.0000 -0.4403 0.0000
# 2 0.5972 120.0893 5.4693 0.0000 0.8320 0.0000
# 3 23.1713 5.4693 135.7564 0.0000 14.5671 0.0000
# 4 0.0000 0.0000 0.0000 33.1435 0.0000 5.8413
# 5 -0.4403 0.8320 14.5671 0.0000 14.3839 0.0000
# 6 0.0000 0.0000 0.0000 5.8413 0.0000 12.5327
#
#
#
# Elastic Compliance Matrix: (Units=1/GPa)
#
#
# Indices 1 2 3 4 5 6 
#
# 1 0.038175 0.000089 -0.007454 0.000000 0.008713 0.000000
# 2 0.000089 0.008343 -0.000336 0.000000 -0.000139 0.000000
# 3 -0.007454 -0.000336 0.009732 0.000000 -0.010065 0.000000
# 4 0.000000 0.000000 0.000000 0.032872 0.000000 -0.015321
# 5 0.008713 -0.000139 -0.010065 0.000000 0.079990 0.000000
# 6 0.000000 0.000000 0.000000 -0.015321 0.000000 0.086932
#
#
# Mechanical properties :
#
#
# Convention : Reuss Voigt Hill
#
# Bulk Modulus (GPa) = 24.48142 38.34886 31.41514
# Shear Modulus (GPa) = 17.53998 29.17379 23.35689
#
# Velocity S-wave (km/s) = 3.00385 3.87400 3.46634
# Velocity P-wave (km/s) = 4.96234 6.30384 5.67288
#
# Compressibility (1/GPa) = 0.04084731
#
# Stress axis : x y z
#
# Youngs Moduli (GPa) = 26.19492 119.86127 102.75385
#
# Poissons Ratio (x) = -0.01070 0.76597
# Poissons Ratio (y) = -0.00234 0.03457
# Poissons Ratio (z) = 0.19527 0.04033
#
# Static dielectric constant tensor:
#      x y z
#    x 2.854360 0.000000 0.217670 
#    y 0.000000 4.901550 0.000000 
#    z 0.217670 0.000000 3.906660 
# 
# 
# High freq. dielectric constant tensor:
#      x y z
#    x 1.675020 0.000000 0.019440 
#    y 0.000000 1.798800 0.000000 
#    z 0.019440 0.000000 1.778290 
# 
# From -- ./inp_files/8071.got.cif
#   From: 2010.03.12/outbox.cif.g09.slc.cpg/sg3_5_cif.got.tgz:8071.got - 2010.03.31 09:20:49.
