data_PCOD8044786
_publ_section_title
;
Structure prediction by ZEFSAII (Michael W. Deem and Ramdas Pophale) SiO2 
 PCOD8044786
Probable space group: P -1
;
_chemical_formula_sum "Si O2"
_cell_formula_units_Z 16
_cell_length_a 18.501726
_cell_length_b 9.123953
_cell_length_c 10.493676
_cell_angle_alpha 123.370196
_cell_angle_beta 138.098870
_cell_angle_gamma 32.520733
_cell_volume 620.998151
_symmetry_space_group_name_H-M "P -1"
_symmetry_group_IT_number 2
_symmetry_cell_setting 'triclinic'
loop_
_space_group_symop_operation_xyz
x,y,z
-x,-y,-z
loop_
_atom_site_type_symbol
_atom_site_label
_atom_site_fract_x
_atom_site_fract_y
_atom_site_fract_z
Si Si1 0.611636 0.836540 0.690528
Si Si2 0.207425 0.066073 0.104700
Si Si3 0.022685 0.766817 0.895301
Si Si4 0.298441 0.286175 0.872981
Si Si5 0.242275 0.877932 0.793773
Si Si6 0.421005 0.329274 0.843581
Si Si7 0.450989 0.470083 0.551865
Si Si8 0.837481 0.912231 0.459418
O O1 0.657059 0.572833 0.642249
O O2 0.500000 0.000000 0.500000
O O3 0.779039 0.751001 0.844476
O O4 0.482058 0.066738 0.740537
O O5 0.384201 0.779245 0.264240
O O6 0.059646 0.238719 0.100434
O O7 0.168527 0.992713 0.895714
O O8 0.221602 0.447894 0.988097
O O9 0.952313 0.812397 0.683555
O O10 0.000000 0.000000 0.000000
O O11 0.282579 0.467998 0.840594
O O12 0.192487 0.257788 0.661926
O O13 0.500000 0.000000 0.000000
O O14 0.320196 0.583830 0.735598
O O15 0.095216 0.109961 0.604753
O O16 0.399464 0.813643 0.942448
O O17 0.500000 0.500000 0.500000
O O18 0.337899 0.755151 0.611363
#
# Coordination Sequence:
#
# PCOD8044786 Si02
#       8
#     2   2   2   2   2   2   2   2
#     4   9  19  34  62 105 146 197 242 310 369 445
#     4  10  22  44  70 106 158 197 247 315 387 447
#     4  12  29  51  76 111 158 201 252 324 385 445
#     4  12  27  48  80 109 148 200 260 310 379 463
#     4  10  20  40  72 106 145 195 244 309 372 457
#     4  10  19  38  67 105 148 189 250 302 372 441
#     4  11  20  37  73 115 150 195 259 311 375 456
#     4  12  25  47  75 112 148 197 258 310 379 456
#
# _framework density 25.764970999999999
#
# number of rings (size 3 to 8) (size 9 to 14) (size 15 to 20)
#    0.000    1.250    2.500    4.875    3.500    1.000 
#    0.000    3.125    2.750    0.000    0.000    0.000 
#    0.000    0.000    0.000    0.000    0.000    0.000 
#
# Total GULP energy -198225.564676 kJ/mol
# GULP energy per Si atom -12389.097792 kJ/mol
# Density = 2.570633 g / cm^3
# Si number density = 25.764971 Si / 1000 Ang^3
#
#
#
# Elastic Constant Matrix: (Units=GPa)
#
#
# Indices 1 2 3 4 5 6 
#
# 1 178.6973 52.2130 32.8273 17.6511 -12.6165 -15.3496
# 2 52.2130 111.2458 30.7877 28.1653 5.6847 -10.0500
# 3 32.8273 30.7877 80.4401 17.2585 -19.9438 -2.6666
# 4 17.6511 28.1653 17.2585 43.7241 8.3221 -1.4697
# 5 -12.6165 5.6847 -19.9438 8.3221 38.6070 1.4482
# 6 -15.3496 -10.0500 -2.6666 -1.4697 1.4482 44.9712
#
#
#
# Elastic Compliance Matrix: (Units=1/GPa)
#
#
# Indices 1 2 3 4 5 6 
#
# 1 0.006974 -0.002714 -0.000930 -0.001098 0.002375 0.001606
# 2 -0.002714 0.012864 -0.003573 -0.005038 -0.003604 0.001688
# 3 -0.000930 -0.003573 0.018375 -0.006726 0.011187 -0.000606
# 4 -0.001098 -0.005038 -0.006726 0.031053 -0.009764 -0.000570
# 5 0.002375 -0.003604 0.011187 -0.009764 0.035122 -0.000782
# 6 0.001606 0.001688 -0.000606 -0.000570 -0.000782 0.023133
#
#
# Mechanical properties :
#
#
# Convention : Reuss Voigt Hill
#
# Bulk Modulus (GPa) = 42.05199 66.89324 54.47261
# Shear Modulus (GPa) = 33.36005 42.43080 37.89543
#
# Velocity S-wave (km/s) = 3.60221 4.06253 3.83928
# Velocity P-wave (km/s) = 5.80156 6.92999 6.39073
#
# Compressibility (1/GPa) = 0.02378009
#
# Stress axis : x y z
#
# Youngs Moduli (GPa) = 143.38990 77.73698 54.42195
#
# Poissons Ratio (x) = 0.21099 0.05059
# Poissons Ratio (y) = 0.38919 0.19443
# Poissons Ratio (z) = 0.13329 0.27773
#
# Static dielectric constant tensor:
#      x y z
#    x 4.369670 -1.255190 -1.146130 
#    y -1.255190 3.163200 -1.016690 
#    z -1.146130 -1.016690 3.849820 
# 
# 
# High freq. dielectric constant tensor:
#      x y z
#    x 2.046020 0.018100 -0.026830 
#    y 0.018100 2.034730 0.013880 
#    z -0.026830 0.013880 2.022070 
# 
# From -- ./inp_files/470149.got.cif
#   From: 2010.06.25/outbox.cif.g09.slc.cpg/sg2_236_cif.got.tgz:470149.got - 2010.06.27 13:26:56.
