data_PCOD8044998
_publ_section_title
;
Structure prediction by ZEFSAII (Michael W. Deem and Ramdas Pophale) SiO2 
 PCOD8044998
Probable space group: P 2
;
_chemical_formula_sum "Si O2"
_cell_formula_units_Z 14
_cell_length_a 12.233286
_cell_length_b 10.020072
_cell_length_c 6.487424
_cell_angle_alpha 90.000000
_cell_angle_beta 58.630637
_cell_angle_gamma 90.000000
_cell_volume 678.980485
_symmetry_space_group_name_H-M "P 2"
_symmetry_group_IT_number 3
_symmetry_cell_setting 'monoclinic'
loop_
_space_group_symop_operation_xyz
x,y,z
-x,y,-z
loop_
_atom_site_type_symbol
_atom_site_label
_atom_site_fract_x
_atom_site_fract_y
_atom_site_fract_z
Si Si1 0.129802 0.758280 0.291950
Si Si2 0.378280 0.367273 0.226856
Si Si3 0.500000 0.448938 0.500000
Si Si4 0.130832 0.999599 0.985223
Si Si5 0.261973 0.945587 0.455096
Si Si6 0.500000 0.856956 0.000000
Si Si7 0.852044 0.185002 0.671128
Si Si8 0.641550 0.613283 0.027390
O O1 0.207515 0.807454 0.418125
O O2 0.206815 0.641433 0.100092
O O3 0.000000 0.692295 0.500000
O O4 0.098877 0.881281 0.173498
O O5 0.406877 0.360579 0.444409
O O6 0.243587 0.306136 0.288639
O O7 0.381147 0.523440 0.155004
O O8 0.500000 0.293378 0.000000
O O9 0.404082 0.539074 0.724935
O O10 0.245666 0.952909 0.719129
O O11 0.000000 0.035888 0.000000
O O12 0.174896 0.130362 0.071018
O O13 0.177533 0.068884 0.460714
O O14 0.409575 0.952712 0.230549
O O15 0.579364 0.760427 0.073507
O O16 0.000000 0.230766 0.500000
#
# Coordination Sequence:
#
# PCOD8044998 Si02
#       8
#     2   2   1   2   2   1   2   2
#     4  10  20  34  57  90 128 167 207 263 315 370
#     4  10  23  43  65  87 127 170 219 268 325 376
#     4  10  20  42  64  90 116 170 220 264 322 382
#     4  11  19  38  62  91 128 176 212 251 323 393
#     4  10  21  36  59  91 130 165 211 255 317 383
#     4  10  20  38  60  94 130 168 204 268 318 378
#     4  11  23  41  64  94 132 169 213 274 322 377
#     4  10  21  38  61  88 126 165 211 267 317 379
#
# _framework density 20.619149
#
# number of rings (size 3 to 8) (size 9 to 14) (size 15 to 20)
#    0.000    1.714    5.000    0.857    3.000    2.857 
#    0.000    0.000    0.000    0.000    0.000    0.000 
#    0.000    0.000    0.000    0.000    0.000    0.000 
#
# Total GULP energy -173507.292122 kJ/mol
# GULP energy per Si atom -12393.378009 kJ/mol
# Density = 2.057222 g / cm^3
# Si number density = 20.619149 Si / 1000 Ang^3
#
#
#
# Elastic Constant Matrix: (Units=GPa)
#
#
# Indices 1 2 3 4 5 6 
#
# 1 125.0650 44.0762 69.3710 0.0000 -16.0919 0.0000
# 2 44.0762 53.3651 30.7735 0.0000 -4.4792 0.0000
# 3 69.3710 30.7735 153.0158 0.0000 -9.6305 0.0000
# 4 0.0000 0.0000 0.0000 13.7690 0.0000 -3.6618
# 5 -16.0919 -4.4792 -9.6305 0.0000 49.3690 0.0000
# 6 0.0000 0.0000 0.0000 -3.6618 0.0000 29.8867
#
#
#
# Elastic Compliance Matrix: (Units=1/GPa)
#
#
# Indices 1 2 3 4 5 6 
#
# 1 0.013835 -0.008680 -0.004346 0.000000 0.002874 0.000000
# 2 -0.008680 0.026702 -0.001479 0.000000 -0.000695 0.000000
# 3 -0.004346 -0.001479 0.008814 0.000000 0.000169 0.000000
# 4 0.000000 0.000000 0.000000 0.075073 0.000000 0.009198
# 5 0.002874 -0.000695 0.000169 0.000000 0.021162 0.000000
# 6 0.000000 0.000000 0.000000 0.009198 0.000000 0.034587
#
#
# Mechanical properties :
#
#
# Convention : Reuss Voigt Hill
#
# Bulk Modulus (GPa) = 49.15901 68.87634 59.01768
# Shear Modulus (GPa) = 23.15219 31.08663 27.11941
#
# Velocity S-wave (km/s) = 3.35453 3.88707 3.63058
# Velocity P-wave (km/s) = 6.23675 7.32273 6.80145
#
# Compressibility (1/GPa) = 0.02034215
#
# Stress axis : x y z
#
# Youngs Moduli (GPa) = 72.27981 37.45013 113.46227
#
# Poissons Ratio (x) = 0.32505 0.49308
# Poissons Ratio (y) = 0.62736 0.16780
# Poissons Ratio (z) = 0.31411 0.05539
#
# Static dielectric constant tensor:
#      x y z
#    x 3.871220 0.000000 -0.145760 
#    y 0.000000 3.434870 0.000000 
#    z -0.145760 0.000000 3.981410 
# 
# 
# High freq. dielectric constant tensor:
#      x y z
#    x 1.807350 0.000000 -0.009900 
#    y 0.000000 1.771380 0.000000 
#    z -0.009900 0.000000 1.813280 
# 
# From -- ./inp_files/2462.got.cif
#   From: 2010.03.12/outbox.cif.g09.slc.cpg/sg3_2_cif.got.tgz:2462.got - 2010.03.31 09:20:49.
