data_PCOD8044349
_publ_section_title
;
Structure prediction by ZEFSAII (Michael W. Deem and Ramdas Pophale) SiO2 
 PCOD8044349
Probable space group: P -1
;
_chemical_formula_sum "Si O2"
_cell_formula_units_Z 14
_cell_length_a 10.307729
_cell_length_b 9.225640
_cell_length_c 12.727472
_cell_angle_alpha 73.821397
_cell_angle_beta 123.184533
_cell_angle_gamma 136.974505
_cell_volume 675.324425
_symmetry_space_group_name_H-M "P -1"
_symmetry_group_IT_number 2
_symmetry_cell_setting 'triclinic'
loop_
_space_group_symop_operation_xyz
x,y,z
-x,-y,-z
loop_
_atom_site_type_symbol
_atom_site_label
_atom_site_fract_x
_atom_site_fract_y
_atom_site_fract_z
Si Si1 0.775405 0.206731 0.162002
Si Si2 0.246147 0.625561 0.294343
Si Si3 0.672558 0.640121 0.956222
Si Si4 0.965042 0.207002 0.769827
Si Si5 0.486155 0.163737 0.436181
Si Si6 0.355177 0.650977 0.749628
Si Si7 0.593701 0.275994 0.887742
O O1 0.664351 0.221755 0.205946
O O2 0.038374 0.363929 0.261967
O O3 0.657114 0.960783 0.151093
O O4 0.756672 0.288146 0.028784
O O5 0.154860 0.730010 0.249889
O O6 0.418971 0.687580 0.447705
O O7 0.365971 0.712081 0.219295
O O8 0.604707 0.752268 0.851642
O O9 0.628506 0.474916 0.888364
O O10 0.500000 0.500000 0.000000
O O11 0.923168 0.810403 0.081331
O O12 0.157188 0.392192 0.735461
O O13 0.772942 0.972179 0.674867
O O14 0.655132 0.308271 0.384459
O O15 0.500000 0.000000 0.500000
#
# Coordination Sequence:
#
# PCOD8044349 Si02
#       7
#     2   2   2   2   2   2   2
#     4  10  20  33  59  87 110 143 185 230 286 320
#     4  10  20  35  54  84 116 144 184 231 277 327
#     4  10  19  38  58  84 116 143 185 232 283 332
#     4   9  19  35  57  86 113 145 185 234 279 325
#     4  10  21  35  56  84 114 148 192 226 270 333
#     4  10  20  38  58  83 115 147 186 231 276 330
#     4  11  20  35  57  85 116 141 181 236 280 332
#
# _framework density 20.730775999999999
#
# number of rings (size 3 to 8) (size 9 to 14) (size 15 to 20)
#    0.000    2.000    4.286    2.143    0.000    6.857 
#    0.000    3.571    0.000    4.286    0.000    0.000 
#    0.000    0.000    0.000    0.000    0.000    0.000 
#
# Total GULP energy -173486.997516 kJ/mol
# GULP energy per Si atom -12391.928394 kJ/mol
# Density = 2.068359 g / cm^3
# Si number density = 20.730776 Si / 1000 Ang^3
#
#
#
# Elastic Constant Matrix: (Units=GPa)
#
#
# Indices 1 2 3 4 5 6 
#
# 1 36.4849 9.1910 40.1553 -4.4753 -10.8135 13.9602
# 2 9.1910 52.3350 36.9919 19.1075 -2.0259 14.0500
# 3 40.1553 36.9919 132.8592 16.4562 -25.3299 16.3386
# 4 -4.4753 19.1075 16.4562 44.7366 11.6081 1.5138
# 5 -10.8135 -2.0259 -25.3299 11.6081 35.8095 -5.0579
# 6 13.9602 14.0500 16.3386 1.5138 -5.0579 19.0494
#
#
#
# Elastic Compliance Matrix: (Units=1/GPa)
#
#
# Indices 1 2 3 4 5 6 
#
# 1 0.058546 0.007189 -0.017259 0.011000 -0.002628 -0.034977
# 2 0.007189 0.032569 -0.007642 -0.009213 -0.001572 -0.022421
# 3 -0.017259 -0.007642 0.016738 -0.007342 0.009571 0.007054
# 4 0.011000 -0.009213 -0.007342 0.033624 -0.013464 -0.001216
# 5 -0.002628 -0.001572 0.009571 -0.013464 0.039071 0.006320
# 6 -0.034977 -0.022421 0.007054 -0.001216 0.006320 0.090389
#
#
# Mechanical properties :
#
#
# Convention : Reuss Voigt Hill
#
# Bulk Modulus (GPa) = 13.80665 43.81728 28.81197
# Shear Modulus (GPa) = 15.12844 28.94182 22.03513
#
# Velocity S-wave (km/s) = 2.70433 3.74047 3.26378
# Velocity P-wave (km/s) = 4.05286 6.31166 5.30390
#
# Compressibility (1/GPa) = 0.07242885
#
# Stress axis : x y z
#
# Youngs Moduli (GPa) = 17.08055 30.70392 59.74528
#
# Poissons Ratio (x) = -0.22074 1.03114
# Poissons Ratio (y) = -0.12280 0.45660
# Poissons Ratio (z) = 0.29479 0.23465
#
# Static dielectric constant tensor:
#      x y z
#    x 3.344550 0.192120 -0.304600 
#    y 0.192120 4.026260 0.931210 
#    z -0.304600 0.931210 4.585420 
# 
# 
# High freq. dielectric constant tensor:
#      x y z
#    x 1.778210 0.022460 -0.009390 
#    y 0.022460 1.805970 0.010940 
#    z -0.009390 0.010940 1.818340 
# 
# From -- ./inp_files/381386.got.cif
#   From: 2010.06.25/outbox.cif.g09.slc.cpg/sg2_191_cif.got.tgz:381386.got - 2010.06.27 13:26:56.
