data_PCOD8044903
_publ_section_title
;
Structure prediction by ZEFSAII (Michael W. Deem and Ramdas Pophale) SiO2 
 PCOD8044903
Probable space group: P 2
;
_chemical_formula_sum "Si O2"
_cell_formula_units_Z 14
_cell_length_a 9.456448
_cell_length_b 16.116178
_cell_length_c 8.370833
_cell_angle_alpha 90.000000
_cell_angle_beta 32.758084
_cell_angle_gamma 90.000000
_cell_volume 690.288744
_symmetry_space_group_name_H-M "P 2"
_symmetry_group_IT_number 3
_symmetry_cell_setting 'monoclinic'
loop_
_space_group_symop_operation_xyz
x,y,z
-x,y,-z
loop_
_atom_site_type_symbol
_atom_site_label
_atom_site_fract_x
_atom_site_fract_y
_atom_site_fract_z
Si Si1 0.072639 0.423330 0.106844
Si Si2 0.060367 0.784650 0.128955
Si Si3 0.226465 0.932620 0.168289
Si Si4 0.766607 0.120309 0.838322
Si Si5 0.443671 0.693460 0.367007
Si Si6 0.430003 0.505517 0.380324
Si Si7 0.248121 0.241384 0.856813
O O1 0.805135 0.444464 0.456163
O O2 0.309202 0.475655 0.959924
O O3 0.158249 0.327758 0.020827
O O4 0.000000 0.456795 0.000000
O O5 0.180248 0.874369 0.059194
O O6 0.789903 0.754913 0.468996
O O7 0.283179 0.719289 0.973607
O O8 0.000000 0.785316 0.000000
O O9 0.000000 0.903549 0.500000
O O10 0.176281 0.026770 0.156890
O O11 0.500000 0.920735 0.000000
O O12 0.000000 0.152349 0.500000
O O13 0.500000 0.119332 0.000000
O O14 0.702876 0.177968 0.048343
O O15 0.500000 0.701150 0.500000
O O16 0.363476 0.599839 0.397840
O O17 0.500000 0.493585 0.500000
O O18 0.500000 0.251343 0.500000
O O19 0.000000 0.204329 0.000000
#
# Coordination Sequence:
#
# PCOD8044903 Si02
#       7
#     2   2   2   2   2   2   2
#     4   9  16  26  43  71 106 137 169 213 262 311
#     4  10  19  32  51  78 107 133 169 221 269 307
#     4  10  21  38  57  77 103 139 182 219 261 328
#     4  10  22  40  59  80 109 147 187 223 269 337
#     4   9  17  28  45  73 107 137 170 213 260 311
#     4   9  15  25  42  67 103 141 169 204 259 313
#     4  11  21  35  56  86 116 140 179 233 281 321
#
# _framework density 20.281368000000001
#
# number of rings (size 3 to 8) (size 9 to 14) (size 15 to 20)
#    0.000    2.286    0.000    4.714    0.000    4.000 
#    0.000    2.143    0.000    0.000    0.000   20.000 
#    0.000    0.000    0.000    0.000    0.000    0.000 
#
# Total GULP energy -173435.484848 kJ/mol
# GULP energy per Si atom -12388.248918 kJ/mol
# Density = 2.023521 g / cm^3
# Si number density = 20.281368 Si / 1000 Ang^3
#
#
#
# Elastic Constant Matrix: (Units=GPa)
#
#
# Indices 1 2 3 4 5 6 
#
# 1 28.0758 40.6590 29.9420 0.0000 -12.5929 0.0000
# 2 40.6590 122.9586 51.2060 0.0000 -10.6445 0.0000
# 3 29.9420 51.2060 131.6824 0.0000 -31.7446 0.0000
# 4 0.0000 0.0000 0.0000 33.9321 0.0000 -11.8515
# 5 -12.5929 -10.6445 -31.7446 0.0000 23.9598 0.0000
# 6 0.0000 0.0000 0.0000 -11.8515 0.0000 10.8842
#
#
#
# Elastic Compliance Matrix: (Units=1/GPa)
#
#
# Indices 1 2 3 4 5 6 
#
# 1 0.090969 -0.026155 -0.002629 0.000000 0.032709 0.000000
# 2 -0.026155 0.017241 -0.003269 0.000000 -0.010417 0.000000
# 3 -0.002629 -0.003269 0.012900 0.000000 0.014257 0.000000
# 4 0.000000 0.000000 0.000000 0.047557 0.000000 0.051784
# 5 0.032709 -0.010417 0.014257 0.000000 0.073190 0.000000
# 6 0.000000 0.000000 0.000000 0.051784 0.000000 0.148262
#
#
# Mechanical properties :
#
#
# Convention : Reuss Voigt Hill
#
# Bulk Modulus (GPa) = 17.54208 58.48118 38.01163
# Shear Modulus (GPa) = 10.56580 24.48253 17.52416
#
# Velocity S-wave (km/s) = 2.28493 3.47817 2.94267
# Velocity P-wave (km/s) = 3.95340 6.71027 5.50714
#
# Compressibility (1/GPa) = 0.05700580
#
# Stress axis : x y z
#
# Youngs Moduli (GPa) = 10.99271 58.00210 77.52062
#
# Poissons Ratio (x) = 1.51702 0.20380
# Poissons Ratio (y) = 0.28751 0.25338
# Poissons Ratio (z) = 0.02890 0.18958
#
# Static dielectric constant tensor:
#      x y z
#    x 3.243670 0.000000 -0.460580 
#    y 0.000000 3.670980 0.000000 
#    z -0.460580 0.000000 4.101470 
# 
# 
# High freq. dielectric constant tensor:
#      x y z
#    x 1.747940 0.000000 -0.039340 
#    y 0.000000 1.794290 0.000000 
#    z -0.039340 0.000000 1.806440 
# 
# From -- ./inp_files/6170.got.cif
#   From: 2010.03.12/outbox.cif.g09.slc.cpg/sg3_4_cif.got.tgz:6170.got - 2010.03.31 09:20:49.
