data_PCOD8044943
_publ_section_title
;
Structure prediction by ZEFSAII (Michael W. Deem and Ramdas Pophale) SiO2 
 PCOD8044943
Probable space group: P 2
;
_chemical_formula_sum "Si O2"
_cell_formula_units_Z 16
_cell_length_a 21.946889
_cell_length_b 8.547821
_cell_length_c 5.187315
_cell_angle_alpha 90.000000
_cell_angle_beta 53.485753
_cell_angle_gamma 90.000000
_cell_volume 782.113533
_symmetry_space_group_name_H-M "P 2"
_symmetry_group_IT_number 3
_symmetry_cell_setting 'monoclinic'
loop_
_space_group_symop_operation_xyz
x,y,z
-x,y,-z
loop_
_atom_site_type_symbol
_atom_site_label
_atom_site_fract_x
_atom_site_fract_y
_atom_site_fract_z
Si Si1 0.205974 0.299990 0.697201
Si Si2 0.970883 0.314839 0.823348
Si Si3 0.745463 0.945279 0.412109
Si Si4 0.585288 0.054527 0.757192
Si Si5 0.273926 0.442995 0.024984
Si Si6 0.037219 0.662744 0.656449
Si Si7 0.791430 0.766038 0.795279
Si Si8 0.583532 0.255887 0.261661
O O1 0.226672 0.344516 0.353443
O O2 0.227882 0.122148 0.698255
O O3 0.118116 0.336370 0.955915
O O4 0.247697 0.407545 0.800668
O O5 0.000000 0.219676 0.500000
O O6 0.017346 0.478729 0.706374
O O7 0.000000 0.219361 0.000000
O O8 0.775764 0.892185 0.613374
O O9 0.653316 0.930295 0.629381
O O10 0.783572 0.842407 0.094795
O O11 0.596644 0.120786 0.440913
O O12 0.500000 0.980857 0.000000
O O13 0.596288 0.189416 0.942804
O O14 0.268824 0.627223 0.088419
O O15 0.361704 0.400810 0.831083
O O16 0.126648 0.687429 0.435921
O O17 0.000000 0.743999 0.500000
O O18 0.000000 0.744129 0.000000
O O19 0.500000 0.326241 0.500000
#
# Coordination Sequence:
#
# PCOD8044943 Si02
#       8
#     2   2   2   2   2   2   2   2
#     4  12  23  40  70  90 123 161 220 271 307 368
#     4  10  20  36  59  88 112 149 209 264 303 362
#     4  12  24  43  60 100 132 166 208 267 322 375
#     4  10  20  39  65  92 125 171 212 253 309 380
#     4  12  21  40  63  96 120 170 212 260 313 376
#     4  10  19  38  59  82 114 161 212 248 301 384
#     4  12  26  39  64  94 135 168 206 263 330 386
#     4  10  19  35  62  96 123 158 213 268 307 359
#
# _framework density 20.457388999999999
#
# number of rings (size 3 to 8) (size 9 to 14) (size 15 to 20)
#    0.000    1.000    2.500    6.750    0.000    0.000 
#    0.000    5.000    0.000    0.000    0.000    0.000 
#    0.000    0.000    0.000    0.000    0.000    0.000 
#
# Total GULP energy -198381.434347 kJ/mol
# GULP energy per Si atom -12398.839647 kJ/mol
# Density = 2.041083 g / cm^3
# Si number density = 20.457389 Si / 1000 Ang^3
#
#
#
# Elastic Constant Matrix: (Units=GPa)
#
#
# Indices 1 2 3 4 5 6 
#
# 1 119.5605 12.1271 43.1108 0.0000 -0.6121 0.0000
# 2 12.1271 54.1785 21.8360 0.0000 -9.5769 0.0000
# 3 43.1108 21.8360 110.4029 0.0000 6.5250 0.0000
# 4 0.0000 0.0000 0.0000 20.5603 0.0000 -7.2204
# 5 -0.6121 -9.5769 6.5250 0.0000 48.4896 0.0000
# 6 0.0000 0.0000 0.0000 -7.2204 0.0000 29.1806
#
#
#
# Elastic Compliance Matrix: (Units=1/GPa)
#
#
# Indices 1 2 3 4 5 6 
#
# 1 0.009771 -0.000595 -0.003728 0.000000 0.000507 0.000000
# 2 -0.000595 0.021131 -0.004227 0.000000 0.004735 0.000000
# 3 -0.003728 -0.004227 0.011493 0.000000 -0.002428 0.000000
# 4 0.000000 0.000000 0.000000 0.053266 0.000000 0.013180
# 5 0.000507 0.004735 -0.002428 0.000000 0.021891 0.000000
# 6 0.000000 0.000000 0.000000 0.013180 0.000000 0.037531
#
#
# Mechanical properties :
#
#
# Convention : Reuss Voigt Hill
#
# Bulk Modulus (GPa) = 39.53217 48.69886 44.11551
# Shear Modulus (GPa) = 27.68328 33.45062 30.56695
#
# Velocity S-wave (km/s) = 3.68260 4.04807 3.86965
# Velocity P-wave (km/s) = 6.11949 6.76061 6.44802
#
# Compressibility (1/GPa) = 0.02529586
#
# Stress axis : x y z
#
# Youngs Moduli (GPa) = 102.34296 47.32326 87.01009
#
# Poissons Ratio (x) = 0.02816 0.32435
# Poissons Ratio (y) = 0.06089 0.36779
# Poissons Ratio (z) = 0.38151 0.20003
#
# Static dielectric constant tensor:
#      x y z
#    x 5.022150 0.000000 1.302670 
#    y 0.000000 3.292400 0.000000 
#    z 1.302670 0.000000 5.615520 
# 
# 
# High freq. dielectric constant tensor:
#      x y z
#    x 1.824190 0.000000 0.009560 
#    y 0.000000 1.750210 0.000000 
#    z 0.009560 0.000000 1.827270 
# 
# From -- ./inp_files/4005.got.cif
#   From: 2010.03.12/outbox.cif.g09.slc.cpg/sg3_3_cif.got.tgz:4005.got - 2010.03.31 09:20:49.
