data_PCOD8044034
_publ_section_title
;
Structure prediction by ZEFSAII (Michael W. Deem and Ramdas Pophale) SiO2 
 PCOD8044034
Probable space group: P -1
;
_chemical_formula_sum "Si O2"
_cell_formula_units_Z 14
_cell_length_a 10.334717
_cell_length_b 16.977458
_cell_length_c 17.053161
_cell_angle_alpha 22.937087
_cell_angle_beta 28.688061
_cell_angle_gamma 31.316009
_cell_volume 542.254994
_symmetry_space_group_name_H-M "P -1"
_symmetry_group_IT_number 2
_symmetry_cell_setting 'triclinic'
loop_
_space_group_symop_operation_xyz
x,y,z
-x,-y,-z
loop_
_atom_site_type_symbol
_atom_site_label
_atom_site_fract_x
_atom_site_fract_y
_atom_site_fract_z
Si Si1 0.951097 0.967878 0.895369
Si Si2 0.517309 0.362269 0.823580
Si Si3 0.954873 0.178565 0.540973
Si Si4 0.241825 0.445107 0.357561
Si Si5 0.779969 0.570939 0.371438
Si Si6 0.533169 0.020708 0.304051
Si Si7 0.740036 0.972225 0.712134
O O1 0.033348 0.013645 0.721430
O O2 0.220287 0.876871 0.891476
O O3 0.793723 0.189240 0.811122
O O4 0.743744 0.812842 0.144861
O O5 0.535789 0.428296 0.844938
O O6 0.531002 0.553687 0.581331
O O7 0.245304 0.267245 0.046394
O O8 0.793521 0.414433 0.434347
O O9 0.239474 0.167965 0.352818
O O10 0.722348 0.116461 0.665841
O O11 0.409790 0.205995 0.479228
O O12 0.000000 0.500000 0.500000
O O13 0.096754 0.509187 0.293153
O O14 0.528218 0.985065 0.243994
O O15 0.000000 0.000000 0.500000
#
# Coordination Sequence:
#
# PCOD8044034 Si02
#       7
#     2   2   2   2   2   2   2
#     4  11  22  39  72  95 122 171 206 269 324 357
#     4  10  22  41  65  93 132 154 219 265 306 373
#     4  10  23  46  58  94 136 164 215 256 310 385
#     4  10  19  37  63 102 127 154 213 266 314 368
#     4  10  22  38  64  98 126 161 209 263 320 371
#     4  11  21  41  70  93 128 172 206 265 317 367
#     4  10  24  44  65  88 130 175 207 256 317 378
#
# _framework density 25.818111999999999
#
# number of rings (size 3 to 8) (size 9 to 14) (size 15 to 20)
#    0.000    1.714    4.286    1.286    4.000    4.000 
#    7.714    2.857    0.000    0.000    0.000    0.000 
#    0.000    0.000    0.000    0.000    0.000    0.000 
#
# Total GULP energy -173459.258938 kJ/mol
# GULP energy per Si atom -12389.947067 kJ/mol
# Density = 2.575935 g / cm^3
# Si number density = 25.818112 Si / 1000 Ang^3
#
#
#
# Elastic Constant Matrix: (Units=GPa)
#
#
# Indices 1 2 3 4 5 6 
#
# 1 144.3655 7.5634 40.9410 5.0935 -19.8236 14.8896
# 2 7.5634 49.8537 2.9354 8.8353 -8.1991 2.1302
# 3 40.9410 2.9354 136.8189 8.4602 -36.2612 10.2066
# 4 5.0935 8.8353 8.4602 35.2781 -1.3995 -6.7315
# 5 -19.8236 -8.1991 -36.2612 -1.3995 42.1970 -5.1079
# 6 14.8896 2.1302 10.2066 -6.7315 -5.1079 34.3297
#
#
#
# Elastic Compliance Matrix: (Units=1/GPa)
#
#
# Indices 1 2 3 4 5 6 
#
# 1 0.008006 -0.000482 -0.001592 -0.001132 0.001910 -0.002907
# 2 -0.000482 0.021997 0.001489 -0.005994 0.004881 -0.002048
# 3 -0.001592 0.001489 0.010157 -0.002595 0.007972 -0.001744
# 4 -0.001132 -0.005994 -0.002595 0.032011 -0.001942 0.007622
# 5 0.001910 0.004881 0.007972 -0.001942 0.032445 0.000945
# 6 -0.002907 -0.002048 -0.001744 0.007622 0.000945 0.032671
#
#
# Mechanical properties :
#
#
# Convention : Reuss Voigt Hill
#
# Bulk Modulus (GPa) = 25.64813 48.21309 36.93061
# Shear Modulus (GPa) = 33.01383 41.00083 37.00733
#
# Velocity S-wave (km/s) = 3.57978 3.98938 3.79012
# Velocity P-wave (km/s) = 5.20021 6.31940 5.78693
#
# Compressibility (1/GPa) = 0.03898919
#
# Stress axis : x y z
#
# Youngs Moduli (GPa) = 124.91201 45.46172 98.45474
#
# Poissons Ratio (x) = 0.02191 0.15677
# Poissons Ratio (y) = 0.06019 -0.14662
# Poissons Ratio (z) = 0.19889 -0.06770
#
# Static dielectric constant tensor:
#      x y z
#    x 5.425000 0.067470 -0.513880 
#    y 0.067470 3.974540 -0.059400 
#    z -0.513880 -0.059400 5.183970 
# 
# 
# High freq. dielectric constant tensor:
#      x y z
#    x 2.046330 0.003930 -0.023160 
#    y 0.003930 1.997960 -0.006980 
#    z -0.023160 -0.006980 2.041750 
# 
# From -- ./inp_files/596166.got.cif
#   From: 2010.06.25/outbox.cif.g09.slc.cpg/sg2_299_cif.got.tgz:596166.got - 2010.06.27 13:26:56.
