data_PCOD8044610
_publ_section_title
;
Structure prediction by ZEFSAII (Michael W. Deem and Ramdas Pophale) SiO2 
 PCOD8044610
Probable space group: P -1
;
_chemical_formula_sum "Si O2"
_cell_formula_units_Z 16
_cell_length_a 15.196240
_cell_length_b 9.076121
_cell_length_c 15.091346
_cell_angle_alpha 123.335467
_cell_angle_beta 36.842828
_cell_angle_gamma 138.170271
_cell_volume 826.654002
_symmetry_space_group_name_H-M "P -1"
_symmetry_group_IT_number 2
_symmetry_cell_setting 'triclinic'
loop_
_space_group_symop_operation_xyz
x,y,z
-x,-y,-z
loop_
_atom_site_type_symbol
_atom_site_label
_atom_site_fract_x
_atom_site_fract_y
_atom_site_fract_z
Si Si1 0.308042 0.973458 0.547800
Si Si2 0.467396 0.029768 0.248510
Si Si3 0.171195 0.530420 0.831542
Si Si4 0.348828 0.030210 0.160135
Si Si5 0.970917 0.947385 0.237829
Si Si6 0.605855 0.756389 0.978579
Si Si7 0.956064 0.831920 0.403595
Si Si8 0.692218 0.350770 0.430538
O O1 0.345520 0.940078 0.405890
O O2 0.276990 0.781978 0.569581
O O3 0.119621 0.946383 0.697862
O O4 0.478188 0.213741 0.529040
O O5 0.652361 0.275957 0.193224
O O6 0.365879 0.066769 0.264399
O O7 0.503547 0.852658 0.133870
O O8 0.137507 0.298636 0.796631
O O9 0.185826 0.592307 0.736787
O O10 0.000000 0.500000 0.000000
O O11 0.386093 0.225251 0.129718
O O12 0.131916 0.825019 0.248798
O O13 0.500000 0.000000 0.000000
O O14 0.927579 0.924608 0.369189
O O15 0.190615 0.103539 0.094487
O O16 0.500000 0.500000 0.000000
O O17 0.768969 0.584654 0.492596
O O18 0.000000 0.000000 0.500000
#
# Coordination Sequence:
#
# PCOD8044610 Si02
#       8
#     2   2   2   2   2   2   2   2
#     4  10  21  39  59  86 118 150 190 243 296 341
#     4  10  20  37  61  82 113 157 195 227 292 349
#     4  10  19  38  64  83 112 151 197 239 285 338
#     4   9  20  35  53  80 111 148 192 229 275 340
#     4  10  21  37  59  86 113 147 198 242 279 340
#     4  10  21  38  55  83 121 151 187 244 288 335
#     4  10  20  35  57  81 113 151 192 232 280 340
#     4   9  22  38  59  82 122 152 186 243 295 334
#
# _framework density 19.355135000000001
#
# number of rings (size 3 to 8) (size 9 to 14) (size 15 to 20)
#    0.000    2.250    1.250    0.750    1.750    9.500 
#    0.000    5.000    0.000    0.000    0.000    0.000 
#    0.000    0.000    0.000    0.000    0.000    0.000 
#
# Total GULP energy -198264.075277 kJ/mol
# GULP energy per Si atom -12391.504705 kJ/mol
# Density = 1.931108 g / cm^3
# Si number density = 19.355135 Si / 1000 Ang^3
#
#
#
# Elastic Constant Matrix: (Units=GPa)
#
#
# Indices 1 2 3 4 5 6 
#
# 1 124.0263 43.9213 31.2799 -3.4301 -1.4052 -5.2273
# 2 43.9213 125.3318 20.0883 -6.0129 9.6683 4.9656
# 3 31.2799 20.0883 58.6605 -1.6336 -4.2265 -6.6387
# 4 -3.4301 -6.0129 -1.6336 29.0490 -0.3385 4.4233
# 5 -1.4052 9.6683 -4.2265 -0.3385 26.4791 1.9699
# 6 -5.2273 4.9656 -6.6387 4.4233 1.9699 21.7673
#
#
#
# Elastic Compliance Matrix: (Units=1/GPa)
#
#
# Indices 1 2 3 4 5 6 
#
# 1 0.010290 -0.003073 -0.004165 0.000080 0.000870 0.001807
# 2 -0.003073 0.010001 -0.002442 0.002109 -0.003892 -0.003841
# 3 -0.004165 -0.002442 0.020998 -0.000653 0.003585 0.005769
# 4 0.000080 0.002109 -0.000653 0.036055 0.000186 -0.008005
# 5 0.000870 -0.003892 0.003585 0.000186 0.039916 -0.001460
# 6 0.001807 -0.003841 0.005769 -0.008005 -0.001460 0.050769
#
#
# Mechanical properties :
#
#
# Convention : Reuss Voigt Hill
#
# Bulk Modulus (GPa) = 45.60609 55.39975 50.50292
# Shear Modulus (GPa) = 25.68074 29.64101 27.66087
#
# Velocity S-wave (km/s) = 3.64650 3.91759 3.78448
# Velocity P-wave (km/s) = 6.42987 7.01058 6.72650
#
# Compressibility (1/GPa) = 0.02192690
#
# Stress axis : x y z
#
# Youngs Moduli (GPa) = 97.18366 99.99138 47.62451
#
# Poissons Ratio (x) = 0.30730 0.19836
# Poissons Ratio (y) = 0.29867 0.11632
# Poissons Ratio (z) = 0.40478 0.24421
#
# Static dielectric constant tensor:
#      x y z
#    x 3.354250 0.362680 0.644780 
#    y 0.362680 3.462450 -0.322250 
#    z 0.644780 -0.322250 2.769740 
# 
# 
# High freq. dielectric constant tensor:
#      x y z
#    x 1.764440 0.009200 -0.002600 
#    y 0.009200 1.741740 -0.007270 
#    z -0.002600 -0.007270 1.752080 
# 
# From -- ./inp_files/277256.got.cif
#   From: 2010.06.25/outbox.cif.g09.slc.cpg/sg2_139_cif.got.tgz:277256.got - 2010.06.27 13:26:56.
