data_PCOD8044899
_publ_section_title
;
Structure prediction by ZEFSAII (Michael W. Deem and Ramdas Pophale) SiO2 
 PCOD8044899
Probable space group: P 2
;
_chemical_formula_sum "Si O2"
_cell_formula_units_Z 14
_cell_length_a 7.866780
_cell_length_b 7.596638
_cell_length_c 23.933078
_cell_angle_alpha 90.000000
_cell_angle_beta 147.417137
_cell_angle_gamma 90.000000
_cell_volume 770.225425
_symmetry_space_group_name_H-M "P 2"
_symmetry_group_IT_number 3
_symmetry_cell_setting 'monoclinic'
loop_
_space_group_symop_operation_xyz
x,y,z
-x,y,-z
loop_
_atom_site_type_symbol
_atom_site_label
_atom_site_fract_x
_atom_site_fract_y
_atom_site_fract_z
Si Si1 0.583345 0.606290 0.759139
Si Si2 0.806799 0.726401 0.119912
Si Si3 0.761589 0.278462 0.382383
Si Si4 0.795292 0.606890 0.238712
Si Si5 0.720515 0.903451 0.612878
Si Si6 0.160905 0.285171 0.384753
Si Si7 0.610217 0.931473 0.701867
O O1 0.418094 0.461433 0.674614
O O2 0.507840 0.584144 0.804239
O O3 0.447720 0.795396 0.700219
O O4 0.961625 0.597854 0.852285
O O5 0.697383 0.629628 0.146945
O O6 0.004381 0.906832 0.186983
O O7 0.500000 0.776199 0.000000
O O8 0.000000 0.287177 0.500000
O O9 0.954062 0.234901 0.380630
O O10 0.497797 0.128582 0.316672
O O11 0.978954 0.778825 0.310271
O O12 0.015272 0.435416 0.305296
O O13 0.500000 0.864786 0.500000
O O14 0.522986 0.867514 0.614894
O O15 0.820612 0.107435 0.645824
O O16 0.500000 0.352471 0.500000
#
# Coordination Sequence:
#
# PCOD8044899 Si02
#       7
#     2   2   2   2   2   2   2
#     4   9  22  37  56  87 112 146 191 230 279 339
#     4   9  21  41  62  83 105 149 195 239 290 321
#     4  11  21  33  56  84 120 154 180 224 279 338
#     4  10  20  36  58  80 114 144 183 240 275 333
#     4  10  19  31  53  79 113 155 186 219 274 331
#     4  10  21  32  52  82 115 155 185 216 274 335
#     4   9  21  36  55  82 118 147 192 233 272 337
#
# _framework density 18.176497000000001
#
# number of rings (size 3 to 8) (size 9 to 14) (size 15 to 20)
#    0.857    1.429    0.000    3.000    4.000    3.429 
#    0.000    0.714    0.000    0.000    3.714    0.000 
#    0.000    0.000    0.000    0.000    0.000    0.000 
#
# Total GULP energy -173476.189199 kJ/mol
# GULP energy per Si atom -12391.156371 kJ/mol
# Density = 1.813513 g / cm^3
# Si number density = 18.176497 Si / 1000 Ang^3
#
#
#
# Elastic Constant Matrix: (Units=GPa)
#
#
# Indices 1 2 3 4 5 6 
#
# 1 105.6691 20.6825 42.5354 0.0000 -5.5628 0.0000
# 2 20.6825 74.8100 38.0840 0.0000 0.0798 0.0000
# 3 42.5354 38.0840 105.5828 0.0000 -4.3952 0.0000
# 4 0.0000 0.0000 0.0000 12.0122 0.0000 9.8944
# 5 -5.5628 0.0798 -4.3952 0.0000 22.0883 0.0000
# 6 0.0000 0.0000 0.0000 9.8944 0.0000 9.1573
#
#
#
# Elastic Compliance Matrix: (Units=1/GPa)
#
#
# Indices 1 2 3 4 5 6 
#
# 1 0.011447 -0.001057 -0.004145 0.000000 0.002062 0.000000
# 2 -0.001057 0.016505 -0.005588 0.000000 -0.001438 0.000000
# 3 -0.004145 -0.005588 0.013223 0.000000 0.001608 0.000000
# 4 0.000000 0.000000 0.000000 0.756797 0.000000 -0.817715
# 5 0.002062 -0.001438 0.001608 0.000000 0.046117 0.000000
# 6 0.000000 0.000000 0.000000 -0.817715 0.000000 0.992739
#
#
# Mechanical properties :
#
#
# Convention : Reuss Voigt Hill
#
# Bulk Modulus (GPa) = 51.02653 54.29618 52.66135
# Shear Modulus (GPa) = 2.68105 20.96891 11.82498
#
# Velocity S-wave (km/s) = 1.21582 3.40019 2.55338
# Velocity P-wave (km/s) = 5.48678 6.73436 6.14232
#
# Compressibility (1/GPa) = 0.01959765
#
# Stress axis : x y z
#
# Youngs Moduli (GPa) = 87.35699 60.58594 75.62408
#
# Poissons Ratio (x) = 0.06405 0.31343
# Poissons Ratio (y) = 0.09235 0.42255
# Poissons Ratio (z) = 0.36206 0.33853
#
# Static dielectric constant tensor:
#      x y z
#    x 3.546690 0.000000 -0.042240 
#    y 0.000000 3.294640 0.000000 
#    z -0.042240 0.000000 3.045220 
# 
# 
# High freq. dielectric constant tensor:
#      x y z
#    x 1.722970 0.000000 -0.009930 
#    y 0.000000 1.700740 0.000000 
#    z -0.009930 0.000000 1.668280 
# 
# From -- ./inp_files/16254.got.cif
#   From: 2010.03.12/outbox.cif.g09.slc.cpg/sg3_9_cif.got.tgz:16254.got - 2010.03.31 09:20:49.
