data_PCOD8044828
_publ_section_title
;
Structure prediction by ZEFSAII (Michael W. Deem and Ramdas Pophale) SiO2 
 PCOD8044828
Probable space group: P -1
;
_chemical_formula_sum "Si O2"
_cell_formula_units_Z 16
_cell_length_a 13.403289
_cell_length_b 11.804417
_cell_length_c 9.335172
_cell_angle_alpha 85.900800
_cell_angle_beta 135.822865
_cell_angle_gamma 121.752158
_cell_volume 749.570151
_symmetry_space_group_name_H-M "P -1"
_symmetry_group_IT_number 2
_symmetry_cell_setting 'triclinic'
loop_
_space_group_symop_operation_xyz
x,y,z
-x,-y,-z
loop_
_atom_site_type_symbol
_atom_site_label
_atom_site_fract_x
_atom_site_fract_y
_atom_site_fract_z
Si Si1 0.058826 0.371193 0.117214
Si Si2 0.995707 0.300286 0.749992
Si Si3 0.372772 0.877829 0.251324
Si Si4 0.271233 0.409728 0.760965
Si Si5 0.904814 0.831278 0.639497
Si Si6 0.310059 0.080328 0.109757
Si Si7 0.273433 0.057780 0.412606
Si Si8 0.739026 0.381324 0.462715
O O1 0.086361 0.263067 0.225014
O O2 0.183500 0.533342 0.312368
O O3 0.117777 0.401477 0.008448
O O4 0.830373 0.285760 0.890295
O O5 0.848982 0.322333 0.543544
O O6 0.165601 0.360153 0.808830
O O7 0.871029 0.120872 0.672867
O O8 0.505133 0.853338 0.317956
O O9 0.500000 0.000000 0.500000
O O10 0.333381 0.960962 0.097388
O O11 0.164482 0.252828 0.576347
O O12 0.226890 0.507611 0.634888
O O13 0.500000 0.500000 0.000000
O O14 0.753542 0.841252 0.539677
O O15 0.115661 0.010971 0.827672
O O16 0.260810 0.070753 0.227859
O O17 0.504012 0.249167 0.245825
#
# Coordination Sequence:
#
# PCOD8044828 Si02
#       8
#     2   2   2   2   2   2   2   2
#     4  10  21  39  68 100 132 160 208 267 324 376
#     4  12  22  42  68  95 128 171 213 262 315 378
#     4   9  15  33  58  98 125 152 200 261 311 364
#     4  11  29  48  61  87 135 176 212 258 318 385
#     4  10  23  42  65  94 128 172 210 257 316 381
#     4  10  19  38  69  96 127 157 213 268 316 369
#     4  11  20  35  68 103 126 161 213 265 316 371
#     4  11  24  43  68  97 128 168 211 267 321 377
#
# _framework density 21.345566999999999
#
# number of rings (size 3 to 8) (size 9 to 14) (size 15 to 20)
#    0.000    1.500    5.000    1.875    1.750    2.500 
#    0.000    4.375    0.000    0.000    0.000    0.000 
#    0.000    0.000    0.000    0.000    0.000    0.000 
#
# Total GULP energy -198281.316955 kJ/mol
# GULP energy per Si atom -12392.582310 kJ/mol
# Density = 2.129698 g / cm^3
# Si number density = 21.345567 Si / 1000 Ang^3
#
#
#
# Elastic Constant Matrix: (Units=GPa)
#
#
# Indices 1 2 3 4 5 6 
#
# 1 159.0300 46.2221 66.7168 8.2628 15.9127 2.3493
# 2 46.2221 60.7146 20.1969 7.1447 0.0135 -0.5684
# 3 66.7168 20.1969 100.1378 15.7824 1.9446 7.3356
# 4 8.2628 7.1447 15.7824 31.5851 0.1931 5.8828
# 5 15.9127 0.0135 1.9446 0.1931 28.9480 -4.7704
# 6 2.3493 -0.5684 7.3356 5.8828 -4.7704 36.1668
#
#
#
# Elastic Compliance Matrix: (Units=1/GPa)
#
#
# Indices 1 2 3 4 5 6 
#
# 1 0.011468 -0.006831 -0.006398 0.001901 -0.005991 -0.000654
# 2 -0.006831 0.021966 0.000507 -0.003802 0.004039 0.001837
# 3 -0.006398 0.000507 0.015110 -0.005744 0.002309 -0.001402
# 4 0.001901 -0.003802 -0.005744 0.035850 -0.001733 -0.005078
# 5 -0.005991 0.004039 0.002309 -0.001733 0.038575 0.005354
# 6 -0.000654 0.001837 -0.001402 -0.005078 0.005354 0.029538
#
#
# Mechanical properties :
#
#
# Convention : Reuss Voigt Hill
#
# Bulk Modulus (GPa) = 43.29043 65.12820 54.20932
# Shear Modulus (GPa) = 26.93231 31.78977 29.36104
#
# Velocity S-wave (km/s) = 3.55594 3.86332 3.71281
# Velocity P-wave (km/s) = 6.09790 7.10478 6.62051
#
# Compressibility (1/GPa) = 0.02309979
#
# Stress axis : x y z
#
# Youngs Moduli (GPa) = 87.19839 45.52524 66.18143
#
# Poissons Ratio (x) = 0.31097 0.42344
# Poissons Ratio (y) = 0.59563 -0.03355
# Poissons Ratio (z) = 0.55791 -0.02308
#
# Static dielectric constant tensor:
#      x y z
#    x 4.013770 -0.202720 0.382920 
#    y -0.202720 3.913850 -0.081500 
#    z 0.382920 -0.081500 4.152400 
# 
# 
# High freq. dielectric constant tensor:
#      x y z
#    x 1.827450 -0.011930 0.021140 
#    y -0.011930 1.840420 0.002300 
#    z 0.021140 0.002300 1.835530 
# 
# From -- ./inp_files/262630.got.cif
#   From: 2010.06.25/outbox.cif.g09.slc.cpg/sg2_132_cif.got.tgz:262630.got - 2010.06.27 13:26:56.
