data_PCOD8044816
_publ_section_title
;
Structure prediction by ZEFSAII (Michael W. Deem and Ramdas Pophale) SiO2 
 PCOD8044816
Probable space group: P -1
;
_chemical_formula_sum "Si O2"
_cell_formula_units_Z 14
_cell_length_a 14.015187
_cell_length_b 8.715392
_cell_length_c 7.779018
_cell_angle_alpha 86.774921
_cell_angle_beta 40.124865
_cell_angle_gamma 81.785264
_cell_volume 603.976742
_symmetry_space_group_name_H-M "P -1"
_symmetry_group_IT_number 2
_symmetry_cell_setting 'triclinic'
loop_
_space_group_symop_operation_xyz
x,y,z
-x,-y,-z
loop_
_atom_site_type_symbol
_atom_site_label
_atom_site_fract_x
_atom_site_fract_y
_atom_site_fract_z
Si Si1 0.274992 0.903430 0.796532
Si Si2 0.263732 0.671867 0.539232
Si Si3 0.512991 0.931618 0.728349
Si Si4 0.135478 0.377945 0.757620
Si Si5 0.051565 0.175006 0.173398
Si Si6 0.568536 0.754697 0.988609
Si Si7 0.110337 0.346682 0.409380
O O1 0.259252 0.743379 0.732304
O O2 0.388035 0.857791 0.800424
O O3 0.349585 0.023800 0.570326
O O4 0.110203 0.990247 0.078398
O O5 0.265935 0.485823 0.550383
O O6 0.416188 0.688338 0.231264
O O7 0.123999 0.773101 0.625920
O O8 0.427395 0.083064 0.930889
O O9 0.588174 0.792920 0.757703
O O10 0.091027 0.305807 0.640280
O O11 0.158470 0.254146 0.888885
O O12 0.000000 0.500000 0.000000
O O13 0.077218 0.211385 0.335850
O O14 0.713698 0.633881 0.857289
O O15 0.000000 0.500000 0.500000
#
# Coordination Sequence:
#
# PCOD8044816 Si02
#       7
#     2   2   2   2   2   2   2
#     4  10  19  38  68  96 124 166 216 267 318 384
#     4  10  22  40  61  97 132 161 213 273 318 371
#     4   9  19  38  65  93 126 170 207 261 335 380
#     4  10  22  42  63  87 129 173 211 253 321 383
#     4  11  22  43  68  92 131 174 214 263 321 385
#     4  10  21  39  63  94 130 163 215 271 314 384
#     4  12  22  41  68  88 124 180 216 252 319 396
#
# _framework density 23.179701000000001
#
# number of rings (size 3 to 8) (size 9 to 14) (size 15 to 20)
#    0.000    1.714    4.286    1.286    0.000    0.571 
#    7.714    1.429    0.000    0.000    0.000    0.000 
#    0.000    0.000    0.000    0.000    0.000    0.000 
#
# Total GULP energy -173470.459424 kJ/mol
# GULP energy per Si atom -12390.747102 kJ/mol
# Density = 2.312694 g / cm^3
# Si number density = 23.179701 Si / 1000 Ang^3
#
#
#
# Elastic Constant Matrix: (Units=GPa)
#
#
# Indices 1 2 3 4 5 6 
#
# 1 149.4212 34.3011 56.5072 5.2990 6.7416 11.4138
# 2 34.3011 45.2264 9.0751 8.2648 -6.2387 -8.3558
# 3 56.5072 9.0751 73.1155 8.9160 -18.0137 -18.4292
# 4 5.2990 8.2648 8.9160 30.1150 -1.7319 -9.7741
# 5 6.7416 -6.2387 -18.0137 -1.7319 53.6127 8.1734
# 6 11.4138 -8.3558 -18.4292 -9.7741 8.1734 22.9347
#
#
#
# Elastic Compliance Matrix: (Units=1/GPa)
#
#
# Indices 1 2 3 4 5 6 
#
# 1 0.031300 -0.026812 -0.036315 -0.005143 -0.011396 -0.052657
# 2 -0.026812 0.047333 0.030516 -0.000094 0.011351 0.051024
# 3 -0.036315 0.030516 0.060121 0.005065 0.017276 0.073503
# 4 -0.005143 -0.000094 0.005065 0.040359 0.000014 0.023790
# 5 -0.011396 0.011351 0.017276 0.000014 0.024955 0.014802
# 6 -0.052657 0.051024 0.073503 0.023790 0.014802 0.152324
#
#
# Mechanical properties :
#
#
# Convention : Reuss Voigt Hill
#
# Bulk Modulus (GPa) = 13.59980 51.94776 32.77378
# Shear Modulus (GPa) = 11.20763 32.52446 21.86605
#
# Velocity S-wave (km/s) = 2.20127 3.74992 3.07470
# Velocity P-wave (km/s) = 3.51293 6.41940 5.17443
#
# Compressibility (1/GPa) = 0.07353052
#
# Stress axis : x y z
#
# Youngs Moduli (GPa) = 31.94909 21.12694 16.63317
#
# Poissons Ratio (x) = 0.56647 0.60403
# Poissons Ratio (y) = 0.85663 -0.50758
# Poissons Ratio (z) = 1.16023 -0.64471
#
# Static dielectric constant tensor:
#      x y z
#    x 4.439820 0.823410 -0.053310 
#    y 0.823410 -17.907940 7.022330 
#    z -0.053310 7.022330 2.223090 
# 
# 
# High freq. dielectric constant tensor:
#      x y z
#    x 1.923950 0.004070 0.002880 
#    y 0.004070 1.886060 0.029640 
#    z 0.002880 0.029640 1.930410 
# 
# From -- ./inp_files/298465.got.cif
#   From: 2010.06.25/outbox.cif.g09.slc.cpg/sg2_150_cif.got.tgz:298465.got - 2010.06.27 13:26:56.
