data_PCOD8044000
_publ_section_title
;
Structure prediction by ZEFSAII (Michael W. Deem and Ramdas Pophale) SiO2 
 PCOD8044000
Probable space group: P -1
;
_chemical_formula_sum "Si O2"
_cell_formula_units_Z 14
_cell_length_a 23.011619
_cell_length_b 14.081085
_cell_length_c 8.384579
_cell_angle_alpha 136.177817
_cell_angle_beta 134.658491
_cell_angle_gamma 23.232815
_cell_volume 734.117310
_symmetry_space_group_name_H-M "P -1"
_symmetry_group_IT_number 2
_symmetry_cell_setting 'triclinic'
loop_
_space_group_symop_operation_xyz
x,y,z
-x,-y,-z
loop_
_atom_site_type_symbol
_atom_site_label
_atom_site_fract_x
_atom_site_fract_y
_atom_site_fract_z
Si Si1 0.348215 0.208690 0.556400
Si Si2 0.056937 0.540147 0.266041
Si Si3 0.300086 0.414916 0.192692
Si Si4 0.995790 0.100640 0.958965
Si Si5 0.827899 0.351634 0.440379
Si Si6 0.630932 0.951633 0.257033
Si Si7 0.100754 0.239548 0.448554
O O1 0.225976 0.269804 0.327258
O O2 0.270817 0.466499 0.686467
O O3 0.375944 0.136323 0.705885
O O4 0.500000 0.000000 0.500000
O O5 0.057727 0.682920 0.343203
O O6 0.940727 0.726938 0.409186
O O7 0.000000 0.500000 0.000000
O O8 0.273171 0.519472 0.441202
O O9 0.464213 0.235188 0.236527
O O10 0.176720 0.639748 0.103431
O O11 0.302739 0.242842 0.988227
O O12 0.075929 0.133798 0.177821
O O13 0.000000 0.000000 0.000000
O O14 0.082619 0.911286 0.747309
O O15 0.728130 0.951913 0.465689
O O16 0.000000 0.500000 0.500000
#
# Coordination Sequence:
#
# PCOD8044000 Si02
#       7
#     2   2   2   2   2   2   2
#     4  10  19  37  62  88 124 156 202 248 302 362
#     4  10  20  34  59  90 119 148 200 254 297 344
#     4  11  22  37  64  88 124 158 207 251 307 362
#     4  12  23  43  62  86 127 168 202 248 314 372
#     4  10  21  37  62  89 119 163 205 242 303 371
#     4  11  21  38  61  96 120 157 207 260 300 353
#     4  12  21  38  64  91 118 159 211 251 299 362
#
# _framework density 19.070520999999999
#
# number of rings (size 3 to 8) (size 9 to 14) (size 15 to 20)
#    0.857    0.286    5.714    2.143    0.000    0.000 
#    0.000    1.429    3.143    0.000    0.000    0.000 
#    0.000    0.000    0.000    0.000    0.000    0.000 
#
# Total GULP energy -173463.316356 kJ/mol
# GULP energy per Si atom -12390.236883 kJ/mol
# Density = 1.902712 g / cm^3
# Si number density = 19.070521 Si / 1000 Ang^3
#
#
#
# Elastic Constant Matrix: (Units=GPa)
#
#
# Indices 1 2 3 4 5 6 
#
# 1 62.5517 40.5971 30.6490 1.6295 9.1728 -14.5658
# 2 40.5971 140.9024 59.5757 -4.2416 12.0520 -16.2678
# 3 30.6490 59.5757 129.8147 11.6990 15.1974 -13.3434
# 4 1.6295 -4.2416 11.6990 37.0492 -4.4653 0.4949
# 5 9.1728 12.0520 15.1974 -4.4653 34.5372 0.3167
# 6 -14.5658 -16.2678 -13.3434 0.4949 0.3167 27.4168
#
#
#
# Elastic Compliance Matrix: (Units=1/GPa)
#
#
# Indices 1 2 3 4 5 6 
#
# 1 0.022292 -0.004409 -0.001785 -0.001500 -0.003868 0.008430
# 2 -0.004409 0.010236 -0.003616 0.002420 -0.000515 0.001934
# 3 -0.001785 -0.003616 0.010820 -0.004215 -0.003591 0.002290
# 4 -0.001500 0.002420 -0.004215 0.029321 0.005218 -0.002002
# 5 -0.003868 -0.000515 -0.003591 0.005218 0.032458 -0.004577
# 6 0.008430 0.001934 0.002290 -0.002002 -0.004577 0.043303
#
#
# Mechanical properties :
#
#
# Convention : Reuss Voigt Hill
#
# Bulk Modulus (GPa) = 42.14371 66.10137 54.12254
# Shear Modulus (GPa) = 28.41542 33.29712 30.85627
#
# Velocity S-wave (km/s) = 3.86426 4.18305 4.02681
# Velocity P-wave (km/s) = 6.48513 7.62019 7.07546
#
# Compressibility (1/GPa) = 0.02372834
#
# Stress axis : x y z
#
# Youngs Moduli (GPa) = 44.85834 97.68994 92.42304
#
# Poissons Ratio (x) = 0.43073 0.16499
# Poissons Ratio (y) = 0.19779 0.33419
# Poissons Ratio (z) = 0.08008 0.35323
#
# Static dielectric constant tensor:
#      x y z
#    x 4.006490 -0.484000 -0.279250 
#    y -0.484000 3.828500 0.097520 
#    z -0.279250 0.097520 3.636350 
# 
# 
# High freq. dielectric constant tensor:
#      x y z
#    x 1.728030 -0.012920 -0.015320 
#    y -0.012920 1.739520 -0.006640 
#    z -0.015320 -0.006640 1.736280 
# 
# From -- ./inp_files/354189.got.cif
#   From: 2010.06.25/outbox.cif.g09.slc.cpg/sg2_178_cif.got.tgz:354189.got - 2010.06.27 13:26:56.
