data_PCOD8044800
_publ_section_title
;
Structure prediction by ZEFSAII (Michael W. Deem and Ramdas Pophale) SiO2 
 PCOD8044800
Probable space group: P -1
;
_chemical_formula_sum "Si O2"
_cell_formula_units_Z 16
_cell_length_a 20.512515
_cell_length_b 11.562634
_cell_length_c 9.234590
_cell_angle_alpha 139.873338
_cell_angle_beta 67.175082
_cell_angle_gamma 140.615270
_cell_volume 777.449595
_symmetry_space_group_name_H-M "P -1"
_symmetry_group_IT_number 2
_symmetry_cell_setting 'triclinic'
loop_
_space_group_symop_operation_xyz
x,y,z
-x,-y,-z
loop_
_atom_site_type_symbol
_atom_site_label
_atom_site_fract_x
_atom_site_fract_y
_atom_site_fract_z
Si Si1 0.304437 0.240500 0.677200
Si Si2 0.700348 0.664005 0.901467
Si Si3 0.530557 0.110143 0.916231
Si Si4 0.335465 0.813554 0.580508
Si Si5 0.551106 0.800384 0.424226
Si Si6 0.044912 0.633708 0.247010
Si Si7 0.071423 0.318449 0.410865
Si Si8 0.950359 0.132031 0.035383
O O1 0.389770 0.243760 0.584960
O O2 0.182323 0.961964 0.432479
O O3 0.278628 0.211750 0.840900
O O4 0.362786 0.532105 0.833012
O O5 0.677841 0.406241 0.694754
O O6 0.588639 0.526107 0.785123
O O7 0.815898 0.932843 0.961006
O O8 0.416957 0.966077 0.798048
O O9 0.574455 0.023344 0.712366
O O10 0.500000 0.000000 0.000000
O O11 0.209234 0.636145 0.565567
O O12 0.395117 0.067573 0.656656
O O13 0.969381 0.646276 0.385137
O O14 0.000000 0.500000 0.000000
O O15 0.032587 0.430378 0.159291
O O16 0.046519 0.059477 0.221098
O O17 0.995153 0.221146 0.245864
#
# Coordination Sequence:
#
# PCOD8044800 Si02
#       8
#     2   2   2   2   2   2   2   2
#     4  12  24  40  67  94 122 171 212 258 321 371
#     4  10  19  38  67  98 127 154 209 271 316 366
#     4  11  25  43  63  92 136 167 200 258 321 389
#     4  10  20  39  67  98 122 161 216 263 319 368
#     4  11  22  39  68 100 123 159 213 269 312 377
#     4  12  28  43  61  93 136 174 211 258 317 391
#     4  10  22  40  69  94 123 165 220 271 309 369
#     4  10  22  41  67  97 121 168 218 266 317 360
#
# _framework density 20.580113000000001
#
# number of rings (size 3 to 8) (size 9 to 14) (size 15 to 20)
#    0.000    1.250    3.750    2.250    1.750    6.000 
#    0.000    0.000    0.000    0.000    0.000    0.000 
#    0.000    0.000    0.000    0.000    0.000    0.000 
#
# Total GULP energy -198500.467386 kJ/mol
# GULP energy per Si atom -12406.279212 kJ/mol
# Density = 2.053327 g / cm^3
# Si number density = 20.580113 Si / 1000 Ang^3
#
#
#
# Elastic Constant Matrix: (Units=GPa)
#
#
# Indices 1 2 3 4 5 6 
#
# 1 101.5463 58.5605 65.6990 -1.6799 -0.9145 20.9394
# 2 58.5605 101.0451 69.3062 4.5880 0.1891 5.7677
# 3 65.6990 69.3062 136.2163 6.1526 9.8029 9.7798
# 4 -1.6799 4.5880 6.1526 37.5140 6.0694 1.1559
# 5 -0.9145 0.1891 9.8029 6.0694 26.8788 9.3591
# 6 20.9394 5.7677 9.7798 1.1559 9.3591 36.0535
#
#
#
# Elastic Compliance Matrix: (Units=1/GPa)
#
#
# Indices 1 2 3 4 5 6 
#
# 1 0.019930 -0.007094 -0.005775 0.002056 0.006028 -0.010504
# 2 -0.007094 0.018018 -0.005942 -0.001840 0.001321 0.002565
# 3 -0.005775 -0.005942 0.013440 -0.000896 -0.005600 0.002142
# 4 0.002056 -0.001840 -0.000896 0.028080 -0.005924 -0.000019
# 5 0.006028 0.001321 -0.005600 -0.005924 0.045599 -0.013840
# 6 -0.010504 0.002565 0.002142 -0.000019 -0.013840 0.036439
#
#
# Mechanical properties :
#
#
# Convention : Reuss Voigt Hill
#
# Bulk Modulus (GPa) = 72.65058 80.65989 76.65524
# Shear Modulus (GPa) = 24.54385 29.77205 27.15795
#
# Velocity S-wave (km/s) = 3.45715 3.80760 3.63660
# Velocity P-wave (km/s) = 7.16337 7.65563 7.41358
#
# Compressibility (1/GPa) = 0.01376451
#
# Stress axis : x y z
#
# Youngs Moduli (GPa) = 50.17671 55.49946 74.40482
#
# Poissons Ratio (x) = 0.39370 0.42972
# Poissons Ratio (y) = 0.35594 0.44214
# Poissons Ratio (z) = 0.28979 0.32980
#
# Static dielectric constant tensor:
#      x y z
#    x 3.780930 0.367200 -0.016770 
#    y 0.367200 12.270900 3.809940 
#    z -0.016770 3.809940 5.350750 
# 
# 
# High freq. dielectric constant tensor:
#      x y z
#    x 1.806400 0.016330 -0.008950 
#    y 0.016330 1.793560 0.016490 
#    z -0.008950 0.016490 1.814220 
# 
# From -- ./inp_files/308808.got.cif
#   From: 2010.06.25/outbox.cif.g09.slc.cpg/sg2_155_cif.got.tgz:308808.got - 2010.06.27 13:26:56.
