data_PCOD8044374
_publ_section_title
;
Structure prediction by ZEFSAII (Michael W. Deem and Ramdas Pophale) SiO2 
 PCOD8044374
Probable space group: P -1
;
_chemical_formula_sum "Si O2"
_cell_formula_units_Z 16
_cell_length_a 10.321422
_cell_length_b 12.092062
_cell_length_c 10.055093
_cell_angle_alpha 72.613778
_cell_angle_beta 62.466711
_cell_angle_gamma 112.464576
_cell_volume 837.580413
_symmetry_space_group_name_H-M "P -1"
_symmetry_group_IT_number 2
_symmetry_cell_setting 'triclinic'
loop_
_space_group_symop_operation_xyz
x,y,z
-x,-y,-z
loop_
_atom_site_type_symbol
_atom_site_label
_atom_site_fract_x
_atom_site_fract_y
_atom_site_fract_z
Si Si1 0.871474 0.924873 0.213586
Si Si2 0.693920 0.588007 0.447505
Si Si3 0.198866 0.553462 0.742736
Si Si4 0.221876 0.344427 0.328170
Si Si5 0.805261 0.478420 0.945835
Si Si6 0.074221 0.967076 0.352487
Si Si7 0.537461 0.883659 0.494027
Si Si8 0.420062 0.208166 0.217571
O O1 0.787542 0.756585 0.319395
O O2 0.706200 0.941521 0.288795
O O3 0.013198 0.008877 0.237725
O O4 0.000000 0.000000 0.000000
O O5 0.500000 0.500000 0.500000
O O6 0.803316 0.538672 0.342211
O O7 0.677403 0.551197 0.627004
O O8 0.350169 0.729502 0.588011
O O9 0.996170 0.505623 0.843394
O O10 0.232627 0.506162 0.886482
O O11 0.187895 0.411835 0.196883
O O12 0.350582 0.306463 0.221838
O O13 0.019944 0.205425 0.529653
O O14 0.636917 0.312006 0.038239
O O15 0.299505 0.075304 0.215377
O O16 0.000000 0.000000 0.500000
O O17 0.614964 0.863894 0.596973
O O18 0.500000 0.000000 0.500000
#
# Coordination Sequence:
#
# PCOD8044374 Si02
#       8
#     2   2   2   2   2   2   2   2
#     4  11  23  38  61  97 121 157 213 254 304 362
#     4  11  20  40  64  82 126 162 199 250 308 366
#     4  10  23  40  60  89 126 160 200 253 310 362
#     4  10  20  35  62  87 118 158 202 246 305 361
#     4  10  22  37  59  93 119 153 209 251 295 359
#     4   9  18  35  59  82 119 157 199 248 295 355
#     4  11  22  39  63  90 124 164 203 251 315 372
#     4  10  19  38  59  88 120 152 208 247 297 358
#
# _framework density 19.102641999999999
#
# number of rings (size 3 to 8) (size 9 to 14) (size 15 to 20)
#    0.000    1.750    5.000    1.125    1.750    6.500 
#    0.000    0.000    0.000    2.250    0.000    0.000 
#    0.000    0.000    0.000    0.000    0.000    0.000 
#
# Total GULP energy -198257.539476 kJ/mol
# GULP energy per Si atom -12391.096217 kJ/mol
# Density = 1.905916 g / cm^3
# Si number density = 19.102642 Si / 1000 Ang^3
#
#
#
# Elastic Constant Matrix: (Units=GPa)
#
#
# Indices 1 2 3 4 5 6 
#
# 1 114.8240 48.0292 59.5689 -8.2206 -3.9962 18.3716
# 2 48.0292 93.3174 32.7597 4.7787 -5.7817 8.9307
# 3 59.5689 32.7597 107.6032 0.8562 -0.2420 4.5820
# 4 -8.2206 4.7787 0.8562 20.7831 4.8599 -4.5941
# 5 -3.9962 -5.7817 -0.2420 4.8599 40.4660 -6.0712
# 6 18.3716 8.9307 4.5820 -4.5941 -6.0712 42.7809
#
#
#
# Elastic Compliance Matrix: (Units=1/GPa)
#
#
# Indices 1 2 3 4 5 6 
#
# 1 0.015852 -0.005745 -0.006905 0.007127 -0.000785 -0.004214
# 2 -0.005745 0.014620 -0.001181 -0.006270 0.002143 -0.000828
# 3 -0.006905 -0.001181 0.013434 -0.002636 -0.000235 0.001457
# 4 0.007127 -0.006270 -0.002636 0.054725 -0.006252 0.003520
# 5 -0.000785 0.002143 -0.000235 -0.006252 0.026133 0.002952
# 6 -0.004214 -0.000828 0.001457 0.003520 0.002952 0.025998
#
#
# Mechanical properties :
#
#
# Convention : Reuss Voigt Hill
#
# Bulk Modulus (GPa) = 61.56107 66.27334 63.91721
# Shear Modulus (GPa) = 27.19752 32.49846 29.84799
#
# Velocity S-wave (km/s) = 3.77736 4.12910 3.95714
# Velocity P-wave (km/s) = 7.16387 7.58296 7.37639
#
# Compressibility (1/GPa) = 0.01624403
#
# Stress axis : x y z
#
# Youngs Moduli (GPa) = 63.08519 68.39712 74.43677
#
# Poissons Ratio (x) = 0.39292 0.51402
# Poissons Ratio (y) = 0.36240 0.08791
# Poissons Ratio (z) = 0.43563 0.08078
#
# Static dielectric constant tensor:
#      x y z
#    x 4.027640 0.539350 -0.186140 
#    y 0.539350 3.859620 -0.107520 
#    z -0.186140 -0.107520 3.664860 
# 
# 
# High freq. dielectric constant tensor:
#      x y z
#    x 1.748120 0.025510 -0.003100 
#    y 0.025510 1.733890 -0.008620 
#    z -0.003100 -0.008620 1.734780 
# 
# From -- ./inp_files/185799.got.cif
#   From: 2010.06.25/outbox.cif.g09.slc.cpg/sg2_93_cif.got.tgz:185799.got - 2010.06.27 13:26:56.
