data_PCOD8044602
_publ_section_title
;
Structure prediction by ZEFSAII (Michael W. Deem and Ramdas Pophale) SiO2 
 PCOD8044602
Probable space group: P -1
;
_chemical_formula_sum "Si O2"
_cell_formula_units_Z 14
_cell_length_a 9.208302
_cell_length_b 24.169927
_cell_length_c 11.923405
_cell_angle_alpha 29.881715
_cell_angle_beta 37.830730
_cell_angle_gamma 27.727005
_cell_volume 612.264280
_symmetry_space_group_name_H-M "P -1"
_symmetry_group_IT_number 2
_symmetry_cell_setting 'triclinic'
loop_
_space_group_symop_operation_xyz
x,y,z
-x,-y,-z
loop_
_atom_site_type_symbol
_atom_site_label
_atom_site_fract_x
_atom_site_fract_y
_atom_site_fract_z
Si Si1 0.122083 0.715686 0.767212
Si Si2 0.755975 0.276534 0.975134
Si Si3 0.123056 0.095051 0.869880
Si Si4 0.795382 0.951064 0.726401
Si Si5 0.783694 0.187459 0.686904
Si Si6 0.700229 0.583629 0.807168
Si Si7 0.827703 0.500636 0.498147
O O1 0.102860 0.780331 0.546352
O O2 0.435007 0.648338 0.762378
O O3 0.831331 0.854997 0.769244
O O4 0.104075 0.589014 0.985449
O O5 0.683630 0.429604 0.752621
O O6 0.809659 0.218195 0.918418
O O7 0.456920 0.318705 0.153614
O O8 0.082315 0.147692 0.063411
O O9 0.028427 0.136844 0.725323
O O10 0.419676 0.086551 0.728596
O O11 0.231664 0.937800 0.110969
O O12 0.000000 0.000000 0.500000
O O13 0.439459 0.334603 0.671830
O O14 0.945241 0.592621 0.583620
O O15 0.000000 0.500000 0.500000
#
# Coordination Sequence:
#
# PCOD8044602 Si02
#       7
#     2   2   2   2   2   2   2
#     4  10  19  38  63  95 130 165 223 276 327 387
#     4  11  24  41  67  99 132 169 228 282 333 388
#     4  11  26  43  63  96 139 183 219 268 338 406
#     4  11  24  40  68  98 132 173 226 281 333 391
#     4  11  23  44  67  94 137 181 221 270 338 402
#     4  10  20  37  64 105 127 161 224 282 330 387
#     4  12  21  39  74  97 130 175 223 281 328 389
#
# _framework density 22.865942
#
# number of rings (size 3 to 8) (size 9 to 14) (size 15 to 20)
#    0.000    1.143    2.857    4.714    4.000    1.143 
#    0.000    2.143    0.000    0.000    0.000    0.000 
#    0.000    0.000    0.000    0.000    0.000    0.000 
#
# Total GULP energy -173544.214661 kJ/mol
# GULP energy per Si atom -12396.015333 kJ/mol
# Density = 2.281390 g / cm^3
# Si number density = 22.865942 Si / 1000 Ang^3
#
#
#
# Elastic Constant Matrix: (Units=GPa)
#
#
# Indices 1 2 3 4 5 6 
#
# 1 51.4522 17.4927 27.3091 -0.4142 7.8768 8.7717
# 2 17.4927 106.7397 21.5501 6.4491 2.2360 16.5041
# 3 27.3091 21.5501 92.9946 -2.2918 22.0029 2.0023
# 4 -0.4142 6.4491 -2.2918 45.9661 2.5497 7.6369
# 5 7.8768 2.2360 22.0029 2.5497 27.8889 5.1073
# 6 8.7717 16.5041 2.0023 7.6369 5.1073 32.3294
#
#
#
# Elastic Compliance Matrix: (Units=1/GPa)
#
#
# Indices 1 2 3 4 5 6 
#
# 1 0.024563 -0.001942 -0.006424 0.001118 -0.000825 -0.005409
# 2 -0.001942 0.010992 -0.002527 -0.000984 0.002689 -0.005120
# 3 -0.006424 -0.002527 0.015833 0.001117 -0.011229 0.003562
# 4 0.001118 -0.000984 0.001117 0.022904 -0.002312 -0.004915
# 5 -0.000825 0.002689 -0.011229 -0.002312 0.046266 -0.007216
# 6 -0.005409 -0.005120 0.003562 -0.004915 -0.007216 0.037093
#
#
# Mechanical properties :
#
#
# Convention : Reuss Voigt Hill
#
# Bulk Modulus (GPa) = 33.78216 42.65446 38.21831
# Shear Modulus (GPa) = 26.41247 33.55916 29.98582
#
# Velocity S-wave (km/s) = 3.40236 3.83515 3.62522
# Velocity P-wave (km/s) = 5.49917 6.18917 5.85434
#
# Compressibility (1/GPa) = 0.02960142
#
# Stress axis : x y z
#
# Youngs Moduli (GPa) = 40.71183 90.97616 63.15935
#
# Poissons Ratio (x) = 0.17672 0.40572
# Poissons Ratio (y) = 0.07908 0.15960
# Poissons Ratio (z) = 0.26152 0.22989
#
# Static dielectric constant tensor:
#      x y z
#    x 3.636320 0.219220 0.199350 
#    y 0.219220 4.459610 -0.075760 
#    z 0.199350 -0.075760 4.267370 
# 
# 
# High freq. dielectric constant tensor:
#      x y z
#    x 1.855790 0.017790 0.020020 
#    y 0.017790 1.918490 -0.002490 
#    z 0.020020 -0.002490 1.916760 
# 
# From -- ./inp_files/285114.got.cif
#   From: 2010.06.25/outbox.cif.g09.slc.cpg/sg2_143_cif.got.tgz:285114.got - 2010.06.27 13:26:56.
