data_PCOD8044597
_publ_section_title
;
Structure prediction by ZEFSAII (Michael W. Deem and Ramdas Pophale) SiO2 
 PCOD8044597
Probable space group: P -1
;
_chemical_formula_sum "Si O2"
_cell_formula_units_Z 12
_cell_length_a 9.269605
_cell_length_b 12.020488
_cell_length_c 8.885940
_cell_angle_alpha 66.508530
_cell_angle_beta 95.072544
_cell_angle_gamma 140.735484
_cell_volume 531.748430
_symmetry_space_group_name_H-M "P -1"
_symmetry_group_IT_number 2
_symmetry_cell_setting 'triclinic'
loop_
_space_group_symop_operation_xyz
x,y,z
-x,-y,-z
loop_
_atom_site_type_symbol
_atom_site_label
_atom_site_fract_x
_atom_site_fract_y
_atom_site_fract_z
Si Si1 0.471751 0.156001 0.533328
Si Si2 0.168305 0.721657 0.706156
Si Si3 0.448033 0.354832 0.219059
Si Si4 0.869330 0.806474 0.993003
Si Si5 0.634914 0.968703 0.079166
Si Si6 0.323360 0.649069 0.999485
O O1 0.736997 0.298668 0.410802
O O2 0.392523 0.235250 0.423723
O O3 0.489556 0.166799 0.707692
O O4 0.265498 0.923081 0.578959
O O5 0.874392 0.521718 0.798679
O O6 0.263244 0.739115 0.869097
O O7 0.194549 0.202025 0.183441
O O8 0.604902 0.581605 0.160345
O O9 0.647862 0.429057 0.085799
O O10 0.068035 0.829411 0.988305
O O11 0.000000 0.000000 0.000000
O O12 0.578563 0.833763 0.013858
O O13 0.500000 0.000000 0.000000
#
# Coordination Sequence:
#
# PCOD8044597 Si02
#       6
#     2   2   2   2   2   2
#     4  10  21  38  59  98 127 170 212 269 318 374
#     4   9  19  35  60  90 135 170 208 258 328 377
#     4  10  23  44  70  90 128 175 218 262 320 384
#     4  11  24  46  70  92 126 175 220 262 323 392
#     4  12  24  39  65  99 131 167 219 266 322 382
#     4  10  19  38  63  94 128 175 211 258 322 388
#
# _framework density 22.567062
#
# number of rings (size 3 to 8) (size 9 to 14) (size 15 to 20)
#    0.000    1.667    3.333    1.000    4.667    1.333 
#    3.000    0.833    0.000    0.000    0.000    0.000 
#    0.000    0.000    0.000    0.000    0.000    0.000 
#
# Total GULP energy -148669.538728 kJ/mol
# GULP energy per Si atom -12389.128227 kJ/mol
# Density = 2.251570 g / cm^3
# Si number density = 22.567062 Si / 1000 Ang^3
#
#
#
# Elastic Constant Matrix: (Units=GPa)
#
#
# Indices 1 2 3 4 5 6 
#
# 1 61.2685 33.3275 20.6232 1.6447 17.6608 21.6376
# 2 33.3275 127.1291 33.3831 5.8873 11.2547 9.6989
# 3 20.6232 33.3831 115.8616 0.8330 17.9397 3.2889
# 4 1.6447 5.8873 0.8330 30.8523 -1.2034 1.1718
# 5 17.6608 11.2547 17.9397 -1.2034 41.2764 -3.6871
# 6 21.6376 9.6989 3.2889 1.1718 -3.6871 39.1784
#
#
#
# Elastic Compliance Matrix: (Units=1/GPa)
#
#
# Indices 1 2 3 4 5 6 
#
# 1 0.028137 -0.004802 -0.001407 -0.000413 -0.011497 -0.015302
# 2 -0.004802 0.009651 -0.001973 -0.001541 0.000280 0.000501
# 3 -0.001407 -0.001973 0.009936 0.000055 -0.003165 0.000132
# 4 -0.000413 -0.001541 0.000055 0.032795 0.001508 -0.000234
# 5 -0.011497 0.000280 -0.003165 0.001508 0.031333 0.009449
# 6 -0.015302 0.000501 0.000132 -0.000234 0.009449 0.034736
#
#
# Mechanical properties :
#
#
# Convention : Reuss Voigt Hill
#
# Bulk Modulus (GPa) = 31.88825 53.21408 42.55116
# Shear Modulus (GPa) = 28.83424 36.72314 32.77869
#
# Velocity S-wave (km/s) = 3.57839 4.03834 3.81530
# Velocity P-wave (km/s) = 5.58876 6.73616 6.18911
#
# Compressibility (1/GPa) = 0.03135952
#
# Stress axis : x y z
#
# Youngs Moduli (GPa) = 35.54094 103.61361 100.64686
#
# Poissons Ratio (x) = 0.49759 0.14162
# Poissons Ratio (y) = 0.17068 0.19853
# Poissons Ratio (z) = 0.05001 0.20438
#
# Static dielectric constant tensor:
#      x y z
#    x 4.149600 0.036220 0.149770 
#    y 0.036220 4.007030 -0.011560 
#    z 0.149770 -0.011560 4.003730 
# 
# 
# High freq. dielectric constant tensor:
#      x y z
#    x 1.890790 0.002160 0.010600 
#    y 0.002160 1.886230 -0.003110 
#    z 0.010600 -0.003110 1.873310 
# 
# From -- ./inp_files/171981.got.cif
#   From: 2010.06.25/outbox.cif.g09.slc.cpg/sg2_86_cif.got.tgz:171981.got - 2010.06.27 13:26:56.
