data_PCOD8044984
_publ_section_title
;
Structure prediction by ZEFSAII (Michael W. Deem and Ramdas Pophale) SiO2 
 PCOD8044984
Probable space group: P 2
;
_chemical_formula_sum "Si O2"
_cell_formula_units_Z 14
_cell_length_a 16.525643
_cell_length_b 8.170666
_cell_length_c 15.858002
_cell_angle_alpha 90.000000
_cell_angle_beta 162.605087
_cell_angle_gamma 90.000000
_cell_volume 640.135138
_symmetry_space_group_name_H-M "P 2"
_symmetry_group_IT_number 3
_symmetry_cell_setting 'monoclinic'
loop_
_space_group_symop_operation_xyz
x,y,z
-x,y,-z
loop_
_atom_site_type_symbol
_atom_site_label
_atom_site_fract_x
_atom_site_fract_y
_atom_site_fract_z
Si Si1 0.763058 0.465840 0.209010
Si Si2 0.552386 0.561432 0.832756
Si Si3 0.244800 0.483461 0.302183
Si Si4 0.169289 0.046163 0.916090
Si Si5 0.341073 0.244864 0.549144
Si Si6 0.944183 0.705565 0.744027
Si Si7 0.767626 0.096821 0.210162
O O1 0.849237 0.283237 0.266482
O O2 0.000000 0.549033 0.500000
O O3 0.500000 0.439443 0.000000
O O4 0.690862 0.588328 0.061168
O O5 0.449709 0.375219 0.725347
O O6 0.295000 0.680571 0.563104
O O7 0.793444 0.590189 0.006366
O O8 0.500000 0.530079 0.500000
O O9 0.314236 0.331059 0.431975
O O10 0.174924 0.649338 0.284370
O O11 0.000000 0.426935 0.000000
O O12 0.243196 0.005180 0.891664
O O13 0.949351 0.189326 0.705699
O O14 0.443271 0.096466 0.238272
O O15 0.044928 0.890829 0.840872
O O16 0.000000 0.018850 0.500000
O O17 0.500000 0.076131 0.000000
#
# Coordination Sequence:
#
# PCOD8044984 Si02
#       7
#     2   2   2   2   2   2   2
#     4  10  20  32  57  91 120 161 221 281 318 351
#     4  11  21  41  62  93 125 171 222 266 316 395
#     4  11  23  44  70  97 128 167 213 263 330 406
#     4  12  23  42  65 101 133 170 223 270 317 388
#     4  11  23  39  71  95 124 166 219 271 316 379
#     4  11  25  41  67  95 133 175 208 258 339 398
#     4  10  21  35  58  92 127 172 216 271 324 361
#
# _framework density 21.870383
#
# number of rings (size 3 to 8) (size 9 to 14) (size 15 to 20)
#    0.000    1.143    1.429    6.857    4.000    0.000 
#    0.000    5.714    0.000    1.714    0.000    0.000 
#    0.000    0.000    0.000    0.000    0.000    0.000 
#
# Total GULP energy -173583.632613 kJ/mol
# GULP energy per Si atom -12398.830901 kJ/mol
# Density = 2.182060 g / cm^3
# Si number density = 21.870383 Si / 1000 Ang^3
#
#
#
# Elastic Constant Matrix: (Units=GPa)
#
#
# Indices 1 2 3 4 5 6 
#
# 1 121.8143 52.8887 51.4962 0.0000 1.7437 0.0000
# 2 52.8887 67.9381 27.5589 0.0000 -3.7513 0.0000
# 3 51.4962 27.5589 149.2159 0.0000 -9.1658 0.0000
# 4 0.0000 0.0000 0.0000 35.7392 0.0000 5.4701
# 5 1.7437 -3.7513 -9.1658 0.0000 51.7055 0.0000
# 6 0.0000 0.0000 0.0000 5.4701 0.0000 44.2033
#
#
#
# Elastic Compliance Matrix: (Units=1/GPa)
#
#
# Indices 1 2 3 4 5 6 
#
# 1 0.013639 -0.009469 -0.003062 0.000000 -0.001690 0.000000
# 2 -0.009469 0.022506 -0.000777 0.000000 0.001814 0.000000
# 3 -0.003062 -0.000777 0.007992 0.000000 0.001464 0.000000
# 4 0.000000 0.000000 0.000000 0.028521 0.000000 -0.003529
# 5 -0.001690 0.001814 0.001464 0.000000 0.019788 0.000000
# 6 0.000000 0.000000 0.000000 -0.003529 0.000000 0.023060
#
#
# Mechanical properties :
#
#
# Convention : Reuss Voigt Hill
#
# Bulk Modulus (GPa) = 57.07593 66.98396 62.02995
# Shear Modulus (GPa) = 33.79233 40.13122 36.96177
#
# Velocity S-wave (km/s) = 3.93506 4.28829 4.11547
# Velocity P-wave (km/s) = 6.84108 7.43057 7.14191
#
# Compressibility (1/GPa) = 0.01752052
#
# Stress axis : x y z
#
# Youngs Moduli (GPa) = 73.31910 44.43207 125.12681
#
# Poissons Ratio (x) = 0.42073 0.38313
# Poissons Ratio (y) = 0.69426 0.09728
# Poissons Ratio (z) = 0.22450 0.03454
#
# Static dielectric constant tensor:
#      x y z
#    x 3.820860 0.000000 0.001050 
#    y 0.000000 3.618080 0.000000 
#    z 0.001050 0.000000 4.299100 
# 
# 
# High freq. dielectric constant tensor:
#      x y z
#    x 1.852100 0.000000 0.006940 
#    y 0.000000 1.826810 0.000000 
#    z 0.006940 0.000000 1.890800 
# 
# From -- ./inp_files/14014.got.cif
#   From: 2010.03.12/outbox.cif.g09.slc.cpg/sg3_8_cif.got.tgz:14014.got - 2010.03.31 09:20:49.
