data_PCOD8044134
_publ_section_title
;
Structure prediction by ZEFSAII (Michael W. Deem and Ramdas Pophale) SiO2 
 PCOD8044134
Probable space group: P -1
;
_chemical_formula_sum "Si O2"
_cell_formula_units_Z 16
_cell_length_a 9.414053
_cell_length_b 15.087924
_cell_length_c 11.627262
_cell_angle_alpha 51.650250
_cell_angle_beta 131.361320
_cell_angle_gamma 140.248505
_cell_volume 770.598162
_symmetry_space_group_name_H-M "P -1"
_symmetry_group_IT_number 2
_symmetry_cell_setting 'triclinic'
loop_
_space_group_symop_operation_xyz
x,y,z
-x,-y,-z
loop_
_atom_site_type_symbol
_atom_site_label
_atom_site_fract_x
_atom_site_fract_y
_atom_site_fract_z
Si Si1 0.066045 0.227861 0.519189
Si Si2 0.579309 0.648760 0.185865
Si Si3 0.551254 0.069765 0.350317
Si Si4 0.495914 0.050900 0.811604
Si Si5 0.803494 0.668742 0.736816
Si Si6 0.989602 0.939411 0.728839
Si Si7 0.697192 0.234492 0.972599
Si Si8 0.194255 0.135387 0.064851
O O1 0.204914 0.300536 0.652655
O O2 0.227973 0.328933 0.419107
O O3 0.825243 0.211432 0.383548
O O4 0.960463 0.061751 0.596731
O O5 0.424049 0.480655 0.216384
O O6 0.401213 0.676474 0.125392
O O7 0.697134 0.723009 0.066892
O O8 0.410936 0.133802 0.211737
O O9 0.500000 0.000000 0.500000
O O10 0.484156 0.948590 0.316332
O O11 0.697715 0.203315 0.859577
O O12 0.243060 0.002677 0.759707
O O13 0.507045 0.922657 0.958168
O O14 0.793624 0.795207 0.670934
O O15 0.044915 0.692745 0.890599
O O16 0.948840 0.879596 0.885422
O O17 0.000000 0.000000 0.000000
#
# Coordination Sequence:
#
# PCOD8044134 Si02
#       8
#     2   2   2   2   2   2   2   2
#     4  12  22  41  62  92 127 170 209 260 311 378
#     4  12  23  41  62  95 130 169 210 263 320 378
#     4  12  23  38  63 101 126 159 204 271 317 369
#     4  10  20  37  64  97 123 156 218 263 306 371
#     4  11  25  38  63  94 130 166 215 263 319 372
#     4  11  22  39  66  91 124 166 214 260 311 365
#     4  10  19  37  64  89 124 164 210 262 311 367
#     4  12  23  41  67  95 126 163 214 259 320 375
#
# _framework density 20.763090999999999
#
# number of rings (size 3 to 8) (size 9 to 14) (size 15 to 20)
#    0.000    0.750    7.500    1.125    3.500    0.500 
#    0.000    0.000    0.000    0.750    0.000    0.000 
#    0.000    0.000    0.000    0.000    0.000    0.000 
#
# Total GULP energy -198210.875664 kJ/mol
# GULP energy per Si atom -12388.179729 kJ/mol
# Density = 2.071583 g / cm^3
# Si number density = 20.763091 Si / 1000 Ang^3
#
#
#
# Elastic Constant Matrix: (Units=GPa)
#
#
# Indices 1 2 3 4 5 6 
#
# 1 65.4835 7.7262 19.5963 1.9952 -31.3826 -3.5975
# 2 7.7262 98.6234 32.4368 -8.1736 -2.9923 5.4953
# 3 19.5963 32.4368 87.4563 8.8773 -31.2237 2.2119
# 4 1.9952 -8.1736 8.8773 30.6859 2.4603 -10.6179
# 5 -31.3826 -2.9923 -31.2237 2.4603 42.5904 -5.9230
# 6 -3.5975 5.4953 2.2119 -10.6179 -5.9230 17.0526
#
#
#
# Elastic Compliance Matrix: (Units=1/GPa)
#
#
# Indices 1 2 3 4 5 6 
#
# 1 0.027121 -0.003440 0.003636 -0.000705 0.024453 0.014413
# 2 -0.003440 0.013229 -0.007371 0.005318 -0.007793 -0.003428
# 3 0.003636 -0.007371 0.020704 -0.009319 0.018005 0.000908
# 4 -0.000705 0.005318 -0.009319 0.046242 -0.006027 0.026046
# 5 0.024453 -0.007793 0.018005 -0.006027 0.057496 0.021553
# 6 0.014413 -0.003428 0.000908 0.026046 0.021553 0.086373
#
#
# Mechanical properties :
#
#
# Convention : Reuss Voigt Hill
#
# Bulk Modulus (GPa) = 21.41126 41.23129 31.32127
# Shear Modulus (GPa) = 17.78833 30.85271 24.32052
#
# Velocity S-wave (km/s) = 2.93017 3.85897 3.42619
# Velocity P-wave (km/s) = 4.66716 6.30529 5.54703
#
# Compressibility (1/GPa) = 0.04670440
#
# Stress axis : x y z
#
# Youngs Moduli (GPa) = 36.87152 75.59295 48.29885
#
# Poissons Ratio (x) = 0.26006 -0.17563
# Poissons Ratio (y) = 0.12685 0.35602
# Poissons Ratio (z) = -0.13408 0.55720
#
# Static dielectric constant tensor:
#      x y z
#    x 4.008180 -0.155440 -0.287830 
#    y -0.155440 3.844570 -0.011950 
#    z -0.287830 -0.011950 4.235790 
# 
# 
# High freq. dielectric constant tensor:
#      x y z
#    x 1.804790 0.000920 -0.009330 
#    y 0.000920 1.788660 0.021080 
#    z -0.009330 0.021080 1.824760 
# 
# From -- ./inp_files/398667.got.cif
#   From: 2010.06.25/outbox.cif.g09.slc.cpg/sg2_200_cif.got.tgz:398667.got - 2010.06.27 13:26:56.
