data_PCOD8044144
_publ_section_title
;
Structure prediction by ZEFSAII (Michael W. Deem and Ramdas Pophale) SiO2 
 PCOD8044144
Probable space group: P -1
;
_chemical_formula_sum "Si O2"
_cell_formula_units_Z 14
_cell_length_a 11.150488
_cell_length_b 14.319189
_cell_length_c 8.867047
_cell_angle_alpha 31.356934
_cell_angle_beta 63.332670
_cell_angle_gamma 52.245239
_cell_volume 572.967593
_symmetry_space_group_name_H-M "P -1"
_symmetry_group_IT_number 2
_symmetry_cell_setting 'triclinic'
loop_
_space_group_symop_operation_xyz
x,y,z
-x,-y,-z
loop_
_atom_site_type_symbol
_atom_site_label
_atom_site_fract_x
_atom_site_fract_y
_atom_site_fract_z
Si Si1 0.611388 0.640817 0.386444
Si Si2 0.336812 0.805080 0.102864
Si Si3 0.235587 0.035122 0.547952
Si Si4 0.809828 0.546366 0.935721
Si Si5 0.079256 0.803359 0.412177
Si Si6 0.516227 0.698140 0.695496
Si Si7 0.948165 0.501532 0.357004
O O1 0.479115 0.785873 0.145237
O O2 0.636654 0.410485 0.681973
O O3 0.563782 0.724592 0.465755
O O4 0.763904 0.653643 0.239910
O O5 0.182463 0.900968 0.161452
O O6 0.322003 0.956135 0.768335
O O7 0.173843 0.278635 0.221513
O O8 0.076734 0.020375 0.661568
O O9 0.350028 0.898906 0.540281
O O10 0.645367 0.673832 0.773480
O O11 0.951001 0.429811 0.898405
O O12 0.812198 0.382668 0.278918
O O13 0.021400 0.720734 0.415922
O O14 0.500000 0.500000 0.000000
O O15 0.000000 0.500000 0.500000
#
# Coordination Sequence:
#
# PCOD8044144 Si02
#       7
#     2   2   2   2   2   2   2
#     4  10  21  39  65  95 130 176 214 270 328 395
#     4  10  21  42  69  96 130 173 225 265 337 392
#     4  11  23  41  67 102 132 172 224 274 327 399
#     4  11  24  45  67  98 135 178 216 275 339 394
#     4  10  23  43  69  94 135 178 220 267 339 397
#     4  12  23  41  67  98 136 173 223 272 335 391
#     4  10  19  37  64  91 127 170 222 262 321 381
#
# _framework density 24.434194000000002
#
# number of rings (size 3 to 8) (size 9 to 14) (size 15 to 20)
#    0.000    1.429    2.857    3.429    4.000    0.000 
#    2.571    9.286    0.000    0.000    0.000    0.000 
#    0.000    0.000    0.000    0.000    0.000    0.000 
#
# Total GULP energy -173583.921439 kJ/mol
# GULP energy per Si atom -12398.851531 kJ/mol
# Density = 2.437858 g / cm^3
# Si number density = 24.434194 Si / 1000 Ang^3
#
#
#
# Elastic Constant Matrix: (Units=GPa)
#
#
# Indices 1 2 3 4 5 6 
#
# 1 101.5082 36.3462 -10.0316 -2.6656 10.9973 -19.8719
# 2 36.3462 157.0015 13.3091 9.1912 2.8613 -32.1246
# 3 -10.0316 13.3091 58.8514 8.1162 10.3283 3.2278
# 4 -2.6656 9.1912 8.1162 19.4676 -7.2469 3.8190
# 5 10.9973 2.8613 10.3283 -7.2469 33.8366 7.0432
# 6 -19.8719 -32.1246 3.2278 3.8190 7.0432 42.8159
#
#
#
# Elastic Compliance Matrix: (Units=1/GPa)
#
#
# Indices 1 2 3 4 5 6 
#
# 1 0.012650 -0.001834 0.003832 -0.002642 -0.006851 0.005569
# 2 -0.001834 0.008672 -0.001402 -0.005957 -0.002376 0.006683
# 3 0.003832 -0.001402 0.021389 -0.012075 -0.010646 0.001943
# 4 -0.002642 -0.005957 -0.012075 0.070420 0.023229 -0.014888
# 5 -0.006851 -0.002376 -0.010646 0.023229 0.042975 -0.013301
# 6 0.005569 0.006683 0.001943 -0.014888 -0.013301 0.034324
#
#
# Mechanical properties :
#
#
# Convention : Reuss Voigt Hill
#
# Bulk Modulus (GPa) = 22.77695 44.06761 33.42228
# Shear Modulus (GPa) = 24.52498 37.73985 31.13242
#
# Velocity S-wave (km/s) = 3.17158 3.93434 3.57337
# Velocity P-wave (km/s) = 4.77011 6.22198 5.54378
#
# Compressibility (1/GPa) = 0.04390404
#
# Stress axis : x y z
#
# Youngs Moduli (GPa) = 79.05124 115.30808 46.75208
#
# Poissons Ratio (x) = 0.21152 -0.17918
# Poissons Ratio (y) = 0.14501 0.06555
# Poissons Ratio (z) = -0.30296 0.16166
#
# Static dielectric constant tensor:
#      x y z
#    x 4.802260 -0.502920 0.014330 
#    y -0.502920 4.857020 0.307500 
#    z 0.014330 0.307500 4.017130 
# 
# 
# High freq. dielectric constant tensor:
#      x y z
#    x 1.973100 -0.028140 0.014210 
#    y -0.028140 1.975840 0.021350 
#    z 0.014210 0.021350 1.949270 
# 
# From -- ./inp_files/183066.got.cif
#   From: 2010.06.25/outbox.cif.g09.slc.cpg/sg2_92_cif.got.tgz:183066.got - 2010.06.27 13:26:56.
