data_PCOD8044514
_publ_section_title
;
Structure prediction by ZEFSAII (Michael W. Deem and Ramdas Pophale) SiO2 
 PCOD8044514
Probable space group: P -1
;
_chemical_formula_sum "Si O2"
_cell_formula_units_Z 14
_cell_length_a 8.914050
_cell_length_b 21.102134
_cell_length_c 11.949723
_cell_angle_alpha 29.741501
_cell_angle_beta 65.336212
_cell_angle_gamma 45.411139
_cell_volume 666.271253
_symmetry_space_group_name_H-M "P -1"
_symmetry_group_IT_number 2
_symmetry_cell_setting 'triclinic'
loop_
_space_group_symop_operation_xyz
x,y,z
-x,-y,-z
loop_
_atom_site_type_symbol
_atom_site_label
_atom_site_fract_x
_atom_site_fract_y
_atom_site_fract_z
Si Si1 0.968923 0.710225 0.057990
Si Si2 0.370822 0.922780 0.770903
Si Si3 0.846585 0.737919 0.820152
Si Si4 0.625351 0.736370 0.434775
Si Si5 0.550174 0.050852 0.050389
Si Si6 0.423123 0.401746 0.140595
Si Si7 0.815514 0.153530 0.224736
O O1 0.129604 0.486797 0.335802
O O2 0.135237 0.732661 0.011781
O O3 0.865210 0.815845 0.806326
O O4 0.742973 0.817305 0.048770
O O5 0.658511 0.733460 0.927206
O O6 0.350488 0.930650 0.900111
O O7 0.182198 0.932920 0.756039
O O8 0.282371 0.116026 0.467132
O O9 0.130136 0.535097 0.010699
O O10 0.473810 0.749026 0.560072
O O11 0.704146 0.830878 0.313190
O O12 0.439606 0.860756 0.195264
O O13 0.540476 0.303517 0.135037
O O14 0.500000 0.500000 0.000000
O O15 0.000000 0.000000 0.500000
#
# Coordination Sequence:
#
# PCOD8044514 Si02
#       7
#     2   2   2   2   2   2   2
#     4  10  19  38  62  89 114 159 204 248 298 360
#     4  10  21  37  56  89 124 159 196 246 314 355
#     4   9  19  35  54  86 121 154 196 246 300 348
#     4  10  21  38  62  89 115 163 210 240 299 357
#     4  10  22  40  62  84 124 161 203 250 289 369
#     4  11  20  36  61  91 119 149 203 256 293 360
#     4  12  21  36  62  91 122 160 194 249 319 361
#
# _framework density 21.012464999999999
#
# number of rings (size 3 to 8) (size 9 to 14) (size 15 to 20)
#    0.000    1.714    4.286    1.286    4.000    0.571 
#    5.143    0.714    0.000   10.286    0.000    0.000 
#    0.000    0.000    0.000    0.000    0.000    0.000 
#
# Total GULP energy -173440.887388 kJ/mol
# GULP energy per Si atom -12388.634813 kJ/mol
# Density = 2.096464 g / cm^3
# Si number density = 21.012465 Si / 1000 Ang^3
#
#
#
# Elastic Constant Matrix: (Units=GPa)
#
#
# Indices 1 2 3 4 5 6 
#
# 1 104.2619 33.5962 43.0887 3.6699 6.4762 23.3757
# 2 33.5962 64.0428 31.7521 5.7545 0.4655 16.4268
# 3 43.0887 31.7521 98.1334 9.6553 -3.3725 9.7708
# 4 3.6699 5.7545 9.6553 39.1195 3.9126 5.5319
# 5 6.4762 0.4655 -3.3725 3.9126 24.2443 2.7031
# 6 23.3757 16.4268 9.7708 5.5319 2.7031 35.6911
#
#
#
# Elastic Compliance Matrix: (Units=1/GPa)
#
#
# Indices 1 2 3 4 5 6 
#
# 1 0.014366 -0.003645 -0.004796 0.001673 -0.003994 -0.006376
# 2 -0.003645 0.021469 -0.004622 -0.000881 0.000746 -0.006149
# 3 -0.004796 -0.004622 0.014044 -0.002925 0.003617 0.001603
# 4 0.001673 -0.000881 -0.002925 0.027270 -0.004819 -0.003751
# 5 -0.003994 0.000746 0.003617 -0.004819 0.043723 -0.001282
# 6 -0.006376 -0.006149 0.001603 -0.003751 -0.001282 0.035264
#
#
# Mechanical properties :
#
#
# Convention : Reuss Voigt Hill
#
# Bulk Modulus (GPa) = 42.09700 53.70131 47.89916
# Shear Modulus (GPa) = 26.29125 30.34441 28.31783
#
# Velocity S-wave (km/s) = 3.54110 3.80427 3.67504
# Velocity P-wave (km/s) = 6.06605 6.70142 6.39163
#
# Compressibility (1/GPa) = 0.02375466
#
# Stress axis : x y z
#
# Youngs Moduli (GPa) = 69.60775 46.57941 71.20583
#
# Poissons Ratio (x) = 0.16976 0.34149
# Poissons Ratio (y) = 0.25369 0.32909
# Poissons Ratio (z) = 0.33382 0.21527
#
# Static dielectric constant tensor:
#      x y z
#    x 3.631350 -0.000070 0.058820 
#    y -0.000070 4.024680 0.004260 
#    z 0.058820 0.004260 3.747260 
# 
# 
# High freq. dielectric constant tensor:
#      x y z
#    x 1.800890 0.008030 0.001230 
#    y 0.008030 1.824250 -0.002040 
#    z 0.001230 -0.002040 1.809570 
# 
# From -- ./inp_files/259454.got.cif
#   From: 2010.06.25/outbox.cif.g09.slc.cpg/sg2_130_cif.got.tgz:259454.got - 2010.06.27 13:26:56.
