data_PCOD8044169
_publ_section_title
;
Structure prediction by ZEFSAII (Michael W. Deem and Ramdas Pophale) SiO2 
 PCOD8044169
Probable space group: P -1
;
_chemical_formula_sum "Si O2"
_cell_formula_units_Z 16
_cell_length_a 9.178982
_cell_length_b 23.696117
_cell_length_c 8.649989
_cell_angle_alpha 132.161534
_cell_angle_beta 133.926662
_cell_angle_gamma 32.345482
_cell_volume 707.074131
_symmetry_space_group_name_H-M "P -1"
_symmetry_group_IT_number 2
_symmetry_cell_setting 'triclinic'
loop_
_space_group_symop_operation_xyz
x,y,z
-x,-y,-z
loop_
_atom_site_type_symbol
_atom_site_label
_atom_site_fract_x
_atom_site_fract_y
_atom_site_fract_z
Si Si1 0.741193 0.724848 0.078389
Si Si2 0.637740 0.398865 0.307917
Si Si3 0.359759 0.995459 0.033159
Si Si4 0.127045 0.142785 0.628897
Si Si5 0.764036 0.111278 0.442274
Si Si6 0.846115 0.186536 0.188947
Si Si7 0.778117 0.694664 0.416505
Si Si8 0.866706 0.508796 0.078485
O O1 0.891812 0.761016 0.193308
O O2 0.788172 0.706150 0.262096
O O3 0.398036 0.812065 0.952065
O O4 0.914944 0.611114 0.907794
O O5 0.500000 0.500000 0.500000
O O6 0.660068 0.312420 0.255184
O O7 0.952987 0.335307 0.363398
O O8 0.443962 0.444774 0.097413
O O9 0.556346 0.961760 0.265587
O O10 0.339713 0.910335 0.822575
O O11 0.036662 0.112404 0.043591
O O12 0.500000 0.000000 0.000000
O O13 0.883504 0.162815 0.581997
O O14 0.078642 0.131190 0.395128
O O15 0.504690 0.192633 0.517563
O O16 0.000000 0.000000 0.500000
O O17 0.813687 0.596316 0.307861
O O18 0.000000 0.500000 0.000000
#
# Coordination Sequence:
#
# PCOD8044169 Si02
#       8
#     2   2   2   2   2   2   2   2
#     4  11  22  41  71 105 134 172 228 286 337 395
#     4  12  19  35  67 104 136 172 225 281 335 397
#     4  12  27  46  67  97 136 181 229 280 339 411
#     4  12  27  45  69  97 139 178 227 285 343 394
#     4  12  27  46  66  95 137 182 228 276 337 410
#     4  12  24  41  70 101 135 178 227 282 340 397
#     4  11  22  39  68 101 136 180 225 276 335 400
#     4  10  19  37  65 106 137 169 225 282 329 400
#
# _framework density 22.628461999999999
#
# number of rings (size 3 to 8) (size 9 to 14) (size 15 to 20)
#    0.000    0.500    7.500    2.625    0.000    5.000 
#    0.000    0.625    0.000   10.500    0.000    0.000 
#    0.000    0.000    0.000    0.000    0.000    0.000 
#
# Total GULP energy -198316.130982 kJ/mol
# GULP energy per Si atom -12394.758186 kJ/mol
# Density = 2.257696 g / cm^3
# Si number density = 22.628462 Si / 1000 Ang^3
#
#
#
# Elastic Constant Matrix: (Units=GPa)
#
#
# Indices 1 2 3 4 5 6 
#
# 1 100.5723 64.6896 44.3213 10.0794 32.4141 -1.2468
# 2 64.6896 128.5327 41.7120 6.3712 7.9913 -19.9797
# 3 44.3213 41.7120 97.0869 -10.6101 30.7009 -7.2279
# 4 10.0794 6.3712 -10.6101 45.2106 -3.1277 8.1066
# 5 32.4141 7.9913 30.7009 -3.1277 39.3731 -3.5196
# 6 -1.2468 -19.9797 -7.2279 8.1066 -3.5196 31.8124
#
#
#
# Elastic Compliance Matrix: (Units=1/GPa)
#
#
# Indices 1 2 3 4 5 6 
#
# 1 0.023663 -0.011308 -0.001566 -0.003892 -0.016937 -0.007412
# 2 -0.011308 0.015925 -0.004365 -0.001863 0.010242 0.010175
# 3 -0.001566 -0.004365 0.016603 0.004366 -0.010541 -0.001309
# 4 -0.003892 -0.001863 0.004366 0.025581 0.001614 -0.006671
# 5 -0.016937 0.010242 -0.010541 0.001614 0.046333 0.008088
# 6 -0.007412 0.010175 -0.001309 -0.006671 0.008088 0.039831
#
#
# Mechanical properties :
#
#
# Convention : Reuss Voigt Hill
#
# Bulk Modulus (GPa) = 46.05091 69.73754 57.89422
# Shear Modulus (GPa) = 23.84911 34.97716 29.41314
#
# Velocity S-wave (km/s) = 3.24997 3.93582 3.60923
# Velocity P-wave (km/s) = 5.87181 7.17911 6.55812
#
# Compressibility (1/GPa) = 0.02171510
#
# Stress axis : x y z
#
# Youngs Moduli (GPa) = 42.25990 62.79531 60.22944
#
# Poissons Ratio (x) = 0.71006 0.09431
# Poissons Ratio (y) = 0.47786 0.26288
# Poissons Ratio (z) = 0.06617 0.27408
#
# Static dielectric constant tensor:
#      x y z
#    x 4.043470 0.006170 0.811370 
#    y 0.006170 4.357590 -0.155510 
#    z 0.811370 -0.155510 5.026510 
# 
# 
# High freq. dielectric constant tensor:
#      x y z
#    x 1.869110 -0.005550 0.037460 
#    y -0.005550 1.903190 -0.004820 
#    z 0.037460 -0.004820 1.894670 
# 
# From -- ./inp_files/226554.got.cif
#   From: 2010.06.25/outbox.cif.g09.slc.cpg/sg2_114_cif.got.tgz:226554.got - 2010.06.27 13:26:56.
