data_PCOD8044623
_publ_section_title
;
Structure prediction by ZEFSAII (Michael W. Deem and Ramdas Pophale) SiO2 
 PCOD8044623
Probable space group: P -1
;
_chemical_formula_sum "Si O2"
_cell_formula_units_Z 16
_cell_length_a 22.851176
_cell_length_b 12.537932
_cell_length_c 9.050562
_cell_angle_alpha 70.736033
_cell_angle_beta 109.614772
_cell_angle_gamma 159.836160
_cell_volume 841.093936
_symmetry_space_group_name_H-M "P -1"
_symmetry_group_IT_number 2
_symmetry_cell_setting 'triclinic'
loop_
_space_group_symop_operation_xyz
x,y,z
-x,-y,-z
loop_
_atom_site_type_symbol
_atom_site_label
_atom_site_fract_x
_atom_site_fract_y
_atom_site_fract_z
Si Si1 0.998559 0.775194 0.284938
Si Si2 0.765207 0.208608 0.499394
Si Si3 0.974847 0.176728 0.056589
Si Si4 0.676224 0.816485 0.590385
Si Si5 0.222741 0.753580 0.181013
Si Si6 0.900268 0.833993 0.341497
Si Si7 0.326960 0.174500 0.073705
Si Si8 0.485336 0.844707 0.595021
O O1 0.864116 0.449206 0.353223
O O2 0.938436 0.782530 0.316599
O O3 0.189468 0.059782 0.366831
O O4 0.983491 0.778517 0.098323
O O5 0.860551 0.378458 0.663531
O O6 0.764268 0.081234 0.487437
O O7 0.568629 0.918047 0.492177
O O8 0.111557 0.494358 0.092739
O O9 0.969492 0.052312 0.199892
O O10 0.794060 0.929232 0.027119
O O11 0.500000 0.500000 0.500000
O O12 0.635472 0.771281 0.746443
O O13 0.251565 0.928464 0.061595
O O14 0.404195 0.996345 0.237438
O O15 0.703787 0.515591 0.363725
O O16 0.000000 0.000000 0.500000
O O17 0.500000 0.500000 0.000000
O O18 0.500000 0.000000 0.500000
#
# Coordination Sequence:
#
# PCOD8044623 Si02
#       8
#     2   2   2   2   2   2   2   2
#     4  11  23  40  59  89 129 156 197 254 312 356
#     4   9  20  39  62  83 118 158 204 245 291 358
#     4  11  23  38  59  91 124 157 197 254 315 355
#     4  10  23  38  59  91 124 158 202 249 303 359
#     4   9  20  38  60  87 115 159 210 241 291 365
#     4  12  24  40  66  88 118 164 205 248 300 376
#     4  10  21  38  60  87 123 162 202 254 296 357
#     4  10  19  38  64  89 114 149 218 248 285 349
#
# _framework density 19.022846000000001
#
# number of rings (size 3 to 8) (size 9 to 14) (size 15 to 20)
#    0.750    1.000    1.250    3.375    1.750    2.000 
#    0.000    0.625    0.000    0.000    0.000    0.000 
#    0.000    0.000    0.000    0.000    0.000    0.000 
#
# Total GULP energy -198311.735710 kJ/mol
# GULP energy per Si atom -12394.483482 kJ/mol
# Density = 1.897955 g / cm^3
# Si number density = 19.022846 Si / 1000 Ang^3
#
#
#
# Elastic Constant Matrix: (Units=GPa)
#
#
# Indices 1 2 3 4 5 6 
#
# 1 58.3458 20.7587 32.5943 -3.0920 7.9485 -1.8530
# 2 20.7587 110.1438 57.9653 -1.9852 -4.1158 1.1082
# 3 32.5943 57.9653 96.4277 -5.2332 15.5321 1.8414
# 4 -3.0920 -1.9852 -5.2332 41.0598 -4.6899 3.4965
# 5 7.9485 -4.1158 15.5321 -4.6899 20.5669 -11.7914
# 6 -1.8530 1.1082 1.8414 3.4965 -11.7914 34.1605
#
#
#
# Elastic Compliance Matrix: (Units=1/GPa)
#
#
# Indices 1 2 3 4 5 6 
#
# 1 0.021387 -0.001005 -0.006007 0.000353 -0.003741 0.000189
# 2 -0.001005 0.016144 -0.012017 0.000528 0.015987 0.005534
# 3 -0.006007 -0.012017 0.023525 0.000110 -0.023091 -0.009186
# 4 0.000353 0.000528 0.000110 0.025077 0.005150 -0.000793
# 5 -0.003741 0.015987 -0.023091 0.005150 0.089611 0.030928
# 6 0.000189 0.005534 -0.009186 -0.000793 0.030928 0.040356
#
#
# Mechanical properties :
#
#
# Convention : Reuss Voigt Hill
#
# Bulk Modulus (GPa) = 43.48112 54.17267 48.82690
# Shear Modulus (GPa) = 19.09681 29.39736 24.24708
#
# Velocity S-wave (km/s) = 3.17186 3.93539 3.57407
# Velocity P-wave (km/s) = 6.02670 7.01350 6.53874
#
# Compressibility (1/GPa) = 0.02299849
#
# Stress axis : x y z
#
# Youngs Moduli (GPa) = 46.75779 61.94296 42.50712
#
# Poissons Ratio (x) = 0.06224 0.25534
# Poissons Ratio (y) = 0.04698 0.51081
# Poissons Ratio (z) = 0.28087 0.74437
#
# Static dielectric constant tensor:
#      x y z
#    x 3.628510 0.018610 0.180990 
#    y 0.018610 3.403840 -0.094450 
#    z 0.180990 -0.094450 3.529580 
# 
# 
# High freq. dielectric constant tensor:
#      x y z
#    x 1.752330 -0.001850 0.013030 
#    y -0.001850 1.738810 -0.009960 
#    z 0.013030 -0.009960 1.731850 
# 
# From -- ./inp_files/353820.got.cif
#   From: 2010.06.25/outbox.cif.g09.slc.cpg/sg2_177_cif.got.tgz:353820.got - 2010.06.27 13:26:56.
