data_PCOD8044294
_publ_section_title
;
Structure prediction by ZEFSAII (Michael W. Deem and Ramdas Pophale) SiO2 
 PCOD8044294
Probable space group: P -1
;
_chemical_formula_sum "Si O2"
_cell_formula_units_Z 16
_cell_length_a 12.111428
_cell_length_b 9.724499
_cell_length_c 18.189727
_cell_angle_alpha 51.555805
_cell_angle_beta 153.033947
_cell_angle_gamma 113.982827
_cell_volume 691.963746
_symmetry_space_group_name_H-M "P -1"
_symmetry_group_IT_number 2
_symmetry_cell_setting 'triclinic'
loop_
_space_group_symop_operation_xyz
x,y,z
-x,-y,-z
loop_
_atom_site_type_symbol
_atom_site_label
_atom_site_fract_x
_atom_site_fract_y
_atom_site_fract_z
Si Si1 0.490336 0.192415 0.968689
Si Si2 0.924010 0.636311 0.824000
Si Si3 0.356469 0.660364 0.491012
Si Si4 0.490240 0.860678 0.751729
Si Si5 0.724927 0.938937 0.716420
Si Si6 0.015318 0.791384 0.677712
Si Si7 0.483442 0.549641 0.764096
Si Si8 0.124664 0.390504 0.815176
O O1 0.747542 0.139165 0.191850
O O2 0.486903 0.342940 0.853385
O O3 0.225366 0.303568 0.823062
O O4 0.500000 0.000000 0.000000
O O5 0.673863 0.575412 0.689047
O O6 0.942540 0.739754 0.877902
O O7 0.898365 0.770128 0.694268
O O8 0.213211 0.457343 0.055665
O O9 0.325391 0.633588 0.568124
O O10 0.195185 0.555754 0.387455
O O11 0.188591 0.883514 0.292327
O O12 0.628118 0.917452 0.746482
O O13 0.360174 0.710712 0.700937
O O14 0.234336 0.048067 0.567425
O O15 0.709196 0.773889 0.973562
O O16 0.500000 0.000000 0.500000
O O17 0.148646 0.590398 0.778984
#
# Coordination Sequence:
#
# PCOD8044294 Si02
#       8
#     2   2   2   2   2   2   2   2
#     4  11  28  50  77 105 139 184 252 311 345 431
#     4  10  19  40  70 106 139 188 236 289 349 419
#     4  11  23  41  70 106 148 181 242 296 343 438
#     4  12  23  45  74 107 145 201 229 284 379 419
#     4  10  19  37  69 105 139 185 238 285 337 428
#     4  11  24  48  73 102 150 186 239 295 365 422
#     4  11  23  42  77 104 136 194 249 290 360 427
#     4  12  29  47  68 110 151 188 237 303 365 420
#
# _framework density 23.122601
#
# number of rings (size 3 to 8) (size 9 to 14) (size 15 to 20)
#    0.000    1.000    7.500    0.750    5.250    3.000 
#    0.000    0.000    0.000    0.000    0.000    0.000 
#    0.000    0.000    0.000    0.000    0.000    0.000 
#
# Total GULP energy -198249.159845 kJ/mol
# GULP energy per Si atom -12390.572490 kJ/mol
# Density = 2.306997 g / cm^3
# Si number density = 23.122601 Si / 1000 Ang^3
#
#
#
# Elastic Constant Matrix: (Units=GPa)
#
#
# Indices 1 2 3 4 5 6 
#
# 1 81.1798 45.0765 25.9030 -4.6773 5.9807 -1.0404
# 2 45.0765 142.4301 49.1856 1.0187 4.2705 0.7992
# 3 25.9030 49.1856 127.5930 2.3759 1.1122 3.2048
# 4 -4.6773 1.0187 2.3759 40.0728 1.2191 5.0426
# 5 5.9807 4.2705 1.1122 1.2191 27.3624 -6.1938
# 6 -1.0404 0.7992 3.2048 5.0426 -6.1938 29.7435
#
#
#
# Elastic Compliance Matrix: (Units=1/GPa)
#
#
# Indices 1 2 3 4 5 6 
#
# 1 0.015523 -0.004328 -0.001495 0.002110 -0.002777 -0.000116
# 2 -0.004328 0.009342 -0.002706 -0.000557 -0.000400 -0.000100
# 3 -0.001495 -0.002706 0.009214 -0.000553 0.000210 -0.000835
# 4 0.002110 -0.000557 -0.000553 0.025929 -0.002590 -0.004787
# 5 -0.002777 -0.000400 0.000210 -0.002590 0.039247 0.008503
# 6 -0.000116 -0.000100 -0.000835 -0.004787 0.008503 0.036292
#
#
# Mechanical properties :
#
#
# Convention : Reuss Voigt Hill
#
# Bulk Modulus (GPa) = 58.75374 65.72592 62.23983
# Shear Modulus (GPa) = 31.59002 34.83826 33.21414
#
# Velocity S-wave (km/s) = 3.70022 3.88580 3.79415
# Velocity P-wave (km/s) = 6.61213 6.97275 6.79484
#
# Compressibility (1/GPa) = 0.01702019
#
# Stress axis : x y z
#
# Youngs Moduli (GPa) = 64.42023 107.04752 108.53484
#
# Poissons Ratio (x) = 0.46326 0.16230
# Poissons Ratio (y) = 0.27878 0.29371
# Poissons Ratio (z) = 0.09633 0.28969
#
# Static dielectric constant tensor:
#      x y z
#    x 7.427440 -8.004500 3.251120 
#    y -8.004500 24.099250 -8.119670 
#    z 3.251120 -8.119670 7.270860 
# 
# 
# High freq. dielectric constant tensor:
#      x y z
#    x 1.913250 0.005760 -0.004060 
#    y 0.005760 1.901370 -0.016740 
#    z -0.004060 -0.016740 1.913620 
# 
# From -- ./inp_files/565825.got.cif
#   From: 2010.06.25/outbox.cif.g09.slc.cpg/sg2_283_cif.got.tgz:565825.got - 2010.06.27 13:26:56.
