data_PCOD8044220
_publ_section_title
;
Structure prediction by ZEFSAII (Michael W. Deem and Ramdas Pophale) SiO2 
 PCOD8044220
Probable space group: P -1
;
_chemical_formula_sum "Si O2"
_cell_formula_units_Z 16
_cell_length_a 18.297791
_cell_length_b 8.671049
_cell_length_c 21.768975
_cell_angle_alpha 121.971931
_cell_angle_beta 160.991079
_cell_angle_gamma 49.461923
_cell_volume 802.965241
_symmetry_space_group_name_H-M "P -1"
_symmetry_group_IT_number 2
_symmetry_cell_setting 'triclinic'
loop_
_space_group_symop_operation_xyz
x,y,z
-x,-y,-z
loop_
_atom_site_type_symbol
_atom_site_label
_atom_site_fract_x
_atom_site_fract_y
_atom_site_fract_z
Si Si1 0.672695 0.170472 0.209111
Si Si2 0.805632 0.720033 0.223125
Si Si3 0.186375 0.792920 0.062271
Si Si4 0.767760 0.791459 0.648923
Si Si5 0.582738 0.673685 0.840083
Si Si6 0.248499 0.280646 0.519708
Si Si7 0.039476 0.666751 0.268276
Si Si8 0.825557 0.024353 0.517068
O O1 0.606659 0.308975 0.248924
O O2 0.684177 0.960482 0.203225
O O3 0.435795 0.300674 0.998124
O O4 0.938826 0.113228 0.374002
O O5 0.006334 0.532459 0.390635
O O6 0.976219 0.709764 0.298786
O O7 0.272461 0.573061 0.121323
O O8 0.451446 0.777887 0.246659
O O9 0.020316 0.798638 0.872654
O O10 0.000000 0.000000 0.000000
O O11 0.791963 0.779048 0.592870
O O12 0.759082 0.592977 0.631141
O O13 0.500000 0.000000 0.500000
O O14 0.438295 0.822041 0.698811
O O15 0.788359 0.737514 0.040320
O O16 0.209610 0.144893 0.510402
O O17 0.145282 0.826585 0.376577
#
# Coordination Sequence:
#
# PCOD8044220 Si02
#       8
#     2   2   2   2   2   2   2   2
#     4   9  17  35  60  86 109 160 201 229 277 342
#     4   8  16  34  59  82 114 151 198 234 273 344
#     4  11  22  39  66  85 109 152 205 245 284 342
#     4  10  19  37  66  83 104 146 202 243 278 340
#     4  10  20  37  61  84 113 155 206 235 273 347
#     4  11  23  38  55  93 123 149 186 240 301 342
#     4   8  18  35  57  82 109 150 193 235 279 336
#     4  11  22  35  58  86 129 155 179 238 299 345
#
# _framework density 19.926144000000001
#
# number of rings (size 3 to 8) (size 9 to 14) (size 15 to 20)
#    0.000    2.250    1.250    4.125    0.000    1.500 
#    0.000    3.750    0.000    0.000    0.000    0.000 
#    0.000    0.000    0.000    0.000    0.000    0.000 
#
# Total GULP energy -198218.212057 kJ/mol
# GULP energy per Si atom -12388.638254 kJ/mol
# Density = 1.988079 g / cm^3
# Si number density = 19.926144 Si / 1000 Ang^3
#
#
#
# Elastic Constant Matrix: (Units=GPa)
#
#
# Indices 1 2 3 4 5 6 
#
# 1 50.9758 34.6292 40.7945 -4.3816 -8.1602 14.4493
# 2 34.6292 102.6687 61.9350 -10.8599 -0.1333 4.4846
# 3 40.7945 61.9350 130.3473 -12.3627 -7.4669 16.6220
# 4 -4.3816 -10.8599 -12.3627 37.1128 -4.0473 0.9717
# 5 -8.1602 -0.1333 -7.4669 -4.0473 13.8853 -2.1205
# 6 14.4493 4.4846 16.6220 0.9717 -2.1205 31.4711
#
#
#
# Elastic Compliance Matrix: (Units=1/GPa)
#
#
# Indices 1 2 3 4 5 6 
#
# 1 0.034979 -0.008453 -0.004250 0.002410 0.017132 -0.011531
# 2 -0.008453 0.015995 -0.005807 0.000870 -0.007047 0.004167
# 3 -0.004250 -0.005807 0.012744 0.002632 0.004497 -0.003730
# 4 0.002410 0.000870 0.002632 0.029640 0.011054 -0.002791
# 5 0.017132 -0.007047 0.004497 0.011054 0.087093 -0.003710
# 6 -0.011531 0.004167 -0.003730 -0.002791 -0.003710 0.038282
#
#
# Mechanical properties :
#
#
# Convention : Reuss Voigt Hill
#
# Bulk Modulus (GPa) = 37.45711 62.07879 49.76795
# Shear Modulus (GPa) = 18.89264 26.26939 22.58101
#
# Velocity S-wave (km/s) = 3.08252 3.63483 3.37001
# Velocity P-wave (km/s) = 5.61320 6.98842 6.33822
#
# Compressibility (1/GPa) = 0.02669720
#
# Stress axis : x y z
#
# Youngs Moduli (GPa) = 28.58855 62.51825 78.46617
#
# Poissons Ratio (x) = 0.52848 0.33351
# Poissons Ratio (y) = 0.24166 0.45567
# Poissons Ratio (z) = 0.12151 0.36306
#
# Static dielectric constant tensor:
#      x y z
#    x 3.078740 -0.159290 -0.045650 
#    y -0.159290 4.085500 -0.158050 
#    z -0.045650 -0.158050 3.919450 
# 
# 
# High freq. dielectric constant tensor:
#      x y z
#    x 1.717570 -0.018540 -0.011900 
#    y -0.018540 1.790450 -0.008300 
#    z -0.011900 -0.008300 1.797000 
# 
# From -- ./inp_files/390056.got.cif
#   From: 2010.06.25/outbox.cif.g09.slc.cpg/sg2_196_cif.got.tgz:390056.got - 2010.06.27 13:26:56.
