data_PCOD8044687
_publ_section_title
;
Structure prediction by ZEFSAII (Michael W. Deem and Ramdas Pophale) SiO2 
 PCOD8044687
Probable space group: P -1
;
_chemical_formula_sum "Si O2"
_cell_formula_units_Z 16
_cell_length_a 7.377132
_cell_length_b 11.695296
_cell_length_c 23.175760
_cell_angle_alpha 148.796084
_cell_angle_beta 134.887059
_cell_angle_gamma 53.563368
_cell_volume 733.706608
_symmetry_space_group_name_H-M "P -1"
_symmetry_group_IT_number 2
_symmetry_cell_setting 'triclinic'
loop_
_space_group_symop_operation_xyz
x,y,z
-x,-y,-z
loop_
_atom_site_type_symbol
_atom_site_label
_atom_site_fract_x
_atom_site_fract_y
_atom_site_fract_z
Si Si1 0.757397 0.592898 0.516122
Si Si2 0.402535 0.699226 0.025932
Si Si3 0.666453 0.471006 0.233944
Si Si4 0.789734 0.653328 0.992245
Si Si5 0.046218 0.452213 0.212135
Si Si6 0.121597 0.862935 0.784074
Si Si7 0.525191 0.815881 0.751796
Si Si8 0.506155 0.757628 0.420902
O O1 0.571156 0.380061 0.398558
O O2 0.618401 0.753831 0.509062
O O3 0.000000 0.500000 0.500000
O O4 0.847994 0.737445 0.654349
O O5 0.430798 0.945908 0.167332
O O6 0.500000 0.500000 0.000000
O O7 0.569879 0.714582 0.013277
O O8 0.109358 0.648591 0.920917
O O9 0.364847 0.462066 0.144943
O O10 0.758687 0.230697 0.170752
O O11 0.691554 0.628003 0.363092
O O12 0.850621 0.553198 0.258822
O O13 0.000000 0.500000 0.000000
O O14 0.933866 0.881155 0.104904
O O15 0.209890 0.256495 0.191339
O O16 0.220930 0.652284 0.313253
O O17 0.314543 0.830121 0.760559
O O18 0.500000 0.000000 0.500000
#
# Coordination Sequence:
#
# PCOD8044687 Si02
#       8
#     2   2   2   2   2   2   2   2
#     4   9  17  36  62  89 113 156 217 240 294 375
#     4  10  22  36  58  88 125 161 199 259 312 351
#     4  11  22  41  62  92 122 161 209 250 308 359
#     4  10  24  37  58  92 127 159 207 256 305 371
#     4  10  22  40  60  91 121 156 214 248 295 376
#     4  10  19  38  65  86 123 165 204 255 301 364
#     4   9  18  37  60  86 117 161 205 247 296 368
#     4  11  24  40  67  88 123 170 198 250 316 358
#
# _framework density 21.807081
#
# number of rings (size 3 to 8) (size 9 to 14) (size 15 to 20)
#    0.000    2.000    3.750    0.750    3.500    3.500 
#    0.000    2.500    0.000    0.000    0.000    0.000 
#    0.000    0.000    0.000    0.000    0.000    0.000 
#
# Total GULP energy -198304.769250 kJ/mol
# GULP energy per Si atom -12394.048078 kJ/mol
# Density = 2.175745 g / cm^3
# Si number density = 21.807081 Si / 1000 Ang^3
#
#
#
# Elastic Constant Matrix: (Units=GPa)
#
#
# Indices 1 2 3 4 5 6 
#
# 1 53.2805 7.5372 26.2286 9.1342 19.7555 2.2049
# 2 7.5372 158.4278 75.6512 13.4614 27.3001 -5.2329
# 3 26.2286 75.6512 107.0987 4.7042 28.9734 -3.0229
# 4 9.1342 13.4614 4.7042 44.7993 1.3563 8.8022
# 5 19.7555 27.3001 28.9734 1.3563 28.3935 -0.9679
# 6 2.2049 -5.2329 -3.0229 8.8022 -0.9679 27.1629
#
#
#
# Elastic Compliance Matrix: (Units=1/GPa)
#
#
# Indices 1 2 3 4 5 6 
#
# 1 0.028770 0.004835 -0.004990 -0.006077 -0.019307 -0.000678
# 2 0.004835 0.010872 -0.006872 -0.003707 -0.006564 0.001905
# 3 -0.004990 -0.006872 0.017470 0.001428 -0.007807 0.000284
# 4 -0.006077 -0.003707 0.001428 0.026014 0.004808 -0.008320
# 5 -0.019307 -0.006564 -0.007807 0.004808 0.062704 0.000110
# 6 -0.000678 0.001905 0.000284 -0.008320 0.000110 0.039969
#
#
# Mechanical properties :
#
#
# Convention : Reuss Voigt Hill
#
# Bulk Modulus (GPa) = 23.22410 59.73790 41.48100
# Shear Modulus (GPa) = 23.34214 34.03049 28.68631
#
# Velocity S-wave (km/s) = 3.27523 3.95463 3.63086
# Velocity P-wave (km/s) = 4.99758 6.95021 6.05315
#
# Compressibility (1/GPa) = 0.04305873
#
# Stress axis : x y z
#
# Youngs Moduli (GPa) = 34.75883 91.97775 57.23953
#
# Poissons Ratio (x) = -0.44472 0.28564
# Poissons Ratio (y) = -0.16806 0.39333
# Poissons Ratio (z) = 0.17345 0.63204
#
# Static dielectric constant tensor:
#      x y z
#    x 3.779200 -0.049230 0.272200 
#    y -0.049230 3.851030 0.112060 
#    z 0.272200 0.112060 5.178480 
# 
# 
# High freq. dielectric constant tensor:
#      x y z
#    x 1.846070 -0.004410 0.016080 
#    y -0.004410 1.851540 -0.003200 
#    z 0.016080 -0.003200 1.858730 
# 
# From -- ./inp_files/325033.got.cif
#   From: 2010.06.25/outbox.cif.g09.slc.cpg/sg2_163_cif.got.tgz:325033.got - 2010.06.27 13:26:56.
