data_PCOD8044454
_publ_section_title
;
Structure prediction by ZEFSAII (Michael W. Deem and Ramdas Pophale) SiO2 
 PCOD8044454
Probable space group: P -1
;
_chemical_formula_sum "Si O2"
_cell_formula_units_Z 16
_cell_length_a 9.137416
_cell_length_b 17.731790
_cell_length_c 18.347779
_cell_angle_alpha 22.759275
_cell_angle_beta 118.640049
_cell_angle_gamma 131.307623
_cell_volume 773.512716
_symmetry_space_group_name_H-M "P -1"
_symmetry_group_IT_number 2
_symmetry_cell_setting 'triclinic'
loop_
_space_group_symop_operation_xyz
x,y,z
-x,-y,-z
loop_
_atom_site_type_symbol
_atom_site_label
_atom_site_fract_x
_atom_site_fract_y
_atom_site_fract_z
Si Si1 0.670157 0.088053 0.399415
Si Si2 0.506760 0.452740 0.743517
Si Si3 0.000620 0.887858 0.449519
Si Si4 0.939850 0.541997 0.616847
Si Si5 0.109875 0.386343 0.978819
Si Si6 0.340850 0.843341 0.989123
Si Si7 0.612168 0.439733 0.524616
Si Si8 0.670448 0.414236 0.301520
O O1 0.865728 0.097636 0.464348
O O2 0.772594 0.376921 0.147229
O O3 0.500000 0.000000 0.500000
O O4 0.542430 0.887633 0.481575
O O5 0.509246 0.219761 0.949455
O O6 0.367642 0.437937 0.656779
O O7 0.392414 0.434377 0.807128
O O8 0.749444 0.721055 0.558797
O O9 0.025310 0.771133 0.488382
O O10 0.103137 0.173778 0.203893
O O11 0.737669 0.270087 0.846617
O O12 0.853373 0.571068 0.495168
O O13 0.140546 0.551625 0.637957
O O14 0.246169 0.469975 0.862042
O O15 0.873318 0.297636 0.985768
O O16 0.471272 0.139423 0.752734
O O17 0.500000 0.500000 0.500000
#
# Coordination Sequence:
#
# PCOD8044454 Si02
#       8
#     2   2   2   2   2   2   2   2
#     4  10  19  38  62  86 118 159 197 239 289 348
#     4  11  23  39  59  90 123 151 191 251 300 337
#     4  11  19  38  64  89 112 154 208 239 279 358
#     4  10  20  38  61  85 118 155 195 244 286 353
#     4  10  19  38  64  86 114 158 202 236 286 354
#     4  10  19  38  61  88 116 149 200 242 285 349
#     4  12  21  36  67  90 109 159 204 240 286 352
#     4  10  23  41  56  86 130 153 187 249 302 340
#
# _framework density 20.684857000000001
#
# number of rings (size 3 to 8) (size 9 to 14) (size 15 to 20)
#    0.000    1.500    8.750    0.375    0.000    3.000 
#    2.250    1.250    0.000    0.000    0.000    0.000 
#    0.000    0.000    0.000    0.000    0.000    0.000 
#
# Total GULP energy -198367.489913 kJ/mol
# GULP energy per Si atom -12397.968120 kJ/mol
# Density = 2.063778 g / cm^3
# Si number density = 20.684857 Si / 1000 Ang^3
#
#
#
# Elastic Constant Matrix: (Units=GPa)
#
#
# Indices 1 2 3 4 5 6 
#
# 1 101.5737 34.0815 30.3975 -6.2069 28.8557 5.8767
# 2 34.0815 53.8373 10.1782 -9.4862 4.4879 9.3365
# 3 30.3975 10.1782 127.3952 -2.9857 28.1432 -0.8052
# 4 -6.2069 -9.4862 -2.9857 22.6304 1.3945 0.5377
# 5 28.8557 4.4879 28.1432 1.3945 22.6291 -3.6266
# 6 5.8767 9.3365 -0.8052 0.5377 -3.6266 22.5526
#
#
#
# Elastic Compliance Matrix: (Units=1/GPa)
#
#
# Indices 1 2 3 4 5 6 
#
# 1 0.021395 -0.009709 0.002214 0.004050 -0.029368 -0.006296
# 2 -0.009709 0.027238 -0.001187 0.008375 0.006670 -0.007916
# 3 0.002214 -0.001187 0.011253 0.002711 -0.017151 -0.002506
# 4 0.004050 0.008375 0.002711 0.050254 -0.014569 -0.007967
# 5 -0.029368 0.006670 -0.017151 -0.014569 0.106018 0.021675
# 6 -0.006296 -0.007916 -0.002506 -0.007967 0.021675 0.052844
#
#
# Mechanical properties :
#
#
# Convention : Reuss Voigt Hill
#
# Bulk Modulus (GPa) = 23.51785 48.01341 35.76563
# Shear Modulus (GPa) = 16.63670 27.43901 22.03786
#
# Velocity S-wave (km/s) = 2.83908 3.64610 3.26760
# Velocity P-wave (km/s) = 4.70547 6.40216 5.61824
#
# Compressibility (1/GPa) = 0.04252090
#
# Stress axis : x y z
#
# Youngs Moduli (GPa) = 46.73954 36.71404 88.86753
#
# Poissons Ratio (x) = 0.35646 -0.19671
# Poissons Ratio (y) = 0.45380 0.10546
# Poissons Ratio (z) = -0.10346 0.04357
#
# Static dielectric constant tensor:
#      x y z
#    x 3.611200 0.582990 0.138580 
#    y 0.582990 6.066170 -0.666720 
#    z 0.138580 -0.666720 4.021750 
# 
# 
# High freq. dielectric constant tensor:
#      x y z
#    x 1.792150 0.027250 0.022230 
#    y 0.027250 1.801590 -0.011420 
#    z 0.022230 -0.011420 1.808610 
# 
# From -- ./inp_files/207574.got.cif
#   From: 2010.06.25/outbox.cif.g09.slc.cpg/sg2_104_cif.got.tgz:207574.got - 2010.06.27 13:26:56.
