data_PCOD8044377
_publ_section_title
;
Structure prediction by ZEFSAII (Michael W. Deem and Ramdas Pophale) SiO2 
 PCOD8044377
Probable space group: P -1
;
_chemical_formula_sum "Si O2"
_cell_formula_units_Z 14
_cell_length_a 11.088478
_cell_length_b 16.059225
_cell_length_c 12.357996
_cell_angle_alpha 27.913432
_cell_angle_beta 67.286036
_cell_angle_gamma 85.745282
_cell_volume 746.848311
_symmetry_space_group_name_H-M "P -1"
_symmetry_group_IT_number 2
_symmetry_cell_setting 'triclinic'
loop_
_space_group_symop_operation_xyz
x,y,z
-x,-y,-z
loop_
_atom_site_type_symbol
_atom_site_label
_atom_site_fract_x
_atom_site_fract_y
_atom_site_fract_z
Si Si1 0.622245 0.239698 0.740217
Si Si2 0.255889 0.493737 0.214902
Si Si3 0.362248 0.737649 0.678959
Si Si4 0.319444 0.160135 0.612853
Si Si5 0.380490 0.519233 0.729756
Si Si6 0.926232 0.302495 0.668342
Si Si7 0.459501 0.197354 0.068217
O O1 0.671401 0.442868 0.410645
O O2 0.788656 0.276995 0.670585
O O3 0.535863 0.251384 0.860659
O O4 0.500000 0.000000 0.000000
O O5 0.285134 0.311616 0.384828
O O6 0.070110 0.350154 0.487930
O O7 0.267409 0.618297 0.959236
O O8 0.390390 0.678125 0.041419
O O9 0.561733 0.864628 0.474705
O O10 0.287648 0.549264 0.824776
O O11 0.340622 0.927736 0.440283
O O12 0.419569 0.289413 0.541197
O O13 0.149187 0.921471 0.977513
O O14 0.343819 0.276608 0.025563
O O15 0.000000 0.500000 0.500000
#
# Coordination Sequence:
#
# PCOD8044377 Si02
#       7
#     2   2   2   2   2   2   2
#     4  12  19  40  62  83 120 158 201 242 285 351
#     4  11  22  35  57  93 121 155 190 248 305 342
#     4  10  19  38  59  89 119 156 195 244 289 356
#     4   9  19  37  59  81 120 155 196 236 287 353
#     4   9  21  35  62  87 110 155 206 241 280 346
#     4  12  22  37  58  90 122 153 194 249 296 342
#     4  11  20  35  62  88 116 152 206 241 287 349
#
# _framework density 18.745439000000001
#
# number of rings (size 3 to 8) (size 9 to 14) (size 15 to 20)
#    0.857    0.571    5.714    1.714    0.000    0.000 
#    0.000    0.714    0.000    0.857    0.000    0.000 
#    0.000    0.000    0.000    0.000    0.000    0.000 
#
# Total GULP energy -173544.906737 kJ/mol
# GULP energy per Si atom -12396.064767 kJ/mol
# Density = 1.870277 g / cm^3
# Si number density = 18.745439 Si / 1000 Ang^3
#
#
#
# Elastic Constant Matrix: (Units=GPa)
#
#
# Indices 1 2 3 4 5 6 
#
# 1 57.0779 4.0605 16.3851 -16.3411 17.6362 0.1212
# 2 4.0605 73.9920 29.6511 -9.3218 15.9694 0.2162
# 3 16.3851 29.6511 84.5968 2.9499 22.1479 -9.3538
# 4 -16.3411 -9.3218 2.9499 30.8912 -8.3929 11.0449
# 5 17.6362 15.9694 22.1479 -8.3929 29.3559 0.6010
# 6 0.1212 0.2162 -9.3538 11.0449 0.6010 28.9888
#
#
#
# Elastic Compliance Matrix: (Units=1/GPa)
#
#
# Indices 1 2 3 4 5 6 
#
# 1 0.026468 0.005029 -0.005935 0.016477 -0.009282 -0.008149
# 2 0.005029 0.018394 -0.007230 0.009839 -0.004633 -0.006144
# 3 -0.005935 -0.007230 0.020862 -0.015463 -0.012928 0.012970
# 4 0.016477 0.009839 -0.015463 0.059349 0.013956 -0.028033
# 5 -0.009282 -0.004633 -0.012928 0.013956 0.056122 -0.010579
# 6 -0.008149 -0.006144 0.012970 -0.028033 -0.010579 0.049661
#
#
# Mechanical properties :
#
#
# Convention : Reuss Voigt Hill
#
# Bulk Modulus (GPa) = 20.22159 35.09554 27.65857
# Shear Modulus (GPa) = 18.96721 28.88518 23.92619
#
# Velocity S-wave (km/s) = 3.18438 3.92971 3.57651
# Velocity P-wave (km/s) = 4.93267 6.27320 5.64288
#
# Compressibility (1/GPa) = 0.04945209
#
# Stress axis : x y z
#
# Youngs Moduli (GPa) = 37.78088 54.36555 47.93356
#
# Poissons Ratio (x) = -0.27338 0.28446
# Poissons Ratio (y) = -0.18999 0.34658
# Poissons Ratio (z) = 0.22421 0.39308
#
# Static dielectric constant tensor:
#      x y z
#    x 3.367630 -0.036260 0.226260 
#    y -0.036260 3.477990 -0.113810 
#    z 0.226260 -0.113810 3.314280 
# 
# 
# High freq. dielectric constant tensor:
#      x y z
#    x 1.709070 -0.008180 0.030670 
#    y -0.008180 1.730440 -0.005490 
#    z 0.030670 -0.005490 1.715290 
# 
# From -- ./inp_files/431124.got.cif
#   From: 2010.06.25/outbox.cif.g09.slc.cpg/sg2_216_cif.got.tgz:431124.got - 2010.06.27 13:26:56.
