data_PCOD8044393
_publ_section_title
;
Structure prediction by ZEFSAII (Michael W. Deem and Ramdas Pophale) SiO2 
 PCOD8044393
Probable space group: P -1
;
_chemical_formula_sum "Si O2"
_cell_formula_units_Z 16
_cell_length_a 14.570701
_cell_length_b 6.616881
_cell_length_c 15.727762
_cell_angle_alpha 57.204514
_cell_angle_beta 38.547343
_cell_angle_gamma 68.744154
_cell_volume 788.900950
_symmetry_space_group_name_H-M "P -1"
_symmetry_group_IT_number 2
_symmetry_cell_setting 'triclinic'
loop_
_space_group_symop_operation_xyz
x,y,z
-x,-y,-z
loop_
_atom_site_type_symbol
_atom_site_label
_atom_site_fract_x
_atom_site_fract_y
_atom_site_fract_z
Si Si1 0.195706 0.369498 0.897714
Si Si2 0.093943 0.792776 0.774100
Si Si3 0.448733 0.054393 0.758251
Si Si4 0.097169 0.694395 0.440693
Si Si5 0.413201 0.615469 0.281358
Si Si6 0.047827 0.214844 0.299945
Si Si7 0.394528 0.088052 0.485491
Si Si8 0.687901 0.472622 0.042907
O O1 0.146173 0.536934 0.820801
O O2 0.327218 0.239640 0.791534
O O3 0.248048 0.529777 0.906471
O O4 0.056521 0.173907 0.071862
O O5 0.064626 0.790597 0.695583
O O6 0.222921 0.008293 0.652024
O O7 0.553112 0.141634 0.742398
O O8 0.560772 0.048442 0.600329
O O9 0.356285 0.795081 0.900035
O O10 0.261446 0.617484 0.340579
O O11 0.000000 0.500000 0.500000
O O12 0.035603 0.690958 0.581052
O O13 0.098380 0.952641 0.337254
O O14 0.414741 0.377057 0.394082
O O15 0.541944 0.613055 0.118022
O O16 0.194942 0.397297 0.136771
O O17 0.500000 0.000000 0.500000
#
# Coordination Sequence:
#
# PCOD8044393 Si02
#       8
#     2   2   2   2   2   2   2   2
#     4   9  20  37  59  88 120 151 187 229 282 347
#     4  10  19  38  60  84 120 153 187 236 283 338
#     4  10  20  37  58  83 117 151 185 232 284 342
#     4  11  24  42  60  83 114 150 196 245 285 333
#     4  10  22  38  59  84 112 150 191 234 288 342
#     4  10  23  40  60  86 114 149 196 240 285 337
#     4  11  22  35  55  87 120 151 190 233 280 341
#     4   9  20  39  60  88 119 147 186 235 284 344
#
# _framework density 20.281379999999999
#
# number of rings (size 3 to 8) (size 9 to 14) (size 15 to 20)
#    0.000    2.000    0.000    3.750    0.000   10.500 
#    0.000   11.250    0.000    0.000    0.000    0.000 
#    0.000    0.000    0.000    0.000    0.000    0.000 
#
# Total GULP energy -198410.436331 kJ/mol
# GULP energy per Si atom -12400.652271 kJ/mol
# Density = 2.023522 g / cm^3
# Si number density = 20.281380 Si / 1000 Ang^3
#
#
#
# Elastic Constant Matrix: (Units=GPa)
#
#
# Indices 1 2 3 4 5 6 
#
# 1 132.2297 39.9951 44.0537 -5.7837 -13.5804 -8.3052
# 2 39.9951 75.3731 17.6015 -4.7513 -0.7328 6.6099
# 3 44.0537 17.6015 95.0647 -14.7661 -13.9144 -0.0892
# 4 -5.7837 -4.7513 -14.7661 24.9558 -0.6069 -10.8879
# 5 -13.5804 -0.7328 -13.9144 -0.6069 40.7620 -3.6166
# 6 -8.3052 6.6099 -0.0892 -10.8879 -3.6166 27.5833
#
#
#
# Elastic Compliance Matrix: (Units=1/GPa)
#
#
# Indices 1 2 3 4 5 6 
#
# 1 0.011107 -0.005462 -0.003346 0.002206 0.003017 0.005908
# 2 -0.005462 0.016914 -0.001263 -0.001800 -0.002573 -0.006750
# 3 -0.003346 -0.001263 0.014332 0.009084 0.004199 0.003478
# 4 0.002206 -0.001800 0.009084 0.056366 0.006795 0.024265
# 5 0.003017 -0.002573 0.004199 0.006795 0.027723 0.007856
# 6 0.005908 -0.006750 0.003478 0.024265 0.007856 0.050270
#
#
# Mechanical properties :
#
#
# Convention : Reuss Voigt Hill
#
# Bulk Modulus (GPa) = 45.02240 56.21868 50.62054
# Shear Modulus (GPa) = 24.47891 32.06137 28.27014
#
# Velocity S-wave (km/s) = 3.47791 3.98028 3.73754
# Velocity P-wave (km/s) = 6.19475 6.99307 6.60598
#
# Compressibility (1/GPa) = 0.02221117
#
# Stress axis : x y z
#
# Youngs Moduli (GPa) = 90.03440 59.12253 69.77228
#
# Poissons Ratio (x) = 0.32293 0.23345
# Poissons Ratio (y) = 0.49177 0.08813
# Poissons Ratio (z) = 0.30125 0.07467
#
# Static dielectric constant tensor:
#      x y z
#    x 3.502650 0.029380 -0.090260 
#    y 0.029380 3.564600 -0.000250 
#    z -0.090260 -0.000250 3.855030 
# 
# 
# High freq. dielectric constant tensor:
#      x y z
#    x 1.794510 -0.002250 -0.019080 
#    y -0.002250 1.781890 -0.000650 
#    z -0.019080 -0.000650 1.805770 
# 
# From -- ./inp_files/97576.got.cif
#   From: 2010.06.25/outbox.cif.g09.slc.cpg/sg2_49_cif.got.tgz:97576.got - 2010.06.27 13:26:56.
