data_PCOD8044759
_publ_section_title
;
Structure prediction by ZEFSAII (Michael W. Deem and Ramdas Pophale) SiO2 
 PCOD8044759
Probable space group: P -1
;
_chemical_formula_sum "Si O2"
_cell_formula_units_Z 16
_cell_length_a 8.935579
_cell_length_b 16.389517
_cell_length_c 19.393135
_cell_angle_alpha 23.213330
_cell_angle_beta 133.972317
_cell_angle_gamma 132.492688
_cell_volume 798.609719
_symmetry_space_group_name_H-M "P -1"
_symmetry_group_IT_number 2
_symmetry_cell_setting 'triclinic'
loop_
_space_group_symop_operation_xyz
x,y,z
-x,-y,-z
loop_
_atom_site_type_symbol
_atom_site_label
_atom_site_fract_x
_atom_site_fract_y
_atom_site_fract_z
Si Si1 0.812246 0.989690 0.501218
Si Si2 0.684394 0.395757 0.105930
Si Si3 0.018192 0.205259 0.157097
Si Si4 0.781694 0.495769 0.472541
Si Si5 0.425603 0.730683 0.976995
Si Si6 0.562684 0.345823 0.388605
Si Si7 0.189044 0.940390 0.150425
Si Si8 0.045126 0.864574 0.316892
O O1 0.765201 0.228173 0.314677
O O2 0.614092 0.852856 0.508601
O O3 0.000000 0.000000 0.500000
O O4 0.866160 0.888984 0.669018
O O5 0.602173 0.251691 0.127116
O O6 0.500000 0.500000 0.000000
O O7 0.867996 0.569374 0.003822
O O8 0.783780 0.237775 0.074563
O O9 0.012897 0.054039 0.208025
O O10 0.592451 0.465605 0.379575
O O11 0.815980 0.716465 0.353175
O O12 0.000000 0.500000 0.500000
O O13 0.760440 0.292042 0.673218
O O14 0.606626 0.905872 0.924261
O O15 0.491622 0.503542 0.187848
O O16 0.779835 0.269028 0.492549
O O17 0.131134 0.956422 0.199801
O O18 0.000000 0.000000 0.000000
#
# Coordination Sequence:
#
# PCOD8044759 Si02
#       8
#     2   2   2   2   2   2   2   2
#     4  12  24  41  65  91 134 175 208 261 329 383
#     4  12  25  42  64  96 127 172 228 261 312 389
#     4  12  26  43  60  98 139 166 211 269 328 388
#     4   8  17  36  60  87 115 154 208 259 312 365
#     4  12  22  39  64  93 129 167 210 269 324 381
#     4  10  20  38  66  88 117 169 213 257 314 371
#     4  10  19  38  66  93 120 165 223 263 314 385
#     4  10  22  41  63  91 127 163 213 270 321 379
#
# _framework density 20.034818999999999
#
# number of rings (size 3 to 8) (size 9 to 14) (size 15 to 20)
#    0.000    1.500    2.500    6.375    1.750    1.000 
#    2.250    3.125    0.000    0.000    0.000    0.000 
#    0.000    0.000    0.000    0.000    0.000    0.000 
#
# Total GULP energy -198345.468213 kJ/mol
# GULP energy per Si atom -12396.591763 kJ/mol
# Density = 1.998922 g / cm^3
# Si number density = 20.034819 Si / 1000 Ang^3
#
#
#
# Elastic Constant Matrix: (Units=GPa)
#
#
# Indices 1 2 3 4 5 6 
#
# 1 80.4676 40.4386 30.7037 -2.6172 4.8779 18.1847
# 2 40.4386 131.8552 42.1122 -17.9021 -6.9556 15.6957
# 3 30.7037 42.1122 125.9965 -10.5909 -8.1796 10.5446
# 4 -2.6172 -17.9021 -10.5909 32.7676 5.0546 -8.0219
# 5 4.8779 -6.9556 -8.1796 5.0546 26.5568 -1.7889
# 6 18.1847 15.6957 10.5446 -8.0219 -1.7889 27.3579
#
#
#
# Elastic Compliance Matrix: (Units=1/GPa)
#
#
# Indices 1 2 3 4 5 6 
#
# 1 0.018040 -0.004204 -0.002794 -0.003348 -0.005300 -0.009831
# 2 -0.004204 0.010248 -0.001837 0.004100 0.002040 -0.001042
# 3 -0.002794 -0.001837 0.009539 0.001397 0.002692 -0.000180
# 4 -0.003348 0.004100 0.001397 0.035920 -0.004071 0.009601
# 5 -0.005300 0.002040 0.002692 -0.004071 0.040956 0.002799
# 6 -0.009831 -0.001042 -0.000180 0.009601 0.002799 0.046752
#
#
# Mechanical properties :
#
#
# Convention : Reuss Voigt Hill
#
# Bulk Modulus (GPa) = 49.60840 62.75868 56.18354
# Shear Modulus (GPa) = 26.90425 32.34079 29.62252
#
# Velocity S-wave (km/s) = 3.66850 4.02211 3.84937
# Velocity P-wave (km/s) = 6.53901 7.27754 6.91814
#
# Compressibility (1/GPa) = 0.02015788
#
# Stress axis : x y z
#
# Youngs Moduli (GPa) = 55.43148 97.57665 104.83690
#
# Poissons Ratio (x) = 0.41026 0.29288
# Poissons Ratio (y) = 0.23306 0.19253
# Poissons Ratio (z) = 0.15486 0.17920
#
# Static dielectric constant tensor:
#      x y z
#    x 3.348980 0.037560 -0.072790 
#    y 0.037560 4.258260 -0.288020 
#    z -0.072790 -0.288020 4.105610 
# 
# 
# High freq. dielectric constant tensor:
#      x y z
#    x 1.745870 0.010730 -0.008640 
#    y 0.010730 1.799240 -0.008920 
#    z -0.008640 -0.008920 1.800150 
# 
# From -- ./inp_files/282754.got.cif
#   From: 2010.06.25/outbox.cif.g09.slc.cpg/sg2_142_cif.got.tgz:282754.got - 2010.06.27 13:26:56.
