data_PCOD8044580
_publ_section_title
;
Structure prediction by ZEFSAII (Michael W. Deem and Ramdas Pophale) SiO2 
 PCOD8044580
Probable space group: P -1
;
_chemical_formula_sum "Si O2"
_cell_formula_units_Z 14
_cell_length_a 10.158549
_cell_length_b 12.430245
_cell_length_c 13.255685
_cell_angle_alpha 135.323047
_cell_angle_beta 145.405543
_cell_angle_gamma 58.688694
_cell_volume 659.093170
_symmetry_space_group_name_H-M "P -1"
_symmetry_group_IT_number 2
_symmetry_cell_setting 'triclinic'
loop_
_space_group_symop_operation_xyz
x,y,z
-x,-y,-z
loop_
_atom_site_type_symbol
_atom_site_label
_atom_site_fract_x
_atom_site_fract_y
_atom_site_fract_z
Si Si1 0.328256 0.803816 0.696169
Si Si2 0.827287 0.890048 0.131491
Si Si3 0.465530 0.233267 0.829447
Si Si4 0.608644 0.378423 0.799702
Si Si5 0.248394 0.601497 0.705325
Si Si6 0.068655 0.330100 0.772884
Si Si7 0.340706 0.934487 0.447341
O O1 0.236385 0.715027 0.680671
O O2 0.204368 0.711866 0.459961
O O3 0.251183 0.972150 0.761441
O O4 0.611303 0.819928 0.874934
O O5 0.880296 0.760802 0.156367
O O6 0.066794 0.943885 0.255605
O O7 0.525231 0.307748 0.807843
O O8 0.225992 0.285912 0.749780
O O9 0.423977 0.043978 0.669526
O O10 0.675568 0.290924 0.077635
O O11 0.431146 0.486880 0.719368
O O12 0.627406 0.245162 0.639427
O O13 0.865519 0.485242 0.042974
O O14 0.000000 0.500000 0.500000
O O15 0.500000 0.000000 0.500000
#
# Coordination Sequence:
#
# PCOD8044580 Si02
#       7
#     2   2   2   2   2   2   2
#     4  11  22  37  65  97 124 153 213 265 304 355
#     4  11  23  39  64  93 126 160 211 256 309 364
#     4  10  19  38  63  91 120 166 208 250 307 364
#     4  10  21  39  61  91 127 166 201 251 317 368
#     4  11  21  36  64  96 124 156 213 264 299 357
#     4  11  20  39  66  93 119 161 210 260 307 354
#     4  10  23  40  64  85 125 172 202 245 318 379
#
# _framework density 21.241306999999999
#
# number of rings (size 3 to 8) (size 9 to 14) (size 15 to 20)
#    0.000    1.429    4.286    3.857    2.000    0.571 
#    0.000    1.429    9.429    0.000    0.000    0.000 
#    0.000    0.000    0.000    0.000    0.000    0.000 
#
# Total GULP energy -173555.739000 kJ/mol
# GULP energy per Si atom -12396.838500 kJ/mol
# Density = 2.119296 g / cm^3
# Si number density = 21.241307 Si / 1000 Ang^3
#
#
#
# Elastic Constant Matrix: (Units=GPa)
#
#
# Indices 1 2 3 4 5 6 
#
# 1 56.6585 24.8694 39.8467 0.9186 19.4115 -9.2314
# 2 24.8694 75.6279 57.3116 13.9903 -13.8127 -4.9130
# 3 39.8467 57.3116 198.5054 10.5301 15.4694 -22.4811
# 4 0.9186 13.9903 10.5301 41.9120 -9.6409 -1.5604
# 5 19.4115 -13.8127 15.4694 -9.6409 37.7958 2.6638
# 6 -9.2314 -4.9130 -22.4811 -1.5604 2.6638 21.3834
#
#
#
# Elastic Compliance Matrix: (Units=1/GPa)
#
#
# Indices 1 2 3 4 5 6 
#
# 1 0.035396 -0.016352 0.001575 -0.001141 -0.026244 0.016366
# 2 -0.016352 0.028230 -0.007783 -0.002462 0.022096 -0.011688
# 3 0.001575 -0.007783 0.008676 -0.001153 -0.008129 0.008941
# 4 -0.001141 -0.002462 -0.001153 0.026566 0.007020 -0.001206
# 5 -0.026244 0.022096 -0.008129 0.007020 0.054616 -0.021090
# 6 0.016366 -0.011688 0.008941 -0.001206 -0.021090 0.063085
#
#
# Mechanical properties :
#
#
# Convention : Reuss Voigt Hill
#
# Bulk Modulus (GPa) = 36.79023 63.87189 50.33106
# Shear Modulus (GPa) = 18.46740 34.13584 26.30162
#
# Velocity S-wave (km/s) = 2.95177 4.01315 3.52267
# Velocity P-wave (km/s) = 5.38285 7.18393 6.34759
#
# Compressibility (1/GPa) = 0.02718113
#
# Stress axis : x y z
#
# Youngs Moduli (GPa) = 28.25208 35.42381 115.26332
#
# Poissons Ratio (x) = 0.57925 -0.18156
# Poissons Ratio (y) = 0.46198 0.89709
# Poissons Ratio (z) = -0.04450 0.27570
#
# Static dielectric constant tensor:
#      x y z
#    x 3.841530 -0.179150 0.277910 
#    y -0.179150 3.994330 0.362950 
#    z 0.277910 0.362950 4.632500 
# 
# 
# High freq. dielectric constant tensor:
#      x y z
#    x 1.813650 0.007370 0.020500 
#    y 0.007370 1.823930 0.020640 
#    z 0.020500 0.020640 1.852100 
# 
# From -- ./inp_files/433124.got.cif
#   From: 2010.06.25/outbox.cif.g09.slc.cpg/sg2_217_cif.got.tgz:433124.got - 2010.06.27 13:26:56.
