data_PCOD8044040
_publ_section_title
;
Structure prediction by ZEFSAII (Michael W. Deem and Ramdas Pophale) SiO2 
 PCOD8044040
Probable space group: P -1
;
_chemical_formula_sum "Si O2"
_cell_formula_units_Z 16
_cell_length_a 9.486550
_cell_length_b 15.899467
_cell_length_c 18.122422
_cell_angle_alpha 36.388128
_cell_angle_beta 142.929913
_cell_angle_gamma 114.702851
_cell_volume 761.067811
_symmetry_space_group_name_H-M "P -1"
_symmetry_group_IT_number 2
_symmetry_cell_setting 'triclinic'
loop_
_space_group_symop_operation_xyz
x,y,z
-x,-y,-z
loop_
_atom_site_type_symbol
_atom_site_label
_atom_site_fract_x
_atom_site_fract_y
_atom_site_fract_z
Si Si1 0.056666 0.677443 0.354098
Si Si2 0.328753 0.107299 0.082632
Si Si3 0.255375 0.772959 0.687761
Si Si4 0.306540 0.296492 0.695173
Si Si5 0.201695 0.276264 0.503460
Si Si6 0.685233 0.369632 0.873516
Si Si7 0.881290 0.653028 0.036186
Si Si8 0.771680 0.184488 0.186545
O O1 0.051822 0.517330 0.433195
O O2 0.950334 0.818422 0.142194
O O3 0.818802 0.781131 0.249250
O O4 0.395300 0.584206 0.589332
O O5 0.218396 0.183718 0.064953
O O6 0.498772 0.178020 0.068861
O O7 0.560271 0.887628 0.337078
O O8 0.600668 0.663581 0.885602
O O9 0.235121 0.742335 0.787575
O O10 0.107543 0.696244 0.638110
O O11 0.086205 0.983357 0.449625
O O12 0.355993 0.220753 0.687221
O O13 0.618949 0.243748 0.893983
O O14 0.131603 0.460625 0.316135
O O15 0.744772 0.319567 0.019965
O O16 0.979108 0.329049 0.990494
#
# Coordination Sequence:
#
# PCOD8044040 Si02
#       8
#     2   2   2   2   2   2   2   2
#     4   9  17  35  59  88 111 155 191 232 298 336
#     4  10  19  37  63  83 120 154 196 242 280 349
#     4   9  21  36  62  85 113 156 202 243 278 342
#     4   9  18  34  62  89 113 151 190 242 292 348
#     4  11  22  37  62  89 118 154 203 235 284 356
#     4  10  20  35  64  88 119 155 188 242 304 345
#     4  11  22  39  58  88 121 158 194 238 294 343
#     4   9  17  38  62  87 110 154 206 239 283 345
#
# _framework density 21.023092999999999
#
# number of rings (size 3 to 8) (size 9 to 14) (size 15 to 20)
#    0.750    1.500    2.500    1.125    1.750    3.000 
#    0.000    3.125    0.000    0.000    0.000    0.000 
#    0.000    0.000    0.000    0.000    0.000    0.000 
#
# Total GULP energy -198330.183728 kJ/mol
# GULP energy per Si atom -12395.636483 kJ/mol
# Density = 2.097524 g / cm^3
# Si number density = 21.023093 Si / 1000 Ang^3
#
#
#
# Elastic Constant Matrix: (Units=GPa)
#
#
# Indices 1 2 3 4 5 6 
#
# 1 95.0490 6.4845 24.5149 3.8139 5.2198 -2.2874
# 2 6.4845 46.2228 4.5072 1.6995 0.0703 -3.7100
# 3 24.5149 4.5072 88.6734 6.2197 -2.9513 0.3380
# 4 3.8139 1.6995 6.2197 26.9074 -8.5178 0.7680
# 5 5.2198 0.0703 -2.9513 -8.5178 19.3637 2.8702
# 6 -2.2874 -3.7100 0.3380 0.7680 2.8702 9.0528
#
#
#
# Elastic Compliance Matrix: (Units=1/GPa)
#
#
# Indices 1 2 3 4 5 6 
#
# 1 0.011965 -0.000859 -0.003274 -0.002820 -0.005678 0.004833
# 2 -0.000859 0.022734 -0.000885 -0.002168 -0.002435 0.010089
# 3 -0.003274 -0.000885 0.012424 -0.001508 0.002458 -0.002305
# 4 -0.002820 -0.002168 -0.001508 0.045500 0.022407 -0.012509
# 5 -0.005678 -0.002435 0.002458 0.022407 0.067229 -0.025741
# 6 0.004833 0.010089 -0.002305 -0.012509 -0.025741 0.125127
#
#
# Mechanical properties :
#
#
# Convention : Reuss Voigt Hill
#
# Bulk Modulus (GPa) = 26.96393 33.43982 30.20187
# Shear Modulus (GPa) = 16.26655 24.02735 20.14695
#
# Velocity S-wave (km/s) = 2.78465 3.38435 3.09904
# Velocity P-wave (km/s) = 4.81588 5.58682 5.21561
#
# Compressibility (1/GPa) = 0.03708659
#
# Stress axis : x y z
#
# Youngs Moduli (GPa) = 83.57572 43.98617 80.49064
#
# Poissons Ratio (x) = 0.03779 0.26351
# Poissons Ratio (y) = 0.07180 0.07127
# Poissons Ratio (z) = 0.27361 0.03895
#
# Static dielectric constant tensor:
#      x y z
#    x 3.374710 -0.109590 0.060330 
#    y -0.109590 3.437090 0.049070 
#    z 0.060330 0.049070 3.806750 
# 
# 
# High freq. dielectric constant tensor:
#      x y z
#    x 1.790810 -0.014970 0.001230 
#    y -0.014970 1.789420 0.003880 
#    z 0.001230 0.003880 1.831090 
# 
# From -- ./inp_files/505393.got.cif
#   From: 2010.06.25/outbox.cif.g09.slc.cpg/sg2_253_cif.got.tgz:505393.got - 2010.06.27 13:26:56.
