data_PCOD8044183
_publ_section_title
;
Structure prediction by ZEFSAII (Michael W. Deem and Ramdas Pophale) SiO2 
 PCOD8044183
Probable space group: P -1
;
_chemical_formula_sum "Si O2"
_cell_formula_units_Z 12
_cell_length_a 12.253412
_cell_length_b 9.596149
_cell_length_c 13.201053
_cell_angle_alpha 148.970146
_cell_angle_beta 34.029024
_cell_angle_gamma 133.862224
_cell_volume 446.981678
_symmetry_space_group_name_H-M "P -1"
_symmetry_group_IT_number 2
_symmetry_cell_setting 'triclinic'
loop_
_space_group_symop_operation_xyz
x,y,z
-x,-y,-z
loop_
_atom_site_type_symbol
_atom_site_label
_atom_site_fract_x
_atom_site_fract_y
_atom_site_fract_z
Si Si1 0.194597 0.112771 0.860639
Si Si2 0.737228 0.935052 0.566993
Si Si3 0.157278 0.261609 0.202519
Si Si4 0.621946 0.258566 0.662286
Si Si5 0.878215 0.384144 0.891174
Si Si6 0.616066 0.143480 0.086623
O O1 0.404241 0.239980 0.781817
O O2 0.224484 0.823353 0.600166
O O3 0.105641 0.094790 0.034176
O O4 0.076427 0.330834 0.016767
O O5 0.682150 0.045918 0.569080
O O6 0.800652 0.177864 0.740027
O O7 0.546777 0.781594 0.656603
O O8 0.914851 0.714427 0.282191
O O9 0.351831 0.426334 0.131270
O O10 0.000000 0.500000 0.500000
O O11 0.207290 0.058002 0.129212
O O12 0.719245 0.397904 0.114996
O O13 0.500000 0.000000 0.000000
#
# Coordination Sequence:
#
# PCOD8044183 Si02
#       6
#     2   2   2   2   2   2
#     4  11  24  41  67  95 127 169 217 262 320 386
#     4  10  19  37  65  88 128 169 210 263 319 380
#     4  12  24  41  69  93 128 171 211 270 322 376
#     4  11  22  42  67  93 128 171 215 261 323 384
#     4  10  21  38  63  95 125 167 217 259 321 385
#     4  10  21  36  63  95 123 164 216 257 319 384
#
# _framework density 26.846738999999999
#
# number of rings (size 3 to 8) (size 9 to 14) (size 15 to 20)
#    0.000    1.333    3.333    3.500    4.667    1.333 
#    0.000    0.833    7.333    0.000    0.000    0.000 
#    0.000    0.000    0.000    0.000    0.000    0.000 
#
# Total GULP energy -148792.523643 kJ/mol
# GULP energy per Si atom -12399.376970 kJ/mol
# Density = 2.678563 g / cm^3
# Si number density = 26.846739 Si / 1000 Ang^3
#
#
#
# Elastic Constant Matrix: (Units=GPa)
#
#
# Indices 1 2 3 4 5 6 
#
# 1 121.1007 39.3360 24.5090 6.9566 5.3057 -18.5429
# 2 39.3360 95.2101 9.3811 -6.8332 -1.3120 -22.2128
# 3 24.5090 9.3811 75.9416 -26.8205 -2.0692 -1.8743
# 4 6.9566 -6.8332 -26.8205 44.8368 -4.9791 5.4415
# 5 5.3057 -1.3120 -2.0692 -4.9791 46.1299 6.2565
# 6 -18.5429 -22.2128 -1.8743 5.4415 6.2565 41.3386
#
#
#
# Elastic Compliance Matrix: (Units=1/GPa)
#
#
# Indices 1 2 3 4 5 6 
#
# 1 0.011834 -0.003842 -0.005680 -0.006681 -0.003033 0.004325
# 2 -0.003842 0.013409 0.000570 0.002404 0.000413 0.005129
# 3 -0.005680 0.000570 0.019745 0.013616 0.003523 -0.003672
# 4 -0.006681 0.002404 0.013616 0.033278 0.005902 -0.006361
# 5 -0.003033 0.000413 0.003523 0.005902 0.023555 -0.005321
# 6 0.004325 0.005129 -0.003672 -0.006361 -0.005321 0.030362
#
#
# Mechanical properties :
#
#
# Convention : Reuss Voigt Hill
#
# Bulk Modulus (GPa) = 36.92112 48.74497 42.83304
# Shear Modulus (GPa) = 31.42384 41.06281 36.24333
#
# Velocity S-wave (km/s) = 3.42495 3.91516 3.67823
# Velocity P-wave (km/s) = 5.42428 6.21564 5.83339
#
# Compressibility (1/GPa) = 0.02708477
#
# Stress axis : x y z
#
# Youngs Moduli (GPa) = 84.50283 74.57726 50.64616
#
# Poissons Ratio (x) = 0.28651 0.28767
# Poissons Ratio (y) = 0.32464 -0.02889
# Poissons Ratio (z) = 0.47998 -0.04254
#
# Static dielectric constant tensor:
#      x y z
#    x 5.385580 0.568170 -0.334370 
#    y 0.568170 5.867190 -1.161470 
#    z -0.334370 -1.161470 5.901150 
# 
# 
# High freq. dielectric constant tensor:
#      x y z
#    x 2.110920 0.016570 -0.001890 
#    y 0.016570 2.086120 -0.023330 
#    z -0.001890 -0.023330 2.081030 
# 
# From -- ./inp_files/149904.got.cif
#   From: 2010.06.25/outbox.cif.g09.slc.cpg/sg2_75_cif.got.tgz:149904.got - 2010.06.27 13:26:56.
