data_PCOD8044147
_publ_section_title
;
Structure prediction by ZEFSAII (Michael W. Deem and Ramdas Pophale) SiO2 
 PCOD8044147
Probable space group: P -1
;
_chemical_formula_sum "Si O2"
_cell_formula_units_Z 14
_cell_length_a 9.441180
_cell_length_b 20.245279
_cell_length_c 8.820985
_cell_angle_alpha 53.104582
_cell_angle_beta 117.961909
_cell_angle_gamma 153.217404
_cell_volume 596.973026
_symmetry_space_group_name_H-M "P -1"
_symmetry_group_IT_number 2
_symmetry_cell_setting 'triclinic'
loop_
_space_group_symop_operation_xyz
x,y,z
-x,-y,-z
loop_
_atom_site_type_symbol
_atom_site_label
_atom_site_fract_x
_atom_site_fract_y
_atom_site_fract_z
Si Si1 0.771619 0.192808 0.000087
Si Si2 0.691580 0.031064 0.434955
Si Si3 0.300421 0.706793 0.771836
Si Si4 0.369323 0.161208 0.924333
Si Si5 0.689018 0.696519 0.437533
Si Si6 0.206326 0.341335 0.764280
Si Si7 0.246651 0.501269 0.016480
O O1 0.680074 0.068904 0.214355
O O2 0.472670 0.123010 0.943093
O O3 0.864089 0.209008 0.852313
O O4 0.086117 0.373286 0.985136
O O5 0.054460 0.182761 0.465189
O O6 0.500000 0.000000 0.500000
O O7 0.520062 0.865172 0.564272
O O8 0.263455 0.601720 0.816801
O O9 0.443443 0.750663 0.947287
O O10 0.955587 0.593890 0.794494
O O11 0.456190 0.277804 0.702523
O O12 0.000000 0.000000 0.000000
O O13 0.392457 0.508998 0.596325
O O14 0.861658 0.737457 0.316933
O O15 0.401050 0.372385 0.939220
#
# Coordination Sequence:
#
# PCOD8044147 Si02
#       7
#     2   2   2   2   2   2   2
#     4  11  24  40  70  92 131 167 219 264 319 368
#     4  12  20  40  66  97 120 171 216 263 309 387
#     4  10  20  34  65  96 124 163 223 250 321 382
#     4  11  20  39  64  90 127 170 207 262 320 384
#     4  11  23  38  69  91 129 170 215 258 327 379
#     4  11  23  41  63  98 129 167 216 270 314 380
#     4  10  19  37  64  92 125 167 206 268 307 379
#
# _framework density 23.451644999999999
#
# number of rings (size 3 to 8) (size 9 to 14) (size 15 to 20)
#    0.000    1.143    7.143    0.429    0.000    0.571 
#    0.000    3.571    3.143    0.000    0.000    0.000 
#    0.000    0.000    0.000    0.000    0.000    0.000 
#
# Total GULP energy -173631.071252 kJ/mol
# GULP energy per Si atom -12402.219375 kJ/mol
# Density = 2.339827 g / cm^3
# Si number density = 23.451645 Si / 1000 Ang^3
#
#
#
# Elastic Constant Matrix: (Units=GPa)
#
#
# Indices 1 2 3 4 5 6 
#
# 1 98.6314 25.2155 69.0533 -1.2141 5.8746 16.8802
# 2 25.2155 51.8195 19.4304 -10.3355 8.3128 8.7986
# 3 69.0533 19.4304 145.4923 -25.3362 19.6063 1.2035
# 4 -1.2141 -10.3355 -25.3362 24.1416 -1.3489 9.3208
# 5 5.8746 8.3128 19.6063 -1.3489 41.0975 -7.2471
# 6 16.8802 8.7986 1.2035 9.3208 -7.2471 39.6867
#
#
#
# Elastic Compliance Matrix: (Units=1/GPa)
#
#
# Indices 1 2 3 4 5 6 
#
# 1 0.020173 -0.008262 -0.011132 -0.012952 0.003182 -0.002788
# 2 -0.008262 0.028207 0.004668 0.019557 -0.007674 -0.008875
# 3 -0.011132 0.004668 0.015644 0.018374 -0.006618 -0.002298
# 4 -0.012952 0.019557 0.018374 0.075178 -0.011787 -0.019193
# 5 0.003182 -0.007674 -0.006618 -0.011787 0.029743 0.008748
# 6 -0.002788 -0.008875 -0.002298 -0.019193 0.008748 0.034526
#
#
# Mechanical properties :
#
#
# Convention : Reuss Voigt Hill
#
# Bulk Modulus (GPa) = 28.92667 58.14907 43.53787
# Shear Modulus (GPa) = 20.45424 33.13478 26.79451
#
# Velocity S-wave (km/s) = 2.95649 3.76293 3.38382
# Velocity P-wave (km/s) = 4.90059 6.61277 5.81999
#
# Compressibility (1/GPa) = 0.03457018
#
# Stress axis : x y z
#
# Youngs Moduli (GPa) = 49.57090 35.45255 63.92245
#
# Poissons Ratio (x) = 0.29292 0.71160
# Poissons Ratio (y) = 0.40957 -0.29837
# Poissons Ratio (z) = 0.55183 -0.16548
#
# Static dielectric constant tensor:
#      x y z
#    x 3.507590 -0.875390 0.223430 
#    y -0.875390 3.341740 -0.499060 
#    z 0.223430 -0.499060 4.331950 
# 
# 
# High freq. dielectric constant tensor:
#      x y z
#    x 1.911290 0.004160 0.028280 
#    y 0.004160 1.933730 -0.010910 
#    z 0.028280 -0.010910 1.919530 
# 
# From -- ./inp_files/223273.got.cif
#   From: 2010.06.25/outbox.cif.g09.slc.cpg/sg2_112_cif.got.tgz:223273.got - 2010.06.27 13:26:56.
