data_PCOD8044221
_publ_section_title
;
Structure prediction by ZEFSAII (Michael W. Deem and Ramdas Pophale) SiO2 
 PCOD8044221
Probable space group: P -1
;
_chemical_formula_sum "Si O2"
_cell_formula_units_Z 14
_cell_length_a 8.675955
_cell_length_b 23.299256
_cell_length_c 12.198865
_cell_angle_alpha 151.826168
_cell_angle_beta 141.914732
_cell_angle_gamma 47.299190
_cell_volume 717.126357
_symmetry_space_group_name_H-M "P -1"
_symmetry_group_IT_number 2
_symmetry_cell_setting 'triclinic'
loop_
_space_group_symop_operation_xyz
x,y,z
-x,-y,-z
loop_
_atom_site_type_symbol
_atom_site_label
_atom_site_fract_x
_atom_site_fract_y
_atom_site_fract_z
Si Si1 0.798583 0.857390 0.437957
Si Si2 0.009183 0.795994 0.794449
Si Si3 0.913258 0.437154 0.454832
Si Si4 0.057500 0.432911 0.754592
Si Si5 0.464409 0.970106 0.275817
Si Si6 0.338859 0.425043 0.103702
Si Si7 0.677899 0.007516 0.007258
O O1 0.723544 0.930064 0.407016
O O2 0.092185 0.892681 0.681889
O O3 0.621516 0.897818 0.508128
O O4 0.761590 0.712529 0.156540
O O5 0.044337 0.707447 0.770287
O O6 0.973910 0.713949 0.526550
O O7 0.255103 0.879493 0.058396
O O8 0.771963 0.873399 0.814945
O O9 0.072943 0.494284 0.744710
O O10 0.623126 0.453836 0.343319
O O11 0.000000 0.500000 0.500000
O O12 0.813174 0.479025 0.753356
O O13 0.301905 0.456657 0.006741
O O14 0.478832 0.961259 0.137302
O O15 0.500000 0.000000 0.000000
#
# Coordination Sequence:
#
# PCOD8044221 Si02
#       7
#     2   2   2   2   2   2   2
#     4  10  20  36  63  87 110 153 195 232 285 344
#     4   9  19  42  57  84 114 157 194 229 286 345
#     4  10  22  39  57  86 121 153 188 239 290 333
#     4   9  21  36  60  84 113 152 199 230 283 337
#     4  10  19  37  66  83 111 154 197 230 286 345
#     4  11  19  38  62  87 114 149 201 237 274 347
#     4  11  23  39  57  90 120 147 187 244 293 342
#
# _framework density 19.522362000000001
#
# number of rings (size 3 to 8) (size 9 to 14) (size 15 to 20)
#    0.857    1.143    1.429    3.857    0.000    1.143 
#   10.286    1.429    0.000    0.000    0.000    0.000 
#    0.000    0.000    0.000    0.000    0.000    0.000 
#
# Total GULP energy -173444.022288 kJ/mol
# GULP energy per Si atom -12388.858735 kJ/mol
# Density = 1.947793 g / cm^3
# Si number density = 19.522362 Si / 1000 Ang^3
#
#
#
# Elastic Constant Matrix: (Units=GPa)
#
#
# Indices 1 2 3 4 5 6 
#
# 1 86.3243 44.5654 34.6202 1.8122 -15.9988 16.5064
# 2 44.5654 96.6854 28.0277 -9.2617 -13.8413 14.8253
# 3 34.6202 28.0277 54.8432 0.7109 -20.0494 -0.6101
# 4 1.8122 -9.2617 0.7109 40.7829 1.5091 -13.3811
# 5 -15.9988 -13.8413 -20.0494 1.5091 22.8166 -2.5305
# 6 16.5064 14.8253 -0.6101 -13.3811 -2.5305 35.7135
#
#
#
# Elastic Compliance Matrix: (Units=1/GPa)
#
#
# Indices 1 2 3 4 5 6 
#
# 1 0.020381 -0.005485 -0.009332 -0.005032 0.002093 -0.009039
# 2 -0.005485 0.014784 -0.003615 0.002784 0.001483 -0.002515
# 3 -0.009332 -0.003615 0.034141 0.000904 0.022125 0.008304
# 4 -0.005032 0.002784 0.000904 0.029384 -0.001649 0.012078
# 5 0.002093 0.001483 0.022125 -0.001649 0.066063 0.002858
# 6 -0.009039 -0.002515 0.008304 0.012078 0.002858 0.038092
#
#
# Mechanical properties :
#
#
# Convention : Reuss Voigt Hill
#
# Bulk Modulus (GPa) = 30.82507 50.25326 40.53917
# Shear Modulus (GPa) = 19.95826 28.57190 24.26508
#
# Velocity S-wave (km/s) = 3.20086 3.82978 3.52936
# Velocity P-wave (km/s) = 5.42997 6.73451 6.11711
#
# Compressibility (1/GPa) = 0.03244113
#
# Stress axis : x y z
#
# Youngs Moduli (GPa) = 49.06611 67.64272 29.29004
#
# Poissons Ratio (x) = 0.37103 0.27335
# Poissons Ratio (y) = 0.26913 0.10587
# Poissons Ratio (z) = 0.45791 0.24451
#
# Static dielectric constant tensor:
#      x y z
#    x 3.396870 -0.134820 -0.373480 
#    y -0.134820 3.989490 -0.077730 
#    z -0.373480 -0.077730 3.674070 
# 
# 
# High freq. dielectric constant tensor:
#      x y z
#    x 1.720610 0.000140 -0.021850 
#    y 0.000140 1.782390 -0.010910 
#    z -0.021850 -0.010910 1.756040 
# 
# From -- ./inp_files/406452.got.cif
#   From: 2010.06.25/outbox.cif.g09.slc.cpg/sg2_204_cif.got.tgz:406452.got - 2010.06.27 13:26:56.
