data_PCOD8044737
_publ_section_title
;
Structure prediction by ZEFSAII (Michael W. Deem and Ramdas Pophale) SiO2 
 PCOD8044737
Probable space group: P -1
;
_chemical_formula_sum "Si O2"
_cell_formula_units_Z 14
_cell_length_a 9.176938
_cell_length_b 11.604512
_cell_length_c 11.784375
_cell_angle_alpha 35.640218
_cell_angle_beta 139.174258
_cell_angle_gamma 124.111675
_cell_volume 473.212716
_symmetry_space_group_name_H-M "P -1"
_symmetry_group_IT_number 2
_symmetry_cell_setting 'triclinic'
loop_
_space_group_symop_operation_xyz
x,y,z
-x,-y,-z
loop_
_atom_site_type_symbol
_atom_site_label
_atom_site_fract_x
_atom_site_fract_y
_atom_site_fract_z
Si Si1 0.757315 0.556233 0.763610
Si Si2 0.167522 0.426316 0.951272
Si Si3 0.598276 0.247125 0.227973
Si Si4 0.467112 0.777687 0.041895
Si Si5 0.013094 0.963487 0.876421
Si Si6 0.387232 0.889470 0.331975
Si Si7 0.815597 0.829399 0.378091
O O1 0.893898 0.578499 0.945057
O O2 0.708571 0.329526 0.899277
O O3 0.506306 0.674240 0.537559
O O4 0.881048 0.642058 0.656314
O O5 0.432456 0.343173 0.152789
O O6 0.022628 0.268288 0.936132
O O7 0.160296 0.655052 0.705159
O O8 0.586657 0.010320 0.401205
O O9 0.509906 0.322896 0.988219
O O10 0.703216 0.740090 0.275630
O O11 0.363541 0.014348 0.781825
O O12 0.796089 0.114141 0.673029
O O13 0.007903 0.034292 0.684026
O O14 0.242627 0.995609 0.053657
#
# Coordination Sequence:
#
# PCOD8044737 Si02
#       7
#     2   2   2   2   2   2   2
#     4  11  22  38  65  92 116 162 211 241 287 381
#     4   9  21  35  62  90 125 151 205 250 302 352
#     4   9  16  37  61  85 111 165 200 238 286 364
#     4  10  20  37  64  89 117 162 213 241 283 371
#     4  10  21  36  61  92 125 158 192 258 311 344
#     4  10  19  38  66  87 118 162 208 245 297 351
#     4  11  20  37  62  88 124 163 194 250 304 352
#
# _framework density 29.585004000000001
#
# number of rings (size 3 to 8) (size 9 to 14) (size 15 to 20)
#    0.000    2.000    2.857    1.286    0.000    2.857 
#    0.000    3.571   22.000    0.000    0.000    0.000 
#    0.000    0.000    0.000    0.000    0.000    0.000 
#
# Total GULP energy -173454.649841 kJ/mol
# GULP energy per Si atom -12389.617846 kJ/mol
# Density = 2.951767 g / cm^3
# Si number density = 29.585004 Si / 1000 Ang^3
#
#
#
# Elastic Constant Matrix: (Units=GPa)
#
#
# Indices 1 2 3 4 5 6 
#
# 1 172.8994 21.9301 33.7595 0.0420 -22.2086 4.9589
# 2 21.9301 107.5744 31.0940 -18.0536 -11.1514 13.5700
# 3 33.7595 31.0940 147.4053 -15.7135 -4.4584 11.2013
# 4 0.0420 -18.0536 -15.7135 37.3929 2.1037 -0.6727
# 5 -22.2086 -11.1514 -4.4584 2.1037 37.4013 4.4245
# 6 4.9589 13.5700 11.2013 -0.6727 4.4245 42.8850
#
#
#
# Elastic Compliance Matrix: (Units=1/GPa)
#
#
# Indices 1 2 3 4 5 6 
#
# 1 0.006625 -0.000694 -0.001333 -0.001122 0.003702 -0.000598
# 2 -0.000694 0.011356 -0.001392 0.004672 0.002944 -0.003380
# 3 -0.001333 -0.001392 0.007753 0.002578 -0.000266 -0.001362
# 4 -0.001122 0.004672 0.002578 0.030083 -0.000481 -0.001500
# 5 0.003702 0.002944 -0.000266 -0.000481 0.030332 -0.004427
# 6 -0.000598 -0.003380 -0.001362 -0.001500 -0.004427 0.025246
#
#
# Mechanical properties :
#
#
# Convention : Reuss Voigt Hill
#
# Bulk Modulus (GPa) = 52.92670 66.82738 59.87704
# Shear Modulus (GPa) = 40.15015 46.27554 43.21285
#
# Velocity S-wave (km/s) = 3.68790 3.95923 3.82597
# Velocity P-wave (km/s) = 6.00522 6.59833 6.30875
#
# Compressibility (1/GPa) = 0.01889405
#
# Stress axis : x y z
#
# Youngs Moduli (GPa) = 150.94427 88.06287 128.97716
#
# Poissons Ratio (x) = 0.06115 0.17193
# Poissons Ratio (y) = 0.10482 0.17959
# Poissons Ratio (z) = 0.20121 0.12262
#
# Static dielectric constant tensor:
#      x y z
#    x 5.983960 0.180800 -0.279370 
#    y 0.180800 5.283000 -0.267510 
#    z -0.279370 -0.267510 5.569680 
# 
# 
# High freq. dielectric constant tensor:
#      x y z
#    x 2.269600 0.017900 -0.003880 
#    y 0.017900 2.194290 -0.017570 
#    z -0.003880 -0.017570 2.223840 
# 
# From -- ./inp_files/388936.got.cif
#   From: 2010.06.25/outbox.cif.g09.slc.cpg/sg2_195_cif.got.tgz:388936.got - 2010.06.27 13:26:56.
