data_PCOD8044466
_publ_section_title
;
Structure prediction by ZEFSAII (Michael W. Deem and Ramdas Pophale) SiO2 
 PCOD8044466
Probable space group: P -1
;
_chemical_formula_sum "Si O2"
_cell_formula_units_Z 16
_cell_length_a 13.019374
_cell_length_b 9.802934
_cell_length_c 8.820266
_cell_angle_alpha 120.375917
_cell_angle_beta 70.645320
_cell_angle_gamma 127.116816
_cell_volume 773.862763
_symmetry_space_group_name_H-M "P -1"
_symmetry_group_IT_number 2
_symmetry_cell_setting 'triclinic'
loop_
_space_group_symop_operation_xyz
x,y,z
-x,-y,-z
loop_
_atom_site_type_symbol
_atom_site_label
_atom_site_fract_x
_atom_site_fract_y
_atom_site_fract_z
Si Si1 0.175313 0.999895 0.837303
Si Si2 0.785516 0.153544 0.551898
Si Si3 0.771752 0.506134 0.800759
Si Si4 0.382039 0.390691 0.890234
Si Si5 0.021776 0.185902 0.948037
Si Si6 0.966521 0.788677 0.383099
Si Si7 0.305889 0.437720 0.452752
Si Si8 0.418056 0.262590 0.487170
O O1 0.186217 0.854498 0.643665
O O2 0.314393 0.185258 0.880488
O O3 0.076187 0.049338 0.837581
O O4 0.128478 0.928119 0.991385
O O5 0.744776 0.302214 0.674631
O O6 0.918354 0.223176 0.610849
O O7 0.663864 0.957732 0.562424
O O8 0.722600 0.567814 0.714841
O O9 0.701303 0.514568 0.993125
O O10 0.919008 0.661323 0.857506
O O11 0.407764 0.382928 0.696552
O O12 0.500000 0.500000 0.000000
O O13 0.038737 0.271290 0.822244
O O14 0.828602 0.633360 0.434726
O O15 0.000000 0.000000 0.500000
O O16 0.355318 0.298687 0.391122
O O17 0.427107 0.649341 0.558239
#
# Coordination Sequence:
#
# PCOD8044466 Si02
#       8
#     2   2   2   2   2   2   2   2
#     4   9  19  35  59  86 124 155 215 247 298 372
#     4  11  23  41  63  97 128 164 205 263 323 370
#     4  11  24  38  65  94 131 157 205 266 325 363
#     4  10  19  38  61  90 118 170 205 256 304 380
#     4  10  21  37  60  90 121 166 209 256 300 375
#     4  12  22  38  66  92 123 169 212 258 306 373
#     4  11  22  39  64  95 122 166 212 260 305 376
#     4  10  22  41  67  92 122 167 219 253 307 384
#
# _framework density 20.6755
#
# number of rings (size 3 to 8) (size 9 to 14) (size 15 to 20)
#    0.000    1.500    3.750    2.250    3.500    3.000 
#    0.000    1.250    0.000    6.750    0.000    0.000 
#    0.000    0.000    0.000    0.000    0.000    0.000 
#
# Total GULP energy -198219.683346 kJ/mol
# GULP energy per Si atom -12388.730209 kJ/mol
# Density = 2.062844 g / cm^3
# Si number density = 20.675500 Si / 1000 Ang^3
#
#
#
# Elastic Constant Matrix: (Units=GPa)
#
#
# Indices 1 2 3 4 5 6 
#
# 1 78.6295 42.4055 40.1847 -4.8250 16.2540 13.5765
# 2 42.4055 101.7111 58.7154 -9.4595 -3.8460 14.3879
# 3 40.1847 58.7154 109.5302 9.1288 2.9309 -9.2858
# 4 -4.8250 -9.4595 9.1288 32.8736 -2.4870 -7.3042
# 5 16.2540 -3.8460 2.9309 -2.4870 27.8460 -0.1340
# 6 13.5765 14.3879 -9.2858 -7.3042 -0.1340 36.5347
#
#
#
# Elastic Compliance Matrix: (Units=1/GPa)
#
#
# Indices 1 2 3 4 5 6 
#
# 1 0.022778 -0.005570 -0.005711 0.000609 -0.013446 -0.007650
# 2 -0.005570 0.019724 -0.009867 0.006650 0.007575 -0.006849
# 3 -0.005711 -0.009867 0.017861 -0.006623 -0.000456 0.009222
# 4 0.000609 0.006650 -0.006623 0.035154 0.004412 0.002516
# 5 -0.013446 0.007575 -0.000456 0.004412 0.045263 0.002946
# 6 -0.007650 -0.006849 0.009222 0.002516 0.002946 0.035769
#
#
# Mechanical properties :
#
#
# Convention : Reuss Voigt Hill
#
# Bulk Modulus (GPa) = 55.34943 63.60911 59.47927
# Shear Modulus (GPa) = 22.23551 29.35521 25.79536
#
# Velocity S-wave (km/s) = 3.28297 3.77212 3.53601
# Velocity P-wave (km/s) = 6.41866 7.05720 6.74549
#
# Compressibility (1/GPa) = 0.01806703
#
# Stress axis : x y z
#
# Youngs Moduli (GPa) = 43.90210 50.70064 55.98918
#
# Poissons Ratio (x) = 0.28238 0.31974
# Poissons Ratio (y) = 0.24451 0.55246
# Poissons Ratio (z) = 0.25071 0.50028
#
# Static dielectric constant tensor:
#      x y z
#    x 3.593410 0.338080 0.078880 
#    y 0.338080 3.807940 -0.186060 
#    z 0.078880 -0.186060 3.706330 
# 
# 
# High freq. dielectric constant tensor:
#      x y z
#    x 1.796530 0.032790 0.014750 
#    y 0.032790 1.805790 -0.016520 
#    z 0.014750 -0.016520 1.801070 
# 
# From -- ./inp_files/245442.got.cif
#   From: 2010.06.25/outbox.cif.g09.slc.cpg/sg2_123_cif.got.tgz:245442.got - 2010.06.27 13:26:56.
