data_PCOD8044400
_publ_section_title
;
Structure prediction by ZEFSAII (Michael W. Deem and Ramdas Pophale) SiO2 
 PCOD8044400
Probable space group: P -1
;
_chemical_formula_sum "Si O2"
_cell_formula_units_Z 16
_cell_length_a 12.114820
_cell_length_b 7.930788
_cell_length_c 21.807562
_cell_angle_alpha 61.142620
_cell_angle_beta 150.620534
_cell_angle_gamma 130.555361
_cell_volume 760.936198
_symmetry_space_group_name_H-M "P -1"
_symmetry_group_IT_number 2
_symmetry_cell_setting 'triclinic'
loop_
_space_group_symop_operation_xyz
x,y,z
-x,-y,-z
loop_
_atom_site_type_symbol
_atom_site_label
_atom_site_fract_x
_atom_site_fract_y
_atom_site_fract_z
Si Si1 0.346016 0.656226 0.260223
Si Si2 0.854204 0.805111 0.139583
Si Si3 0.166624 0.989809 0.138393
Si Si4 0.929399 0.791864 0.740576
Si Si5 0.238323 0.744726 0.594115
Si Si6 0.284542 0.676879 0.851861
Si Si7 0.755995 0.047899 0.316505
Si Si8 0.268862 0.135839 0.483983
O O1 0.166395 0.760449 0.167583
O O2 0.176805 0.381921 0.221673
O O3 0.510463 0.677277 0.397437
O O4 0.526604 0.782877 0.265756
O O5 0.897737 0.594070 0.204484
O O6 0.011809 0.962944 0.130431
O O7 0.546184 0.715920 0.002943
O O8 0.952132 0.955047 0.221967
O O9 0.472845 0.213726 0.253259
O O10 0.000000 0.000000 0.000000
O O11 0.703601 0.758057 0.588515
O O12 0.143784 0.755509 0.817209
O O13 0.134206 0.824248 0.587449
O O14 0.000000 0.500000 0.500000
O O15 0.297664 0.916202 0.535936
O O16 0.359218 0.823390 0.799739
O O17 0.977172 0.047389 0.384111
#
# Coordination Sequence:
#
# PCOD8044400 Si02
#       8
#     2   2   2   2   2   2   2   2
#     4  10  19  38  60  86 124 159 206 257 310 369
#     4  11  22  38  64  87 122 167 207 256 311 367
#     4  10  21  41  61  89 126 166 207 250 320 369
#     4  11  22  38  62  90 120 158 211 254 310 375
#     4  10  21  36  60  92 128 154 213 263 296 374
#     4  10  22  41  60  86 126 163 208 259 311 367
#     4   9  19  37  62  81 117 168 200 246 326 359
#     4   9  20  37  58  84 121 163 200 250 317 368
#
# _framework density 21.026731000000002
#
# number of rings (size 3 to 8) (size 9 to 14) (size 15 to 20)
#    0.000    2.250    1.250    3.750    1.750    2.000 
#    0.000    6.250    0.000    0.000    0.000    0.000 
#    0.000    0.000    0.000    0.000    0.000    0.000 
#
# Total GULP energy -198225.048234 kJ/mol
# GULP energy per Si atom -12389.065515 kJ/mol
# Density = 2.097887 g / cm^3
# Si number density = 21.026731 Si / 1000 Ang^3
#
#
#
# Elastic Constant Matrix: (Units=GPa)
#
#
# Indices 1 2 3 4 5 6 
#
# 1 61.7651 42.4361 24.1750 -7.3529 -5.6847 -1.5331
# 2 42.4361 103.7140 34.3492 1.5429 -12.1737 14.3940
# 3 24.1750 34.3492 104.0486 -11.2197 -1.9359 5.2875
# 4 -7.3529 1.5429 -11.2197 31.3788 5.6218 -7.3547
# 5 -5.6847 -12.1737 -1.9359 5.6218 23.0924 -5.5807
# 6 -1.5331 14.3940 5.2875 -7.3547 -5.5807 29.3627
#
#
#
# Elastic Compliance Matrix: (Units=1/GPa)
#
#
# Indices 1 2 3 4 5 6 
#
# 1 0.025982 -0.011368 -0.001880 0.008079 0.000549 0.009396
# 2 -0.011368 0.017546 -0.003426 -0.008017 0.005825 -0.009479
# 3 -0.001880 -0.003426 0.011594 0.004320 -0.002316 0.000135
# 4 0.008079 -0.008017 0.004320 0.040067 -0.008742 0.011948
# 5 0.000549 0.005825 -0.002316 -0.008742 0.049612 0.004830
# 6 0.009396 -0.009479 0.000135 0.011948 0.004830 0.043081
#
#
# Mechanical properties :
#
#
# Convention : Reuss Voigt Hill
#
# Bulk Modulus (GPa) = 45.92263 52.38314 49.15289
# Shear Modulus (GPa) = 21.88293 28.00462 24.94378
#
# Velocity S-wave (km/s) = 3.22952 3.65342 3.44799
# Velocity P-wave (km/s) = 5.98280 6.53937 6.26727
#
# Compressibility (1/GPa) = 0.02177576
#
# Stress axis : x y z
#
# Youngs Moduli (GPa) = 38.48783 56.99166 86.24798
#
# Poissons Ratio (x) = 0.64789 0.16214
# Poissons Ratio (y) = 0.43753 0.29545
# Poissons Ratio (z) = 0.07236 0.19523
#
# Static dielectric constant tensor:
#      x y z
#    x 3.611710 0.193260 -0.002980 
#    y 0.193260 4.016980 -0.278210 
#    z -0.002980 -0.278210 3.914640 
# 
# 
# High freq. dielectric constant tensor:
#      x y z
#    x 1.809010 0.013990 0.007460 
#    y 0.013990 1.823490 -0.015800 
#    z 0.007460 -0.015800 1.821810 
# 
# From -- ./inp_files/594083.got.cif
#   From: 2010.06.25/outbox.cif.g09.slc.cpg/sg2_298_cif.got.tgz:594083.got - 2010.06.27 13:26:56.
