data_PCOD8044979
_publ_section_title
;
Structure prediction by ZEFSAII (Michael W. Deem and Ramdas Pophale) SiO2 
 PCOD8044979
Probable space group: P 2
;
_chemical_formula_sum "Si O2"
_cell_formula_units_Z 12
_cell_length_a 9.258759
_cell_length_b 7.552481
_cell_length_c 10.354479
_cell_angle_alpha 90.000000
_cell_angle_beta 120.571466
_cell_angle_gamma 90.000000
_cell_volume 623.406776
_symmetry_space_group_name_H-M "P 2"
_symmetry_group_IT_number 3
_symmetry_cell_setting 'monoclinic'
loop_
_space_group_symop_operation_xyz
x,y,z
-x,y,-z
loop_
_atom_site_type_symbol
_atom_site_label
_atom_site_fract_x
_atom_site_fract_y
_atom_site_fract_z
Si Si1 0.262812 0.900810 0.660748
Si Si2 0.123123 0.259148 0.174185
Si Si3 0.227870 0.633809 0.295572
Si Si4 0.498412 0.188070 0.343364
Si Si5 0.035761 0.947812 0.309352
Si Si6 0.428894 0.581198 0.647749
O O1 0.136551 0.919870 0.485434
O O2 0.333311 0.700206 0.710431
O O3 0.163044 0.935835 0.748647
O O4 0.416152 0.033550 0.700418
O O5 0.116514 0.459662 0.222472
O O6 0.306727 0.199241 0.211318
O O7 0.065652 0.141912 0.268526
O O8 0.000000 0.230546 0.000000
O O9 0.100014 0.800000 0.235362
O O10 0.335726 0.628139 0.473714
O O11 0.375499 0.642669 0.255757
O O12 0.500000 0.157373 0.500000
O O13 0.590316 0.370377 0.343879
#
# Coordination Sequence:
#
# PCOD8044979 Si02
#       6
#     2   2   2   2   2   2
#     4  10  20  31  56  85 112 137 172 228 277 316
#     4  11  22  36  56  80 109 145 183 222 262 316
#     4   9  17  32  53  75 107 137 180 222 264 311
#     4  11  18  34  58  80 105 142 185 223 262 311
#     4  10  20  34  52  84 114 140 173 222 277 319
#     4   9  16  30  53  81 102 136 179 225 265 311
#
# _framework density 19.249071000000001
#
# number of rings (size 3 to 8) (size 9 to 14) (size 15 to 20)
#    0.000    2.000    5.000    1.000    2.333    2.000 
#    0.000    4.167    0.000    0.000    0.000    0.000 
#    0.000    0.000    0.000    0.000    0.000    0.000 
#
# Total GULP energy -148685.843089 kJ/mol
# GULP energy per Si atom -12390.486924 kJ/mol
# Density = 1.920526 g / cm^3
# Si number density = 19.249071 Si / 1000 Ang^3
#
#
#
# Elastic Constant Matrix: (Units=GPa)
#
#
# Indices 1 2 3 4 5 6 
#
# 1 87.6718 40.0918 19.8189 0.0000 8.3223 0.0000
# 2 40.0918 89.9231 18.9809 0.0000 2.5417 0.0000
# 3 19.8189 18.9809 30.1767 0.0000 15.5892 0.0000
# 4 0.0000 0.0000 0.0000 2.0008 0.0000 6.8562
# 5 8.3223 2.5417 15.5892 0.0000 17.0209 0.0000
# 6 0.0000 0.0000 0.0000 6.8562 0.0000 46.2365
#
#
#
# Elastic Compliance Matrix: (Units=1/GPa)
#
#
# Indices 1 2 3 4 5 6 
#
# 1 0.015428 -0.005579 -0.005992 0.000000 -0.001223 0.000000
# 2 -0.005579 0.015887 -0.012361 0.000000 0.011677 0.000000
# 3 -0.005992 -0.012361 0.080442 0.000000 -0.068900 0.000000
# 4 0.000000 0.000000 0.000000 1.016160 0.000000 -0.150682
# 5 -0.001223 0.011677 -0.068900 0.000000 0.120709 0.000000
# 6 0.000000 0.000000 0.000000 -0.150682 0.000000 0.043972
#
#
# Mechanical properties :
#
#
# Convention : Reuss Voigt Hill
#
# Bulk Modulus (GPa) = 15.65103 40.61720 28.13411
# Shear Modulus (GPa) = 3.67172 21.64365 12.65769
#
# Velocity S-wave (km/s) = 1.38261 3.35684 2.56710
# Velocity P-wave (km/s) = 3.27067 6.01425 4.84089
#
# Compressibility (1/GPa) = 0.06389356
#
# Stress axis : x y z
#
# Youngs Moduli (GPa) = 64.81694 62.94391 12.43139
#
# Poissons Ratio (x) = 0.35118 0.07448
# Poissons Ratio (y) = 0.36163 0.15366
# Poissons Ratio (z) = 0.38836 0.77803
#
# Static dielectric constant tensor:
#      x y z
#    x 3.491960 0.000000 0.392190 
#    y 0.000000 3.793760 0.000000 
#    z 0.392190 0.000000 2.861970 
# 
# 
# High freq. dielectric constant tensor:
#      x y z
#    x 1.751990 0.000000 0.020460 
#    y 0.000000 1.763930 0.000000 
#    z 0.020460 0.000000 1.687210 
# 
# From -- ./inp_files/5613.got.cif
#   From: 2010.03.12/outbox.cif.g09.slc.cpg/sg3_3_cif.got.tgz:5613.got - 2010.03.31 09:20:49.
