data_PCOD8044678
_publ_section_title
;
Structure prediction by ZEFSAII (Michael W. Deem and Ramdas Pophale) SiO2 
 PCOD8044678
Probable space group: P -1
;
_chemical_formula_sum "Si O2"
_cell_formula_units_Z 14
_cell_length_a 6.337786
_cell_length_b 12.280449
_cell_length_c 16.369127
_cell_angle_alpha 26.528340
_cell_angle_beta 69.061326
_cell_angle_gamma 72.268976
_cell_volume 531.100832
_symmetry_space_group_name_H-M "P -1"
_symmetry_group_IT_number 2
_symmetry_cell_setting 'triclinic'
loop_
_space_group_symop_operation_xyz
x,y,z
-x,-y,-z
loop_
_atom_site_type_symbol
_atom_site_label
_atom_site_fract_x
_atom_site_fract_y
_atom_site_fract_z
Si Si1 0.564632 0.239928 0.562603
Si Si2 0.782953 0.691501 0.294790
Si Si3 0.348963 0.095437 0.530265
Si Si4 0.332519 0.240451 0.050302
Si Si5 0.755141 0.416468 0.039824
Si Si6 0.817881 0.464476 0.820192
Si Si7 0.848227 0.943805 0.968991
O O1 0.775959 0.423777 0.432903
O O2 0.359684 0.312084 0.600832
O O3 0.498025 0.262764 0.461238
O O4 0.617060 0.960518 0.754680
O O5 0.680782 0.881388 0.111722
O O6 0.035724 0.785781 0.224231
O O7 0.153993 0.266350 0.405426
O O8 0.500000 0.000000 0.500000
O O9 0.232464 0.869405 0.747246
O O10 0.159073 0.417460 0.004328
O O11 0.553063 0.398653 0.889804
O O12 0.241493 0.100022 0.078516
O O13 0.500000 0.500000 0.000000
O O14 0.894235 0.469396 0.901646
O O15 0.963886 0.257536 0.897390
#
# Coordination Sequence:
#
# PCOD8044678 Si02
#       7
#     2   2   2   2   2   2   2
#     4  11  22  44  68 101 131 181 224 275 340 396
#     4  10  24  45  64  94 139 171 235 276 325 403
#     4  12  20  37  73 100 130 175 223 270 336 402
#     4  11  21  40  71  93 139 175 218 276 338 395
#     4  10  19  38  65 103 134 174 218 272 337 406
#     4  11  22  43  67  99 139 177 220 278 333 403
#     4  11  24  45  64  99 131 179 229 276 333 398
#
# _framework density 26.360340999999998
#
# number of rings (size 3 to 8) (size 9 to 14) (size 15 to 20)
#    0.000    1.143    7.143    0.857    0.000    1.714 
#   15.429    0.714    0.000    0.000    0.000    0.000 
#    0.000    0.000    0.000    0.000    0.000    0.000 
#
# Total GULP energy -173499.941424 kJ/mol
# GULP energy per Si atom -12392.852959 kJ/mol
# Density = 2.630034 g / cm^3
# Si number density = 26.360341 Si / 1000 Ang^3
#
#
#
# Elastic Constant Matrix: (Units=GPa)
#
#
# Indices 1 2 3 4 5 6 
#
# 1 20.8582 29.8742 17.9715 -0.0027 5.7496 9.7489
# 2 29.8742 181.1185 32.3877 6.5010 -7.7728 40.2622
# 3 17.9715 32.3877 143.1146 -4.1980 16.4871 15.3130
# 4 -0.0027 6.5010 -4.1980 47.8160 4.2916 4.7126
# 5 5.7496 -7.7728 16.4871 4.2916 35.0179 -4.1030
# 6 9.7489 40.2622 15.3130 4.7126 -4.1030 46.5547
#
#
#
# Elastic Compliance Matrix: (Units=1/GPa)
#
#
# Indices 1 2 3 4 5 6 
#
# 1 0.073700 -0.010640 -0.004556 0.002864 -0.013395 -0.006203
# 2 -0.010640 0.008586 -0.000550 -0.001078 0.003505 -0.004598
# 3 -0.004556 -0.000550 0.008334 0.001309 -0.003665 -0.001767
# 4 0.002864 -0.001078 0.001309 0.021827 -0.004316 -0.002688
# 5 -0.013395 0.003505 -0.003665 -0.004316 0.034309 0.004440
# 6 -0.006203 -0.004598 -0.001767 -0.002688 0.004440 0.028000
#
#
# Mechanical properties :
#
#
# Convention : Reuss Voigt Hill
#
# Bulk Modulus (GPa) = 16.91291 56.17311 36.54301
# Shear Modulus (GPa) = 22.12799 43.53493 32.83146
#
# Velocity S-wave (km/s) = 2.90046 4.06831 3.53297
# Velocity P-wave (km/s) = 4.20081 6.58970 5.52589
#
# Compressibility (1/GPa) = 0.05912641
#
# Stress axis : x y z
#
# Youngs Moduli (GPa) = 13.56859 116.46881 119.99406
#
# Poissons Ratio (x) = 1.23926 0.54668
# Poissons Ratio (y) = 0.14437 0.06604
# Poissons Ratio (z) = 0.06182 0.06410
#
# Static dielectric constant tensor:
#      x y z
#    x 4.579000 -0.028680 -0.069310 
#    y -0.028680 5.431290 0.019260 
#    z -0.069310 0.019260 4.924200 
# 
# 
# High freq. dielectric constant tensor:
#      x y z
#    x 2.029390 0.004650 -0.001150 
#    y 0.004650 2.099050 0.007060 
#    z -0.001150 0.007060 2.059790 
# 
# From -- ./inp_files/496021.got.cif
#   From: 2010.06.25/outbox.cif.g09.slc.cpg/sg2_249_cif.got.tgz:496021.got - 2010.06.27 13:26:56.
