data_PCOD8044607
_publ_section_title
;
Structure prediction by ZEFSAII (Michael W. Deem and Ramdas Pophale) SiO2 
 PCOD8044607
Probable space group: P -1
;
_chemical_formula_sum "Si O2"
_cell_formula_units_Z 16
_cell_length_a 11.913192
_cell_length_b 12.487170
_cell_length_c 9.333075
_cell_angle_alpha 45.138555
_cell_angle_beta 51.339046
_cell_angle_gamma 60.372691
_cell_volume 764.835206
_symmetry_space_group_name_H-M "P -1"
_symmetry_group_IT_number 2
_symmetry_cell_setting 'triclinic'
loop_
_space_group_symop_operation_xyz
x,y,z
-x,-y,-z
loop_
_atom_site_type_symbol
_atom_site_label
_atom_site_fract_x
_atom_site_fract_y
_atom_site_fract_z
Si Si1 0.477201 0.355079 0.967220
Si Si2 0.771137 0.818943 0.171141
Si Si3 0.274386 0.896666 0.533420
Si Si4 0.534603 0.695932 0.649346
Si Si5 0.928742 0.134757 0.024173
Si Si6 0.939620 0.167476 0.444350
Si Si7 0.754218 0.783633 0.888768
Si Si8 0.760466 0.168492 0.867453
O O1 0.488723 0.531989 0.804540
O O2 0.614824 0.273894 0.848704
O O3 0.464516 0.277026 0.206431
O O4 0.335071 0.338125 0.003140
O O5 0.692669 0.715277 0.442642
O O6 0.944352 0.775937 0.092690
O O7 0.724543 0.780311 0.084582
O O8 0.724414 0.995174 0.076930
O O9 0.425320 0.820596 0.541251
O O10 0.197168 0.781699 0.597375
O O11 0.301112 0.049699 0.283931
O O12 0.164813 0.937441 0.712076
O O13 0.822695 0.234528 0.904772
O O14 0.000000 0.000000 0.000000
O O15 0.883547 0.172799 0.645636
O O16 0.075517 0.266604 0.230477
O O17 0.000000 0.000000 0.500000
#
# Coordination Sequence:
#
# PCOD8044607 Si02
#       8
#     2   2   2   2   2   2   2   2
#     4  11  27  45  58  85 126 167 210 250 297 357
#     4  11  22  39  64  97 124 153 201 255 304 362
#     4  11  20  40  66  90 123 161 194 253 308 359
#     4  11  27  45  59  83 126 170 208 251 295 355
#     4  10  20  35  63  98 123 150 200 254 306 360
#     4  10  19  38  63  98 128 150 187 259 314 358
#     4  11  22  39  65  96 124 155 198 254 308 362
#     4  11  21  39  67  95 122 158 201 251 305 361
#
# _framework density 20.919540000000001
#
# number of rings (size 3 to 8) (size 9 to 14) (size 15 to 20)
#    0.000    1.250    5.000    3.000    7.000    2.500 
#    0.000    2.500    0.000    0.000    0.000    0.000 
#    0.000    0.000    0.000    0.000    0.000    0.000 
#
# Total GULP energy -198374.255860 kJ/mol
# GULP energy per Si atom -12398.390991 kJ/mol
# Density = 2.087193 g / cm^3
# Si number density = 20.919540 Si / 1000 Ang^3
#
#
#
# Elastic Constant Matrix: (Units=GPa)
#
#
# Indices 1 2 3 4 5 6 
#
# 1 100.3095 20.4306 22.3421 3.7544 -7.8522 29.3713
# 2 20.4306 47.9579 30.3687 11.9444 -2.2899 18.7017
# 3 22.3421 30.3687 94.3492 24.1931 -1.8258 3.1362
# 4 3.7544 11.9444 24.1931 24.3169 3.9305 0.5700
# 5 -7.8522 -2.2899 -1.8258 3.9305 34.9517 5.0200
# 6 29.3713 18.7017 3.1362 0.5700 5.0200 23.8558
#
#
#
# Elastic Compliance Matrix: (Units=1/GPa)
#
#
# Indices 1 2 3 4 5 6 
#
# 1 0.019842 0.009027 -0.005633 -0.002703 0.009763 -0.032755
# 2 0.009027 0.048243 -0.012175 -0.013955 0.013274 -0.049793
# 3 -0.005633 -0.012175 0.018223 -0.011309 -0.001961 0.014767
# 4 -0.002703 -0.013955 -0.011309 0.061096 -0.011380 0.016691
# 5 0.009763 0.013274 -0.001961 -0.011380 0.037118 -0.029708
# 6 -0.032755 -0.049793 0.014767 0.016691 -0.029708 0.125193
#
#
# Mechanical properties :
#
#
# Convention : Reuss Voigt Hill
#
# Bulk Modulus (GPa) = 14.54664 43.21105 28.87885
# Shear Modulus (GPa) = 14.27789 27.92323 21.10056
#
# Velocity S-wave (km/s) = 2.61533 3.65744 3.17938
# Velocity P-wave (km/s) = 4.01107 6.20778 5.22615
#
# Compressibility (1/GPa) = 0.06874440
#
# Stress axis : x y z
#
# Youngs Moduli (GPa) = 50.39916 20.72852 54.87598
#
# Poissons Ratio (x) = -0.18712 0.30913
# Poissons Ratio (y) = -0.45496 0.66813
# Poissons Ratio (z) = 0.28391 0.25238
#
# Static dielectric constant tensor:
#      x y z
#    x 4.897550 0.140660 -0.082460 
#    y 0.140660 3.378170 0.248340 
#    z -0.082460 0.248340 3.749760 
# 
# 
# High freq. dielectric constant tensor:
#      x y z
#    x 1.843780 0.012550 -0.004720 
#    y 0.012550 1.782020 0.032540 
#    z -0.004720 0.032540 1.814110 
# 
# From -- ./inp_files/186711.got.cif
#   From: 2010.06.25/outbox.cif.g09.slc.cpg/sg2_94_cif.got.tgz:186711.got - 2010.06.27 13:26:56.
