data_PCOD8044322
_publ_section_title
;
Structure prediction by ZEFSAII (Michael W. Deem and Ramdas Pophale) SiO2 
 PCOD8044322
Probable space group: P -1
;
_chemical_formula_sum "Si O2"
_cell_formula_units_Z 16
_cell_length_a 8.460342
_cell_length_b 14.470636
_cell_length_c 14.022006
_cell_angle_alpha 43.172798
_cell_angle_beta 55.737369
_cell_angle_gamma 84.752666
_cell_volume 801.357947
_symmetry_space_group_name_H-M "P -1"
_symmetry_group_IT_number 2
_symmetry_cell_setting 'triclinic'
loop_
_space_group_symop_operation_xyz
x,y,z
-x,-y,-z
loop_
_atom_site_type_symbol
_atom_site_label
_atom_site_fract_x
_atom_site_fract_y
_atom_site_fract_z
Si Si1 0.377861 0.156211 0.486836
Si Si2 0.836583 0.383031 0.060976
Si Si3 0.307581 0.867649 0.464737
Si Si4 0.108703 0.651513 0.280615
Si Si5 0.991221 0.798786 0.364259
Si Si6 0.643850 0.884187 0.886186
Si Si7 0.983446 0.430832 0.326584
Si Si8 0.023743 0.833459 0.756851
O O1 0.577258 0.302589 0.246036
O O2 0.479468 0.080699 0.577519
O O3 0.245814 0.212137 0.554893
O O4 0.198133 0.026116 0.570023
O O5 0.916850 0.258396 0.115714
O O6 0.000000 0.500000 0.000000
O O7 0.848029 0.470571 0.893285
O O8 0.260115 0.719371 0.522533
O O9 0.073575 0.799826 0.657761
O O10 0.376941 0.029965 0.263949
O O11 0.047326 0.771490 0.258042
O O12 0.000000 0.500000 0.500000
O O13 0.982589 0.571032 0.282136
O O14 0.386578 0.746407 0.112155
O O15 0.933224 0.656726 0.566708
O O16 0.209057 0.978095 0.186972
O O17 0.764402 0.789109 0.889417
#
# Coordination Sequence:
#
# PCOD8044322 Si02
#       8
#     2   2   2   2   2   2   2   2
#     4  10  21  36  60  85 121 152 188 240 286 341
#     4  11  20  35  58  85 129 152 179 234 297 343
#     4  10  19  38  56  88 123 148 187 233 288 350
#     4  10  22  40  60  84 114 150 199 245 282 334
#     4   9  21  42  60  82 113 152 203 239 279 336
#     4  10  21  37  65  82 109 155 196 239 287 338
#     4  10  21  37  57  85 118 156 190 230 289 344
#     4  10  21  36  57  88 119 151 191 229 289 350
#
# _framework density 19.96611
#
# number of rings (size 3 to 8) (size 9 to 14) (size 15 to 20)
#    0.000    2.000    2.500    2.250    3.500    2.500 
#    0.000    1.250    5.500    0.000    0.000    0.000 
#    0.000    0.000    0.000    0.000    0.000    0.000 
#
# Total GULP energy -198232.429538 kJ/mol
# GULP energy per Si atom -12389.526846 kJ/mol
# Density = 1.992067 g / cm^3
# Si number density = 19.966110 Si / 1000 Ang^3
#
#
#
# Elastic Constant Matrix: (Units=GPa)
#
#
# Indices 1 2 3 4 5 6 
#
# 1 57.5899 39.0616 37.8525 16.2292 -3.8688 -5.5411
# 2 39.0616 125.0478 43.3701 13.5453 -5.7962 4.4599
# 3 37.8525 43.3701 113.3145 9.8352 -14.5106 -8.7617
# 4 16.2292 13.5453 9.8352 25.9305 -2.9837 -5.1455
# 5 -3.8688 -5.7962 -14.5106 -2.9837 12.8861 3.5842
# 6 -5.5411 4.4599 -8.7617 -5.1455 3.5842 31.1320
#
#
#
# Elastic Compliance Matrix: (Units=1/GPa)
#
#
# Indices 1 2 3 4 5 6 
#
# 1 0.029315 -0.005681 -0.006986 -0.012833 -0.005303 0.002555
# 2 -0.005681 0.010946 -0.002249 -0.001892 0.001269 -0.003671
# 3 -0.006986 -0.002249 0.013524 0.002178 0.012110 0.001851
# 4 -0.012833 -0.001892 0.002178 0.048765 0.007426 0.005805
# 5 -0.005303 0.001269 0.012110 0.007426 0.093970 -0.007309
# 6 0.002555 -0.003671 0.001851 0.005805 -0.007309 0.035424
#
#
# Mechanical properties :
#
#
# Convention : Reuss Voigt Hill
#
# Bulk Modulus (GPa) = 41.74750 59.61338 50.68044
# Shear Modulus (GPa) = 18.53492 25.70094 22.11793
#
# Velocity S-wave (km/s) = 3.05014 3.59169 3.33193
# Velocity P-wave (km/s) = 5.77573 6.86458 6.34356
#
# Compressibility (1/GPa) = 0.02395353
#
# Stress axis : x y z
#
# Youngs Moduli (GPa) = 34.11183 91.35549 73.94163
#
# Poissons Ratio (x) = 0.51901 0.51655
# Poissons Ratio (y) = 0.19380 0.16629
# Poissons Ratio (z) = 0.23830 0.20546
#
# Static dielectric constant tensor:
#      x y z
#    x 3.637800 0.016800 0.107640 
#    y 0.016800 4.662380 -0.103250 
#    z 0.107640 -0.103250 3.769560 
# 
# 
# High freq. dielectric constant tensor:
#      x y z
#    x 1.753990 0.010630 0.000380 
#    y 0.010630 1.787820 -0.012870 
#    z 0.000380 -0.012870 1.777690 
# 
# From -- ./inp_files/170420.got.cif
#   From: 2010.06.25/outbox.cif.g09.slc.cpg/sg2_86_cif.got.tgz:170420.got - 2010.06.27 13:26:56.
