data_PCOD8044785
_publ_section_title
;
Structure prediction by ZEFSAII (Michael W. Deem and Ramdas Pophale) SiO2 
 PCOD8044785
Probable space group: P -1
;
_chemical_formula_sum "Si O2"
_cell_formula_units_Z 16
_cell_length_a 10.381829
_cell_length_b 20.076760
_cell_length_c 24.365230
_cell_angle_alpha 15.619730
_cell_angle_beta 147.993112
_cell_angle_gamma 151.843609
_cell_volume 645.224281
_symmetry_space_group_name_H-M "P -1"
_symmetry_group_IT_number 2
_symmetry_cell_setting 'triclinic'
loop_
_space_group_symop_operation_xyz
x,y,z
-x,-y,-z
loop_
_atom_site_type_symbol
_atom_site_label
_atom_site_fract_x
_atom_site_fract_y
_atom_site_fract_z
Si Si1 0.985034 0.930468 0.718866
Si Si2 0.571503 0.718512 0.576271
Si Si3 0.020166 0.149812 0.989450
Si Si4 0.188418 0.283599 0.062474
Si Si5 0.452238 0.589650 0.082217
Si Si6 0.954664 0.239345 0.362129
Si Si7 0.248945 0.799255 0.308628
Si Si8 0.579007 0.271920 0.684077
O O1 0.858224 0.923464 0.738972
O O2 0.299710 0.000580 0.784815
O O3 0.833101 0.630589 0.872447
O O4 0.956914 0.165965 0.485651
O O5 0.529915 0.472661 0.797701
O O6 0.287611 0.652809 0.494123
O O7 0.782285 0.754648 0.575794
O O8 0.676082 0.006700 0.419088
O O9 0.288619 0.417714 0.850137
O O10 0.749005 0.188170 0.855479
O O11 0.071146 0.105446 0.106636
O O12 0.994351 0.873265 0.166511
O O13 0.500000 0.500000 0.000000
O O14 0.022245 0.457895 0.875466
O O15 0.478620 0.898219 0.839361
O O16 0.234722 0.627493 0.384289
O O17 0.500000 0.500000 0.500000
#
# Coordination Sequence:
#
# PCOD8044785 Si02
#       8
#     2   2   2   2   2   2   2   2
#     4  11  23  44  72 102 137 187 223 293 350 399
#     4  10  19  38  67 104 136 174 224 290 344 408
#     4  10  24  46  67 101 142 176 235 285 335 420
#     4  12  23  43  67 101 139 180 233 289 348 408
#     4   9  22  42  73 109 129 178 235 289 346 403
#     4  10  22  36  63 106 143 169 225 287 346 410
#     4  10  22  46  72  98 140 179 231 289 344 406
#     4  12  26  47  70 100 145 190 228 284 347 421
#
# _framework density 24.797577
#
# number of rings (size 3 to 8) (size 9 to 14) (size 15 to 20)
#    0.750    0.750    2.500    2.625    1.750    1.500 
#    9.000    1.875    0.000    0.000    0.000    0.000 
#    0.000    0.000    0.000    0.000    0.000    0.000 
#
# Total GULP energy -198320.061043 kJ/mol
# GULP energy per Si atom -12395.003815 kJ/mol
# Density = 2.474114 g / cm^3
# Si number density = 24.797577 Si / 1000 Ang^3
#
#
#
# Elastic Constant Matrix: (Units=GPa)
#
#
# Indices 1 2 3 4 5 6 
#
# 1 131.8190 25.1576 55.8066 21.8770 -6.0745 -31.3052
# 2 25.1576 83.8978 28.9316 31.5220 7.8127 -9.5184
# 3 55.8066 28.9316 95.2670 16.3566 -6.4129 -14.8110
# 4 21.8770 31.5220 16.3566 40.5182 -7.2138 -4.8621
# 5 -6.0745 7.8127 -6.4129 -7.2138 56.3776 7.8989
# 6 -31.3052 -9.5184 -14.8110 -4.8621 7.8989 36.7878
#
#
#
# Elastic Compliance Matrix: (Units=1/GPa)
#
#
# Indices 1 2 3 4 5 6 
#
# 1 0.012398 0.000871 -0.005584 -0.004333 -0.001123 0.008196
# 2 0.000871 0.019273 -0.003692 -0.014508 -0.005340 0.003470
# 3 -0.005584 -0.003692 0.014975 0.000132 0.001632 -0.000011
# 4 -0.004333 -0.014508 0.000132 0.039065 0.007082 -0.003746
# 5 -0.001123 -0.005340 0.001632 0.007082 0.020159 -0.005072
# 6 0.008196 0.003470 -0.000011 -0.003746 -0.005072 0.035644
#
#
# Mechanical properties :
#
#
# Convention : Reuss Voigt Hill
#
# Bulk Modulus (GPa) = 33.51859 58.97504 46.24682
# Shear Modulus (GPa) = 29.71397 40.14259 34.92828
#
# Velocity S-wave (km/s) = 3.46535 4.02781 3.75712
# Velocity P-wave (km/s) = 5.43670 6.74279 6.12466
#
# Compressibility (1/GPa) = 0.02983419
#
# Stress axis : x y z
#
# Youngs Moduli (GPa) = 80.65811 51.88551 66.77859
#
# Poissons Ratio (x) = -0.04517 0.37292
# Poissons Ratio (y) = -0.07022 0.24655
# Poissons Ratio (z) = 0.45043 0.19157
#
# Static dielectric constant tensor:
#      x y z
#    x 4.523950 -0.120660 -0.177470 
#    y -0.120660 4.401400 0.089900 
#    z -0.177470 0.089900 4.257090 
# 
# 
# High freq. dielectric constant tensor:
#      x y z
#    x 1.992490 -0.006970 -0.011410 
#    y -0.006970 1.981710 0.013750 
#    z -0.011410 0.013750 1.969680 
# 
# From -- ./inp_files/591200.got.cif
#   From: 2010.06.25/outbox.cif.g09.slc.cpg/sg2_296_cif.got.tgz:591200.got - 2010.06.27 13:26:56.
