data_PCOD8044517
_publ_section_title
;
Structure prediction by ZEFSAII (Michael W. Deem and Ramdas Pophale) SiO2 
 PCOD8044517
Probable space group: P -1
;
_chemical_formula_sum "Si O2"
_cell_formula_units_Z 16
_cell_length_a 8.572025
_cell_length_b 15.082851
_cell_length_c 15.172787
_cell_angle_alpha 27.960233
_cell_angle_beta 83.145355
_cell_angle_gamma 64.640201
_cell_volume 657.811103
_symmetry_space_group_name_H-M "P -1"
_symmetry_group_IT_number 2
_symmetry_cell_setting 'triclinic'
loop_
_space_group_symop_operation_xyz
x,y,z
-x,-y,-z
loop_
_atom_site_type_symbol
_atom_site_label
_atom_site_fract_x
_atom_site_fract_y
_atom_site_fract_z
Si Si1 0.879661 0.163060 0.153501
Si Si2 0.645344 0.812248 0.388475
Si Si3 0.861110 0.964709 0.147950
Si Si4 0.437005 0.802434 0.730436
Si Si5 0.146200 0.383102 0.279749
Si Si6 0.839729 0.020617 0.554906
Si Si7 0.770502 0.690644 0.915040
Si Si8 0.317483 0.589653 0.365079
O O1 0.690759 0.226184 0.168624
O O2 0.901399 0.054316 0.153057
O O3 0.814748 0.435191 0.911326
O O4 0.117287 0.938883 0.384152
O O5 0.707458 0.913969 0.221588
O O6 0.852176 0.629217 0.602907
O O7 0.593408 0.657043 0.482619
O O8 0.433136 0.042097 0.256820
O O9 0.097337 0.702279 0.328630
O O10 0.733189 0.189161 0.886487
O O11 0.401036 0.758474 0.669228
O O12 0.683500 0.602841 0.928758
O O13 0.343712 0.094108 0.481502
O O14 0.921350 0.485523 0.164436
O O15 0.896012 0.745954 0.798683
O O16 0.000000 0.000000 0.500000
O O17 0.500000 0.500000 0.500000
#
# Coordination Sequence:
#
# PCOD8044517 Si02
#       8
#     2   2   2   2   2   2   2   2
#     4  10  19  38  62  89 122 167 203 254 309 365
#     4  11  23  43  64  94 125 163 204 254 316 368
#     4  11  23  45  64  92 130 159 207 257 307 372
#     4  10  20  41  59  91 126 165 211 260 308 354
#     4  10  21  37  63  88 122 165 204 256 306 366
#     4   9  20  36  62  90 128 167 208 258 309 357
#     4  10  21  35  64  92 122 166 212 255 300 373
#     4  11  27  42  69  96 122 162 204 257 311 377
#
# _framework density 24.323091999999999
#
# number of rings (size 3 to 8) (size 9 to 14) (size 15 to 20)
#    0.000    1.750    3.750    0.750    3.500    3.500 
#    0.000    7.500    0.000   19.500    0.000    0.000 
#    0.000    0.000    0.000    0.000    0.000    0.000 
#
# Total GULP energy -198248.949335 kJ/mol
# GULP energy per Si atom -12390.559333 kJ/mol
# Density = 2.426773 g / cm^3
# Si number density = 24.323092 Si / 1000 Ang^3
#
#
#
# Elastic Constant Matrix: (Units=GPa)
#
#
# Indices 1 2 3 4 5 6 
#
# 1 120.3456 24.4048 58.2127 22.4971 17.4284 13.7886
# 2 24.4048 173.5175 17.0473 -5.0048 55.0185 37.4305
# 3 58.2127 17.0473 109.1170 29.5806 2.7044 8.9619
# 4 22.4971 -5.0048 29.5806 47.7582 5.9819 -3.1219
# 5 17.4284 55.0185 2.7044 5.9819 61.5771 33.5534
# 6 13.7886 37.4305 8.9619 -3.1219 33.5534 48.6752
#
#
#
# Elastic Compliance Matrix: (Units=1/GPa)
#
#
# Indices 1 2 3 4 5 6 
#
# 1 0.011869 -0.000293 -0.005677 -0.001850 -0.002344 -0.000594
# 2 -0.000293 0.008570 -0.001716 0.002938 -0.007228 -0.001020
# 3 -0.005677 -0.001716 0.014701 -0.007547 0.005399 -0.003985
# 4 -0.001850 0.002938 -0.007547 0.028342 -0.008529 0.007352
# 5 -0.002344 -0.007228 0.005399 -0.008529 0.034277 -0.018947
# 6 -0.000594 -0.001020 -0.003985 0.007352 -0.018947 0.035763
#
#
# Mechanical properties :
#
#
# Convention : Reuss Voigt Hill
#
# Bulk Modulus (GPa) = 50.59250 66.92330 58.75790
# Shear Modulus (GPa) = 32.15793 51.82312 41.99052
#
# Velocity S-wave (km/s) = 3.64003 4.62086 4.15946
# Velocity P-wave (km/s) = 6.20579 7.48625 6.87589
#
# Compressibility (1/GPa) = 0.01976578
#
# Stress axis : x y z
#
# Youngs Moduli (GPa) = 84.25593 116.69271 68.02311
#
# Poissons Ratio (x) = 0.03424 0.38620
# Poissons Ratio (y) = 0.02472 0.11671
# Poissons Ratio (z) = 0.47836 0.20021
#
# Static dielectric constant tensor:
#      x y z
#    x 4.821220 0.388340 0.143740 
#    y 0.388340 4.559770 0.341280 
#    z 0.143740 0.341280 4.870430 
# 
# 
# High freq. dielectric constant tensor:
#      x y z
#    x 1.987800 0.015030 0.000200 
#    y 0.015030 1.950900 0.025840 
#    z 0.000200 0.025840 1.979670 
# 
# From -- ./inp_files/359033.got.cif
#   From: 2010.06.25/outbox.cif.g09.slc.cpg/sg2_180_cif.got.tgz:359033.got - 2010.06.27 13:26:56.
