data_PCOD8044465
_publ_section_title
;
Structure prediction by ZEFSAII (Michael W. Deem and Ramdas Pophale) SiO2 
 PCOD8044465
Probable space group: P -1
;
_chemical_formula_sum "Si O2"
_cell_formula_units_Z 14
_cell_length_a 15.326775
_cell_length_b 10.624787
_cell_length_c 9.297389
_cell_angle_alpha 79.368450
_cell_angle_beta 115.246230
_cell_angle_gamma 46.104119
_cell_volume 667.203918
_symmetry_space_group_name_H-M "P -1"
_symmetry_group_IT_number 2
_symmetry_cell_setting 'triclinic'
loop_
_space_group_symop_operation_xyz
x,y,z
-x,-y,-z
loop_
_atom_site_type_symbol
_atom_site_label
_atom_site_fract_x
_atom_site_fract_y
_atom_site_fract_z
Si Si1 0.924504 0.328163 0.211929
Si Si2 0.313618 0.557145 0.785658
Si Si3 0.278607 0.886033 0.724625
Si Si4 0.190851 0.056534 0.924785
Si Si5 0.916892 0.238599 0.904961
Si Si6 0.634300 0.882247 0.983520
Si Si7 0.419936 0.338426 0.612898
O O1 0.866832 0.268904 0.275252
O O2 0.941419 0.269463 0.071666
O O3 0.756074 0.625585 0.057741
O O4 0.138052 0.125160 0.463669
O O5 0.320095 0.699588 0.726202
O O6 0.288230 0.513022 0.626022
O O7 0.515222 0.280257 0.066541
O O8 0.171693 0.993462 0.781111
O O9 0.388087 0.792719 0.208090
O O10 0.207621 0.186512 0.856880
O O11 0.011038 0.232108 0.863282
O O12 0.690007 0.497852 0.645423
O O13 0.000000 0.000000 0.000000
O O14 0.488010 0.109975 0.711120
O O15 0.500000 0.000000 0.000000
#
# Coordination Sequence:
#
# PCOD8044465 Si02
#       7
#     2   2   2   2   2   2   2
#     4  12  23  36  61  91 119 161 203 241 306 361
#     4  10  19  38  61  90 117 153 206 258 303 339
#     4  10  20  36  63  90 116 152 208 260 295 351
#     4   9  22  41  59  90 119 160 200 247 303 350
#     4  12  25  40  61  91 125 165 198 241 311 368
#     4  10  21  44  64  89 120 158 211 252 303 350
#     4   9  21  42  61  85 125 157 201 256 295 354
#
# _framework density 20.983090000000001
#
# number of rings (size 3 to 8) (size 9 to 14) (size 15 to 20)
#    0.857    0.857    1.429    3.000    0.000    3.429 
#    2.571    0.000    0.000    0.000    0.000    0.000 
#    0.000    0.000    0.000    0.000    0.000    0.000 
#
# Total GULP energy -173443.226736 kJ/mol
# GULP energy per Si atom -12388.801910 kJ/mol
# Density = 2.093533 g / cm^3
# Si number density = 20.983090 Si / 1000 Ang^3
#
#
#
# Elastic Constant Matrix: (Units=GPa)
#
#
# Indices 1 2 3 4 5 6 
#
# 1 60.0074 18.9278 -5.1986 0.6455 -3.8774 5.1025
# 2 18.9278 110.5196 39.3014 -0.1362 -1.9445 1.6679
# 3 -5.1986 39.3014 144.5995 4.2158 0.4455 7.5719
# 4 0.6455 -0.1362 4.2158 30.9896 6.5660 -8.6697
# 5 -3.8774 -1.9445 0.4455 6.5660 18.3830 -5.0057
# 6 5.1025 1.6679 7.5719 -8.6697 -5.0057 24.3064
#
#
#
# Elastic Compliance Matrix: (Units=1/GPa)
#
#
# Indices 1 2 3 4 5 6 
#
# 1 0.018655 -0.003786 0.002006 -0.002629 0.003182 -0.004563
# 2 -0.003786 0.010815 -0.003178 0.000857 0.000512 0.001454
# 3 0.002006 -0.003178 0.008098 -0.002076 -0.000330 -0.003534
# 4 -0.002629 0.000857 -0.002076 0.038411 -0.010692 0.012638
# 5 0.003182 0.000512 -0.000330 -0.010692 0.061179 0.008186
# 6 -0.004563 0.001454 -0.003534 0.012638 0.008186 0.049294
#
#
# Mechanical properties :
#
#
# Convention : Reuss Voigt Hill
#
# Bulk Modulus (GPa) = 36.16690 46.79863 41.48276
# Shear Modulus (GPa) = 24.32060 32.20885 28.26473
#
# Velocity S-wave (km/s) = 3.40819 3.92215 3.67416
# Velocity P-wave (km/s) = 5.72375 6.54694 6.14913
#
# Compressibility (1/GPa) = 0.02764959
#
# Stress axis : x y z
#
# Youngs Moduli (GPa) = 53.60612 92.46435 123.48395
#
# Poissons Ratio (x) = 0.35011 -0.24766
# Poissons Ratio (y) = 0.20297 0.39247
# Poissons Ratio (z) = -0.10751 0.29388
#
# Static dielectric constant tensor:
#      x y z
#    x 3.553170 -0.010110 0.149590 
#    y -0.010110 3.751260 -0.203820 
#    z 0.149590 -0.203820 3.849850 
# 
# 
# High freq. dielectric constant tensor:
#      x y z
#    x 1.798070 0.001480 0.014110 
#    y 0.001480 1.818460 -0.010280 
#    z 0.014110 -0.010280 1.821300 
# 
# From -- ./inp_files/331954.got.cif
#   From: 2010.06.25/outbox.cif.g09.slc.cpg/sg2_166_cif.got.tgz:331954.got - 2010.06.27 13:26:56.
