data_PCOD8044282
_publ_section_title
;
Structure prediction by ZEFSAII (Michael W. Deem and Ramdas Pophale) SiO2 
 PCOD8044282
Probable space group: P -1
;
_chemical_formula_sum "Si O2"
_cell_formula_units_Z 16
_cell_length_a 11.777942
_cell_length_b 9.584354
_cell_length_c 12.248345
_cell_angle_alpha 131.181925
_cell_angle_beta 93.204292
_cell_angle_gamma 56.899806
_cell_volume 763.945346
_symmetry_space_group_name_H-M "P -1"
_symmetry_group_IT_number 2
_symmetry_cell_setting 'triclinic'
loop_
_space_group_symop_operation_xyz
x,y,z
-x,-y,-z
loop_
_atom_site_type_symbol
_atom_site_label
_atom_site_fract_x
_atom_site_fract_y
_atom_site_fract_z
Si Si1 0.429631 0.499165 0.250588
Si Si2 0.104439 0.796403 0.490253
Si Si3 0.369810 0.351027 0.957777
Si Si4 0.082229 0.355086 0.541642
Si Si5 0.380201 0.017419 0.933737
Si Si6 0.564260 0.104330 0.626659
Si Si7 0.041420 0.404830 0.133070
Si Si8 0.015724 0.765883 0.156743
O O1 0.277271 0.591906 0.350099
O O2 0.568485 0.256492 0.206627
O O3 0.432876 0.719310 0.362128
O O4 0.449905 0.392341 0.074672
O O5 0.030032 0.681337 0.443644
O O6 0.000000 0.000000 0.500000
O O7 0.087989 0.938647 0.671552
O O8 0.449749 0.282465 0.810093
O O9 0.372203 0.126900 0.870890
O O10 0.195532 0.618659 0.081533
O O11 0.000000 0.500000 0.500000
O O12 0.064207 0.519538 0.726654
O O13 0.265964 0.112179 0.420148
O O14 0.500000 0.000000 0.000000
O O15 0.216851 0.227323 0.092053
O O16 0.500000 0.000000 0.500000
O O17 0.982453 0.649540 0.188535
O O18 0.038903 0.232910 0.964616
#
# Coordination Sequence:
#
# PCOD8044282 Si02
#       8
#     2   2   2   2   2   2   2   2
#     4  11  22  40  68  93 124 167 216 263 305 391
#     4  12  20  42  68  94 119 163 229 261 308 384
#     4  10  20  38  64  91 124 162 209 260 322 376
#     4  12  26  42  67  96 130 172 213 272 322 379
#     4   9  20  36  63  92 119 162 207 268 308 374
#     4  12  26  43  62  94 136 173 208 263 329 383
#     4  10  20  39  62  94 125 163 211 261 323 375
#     4  10  19  37  68  92 121 163 214 267 309 378
#
# _framework density 20.943908
#
# number of rings (size 3 to 8) (size 9 to 14) (size 15 to 20)
#    0.000    1.250    3.750    2.625    5.250    2.000 
#    2.250    1.875    0.000    0.000    0.000    0.000 
#    0.000    0.000    0.000    0.000    0.000    0.000 
#
# Total GULP energy -198237.628743 kJ/mol
# GULP energy per Si atom -12389.851796 kJ/mol
# Density = 2.089624 g / cm^3
# Si number density = 20.943908 Si / 1000 Ang^3
#
#
#
# Elastic Constant Matrix: (Units=GPa)
#
#
# Indices 1 2 3 4 5 6 
#
# 1 69.0701 24.8014 22.8644 -1.8728 4.0557 8.9004
# 2 24.8014 86.8294 25.1647 5.1391 -1.3791 2.5001
# 3 22.8644 25.1647 114.7913 -17.5922 1.7662 -1.7086
# 4 -1.8728 5.1391 -17.5922 33.3671 2.8188 -0.0118
# 5 4.0557 -1.3791 1.7662 2.8188 34.6097 -1.1957
# 6 8.9004 2.5001 -1.7086 -0.0118 -1.1957 24.9432
#
#
#
# Elastic Compliance Matrix: (Units=1/GPa)
#
#
# Indices 1 2 3 4 5 6 
#
# 1 0.017810 -0.004218 -0.002606 0.000474 -0.002376 -0.006224
# 2 -0.004218 0.013797 -0.002817 -0.003975 0.001512 0.000000
# 3 -0.002606 -0.002817 0.010817 0.006058 -0.000786 0.001918
# 4 0.000474 -0.003975 0.006058 0.034080 -0.003281 0.000503
# 5 -0.002376 0.001512 -0.000786 -0.003281 0.029611 0.002060
# 6 -0.006224 0.000000 0.001918 0.000503 0.002060 0.042543
#
#
# Mechanical properties :
#
#
# Convention : Reuss Voigt Hill
#
# Bulk Modulus (GPa) = 43.21208 46.26130 44.73669
# Shear Modulus (GPa) = 28.46507 31.77470 30.11988
#
# Velocity S-wave (km/s) = 3.69061 3.89926 3.79637
# Velocity P-wave (km/s) = 6.23200 6.51218 6.37363
#
# Compressibility (1/GPa) = 0.02314168
#
# Stress axis : x y z
#
# Youngs Moduli (GPa) = 56.14851 72.47756 92.44630
#
# Poissons Ratio (x) = 0.30574 0.24093
# Poissons Ratio (y) = 0.23685 0.26041
# Poissons Ratio (z) = 0.14633 0.20416
#
# Static dielectric constant tensor:
#      x y z
#    x 3.798730 -0.079040 0.048730 
#    y -0.079040 3.961920 0.127290 
#    z 0.048730 0.127290 3.957940 
# 
# 
# High freq. dielectric constant tensor:
#      x y z
#    x 1.811950 -0.006510 -0.008320 
#    y -0.006510 1.804080 0.005460 
#    z -0.008320 0.005460 1.830310 
# 
# From -- ./inp_files/251877.got.cif
#   From: 2010.06.25/outbox.cif.g09.slc.cpg/sg2_126_cif.got.tgz:251877.got - 2010.06.27 13:26:56.
