data_PCOD8044881
_publ_section_title
;
Structure prediction by ZEFSAII (Michael W. Deem and Ramdas Pophale) SiO2 
 PCOD8044881
Probable space group: P 2
;
_chemical_formula_sum "Si O2"
_cell_formula_units_Z 15
_cell_length_a 8.674342
_cell_length_b 7.730595
_cell_length_c 11.212374
_cell_angle_alpha 90.000000
_cell_angle_beta 79.642199
_cell_angle_gamma 90.000000
_cell_volume 739.624937
_symmetry_space_group_name_H-M "P 2"
_symmetry_group_IT_number 3
_symmetry_cell_setting 'monoclinic'
loop_
_space_group_symop_operation_xyz
x,y,z
-x,y,-z
loop_
_atom_site_type_symbol
_atom_site_label
_atom_site_fract_x
_atom_site_fract_y
_atom_site_fract_z
Si Si1 0.500000 0.922010 0.000000
Si Si2 0.341155 0.333008 0.703118
Si Si3 0.587911 0.641087 0.663505
Si Si4 0.151974 0.551960 0.557464
Si Si5 0.100831 0.756729 0.791077
Si Si6 0.240700 0.681308 0.119754
Si Si7 0.395978 0.973558 0.760310
Si Si8 0.833294 0.429686 0.057797
O O1 0.349898 0.801813 0.027615
O O2 0.525132 0.023492 0.121465
O O3 0.474694 0.476758 0.682186
O O4 0.207550 0.381757 0.624455
O O5 0.271407 0.302389 0.847927
O O6 0.410804 0.140976 0.671162
O O7 0.697567 0.627206 0.533058
O O8 0.703970 0.635538 0.757395
O O9 0.487440 0.817228 0.681751
O O10 0.101527 0.705949 0.651789
O O11 0.000000 0.499292 0.500000
O O12 0.212377 0.921335 0.798725
O O13 0.161734 0.598252 0.859884
O O14 0.922078 0.788469 0.855141
O O15 0.238392 0.492940 0.057145
O O16 0.000000 0.344988 0.000000
#
# Coordination Sequence:
#
# PCOD8044881 Si02
#       8
#     1   2   2   2   2   2   2   2
#     4  10  20  36  58  98 136 160 206 256 310 388
#     4  11  24  42  63  95 127 168 214 260 321 381
#     4  11  22  41  67  92 127 167 208 266 323 377
#     4  11  22  44  67  89 121 169 217 269 318 367
#     4  10  19  38  63  89 124 165 210 256 312 372
#     4  10  18  34  67  94 123 170 210 253 316 381
#     4  11  23  41  64  98 131 169 211 260 320 388
#     4   9  17  34  60  90 122 162 205 252 309 365
#
# _framework density 20.280549000000001
#
# number of rings (size 3 to 8) (size 9 to 14) (size 15 to 20)
#    0.000    1.600    5.333    1.200    0.000    1.067 
#    7.200    3.333    0.000    0.000    0.000    0.000 
#    0.000    0.000    0.000    0.000    0.000    0.000 
#
# Total GULP energy -185868.026143 kJ/mol
# GULP energy per Si atom -12391.201743 kJ/mol
# Density = 2.023439 g / cm^3
# Si number density = 20.280549 Si / 1000 Ang^3
#
#
#
# Elastic Constant Matrix: (Units=GPa)
#
#
# Indices 1 2 3 4 5 6 
#
# 1 112.0793 42.8145 29.1841 0.0000 -2.3945 0.0000
# 2 42.8145 98.1766 25.9699 0.0000 2.3099 0.0000
# 3 29.1841 25.9699 81.5979 0.0000 -12.6055 0.0000
# 4 0.0000 0.0000 0.0000 15.0408 0.0000 6.2623
# 5 -2.3945 2.3099 -12.6055 0.0000 42.0902 0.0000
# 6 0.0000 0.0000 0.0000 6.2623 0.0000 11.2891
#
#
#
# Elastic Compliance Matrix: (Units=1/GPa)
#
#
# Indices 1 2 3 4 5 6 
#
# 1 0.011218 -0.004188 -0.002669 0.000000 0.000069 0.000000
# 2 -0.004188 0.012810 -0.002857 0.000000 -0.001797 0.000000
# 3 -0.002669 -0.002857 0.014805 0.000000 0.004439 0.000000
# 4 0.000000 0.000000 0.000000 0.086453 0.000000 -0.047957
# 5 0.000069 -0.001797 0.004439 0.000000 0.025190 0.000000
# 6 0.000000 0.000000 0.000000 -0.047957 0.000000 0.115183
#
#
# Mechanical properties :
#
#
# Convention : Reuss Voigt Hill
#
# Bulk Modulus (GPa) = 51.53032 54.19898 52.86465
# Shear Modulus (GPa) = 17.14942 26.60972 21.87957
#
# Velocity S-wave (km/s) = 2.91109 3.62620 3.28814
# Velocity P-wave (km/s) = 6.06326 6.65695 6.36703
#
# Compressibility (1/GPa) = 0.01940605
#
# Stress axis : x y z
#
# Youngs Moduli (GPa) = 89.13866 78.06375 67.54627
#
# Poissons Ratio (x) = 0.32693 0.18027
# Poissons Ratio (y) = 0.37331 0.19296
# Poissons Ratio (z) = 0.23790 0.22301
#
# Static dielectric constant tensor:
#      x y z
#    x 4.018240 0.000000 -0.112580 
#    y 0.000000 3.320000 0.000000 
#    z -0.112580 0.000000 4.102800 
# 
# 
# High freq. dielectric constant tensor:
#      x y z
#    x 1.805390 0.000000 -0.000370 
#    y 0.000000 1.749430 0.000000 
#    z -0.000370 0.000000 1.807140 
# 
# From -- ./inp_files/10429.got.cif
#   From: 2010.03.12/outbox.cif.g09.slc.cpg/sg3_6_cif.got.tgz:10429.got - 2010.03.31 09:20:49.
