data_PCOD8044679
_publ_section_title
;
Structure prediction by ZEFSAII (Michael W. Deem and Ramdas Pophale) SiO2 
 PCOD8044679
Probable space group: P -1
;
_chemical_formula_sum "Si O2"
_cell_formula_units_Z 14
_cell_length_a 7.778665
_cell_length_b 7.506868
_cell_length_c 9.049993
_cell_angle_alpha 97.560394
_cell_angle_beta 104.746357
_cell_angle_gamma 97.751055
_cell_volume 498.737125
_symmetry_space_group_name_H-M "P -1"
_symmetry_group_IT_number 2
_symmetry_cell_setting 'triclinic'
loop_
_space_group_symop_operation_xyz
x,y,z
-x,-y,-z
loop_
_atom_site_type_symbol
_atom_site_label
_atom_site_fract_x
_atom_site_fract_y
_atom_site_fract_z
Si Si1 0.013781 0.548799 0.180450
Si Si2 0.636833 0.569432 0.711881
Si Si3 0.711688 0.672562 0.416451
Si Si4 0.596764 0.029011 0.368118
Si Si5 0.944862 0.933101 0.206789
Si Si6 0.722926 0.941866 0.900193
Si Si7 0.921897 0.287771 0.381927
O O1 0.925613 0.723033 0.237080
O O2 0.901996 0.378752 0.228842
O O3 0.225532 0.575677 0.277716
O O4 0.000000 0.500000 0.000000
O O5 0.628052 0.675170 0.564814
O O6 0.438006 0.475380 0.714971
O O7 0.720871 0.725743 0.861113
O O8 0.909239 0.604036 0.466040
O O9 0.720695 0.870078 0.360076
O O10 0.461762 0.006930 0.196895
O O11 0.727693 0.228723 0.413377
O O12 0.500000 0.000000 0.500000
O O13 0.998561 0.096349 0.353722
O O14 0.762908 0.973691 0.087632
O O15 0.111716 0.934178 0.132494
#
# Coordination Sequence:
#
# PCOD8044679 Si02
#       7
#     2   2   2   2   2   2   2
#     4  11  20  40  73 104 138 187 220 280 350 409
#     4  10  19  38  65 105 138 176 231 276 333 426
#     4  10  21  40  65  96 141 177 222 290 340 404
#     4  12  24  44  70  94 136 190 233 286 353 400
#     4  11  21  42  71 101 139 180 226 285 349 405
#     4  11  21  40  69 103 136 180 234 275 341 425
#     4  11  25  45  65 107 141 173 241 287 332 424
#
# _framework density 28.070899000000001
#
# number of rings (size 3 to 8) (size 9 to 14) (size 15 to 20)
#    0.000    1.143    5.714    2.143    0.000    0.571 
#    5.143    1.429    0.000    0.000    0.000    0.000 
#    0.000    0.000    0.000    0.000    0.000    0.000 
#
# Total GULP energy -173548.128847 kJ/mol
# GULP energy per Si atom -12396.294918 kJ/mol
# Density = 2.800701 g / cm^3
# Si number density = 28.070899 Si / 1000 Ang^3
#
#
#
# Elastic Constant Matrix: (Units=GPa)
#
#
# Indices 1 2 3 4 5 6 
#
# 1 124.3118 43.5002 37.7973 -22.4007 34.8485 17.2327
# 2 43.5002 111.5229 26.5263 -28.0406 9.9195 20.0470
# 3 37.7973 26.5263 114.3754 -25.9934 33.7521 13.2845
# 4 -22.4007 -28.0406 -25.9934 42.9867 -3.4484 3.4650
# 5 34.8485 9.9195 33.7521 -3.4484 50.5507 4.8813
# 6 17.2327 20.0470 13.2845 3.4650 4.8813 67.3674
#
#
#
# Elastic Compliance Matrix: (Units=1/GPa)
#
#
# Indices 1 2 3 4 5 6 
#
# 1 0.012036 -0.002656 -0.000063 0.004076 -0.007267 -0.001959
# 2 -0.002656 0.012338 -0.000112 0.006888 0.000278 -0.003344
# 3 -0.000063 -0.000112 0.013073 0.007351 -0.007937 -0.002332
# 4 0.004076 0.006888 0.007351 0.034303 -0.006164 -0.005860
# 5 -0.007267 0.000278 -0.007937 -0.006164 0.029469 0.001523
# 6 -0.001959 -0.003344 -0.002332 -0.005860 0.001523 0.016991
#
#
# Mechanical properties :
#
#
# Convention : Reuss Voigt Hill
#
# Bulk Modulus (GPa) = 31.46115 62.87308 47.16712
# Shear Modulus (GPa) = 37.18346 48.34005 42.76176
#
# Velocity S-wave (km/s) = 3.64349 4.15429 3.90724
# Velocity P-wave (km/s) = 5.37886 6.74221 6.09875
#
# Compressibility (1/GPa) = 0.03178524
#
# Stress axis : x y z
#
# Youngs Moduli (GPa) = 83.08236 81.05128 76.49073
#
# Poissons Ratio (x) = 0.21530 0.00483
# Poissons Ratio (y) = 0.22070 0.00854
# Poissons Ratio (z) = 0.00525 0.00905
#
# Static dielectric constant tensor:
#      x y z
#    x 5.082740 0.033910 0.243560 
#    y 0.033910 5.437710 -0.087730 
#    z 0.243560 -0.087730 5.067490 
# 
# 
# High freq. dielectric constant tensor:
#      x y z
#    x 2.142470 0.002000 0.007300 
#    y 0.002000 2.156850 -0.010610 
#    z 0.007300 -0.010610 2.131230 
# 
# From -- ./inp_files/376497.got.cif
#   From: 2010.06.25/outbox.cif.g09.slc.cpg/sg2_189_cif.got.tgz:376497.got - 2010.06.27 13:26:56.
