data_PCOD8044483
_publ_section_title
;
Structure prediction by ZEFSAII (Michael W. Deem and Ramdas Pophale) SiO2 
 PCOD8044483
Probable space group: P -1
;
_chemical_formula_sum "Si O2"
_cell_formula_units_Z 16
_cell_length_a 8.308750
_cell_length_b 8.775154
_cell_length_c 17.825248
_cell_angle_alpha 88.688749
_cell_angle_beta 57.438462
_cell_angle_gamma 51.357089
_cell_volume 752.492526
_symmetry_space_group_name_H-M "P -1"
_symmetry_group_IT_number 2
_symmetry_cell_setting 'triclinic'
loop_
_space_group_symop_operation_xyz
x,y,z
-x,-y,-z
loop_
_atom_site_type_symbol
_atom_site_label
_atom_site_fract_x
_atom_site_fract_y
_atom_site_fract_z
Si Si1 0.256745 0.959465 0.355886
Si Si2 0.973961 0.161907 0.278373
Si Si3 0.314410 0.203562 0.099261
Si Si4 0.025916 0.193618 0.559360
Si Si5 0.246461 0.938197 0.894497
Si Si6 0.159482 0.088071 0.689802
Si Si7 0.495718 0.325698 0.316459
Si Si8 0.868230 0.696514 0.173199
O O1 0.033031 0.162251 0.351306
O O2 0.187267 0.823809 0.388265
O O3 0.566571 0.791864 0.247291
O O4 0.233170 0.065942 0.438548
O O5 0.051214 0.936252 0.247934
O O6 0.145573 0.176996 0.186654
O O7 0.651360 0.362606 0.330229
O O8 0.108833 0.432650 0.099835
O O9 0.502184 0.189231 0.109406
O O10 0.500000 0.000000 0.000000
O O11 0.206170 0.099838 0.590929
O O12 0.831129 0.455657 0.605402
O O13 0.132037 0.166502 0.888752
O O14 0.361750 0.763402 0.800820
O O15 0.000000 0.000000 0.000000
O O16 0.050080 0.292699 0.763528
O O17 0.458618 0.866346 0.653545
#
# Coordination Sequence:
#
# PCOD8044483 Si02
#       8
#     2   2   2   2   2   2   2   2
#     4  10  21  37  62  92 128 162 209 252 309 365
#     4   9  19  40  59  88 127 159 208 255 299 368
#     4  12  25  41  65  96 120 160 211 256 314 374
#     4  10  19  38  61  93 124 167 207 252 308 364
#     4  11  24  44  65  93 125 161 208 257 314 378
#     4   8  20  38  59  87 121 164 206 246 302 367
#     4   9  19  38  62  85 126 163 201 255 305 355
#     4  11  23  44  65  89 129 165 200 263 309 364
#
# _framework density 21.262671999999998
#
# number of rings (size 3 to 8) (size 9 to 14) (size 15 to 20)
#    0.750    1.250    1.250    2.250    0.000    2.000 
#    6.750    2.500    0.000    0.000    0.000    0.000 
#    0.000    0.000    0.000    0.000    0.000    0.000 
#
# Total GULP energy -198221.823237 kJ/mol
# GULP energy per Si atom -12388.863952 kJ/mol
# Density = 2.121428 g / cm^3
# Si number density = 21.262672 Si / 1000 Ang^3
#
#
#
# Elastic Constant Matrix: (Units=GPa)
#
#
# Indices 1 2 3 4 5 6 
#
# 1 59.2280 17.8284 8.7926 -8.1655 1.8839 -13.4122
# 2 17.8284 106.4938 52.8520 6.0402 -1.5507 -15.9691
# 3 8.7926 52.8520 58.3441 7.3051 6.7122 -12.7809
# 4 -8.1655 6.0402 7.3051 30.3052 0.0488 1.2848
# 5 1.8839 -1.5507 6.7122 0.0488 32.1227 -8.9050
# 6 -13.4122 -15.9691 -12.7809 1.2848 -8.9050 32.5932
#
#
#
# Elastic Compliance Matrix: (Units=1/GPa)
#
#
# Indices 1 2 3 4 5 6 
#
# 1 0.019988 -0.002718 0.000199 0.005586 0.000561 0.006904
# 2 -0.002718 0.018425 -0.016138 -0.000652 0.005266 0.003045
# 3 0.000199 -0.016138 0.033990 -0.005075 -0.006821 0.003840
# 4 0.005586 -0.000652 -0.005075 0.035913 0.000272 -0.001352
# 5 0.000561 0.005266 -0.006821 0.000272 0.035500 0.009825
# 6 0.006904 0.003045 0.003840 -0.001352 0.009825 0.039258
#
#
# Mechanical properties :
#
#
# Convention : Reuss Voigt Hill
#
# Bulk Modulus (GPa) = 28.49968 42.55688 35.52828
# Shear Modulus (GPa) = 21.54386 28.64373 25.09380
#
# Velocity S-wave (km/s) = 3.18657 3.67432 3.43910
# Velocity P-wave (km/s) = 5.19343 6.16921 5.70223
#
# Compressibility (1/GPa) = 0.03508812
#
# Stress axis : x y z
#
# Youngs Moduli (GPa) = 50.02893 54.27525 29.42057
#
# Poissons Ratio (x) = 0.14753 -0.00584
# Poissons Ratio (y) = 0.13599 0.47478
# Poissons Ratio (z) = -0.00994 0.87588
#
# Static dielectric constant tensor:
#      x y z
#    x 4.047550 -0.186730 0.064970 
#    y -0.186730 3.887640 -0.129270 
#    z 0.064970 -0.129270 3.685110 
# 
# 
# High freq. dielectric constant tensor:
#      x y z
#    x 1.844400 -0.007170 0.007730 
#    y -0.007170 1.832590 -0.017090 
#    z 0.007730 -0.017090 1.808100 
# 
# From -- ./inp_files/556217.got.cif
#   From: 2010.06.25/outbox.cif.g09.slc.cpg/sg2_279_cif.got.tgz:556217.got - 2010.06.27 13:26:56.
