data_PCOD8044286
_publ_section_title
;
Structure prediction by ZEFSAII (Michael W. Deem and Ramdas Pophale) SiO2 
 PCOD8044286
Probable space group: P -1
;
_chemical_formula_sum "Si O2"
_cell_formula_units_Z 16
_cell_length_a 18.093382
_cell_length_b 16.371064
_cell_length_c 5.346624
_cell_angle_alpha 87.477358
_cell_angle_beta 88.685121
_cell_angle_gamma 23.750466
_cell_volume 636.636582
_symmetry_space_group_name_H-M "P -1"
_symmetry_group_IT_number 2
_symmetry_cell_setting 'triclinic'
loop_
_space_group_symop_operation_xyz
x,y,z
-x,-y,-z
loop_
_atom_site_type_symbol
_atom_site_label
_atom_site_fract_x
_atom_site_fract_y
_atom_site_fract_z
Si Si1 0.528362 0.700434 0.830501
Si Si2 0.694228 0.805327 0.882090
Si Si3 0.850529 0.588655 0.409827
Si Si4 0.218461 0.103453 0.061615
Si Si5 0.074892 0.643185 0.320989
Si Si6 0.218656 0.960169 0.470339
Si Si7 0.343080 0.591225 0.967430
Si Si8 0.282803 0.713385 0.454818
O O1 0.721110 0.540406 0.747940
O O2 0.418191 0.767810 0.606856
O O3 0.569052 0.588191 0.048481
O O4 0.405060 0.899951 0.913424
O O5 0.814669 0.643276 0.115526
O O6 0.756731 0.835271 0.808514
O O7 0.694345 0.756769 0.621433
O O8 0.500000 0.000000 0.000000
O O9 0.914191 0.429259 0.430982
O O10 0.000000 0.500000 0.500000
O O11 0.033389 0.298662 0.888472
O O12 0.201392 0.040768 0.237789
O O13 0.951820 0.847645 0.358065
O O14 0.193738 0.892388 0.393652
O O15 0.227190 0.713559 0.220225
O O16 0.500000 0.500000 0.000000
O O17 0.213689 0.741452 0.716415
O O18 0.500000 0.500000 0.500000
#
# Coordination Sequence:
#
# PCOD8044286 Si02
#       8
#     2   2   2   2   2   2   2   2
#     4  11  24  43  69  98 136 182 226 288 343 414
#     4  12  27  45  74 104 135 182 238 284 342 416
#     4  12  25  48  71  97 142 185 225 287 349 407
#     4  11  25  44  68  99 138 181 227 288 346 411
#     4  11  27  44  66 102 139 180 231 283 350 410
#     4  11  24  42  70  97 137 179 229 284 345 413
#     4  10  19  38  66  96 129 177 228 272 345 404
#     4  10  19  37  68  95 129 178 225 278 339 404
#
# _framework density 25.132078
#
# number of rings (size 3 to 8) (size 9 to 14) (size 15 to 20)
#    0.000    1.000    3.750    3.750    7.000    1.000 
#    0.000    1.250    0.000    0.000    0.000    0.000 
#    0.000    0.000    0.000    0.000    0.000    0.000 
#
# Total GULP energy -198279.748863 kJ/mol
# GULP energy per Si atom -12392.484304 kJ/mol
# Density = 2.507488 g / cm^3
# Si number density = 25.132078 Si / 1000 Ang^3
#
#
#
# Elastic Constant Matrix: (Units=GPa)
#
#
# Indices 1 2 3 4 5 6 
#
# 1 54.2529 38.3762 11.2057 -15.2108 -13.2174 14.4165
# 2 38.3762 106.0000 22.6410 -1.1858 -2.6900 1.6597
# 3 11.2057 22.6410 138.4127 -8.6266 -9.1630 18.2068
# 4 -15.2108 -1.1858 -8.6266 34.2179 18.5922 -12.9500
# 5 -13.2174 -2.6900 -9.1630 18.5922 37.1062 2.5426
# 6 14.4165 1.6597 18.2068 -12.9500 2.5426 50.8309
#
#
#
# Elastic Compliance Matrix: (Units=1/GPa)
#
#
# Indices 1 2 3 4 5 6 
#
# 1 0.032376 -0.011589 0.001280 0.006937 0.008074 -0.007899
# 2 -0.011589 0.013931 -0.002069 -0.002704 -0.002480 0.003008
# 3 0.001280 -0.002069 0.008063 -0.000154 0.002604 -0.003353
# 4 0.006937 -0.002704 -0.000154 0.049347 -0.023305 0.011914
# 5 0.008074 -0.002480 0.002604 -0.023305 0.042735 -0.011217
# 6 -0.007899 0.003008 -0.003353 0.011914 -0.011217 0.026613
#
#
# Mechanical properties :
#
#
# Convention : Reuss Voigt Hill
#
# Bulk Modulus (GPa) = 33.76546 49.23462 41.50004
# Shear Modulus (GPa) = 24.07416 39.52718 31.80067
#
# Velocity S-wave (km/s) = 3.09836 3.97013 3.56102
# Velocity P-wave (km/s) = 5.12486 6.37564 5.78416
#
# Compressibility (1/GPa) = 0.02961606
#
# Stress axis : x y z
#
# Youngs Moduli (GPa) = 30.88705 71.78146 124.01661
#
# Poissons Ratio (x) = 0.83185 -0.15880
# Poissons Ratio (y) = 0.35794 0.25659
# Poissons Ratio (z) = -0.03955 0.14852
#
# Static dielectric constant tensor:
#      x y z
#    x 4.355100 0.401260 0.139570 
#    y 0.401260 4.938640 0.573000 
#    z 0.139570 0.573000 4.515370 
# 
# 
# High freq. dielectric constant tensor:
#      x y z
#    x 1.987440 0.021680 -0.012840 
#    y 0.021680 2.010840 0.006200 
#    z -0.012840 0.006200 2.009100 
# 
# From -- ./inp_files/120043.got.cif
#   From: 2010.06.25/outbox.cif.g09.slc.cpg/sg2_61_cif.got.tgz:120043.got - 2010.06.27 13:26:56.
