data_PCOD8044717
_publ_section_title
;
Structure prediction by ZEFSAII (Michael W. Deem and Ramdas Pophale) SiO2 
 PCOD8044717
Probable space group: P -1
;
_chemical_formula_sum "Si O2"
_cell_formula_units_Z 16
_cell_length_a 11.737177
_cell_length_b 17.650329
_cell_length_c 10.650323
_cell_angle_alpha 130.695214
_cell_angle_beta 67.390102
_cell_angle_gamma 150.294959
_cell_volume 725.328931
_symmetry_space_group_name_H-M "P -1"
_symmetry_group_IT_number 2
_symmetry_cell_setting 'triclinic'
loop_
_space_group_symop_operation_xyz
x,y,z
-x,-y,-z
loop_
_atom_site_type_symbol
_atom_site_label
_atom_site_fract_x
_atom_site_fract_y
_atom_site_fract_z
Si Si1 0.751572 0.299902 0.723133
Si Si2 0.335767 0.797982 0.634863
Si Si3 0.297825 0.128513 0.786824
Si Si4 0.822911 0.530483 0.625942
Si Si5 0.133141 0.732568 0.119132
Si Si6 0.303923 0.452788 0.801000
Si Si7 0.777890 0.644826 0.537226
Si Si8 0.546933 0.621168 0.210346
O O1 0.735999 0.247494 0.532097
O O2 0.487309 0.169304 0.732805
O O3 0.782288 0.231940 0.735173
O O4 0.014880 0.554984 0.901002
O O5 0.349925 0.693298 0.561443
O O6 0.123035 0.709282 0.708662
O O7 0.612165 0.044856 0.819289
O O8 0.269246 0.163915 0.701388
O O9 0.421324 0.294675 0.014216
O O10 0.017082 0.895086 0.707778
O O11 0.798557 0.584328 0.576507
O O12 0.720869 0.515563 0.777322
O O13 0.914892 0.663301 0.136181
O O14 0.210868 0.411390 0.655635
O O15 0.322639 0.344710 0.690874
O O16 0.500000 0.500000 0.500000
O O17 0.500000 0.500000 0.000000
#
# Coordination Sequence:
#
# PCOD8044717 Si02
#       8
#     2   2   2   2   2   2   2   2
#     4  10  19  38  65  94 127 158 214 259 308 382
#     4  11  22  40  65  88 135 166 201 266 319 372
#     4  10  22  40  67  89 122 169 209 256 317 367
#     4  11  24  42  62  96 130 169 212 255 326 371
#     4  10  21  36  65 100 119 166 213 255 317 374
#     4  10  22  40  64  92 127 160 214 261 307 377
#     4  12  24  40  61  92 131 164 209 262 309 378
#     4  10  21  43  68  90 123 171 216 258 306 383
#
# _framework density 22.058955999999998
#
# number of rings (size 3 to 8) (size 9 to 14) (size 15 to 20)
#    0.000    1.500    2.500    2.625    0.000    2.000 
#    0.000    3.750    0.000    0.000    0.000    0.000 
#    0.000    0.000    0.000    0.000    0.000    0.000 
#
# Total GULP energy -198338.554672 kJ/mol
# GULP energy per Si atom -12396.159667 kJ/mol
# Density = 2.200875 g / cm^3
# Si number density = 22.058956 Si / 1000 Ang^3
#
#
#
# Elastic Constant Matrix: (Units=GPa)
#
#
# Indices 1 2 3 4 5 6 
#
# 1 107.8186 57.6275 31.3382 14.9479 -18.5157 2.2489
# 2 57.6275 123.5393 54.3577 32.6130 -10.3733 1.6113
# 3 31.3382 54.3577 79.5017 24.7043 -1.6150 -4.3406
# 4 14.9479 32.6130 24.7043 47.5263 -0.1987 -2.3738
# 5 -18.5157 -10.3733 -1.6150 -0.1987 21.3118 -6.7803
# 6 2.2489 1.6113 -4.3406 -2.3738 -6.7803 36.6339
#
#
#
# Elastic Compliance Matrix: (Units=1/GPa)
#
#
# Indices 1 2 3 4 5 6 
#
# 1 0.014189 -0.004922 -0.001980 0.000035 0.010094 0.000981
# 2 -0.004922 0.014880 -0.006614 -0.005271 0.002068 -0.001095
# 3 -0.001980 -0.006614 0.019433 -0.004860 -0.002920 0.001860
# 4 0.000035 -0.005271 -0.004860 0.027212 -0.002336 0.000985
# 5 0.010094 0.002068 -0.002920 -0.002336 0.059580 0.009819
# 6 0.000981 -0.001095 0.001860 0.000985 0.009819 0.029387
#
#
# Mechanical properties :
#
#
# Convention : Reuss Voigt Hill
#
# Bulk Modulus (GPa) = 46.57494 66.38960 56.48227
# Shear Modulus (GPa) = 25.14215 32.26350 28.70282
#
# Velocity S-wave (km/s) = 3.37971 3.82855 3.61111
# Velocity P-wave (km/s) = 6.03238 7.05021 6.56106
#
# Compressibility (1/GPa) = 0.02147077
#
# Stress axis : x y z
#
# Youngs Moduli (GPa) = 70.47539 67.20435 51.45883
#
# Poissons Ratio (x) = 0.33079 0.10189
# Poissons Ratio (y) = 0.34689 0.34032
# Poissons Ratio (z) = 0.13955 0.44446
#
# Static dielectric constant tensor:
#      x y z
#    x 4.882760 -0.127020 0.074920 
#    y -0.127020 4.116940 -0.021150 
#    z 0.074920 -0.021150 3.854460 
# 
# 
# High freq. dielectric constant tensor:
#      x y z
#    x 1.883880 -0.003860 -0.005830 
#    y -0.003860 1.868980 0.000910 
#    z -0.005830 0.000910 1.847600 
# 
# From -- ./inp_files/436875.got.cif
#   From: 2010.06.25/outbox.cif.g09.slc.cpg/sg2_219_cif.got.tgz:436875.got - 2010.06.27 13:26:56.
