data_PCOD8044720
_publ_section_title
;
Structure prediction by ZEFSAII (Michael W. Deem and Ramdas Pophale) SiO2 
 PCOD8044720
Probable space group: P -1
;
_chemical_formula_sum "Si O2"
_cell_formula_units_Z 14
_cell_length_a 8.907695
_cell_length_b 14.881756
_cell_length_c 9.823726
_cell_angle_alpha 140.637748
_cell_angle_beta 80.736351
_cell_angle_gamma 122.683990
_cell_volume 609.610051
_symmetry_space_group_name_H-M "P -1"
_symmetry_group_IT_number 2
_symmetry_cell_setting 'triclinic'
loop_
_space_group_symop_operation_xyz
x,y,z
-x,-y,-z
loop_
_atom_site_type_symbol
_atom_site_label
_atom_site_fract_x
_atom_site_fract_y
_atom_site_fract_z
Si Si1 0.675383 0.573918 0.160008
Si Si2 0.307191 0.854238 0.266477
Si Si3 0.192510 0.017046 0.004596
Si Si4 0.332464 0.125481 0.416317
Si Si5 0.569972 0.322621 0.129279
Si Si6 0.206147 0.603407 0.219532
Si Si7 0.013258 0.405087 0.512059
O O1 0.767227 0.779978 0.438973
O O2 0.558741 0.416279 0.110375
O O3 0.500000 0.500000 0.000000
O O4 0.834216 0.575560 0.053920
O O5 0.161154 0.685005 0.196999
O O6 0.500000 0.000000 0.500000
O O7 0.215315 0.942577 0.319050
O O8 0.374532 0.802509 0.067040
O O9 0.132624 0.821161 0.738215
O O10 0.292065 0.063186 0.192499
O O11 0.357767 0.189044 0.082425
O O12 0.000000 0.000000 0.000000
O O13 0.571735 0.258242 0.576811
O O14 0.751934 0.498819 0.402199
O O15 0.036753 0.532571 0.273283
O O16 0.000000 0.500000 0.500000
#
# Coordination Sequence:
#
# PCOD8044720 Si02
#       7
#     2   2   2   2   2   2   2
#     4   9  20  38  66  96 128 172 215 264 324 381
#     4   9  18  36  66  96 128 168 212 266 325 380
#     4  12  27  44  65  95 132 175 219 263 322 388
#     4  10  19  38  65  96 132 169 213 271 322 372
#     4  11  24  44  65  92 134 173 213 271 323 376
#     4   9  20  39  65  96 128 167 215 263 325 389
#     4  12  26  43  68  99 129 172 221 262 317 390
#
# _framework density 22.965499999999999
#
# number of rings (size 3 to 8) (size 9 to 14) (size 15 to 20)
#    0.000    1.714    0.000    5.143    0.000    8.571 
#    0.000    2.857    0.000   16.286    0.000    0.000 
#    0.000    0.000    0.000    0.000    0.000    0.000 
#
# Total GULP energy -173469.786699 kJ/mol
# GULP energy per Si atom -12390.699050 kJ/mol
# Density = 2.291323 g / cm^3
# Si number density = 22.965500 Si / 1000 Ang^3
#
#
#
# Elastic Constant Matrix: (Units=GPa)
#
#
# Indices 1 2 3 4 5 6 
#
# 1 108.8945 80.3796 48.8911 2.9061 -5.3562 -8.3645
# 2 80.3796 166.7537 62.3995 -9.8706 -19.7735 -15.8520
# 3 48.8911 62.3995 107.5723 -2.9394 -18.4935 -3.6750
# 4 2.9061 -9.8706 -2.9394 37.7466 -7.3793 0.7775
# 5 -5.3562 -19.7735 -18.4935 -7.3793 43.2633 3.5048
# 6 -8.3645 -15.8520 -3.6750 0.7775 3.5048 46.0722
#
#
#
# Elastic Compliance Matrix: (Units=1/GPa)
#
#
# Indices 1 2 3 4 5 6 
#
# 1 0.015996 -0.006814 -0.004025 -0.004041 -0.003591 0.000580
# 2 -0.006814 0.011084 -0.002531 0.003896 0.003640 0.002032
# 3 -0.004025 -0.002531 0.013362 0.001567 0.004396 -0.000897
# 4 -0.004041 0.003896 0.001567 0.029314 0.006974 -0.000293
# 5 -0.003591 0.003640 0.004396 0.006974 0.027504 -0.001259
# 6 0.000580 0.002032 -0.000897 -0.000293 -0.001259 0.022539
#
#
# Mechanical properties :
#
#
# Convention : Reuss Voigt Hill
#
# Bulk Modulus (GPa) = 72.98728 85.17345 79.08036
# Shear Modulus (GPa) = 33.08947 38.18646 35.63796
#
# Velocity S-wave (km/s) = 3.79995 4.08214 3.94357
# Velocity P-wave (km/s) = 7.14864 7.70627 7.43269
#
# Compressibility (1/GPa) = 0.01370102
#
# Stress axis : x y z
#
# Youngs Moduli (GPa) = 62.51563 90.22118 74.84126
#
# Poissons Ratio (x) = 0.61477 0.30127
# Poissons Ratio (y) = 0.42598 0.18941
# Poissons Ratio (z) = 0.25165 0.22833
#
# Static dielectric constant tensor:
#      x y z
#    x 2.648510 0.435350 1.474870 
#    y 0.435350 4.260660 -0.544910 
#    z 1.474870 -0.544910 2.987850 
# 
# 
# High freq. dielectric constant tensor:
#      x y z
#    x 1.907370 -0.021820 0.008460 
#    y -0.021820 1.907680 0.000010 
#    z 0.008460 0.000010 1.926810 
# 
# From -- ./inp_files/174369.got.cif
#   From: 2010.06.25/outbox.cif.g09.slc.cpg/sg2_88_cif.got.tgz:174369.got - 2010.06.27 13:26:56.
