data_PCOD8044457
_publ_section_title
;
Structure prediction by ZEFSAII (Michael W. Deem and Ramdas Pophale) SiO2 
 PCOD8044457
Probable space group: P -1
;
_chemical_formula_sum "Si O2"
_cell_formula_units_Z 12
_cell_length_a 11.107032
_cell_length_b 9.409105
_cell_length_c 12.514627
_cell_angle_alpha 35.368410
_cell_angle_beta 76.988893
_cell_angle_gamma 60.748574
_cell_volume 620.384725
_symmetry_space_group_name_H-M "P -1"
_symmetry_group_IT_number 2
_symmetry_cell_setting 'triclinic'
loop_
_space_group_symop_operation_xyz
x,y,z
-x,-y,-z
loop_
_atom_site_type_symbol
_atom_site_label
_atom_site_fract_x
_atom_site_fract_y
_atom_site_fract_z
Si Si1 0.549630 0.157593 0.316450
Si Si2 0.524593 0.891053 0.275255
Si Si3 0.784849 0.138995 0.400502
Si Si4 0.480322 0.672021 0.139282
Si Si5 0.036624 0.198364 0.226022
Si Si6 0.302358 0.753745 0.330210
O O1 0.721976 0.021710 0.393930
O O2 0.455913 0.506895 0.146340
O O3 0.500000 0.000000 0.500000
O O4 0.519919 0.103956 0.235744
O O5 0.384508 0.859324 0.328100
O O6 0.665893 0.565383 0.455638
O O7 0.529860 0.033691 0.075670
O O8 0.644850 0.438139 0.296978
O O9 0.886702 0.219142 0.267268
O O10 0.869583 0.897642 0.623617
O O11 0.352367 0.762364 0.194926
O O12 0.129117 0.965643 0.256138
O O13 0.000000 0.500000 0.000000
#
# Coordination Sequence:
#
# PCOD8044457 Si02
#       6
#     2   2   2   2   2   2
#     4  10  19  38  61  88 122 153 190 242 289 352
#     4  11  20  36  60  90 121 150 190 242 298 344
#     4   9  22  37  58  88 112 156 196 232 286 349
#     4  10  21  37  61  91 115 150 194 240 294 340
#     4  11  22  40  59  82 120 158 197 236 292 351
#     4  11  22  35  60  92 115 150 196 250 285 336
#
# _framework density 19.342835999999998
#
# number of rings (size 3 to 8) (size 9 to 14) (size 15 to 20)
#    1.000    0.667    1.667    5.000    0.000    2.667 
#    0.000    0.833    0.000    2.000    0.000    0.000 
#    0.000    0.000    0.000    0.000    0.000    0.000 
#
# Total GULP energy -148667.071032 kJ/mol
# GULP energy per Si atom -12388.922586 kJ/mol
# Density = 1.929881 g / cm^3
# Si number density = 19.342836 Si / 1000 Ang^3
#
#
#
# Elastic Constant Matrix: (Units=GPa)
#
#
# Indices 1 2 3 4 5 6 
#
# 1 61.8528 40.9689 23.6429 11.7156 -17.9711 1.5235
# 2 40.9689 99.0673 25.0965 8.1436 -0.8418 -10.6437
# 3 23.6429 25.0965 137.2864 1.3705 -27.0915 -9.2385
# 4 11.7156 8.1436 1.3705 26.1172 3.2481 4.2960
# 5 -17.9711 -0.8418 -27.0915 3.2481 22.9592 4.4261
# 6 1.5235 -10.6437 -9.2385 4.2960 4.4261 32.8634
#
#
#
# Elastic Compliance Matrix: (Units=1/GPa)
#
#
# Indices 1 2 3 4 5 6 
#
# 1 0.041365 -0.017317 0.003459 -0.016714 0.040072 -0.009766
# 2 -0.017317 0.018622 -0.003718 0.003242 -0.019252 0.007958
# 3 0.003459 -0.003718 0.010400 -0.002816 0.015267 -0.000129
# 4 -0.016714 0.003242 -0.002816 0.048105 -0.022668 -0.002202
# 5 0.040072 -0.019252 0.015267 -0.022668 0.098147 -0.014057
# 6 -0.009766 0.007958 -0.000129 -0.002202 -0.014057 0.035604
#
#
# Mechanical properties :
#
#
# Convention : Reuss Voigt Hill
#
# Bulk Modulus (GPa) = 28.38045 53.06925 40.72485
# Shear Modulus (GPa) = 16.71456 30.28783 23.50120
#
# Velocity S-wave (km/s) = 2.94278 3.96137 3.48944
# Velocity P-wave (km/s) = 5.12356 6.95837 6.11023
#
# Compressibility (1/GPa) = 0.03523552
#
# Stress axis : x y z
#
# Youngs Moduli (GPa) = 24.17513 53.69860 96.15389
#
# Poissons Ratio (x) = 0.92992 -0.33264
# Poissons Ratio (y) = 0.41865 0.35749
# Poissons Ratio (z) = -0.08363 0.19965
#
# Static dielectric constant tensor:
#      x y z
#    x 3.373950 0.030540 -0.226540 
#    y 0.030540 3.873980 -0.046720 
#    z -0.226540 -0.046720 3.427550 
# 
# 
# High freq. dielectric constant tensor:
#      x y z
#    x 1.731760 -0.002870 -0.025440 
#    y -0.002870 1.747500 0.005560 
#    z -0.025440 0.005560 1.763300 
# 
# From -- ./inp_files/191489.got.cif
#   From: 2010.06.25/outbox.cif.g09.slc.cpg/sg2_96_cif.got.tgz:191489.got - 2010.06.27 13:26:56.
