data_PCOD8044143
_publ_section_title
;
Structure prediction by ZEFSAII (Michael W. Deem and Ramdas Pophale) SiO2 
 PCOD8044143
Probable space group: P -1
;
_chemical_formula_sum "Si O2"
_cell_formula_units_Z 16
_cell_length_a 8.235533
_cell_length_b 20.341648
_cell_length_c 11.155423
_cell_angle_alpha 32.697844
_cell_angle_beta 44.798110
_cell_angle_gamma 57.313762
_cell_volume 703.284521
_symmetry_space_group_name_H-M "P -1"
_symmetry_group_IT_number 2
_symmetry_cell_setting 'triclinic'
loop_
_space_group_symop_operation_xyz
x,y,z
-x,-y,-z
loop_
_atom_site_type_symbol
_atom_site_label
_atom_site_fract_x
_atom_site_fract_y
_atom_site_fract_z
Si Si1 0.164496 0.965893 0.823455
Si Si2 0.468912 0.173005 0.233422
Si Si3 0.663085 0.175047 0.569116
Si Si4 0.109296 0.134536 0.282449
Si Si5 0.679898 0.438438 0.078249
Si Si6 0.544920 0.554370 0.203019
Si Si7 0.699828 0.034704 0.986839
Si Si8 0.160763 0.394757 0.789685
O O1 0.281981 0.875848 0.813188
O O2 0.301011 0.105748 0.527429
O O3 0.186003 0.915808 0.024158
O O4 0.897307 0.966135 0.922961
O O5 0.355333 0.132255 0.224284
O O6 0.519990 0.317282 0.008990
O O7 0.574878 0.298418 0.382161
O O8 0.626152 0.146593 0.774524
O O9 0.938738 0.182150 0.396280
O O10 0.531370 0.064285 0.727091
O O11 0.135286 0.247285 0.998876
O O12 0.000000 0.000000 0.500000
O O13 0.704191 0.504926 0.093070
O O14 0.500000 0.500000 0.000000
O O15 0.915884 0.444365 0.867214
O O16 0.300913 0.466009 0.495839
O O17 0.695691 0.577687 0.206402
#
# Coordination Sequence:
#
# PCOD8044143 Si02
#       8
#     2   2   2   2   2   2   2   2
#     4  10  21  38  60  93 122 155 206 256 311 368
#     4  10  21  38  60  91 124 159 205 253 315 366
#     4  10  22  39  58  90 126 162 206 246 315 375
#     4  10  19  37  64  91 127 164 198 255 314 374
#     4  11  25  42  63  94 129 168 212 265 315 371
#     4  10  22  43  67  89 127 170 216 263 307 378
#     4  10  21  38  62  89 123 162 199 255 309 376
#     4   9  22  43  66  97 120 169 222 254 315 380
#
# _framework density 22.750395000000001
#
# number of rings (size 3 to 8) (size 9 to 14) (size 15 to 20)
#    0.000    2.000    1.250    1.125    1.750    6.500 
#    4.500    0.000    0.000    0.000    0.000    0.000 
#    0.000    0.000    0.000    0.000    0.000    0.000 
#
# Total GULP energy -198273.153953 kJ/mol
# GULP energy per Si atom -12392.072122 kJ/mol
# Density = 2.269861 g / cm^3
# Si number density = 22.750395 Si / 1000 Ang^3
#
#
#
# Elastic Constant Matrix: (Units=GPa)
#
#
# Indices 1 2 3 4 5 6 
#
# 1 56.1625 10.9024 19.3638 -2.0608 10.7622 -17.9418
# 2 10.9024 77.2193 40.7721 -6.2571 0.0136 -19.8814
# 3 19.3638 40.7721 132.6739 -22.9395 7.3345 -14.7525
# 4 -2.0608 -6.2571 -22.9395 36.6899 -8.5040 -4.8559
# 5 10.7622 0.0136 7.3345 -8.5040 32.5782 0.8895
# 6 -17.9418 -19.8814 -14.7525 -4.8559 0.8895 39.2892
#
#
#
# Elastic Compliance Matrix: (Units=1/GPa)
#
#
# Indices 1 2 3 4 5 6 
#
# 1 0.023084 0.000376 -0.001994 -0.000292 -0.007530 0.010118
# 2 0.000376 0.017206 -0.004320 0.001473 0.001023 0.007416
# 3 -0.001994 -0.004320 0.010330 0.005761 -0.000202 0.001499
# 4 -0.000292 0.001473 0.005761 0.033707 0.007413 0.006773
# 5 -0.007530 0.001023 -0.000202 0.007413 0.035241 -0.002878
# 6 0.010118 0.007416 0.001499 0.006773 -0.002878 0.035290
#
#
# Mechanical properties :
#
#
# Convention : Reuss Voigt Hill
#
# Bulk Modulus (GPa) = 25.80968 45.34805 35.57886
# Shear Modulus (GPa) = 27.83200 34.71263 31.27231
#
# Velocity S-wave (km/s) = 3.50146 3.91039 3.71156
# Velocity P-wave (km/s) = 5.26462 6.35329 5.83441
#
# Compressibility (1/GPa) = 0.03874515
#
# Stress axis : x y z
#
# Youngs Moduli (GPa) = 43.31945 58.11800 96.80722
#
# Poissons Ratio (x) = -0.02187 0.19303
# Poissons Ratio (y) = -0.01630 0.41820
# Poissons Ratio (z) = 0.08638 0.25106
#
# Static dielectric constant tensor:
#      x y z
#    x 3.805670 -0.330650 0.076580 
#    y -0.330650 4.071780 0.052310 
#    z 0.076580 0.052310 4.493760 
# 
# 
# High freq. dielectric constant tensor:
#      x y z
#    x 1.881750 -0.025060 0.010030 
#    y -0.025060 1.887910 0.006410 
#    z 0.010030 0.006410 1.907150 
# 
# From -- ./inp_files/405228.got.cif
#   From: 2010.06.25/outbox.cif.g09.slc.cpg/sg2_203_cif.got.tgz:405228.got - 2010.06.27 13:26:56.
