data_PCOD8044686
_publ_section_title
;
Structure prediction by ZEFSAII (Michael W. Deem and Ramdas Pophale) SiO2 
 PCOD8044686
Probable space group: P -1
;
_chemical_formula_sum "Si O2"
_cell_formula_units_Z 16
_cell_length_a 6.702770
_cell_length_b 12.925198
_cell_length_c 12.822194
_cell_angle_alpha 118.847984
_cell_angle_beta 118.508094
_cell_angle_gamma 53.897941
_cell_volume 756.352818
_symmetry_space_group_name_H-M "P -1"
_symmetry_group_IT_number 2
_symmetry_cell_setting 'triclinic'
loop_
_space_group_symop_operation_xyz
x,y,z
-x,-y,-z
loop_
_atom_site_type_symbol
_atom_site_label
_atom_site_fract_x
_atom_site_fract_y
_atom_site_fract_z
Si Si1 0.776967 0.126909 0.614471
Si Si2 0.304242 0.892146 0.647984
Si Si3 0.545121 0.684773 0.210616
Si Si4 0.420637 0.555057 0.765971
Si Si5 0.067999 0.652359 0.299428
Si Si6 0.648412 0.970957 0.914104
Si Si7 0.235574 0.789175 0.988743
Si Si8 0.723852 0.367277 0.447351
O O1 0.659753 0.105943 0.467247
O O2 0.550265 0.189669 0.672985
O O3 0.893955 0.228629 0.680968
O O4 0.005712 0.989767 0.648389
O O5 0.494798 0.937501 0.771401
O O6 0.367473 0.746620 0.634116
O O7 0.624395 0.546978 0.223311
O O8 0.795660 0.668039 0.202651
O O9 0.324683 0.713626 0.084892
O O10 0.706782 0.487626 0.755057
O O11 0.376343 0.684734 0.881448
O O12 0.215992 0.604621 0.642115
O O13 0.048846 0.667987 0.429332
O O14 0.930072 0.846119 0.935386
O O15 0.500000 0.000000 0.000000
O O16 0.676083 0.097558 0.943481
O O17 0.500000 0.500000 0.500000
#
# Coordination Sequence:
#
# PCOD8044686 Si02
#       8
#     2   2   2   2   2   2   2   2
#     4   9  20  38  60  91 121 146 193 246 288 352
#     4  10  19  38  65  86 116 159 191 237 303 345
#     4  11  22  38  60  86 120 158 193 238 293 344
#     4  10  22  39  58  84 121 156 195 244 285 342
#     4   9  20  38  61  88 118 153 191 241 298 346
#     4  11  24  42  63  85 118 158 193 243 295 339
#     4  11  25  40  58  90 118 151 207 242 276 350
#     4   9  19  37  60  89 118 147 194 242 288 352
#
# _framework density 21.154150999999999
#
# number of rings (size 3 to 8) (size 9 to 14) (size 15 to 20)
#    0.000    2.000    0.000    3.375    0.000    7.000 
#    0.000   10.000    0.000    0.000    0.000    0.000 
#    0.000    0.000    0.000    0.000    0.000    0.000 
#
# Total GULP energy -198377.381281 kJ/mol
# GULP energy per Si atom -12398.586330 kJ/mol
# Density = 2.110600 g / cm^3
# Si number density = 21.154151 Si / 1000 Ang^3
#
#
#
# Elastic Constant Matrix: (Units=GPa)
#
#
# Indices 1 2 3 4 5 6 
#
# 1 99.7398 32.0882 49.3661 3.7760 -0.1636 -14.9034
# 2 32.0882 105.7782 48.7862 9.2642 -2.9697 -7.1173
# 3 49.3661 48.7862 132.8918 5.0781 -1.1905 -10.2914
# 4 3.7760 9.2642 5.0781 36.4113 -0.1512 -8.2866
# 5 -0.1636 -2.9697 -1.1905 -0.1512 30.2953 1.3050
# 6 -14.9034 -7.1173 -10.2914 -8.2866 1.3050 25.4971
#
#
#
# Elastic Compliance Matrix: (Units=1/GPa)
#
#
# Indices 1 2 3 4 5 6 
#
# 1 0.013439 -0.002006 -0.003827 0.001040 -0.000533 0.006116
# 2 -0.002006 0.011923 -0.003540 -0.002348 0.001011 -0.000088
# 3 -0.003827 -0.003540 0.010318 0.000078 -0.000003 0.000965
# 4 0.001040 -0.002348 0.000078 0.030175 -0.000494 0.009816
# 5 -0.000533 0.001011 -0.000003 -0.000494 0.033183 -0.001889
# 6 0.006116 -0.000088 0.000965 0.009816 -0.001889 0.046447
#
#
# Mechanical properties :
#
#
# Convention : Reuss Voigt Hill
#
# Bulk Modulus (GPa) = 59.05227 66.54341 62.79784
# Shear Modulus (GPa) = 29.43332 32.31870 30.87601
#
# Velocity S-wave (km/s) = 3.73416 3.91291 3.82458
# Velocity P-wave (km/s) = 6.82406 7.20689 7.01808
#
# Compressibility (1/GPa) = 0.01693415
#
# Stress axis : x y z
#
# Youngs Moduli (GPa) = 74.40906 83.87092 96.92128
#
# Poissons Ratio (x) = 0.16829 0.37088
# Poissons Ratio (y) = 0.14930 0.34308
# Poissons Ratio (z) = 0.28473 0.29689
#
# Static dielectric constant tensor:
#      x y z
#    x 3.517160 -0.168020 -0.203770 
#    y -0.168020 4.120720 -0.193880 
#    z -0.203770 -0.193880 4.213840 
# 
# 
# High freq. dielectric constant tensor:
#      x y z
#    x 1.802400 -0.010450 -0.010790 
#    y -0.010450 1.846590 -0.003290 
#    z -0.010790 -0.003290 1.838650 
# 
# From -- ./inp_files/365088.got.cif
#   From: 2010.06.25/outbox.cif.g09.slc.cpg/sg2_183_cif.got.tgz:365088.got - 2010.06.27 13:26:56.
