data_PCOD8044804
_publ_section_title
;
Structure prediction by ZEFSAII (Michael W. Deem and Ramdas Pophale) SiO2 
 PCOD8044804
Probable space group: P -1
;
_chemical_formula_sum "Si O2"
_cell_formula_units_Z 14
_cell_length_a 11.878682
_cell_length_b 9.156028
_cell_length_c 9.203407
_cell_angle_alpha 72.228017
_cell_angle_beta 95.142521
_cell_angle_gamma 138.464252
_cell_volume 616.591732
_symmetry_space_group_name_H-M "P -1"
_symmetry_group_IT_number 2
_symmetry_cell_setting 'triclinic'
loop_
_space_group_symop_operation_xyz
x,y,z
-x,-y,-z
loop_
_atom_site_type_symbol
_atom_site_label
_atom_site_fract_x
_atom_site_fract_y
_atom_site_fract_z
Si Si1 0.694294 0.804994 0.523691
Si Si2 0.942081 0.299225 0.150647
Si Si3 0.874078 0.887450 0.244326
Si Si4 0.535027 0.575843 0.147616
Si Si5 0.054396 0.782047 0.371948
Si Si6 0.190632 0.626194 0.330520
Si Si7 0.552442 0.859708 0.261347
O O1 0.808596 0.815805 0.426660
O O2 0.623229 0.646699 0.704341
O O3 0.540037 0.718389 0.431857
O O4 0.823972 0.069319 0.518371
O O5 0.080319 0.428263 0.255609
O O6 0.946966 0.131681 0.133793
O O7 0.741877 0.132869 0.221233
O O8 0.000000 0.500000 0.000000
O O9 0.716319 0.682311 0.180029
O O10 0.018915 0.904107 0.243764
O O11 0.544564 0.767757 0.129861
O O12 0.500000 0.500000 0.000000
O O13 0.154822 0.771645 0.277261
O O14 0.873070 0.513454 0.481570
O O15 0.397234 0.819701 0.272487
#
# Coordination Sequence:
#
# PCOD8044804 Si02
#       7
#     2   2   2   2   2   2   2
#     4  10  19  38  67  99 131 171 225 278 333 402
#     4  10  23  45  68  94 133 178 226 271 344 409
#     4  10  21  42  69  96 130 178 225 279 336 400
#     4  10  21  38  63 101 135 168 225 282 339 402
#     4  11  22  38  69 105 130 171 232 281 330 395
#     4  11  23  42  65 101 139 173 222 281 336 398
#     4  10  22  43  70  95 131 184 225 271 341 400
#
# _framework density 22.705463000000002
#
# number of rings (size 3 to 8) (size 9 to 14) (size 15 to 20)
#    0.000    2.000    2.857    3.857    2.000    3.429 
#    5.143    1.429    0.000    0.000    0.000    0.000 
#    0.000    0.000    0.000    0.000    0.000    0.000 
#
# Total GULP energy -173471.991415 kJ/mol
# GULP energy per Si atom -12390.856530 kJ/mol
# Density = 2.265378 g / cm^3
# Si number density = 22.705463 Si / 1000 Ang^3
#
#
#
# Elastic Constant Matrix: (Units=GPa)
#
#
# Indices 1 2 3 4 5 6 
#
# 1 178.6443 53.5389 23.6998 -5.5026 5.9665 -1.5605
# 2 53.5389 80.0296 28.3185 8.5440 6.2460 7.0266
# 3 23.6998 28.3185 93.5941 -0.7765 4.5423 -4.0477
# 4 -5.5026 8.5440 -0.7765 42.5564 -4.2594 4.6330
# 5 5.9665 6.2460 4.5423 -4.2594 20.4300 -3.4377
# 6 -1.5605 7.0266 -4.0477 4.6330 -3.4377 35.5911
#
#
#
# Elastic Compliance Matrix: (Units=1/GPa)
#
#
# Indices 1 2 3 4 5 6 
#
# 1 0.007198 -0.005018 -0.000246 0.001824 0.000043 0.001045
# 2 -0.005018 0.018632 -0.004350 -0.004495 -0.004921 -0.004283
# 3 -0.000246 -0.004350 0.012197 0.000759 -0.000805 0.002059
# 4 0.001824 -0.004495 0.000759 0.025405 0.005683 -0.001704
# 5 0.000043 -0.004921 -0.000805 0.005683 0.052684 0.005231
# 6 0.001045 -0.004283 0.002059 -0.001704 0.005231 0.029950
#
#
# Mechanical properties :
#
#
# Convention : Reuss Voigt Hill
#
# Bulk Modulus (GPa) = 53.19691 62.59804 57.89748
# Shear Modulus (GPa) = 29.14407 36.16288 32.65347
#
# Velocity S-wave (km/s) = 3.58658 3.99519 3.79639
# Velocity P-wave (km/s) = 6.37428 6.99367 6.69115
#
# Compressibility (1/GPa) = 0.01879808
#
# Stress axis : x y z
#
# Youngs Moduli (GPa) = 138.92340 53.67091 81.98432
#
# Poissons Ratio (x) = 0.26934 0.02018
# Poissons Ratio (y) = 0.69716 0.35667
# Poissons Ratio (z) = 0.03419 0.23349
#
# Static dielectric constant tensor:
#      x y z
#    x 3.889630 0.060980 0.011710 
#    y 0.060980 4.230010 0.060460 
#    z 0.011710 0.060460 3.865830 
# 
# 
# High freq. dielectric constant tensor:
#      x y z
#    x 1.880360 0.010940 0.005040 
#    y 0.010940 1.907730 0.003450 
#    z 0.005040 0.003450 1.869320 
# 
# From -- ./inp_files/238510.got.cif
#   From: 2010.06.25/outbox.cif.g09.slc.cpg/sg2_120_cif.got.tgz:238510.got - 2010.06.27 13:26:56.
