data_PCOD8044145
_publ_section_title
;
Structure prediction by ZEFSAII (Michael W. Deem and Ramdas Pophale) SiO2 
 PCOD8044145
Probable space group: P -1
;
_chemical_formula_sum "Si O2"
_cell_formula_units_Z 16
_cell_length_a 10.380225
_cell_length_b 13.879876
_cell_length_c 20.243014
_cell_angle_alpha 30.442669
_cell_angle_beta 127.162614
_cell_angle_gamma 147.519244
_cell_volume 707.569901
_symmetry_space_group_name_H-M "P -1"
_symmetry_group_IT_number 2
_symmetry_cell_setting 'triclinic'
loop_
_space_group_symop_operation_xyz
x,y,z
-x,-y,-z
loop_
_atom_site_type_symbol
_atom_site_label
_atom_site_fract_x
_atom_site_fract_y
_atom_site_fract_z
Si Si1 0.313025 0.611317 0.538357
Si Si2 0.217186 0.265473 0.235618
Si Si3 0.821280 0.655861 0.674289
Si Si4 0.124600 0.662075 0.337448
Si Si5 0.216387 0.791622 0.067285
Si Si6 0.774340 0.893945 0.218114
Si Si7 0.718816 0.071145 0.494626
Si Si8 0.242752 0.077524 0.032986
O O1 0.338979 0.733077 0.401706
O O2 0.186022 0.282359 0.692137
O O3 0.125016 0.554217 0.562180
O O4 0.616842 0.896678 0.494846
O O5 0.255547 0.388318 0.247164
O O6 0.470891 0.552323 0.099100
O O7 0.221052 0.043288 0.369425
O O8 0.936344 0.073597 0.230557
O O9 0.953376 0.566692 0.764055
O O10 0.547297 0.385657 0.705400
O O11 0.000000 0.000000 0.500000
O O12 0.006144 0.450499 0.358722
O O13 0.242557 0.973186 0.166050
O O14 0.500000 0.000000 0.000000
O O15 0.093790 0.829573 0.955156
O O16 0.231419 0.910417 0.071237
O O17 0.500000 0.000000 0.500000
O O18 0.000000 0.000000 0.000000
#
# Coordination Sequence:
#
# PCOD8044145 Si02
#       8
#     2   2   2   2   2   2   2   2
#     4  10  19  39  64  95 139 178 225 287 344 413
#     4  12  24  44  69 100 142 182 232 296 352 410
#     4  11  26  48  73  99 134 182 238 296 350 422
#     4  10  22  36  63  97 136 179 236 278 339 415
#     4  10  22  47  72  96 143 193 229 288 359 422
#     4  11  22  43  72  98 135 183 230 291 357 412
#     4  10  19  37  64  91 131 186 221 278 350 405
#     4  12  24  45  71 105 146 189 236 290 350 421
#
# _framework density 22.612607000000001
#
# number of rings (size 3 to 8) (size 9 to 14) (size 15 to 20)
#    0.000    1.250    5.000    2.250    1.750    1.000 
#    4.500    1.250    0.000    0.000    0.000    0.000 
#    0.000    0.000    0.000    0.000    0.000    0.000 
#
# Total GULP energy -198209.208327 kJ/mol
# GULP energy per Si atom -12388.075520 kJ/mol
# Density = 2.256114 g / cm^3
# Si number density = 22.612607 Si / 1000 Ang^3
#
#
#
# Elastic Constant Matrix: (Units=GPa)
#
#
# Indices 1 2 3 4 5 6 
#
# 1 71.2707 25.0617 28.4281 3.3820 14.0201 -3.8275
# 2 25.0617 142.6790 52.7975 14.8376 -2.8865 12.8269
# 3 28.4281 52.7975 145.6531 15.0029 18.1564 17.6452
# 4 3.3820 14.8376 15.0029 39.6036 6.0718 4.0813
# 5 14.0201 -2.8865 18.1564 6.0718 38.8221 3.0187
# 6 -3.8275 12.8269 17.6452 4.0813 3.0187 16.9582
#
#
#
# Elastic Compliance Matrix: (Units=1/GPa)
#
#
# Indices 1 2 3 4 5 6 
#
# 1 0.018120 -0.003250 -0.002913 0.000660 -0.006346 0.010550
# 2 -0.003250 0.009228 -0.002273 -0.002326 0.003711 -0.005448
# 3 -0.002913 -0.002273 0.009746 -0.001307 -0.002828 -0.008261
# 4 0.000660 -0.002326 -0.001307 0.027428 -0.003884 -0.002642
# 5 -0.006346 0.003711 -0.002828 -0.003884 0.030710 -0.005828
# 6 0.010550 -0.005448 -0.008261 -0.002642 -0.005828 0.075740
#
#
# Mechanical properties :
#
#
# Convention : Reuss Voigt Hill
#
# Bulk Modulus (GPa) = 49.45686 63.57529 56.51607
# Shear Modulus (GPa) = 25.69571 35.96450 30.83010
#
# Velocity S-wave (km/s) = 3.37463 3.99239 3.69644
# Velocity P-wave (km/s) = 6.09122 7.03052 6.57766
#
# Compressibility (1/GPa) = 0.02021964
#
# Stress axis : x y z
#
# Youngs Moduli (GPa) = 55.18860 108.36986 102.60279
#
# Poissons Ratio (x) = 0.35222 0.29892
# Poissons Ratio (y) = 0.17937 0.23327
# Poissons Ratio (z) = 0.16079 0.24638
#
# Static dielectric constant tensor:
#      x y z
#    x 3.904180 -0.046470 0.391920 
#    y -0.046470 4.488780 0.086060 
#    z 0.391920 0.086060 4.534130 
# 
# 
# High freq. dielectric constant tensor:
#      x y z
#    x 1.876330 -0.004160 0.024530 
#    y -0.004160 1.886040 0.009930 
#    z 0.024530 0.009930 1.907900 
# 
# From -- ./inp_files/595468.got.cif
#   From: 2010.06.25/outbox.cif.g09.slc.cpg/sg2_298_cif.got.tgz:595468.got - 2010.06.27 13:26:56.
