data_PCOD8044259
_publ_section_title
;
Structure prediction by ZEFSAII (Michael W. Deem and Ramdas Pophale) SiO2 
 PCOD8044259
Probable space group: P -1
;
_chemical_formula_sum "Si O2"
_cell_formula_units_Z 16
_cell_length_a 7.867604
_cell_length_b 23.162391
_cell_length_c 13.132979
_cell_angle_alpha 161.223868
_cell_angle_beta 105.894113
_cell_angle_gamma 70.760556
_cell_volume 721.553049
_symmetry_space_group_name_H-M "P -1"
_symmetry_group_IT_number 2
_symmetry_cell_setting 'triclinic'
loop_
_space_group_symop_operation_xyz
x,y,z
-x,-y,-z
loop_
_atom_site_type_symbol
_atom_site_label
_atom_site_fract_x
_atom_site_fract_y
_atom_site_fract_z
Si Si1 0.576996 0.723351 0.289317
Si Si2 0.003530 0.461947 0.113246
Si Si3 0.558760 0.069207 0.732277
Si Si4 0.135299 0.664235 0.315161
Si Si5 0.447223 0.822253 0.653644
Si Si6 0.816496 0.656714 0.855032
Si Si7 0.828497 0.316666 0.153104
Si Si8 0.654345 0.479595 0.203188
O O1 0.556491 0.757413 0.461821
O O2 0.618912 0.901573 0.540587
O O3 0.732586 0.540355 0.998170
O O4 0.393642 0.685829 0.146723
O O5 0.021961 0.654753 0.384331
O O6 0.164398 0.358854 0.043841
O O7 0.834097 0.526059 0.265733
O O8 0.978389 0.319326 0.780856
O O9 0.500000 0.000000 0.500000
O O10 0.382103 0.217972 0.994177
O O11 0.743255 0.145355 0.884960
O O12 0.232865 0.836105 0.621634
O O13 0.498289 0.664820 0.484351
O O14 0.500000 0.000000 0.000000
O O15 0.839434 0.448288 0.470050
O O16 0.974234 0.743863 0.972530
O O17 0.677858 0.428828 0.239419
#
# Coordination Sequence:
#
# PCOD8044259 Si02
#       8
#     2   2   2   2   2   2   2   2
#     4  11  21  40  60  92 124 160 204 255 308 380
#     4  10  19  37  67  86 116 164 211 250 300 380
#     4  12  24  40  65  99 129 166 218 261 317 380
#     4  10  20  39  65  88 119 165 208 247 316 373
#     4  11  23  37  62  93 120 159 204 261 309 366
#     4  10  24  42  65  93 129 171 215 261 323 374
#     4  10  23  44  65  94 126 176 210 265 321 377
#     4  10  19  41  66  83 123 160 208 249 314 375
#
# _framework density 22.174393999999999
#
# number of rings (size 3 to 8) (size 9 to 14) (size 15 to 20)
#    0.000    1.500    3.750    1.875    3.500    1.500 
#    2.250    0.625    0.000    0.000    0.000    0.000 
#    0.000    0.000    0.000    0.000    0.000    0.000 
#
# Total GULP energy -198276.038065 kJ/mol
# GULP energy per Si atom -12392.252379 kJ/mol
# Density = 2.212392 g / cm^3
# Si number density = 22.174394 Si / 1000 Ang^3
#
#
#
# Elastic Constant Matrix: (Units=GPa)
#
#
# Indices 1 2 3 4 5 6 
#
# 1 67.5101 6.4982 35.6885 1.8597 24.4760 -0.3637
# 2 6.4982 99.3064 28.1756 -1.1741 10.5578 -0.9955
# 3 35.6885 28.1756 107.7477 -2.7692 38.6687 1.9261
# 4 1.8597 -1.1741 -2.7692 24.2971 1.5155 10.7125
# 5 24.4760 10.5578 38.6687 1.5155 38.6815 0.7788
# 6 -0.3637 -0.9955 1.9261 10.7125 0.7788 22.0726
#
#
#
# Elastic Compliance Matrix: (Units=1/GPa)
#
#
# Indices 1 2 3 4 5 6 
#
# 1 0.020078 0.000687 -0.003611 -0.002266 -0.009235 0.002103
# 2 0.000687 0.010914 -0.002923 -0.000215 -0.000501 0.000881
# 3 -0.003611 -0.002923 0.016118 0.004187 -0.013130 -0.003167
# 4 -0.002266 -0.000215 0.004187 0.053662 -0.004266 -0.026306
# 5 -0.009235 -0.000501 -0.013130 -0.004266 0.045096 0.001450
# 6 0.002103 0.000881 -0.003167 -0.026306 0.001450 0.058372
#
#
# Mechanical properties :
#
#
# Convention : Reuss Voigt Hill
#
# Bulk Modulus (GPa) = 28.23718 46.14320 37.19019
# Shear Modulus (GPa) = 21.95509 30.62368 26.28939
#
# Velocity S-wave (km/s) = 3.15002 3.72026 3.44695
# Velocity P-wave (km/s) = 5.09823 6.26963 5.71402
#
# Compressibility (1/GPa) = 0.03541430
#
# Stress axis : x y z
#
# Youngs Moduli (GPa) = 49.80686 91.62757 62.04356
#
# Poissons Ratio (x) = -0.06294 0.22406
# Poissons Ratio (y) = -0.03421 0.18135
# Poissons Ratio (z) = 0.17987 0.26783
#
# Static dielectric constant tensor:
#      x y z
#    x 3.789220 0.125810 0.696050 
#    y 0.125810 4.251320 -0.165540 
#    z 0.696050 -0.165540 3.584500 
# 
# 
# High freq. dielectric constant tensor:
#      x y z
#    x 1.883940 0.004440 0.025000 
#    y 0.004440 1.881340 -0.009680 
#    z 0.025000 -0.009680 1.838310 
# 
# From -- ./inp_files/347217.got.cif
#   From: 2010.06.25/outbox.cif.g09.slc.cpg/sg2_174_cif.got.tgz:347217.got - 2010.06.27 13:26:56.
