data_PCOD8044263
_publ_section_title
;
Structure prediction by ZEFSAII (Michael W. Deem and Ramdas Pophale) SiO2 
 PCOD8044263
Probable space group: P -1
;
_chemical_formula_sum "Si O2"
_cell_formula_units_Z 14
_cell_length_a 8.630409
_cell_length_b 11.770352
_cell_length_c 8.057674
_cell_angle_alpha 128.154565
_cell_angle_beta 90.577427
_cell_angle_gamma 85.765922
_cell_volume 641.226621
_symmetry_space_group_name_H-M "P -1"
_symmetry_group_IT_number 2
_symmetry_cell_setting 'triclinic'
loop_
_space_group_symop_operation_xyz
x,y,z
-x,-y,-z
loop_
_atom_site_type_symbol
_atom_site_label
_atom_site_fract_x
_atom_site_fract_y
_atom_site_fract_z
Si Si1 0.256290 0.016510 0.955031
Si Si2 0.788828 0.702930 0.939354
Si Si3 0.265746 0.094217 0.576129
Si Si4 0.039587 0.068230 0.281308
Si Si5 0.051737 0.655450 0.677339
Si Si6 0.359161 0.566913 0.449783
Si Si7 0.447170 0.850248 0.568584
O O1 0.410331 0.914289 0.813068
O O2 0.125124 0.002010 0.791227
O O3 0.294453 0.183868 0.094776
O O4 0.171388 0.972996 0.083948
O O5 0.717036 0.551088 0.771763
O O6 0.976234 0.694302 0.893437
O O7 0.751597 0.765105 0.177968
O O8 0.099436 0.068190 0.470498
O O9 0.373633 0.137935 0.462545
O O10 0.340046 0.945086 0.522264
O O11 0.020270 0.230964 0.357152
O O12 0.238411 0.646536 0.654280
O O13 0.000000 0.500000 0.500000
O O14 0.500000 0.500000 0.500000
O O15 0.410878 0.682878 0.420593
#
# Coordination Sequence:
#
# PCOD8044263 Si02
#       7
#     2   2   2   2   2   2   2
#     4   9  19  38  63  92 116 152 213 257 278 364
#     4   9  21  41  61  90 125 154 203 254 300 366
#     4  10  23  41  62  91 129 164 189 254 317 363
#     4  10  19  37  67  90 118 159 205 251 306 349
#     4   9  19  38  63  89 120 153 210 258 284 362
#     4  11  23  41  66  89 120 166 206 254 300 353
#     4  10  22  41  60  92 128 159 205 248 300 374
#
# _framework density 21.833155000000001
#
# number of rings (size 3 to 8) (size 9 to 14) (size 15 to 20)
#    0.000    2.286    1.429    0.000    6.000    3.429 
#    5.143    4.286    6.286    0.000    0.000    0.000 
#    0.000    0.000    0.000    0.000    0.000    0.000 
#
# Total GULP energy -173436.464812 kJ/mol
# GULP energy per Si atom -12388.318915 kJ/mol
# Density = 2.178346 g / cm^3
# Si number density = 21.833155 Si / 1000 Ang^3
#
#
#
# Elastic Constant Matrix: (Units=GPa)
#
#
# Indices 1 2 3 4 5 6 
#
# 1 86.5591 39.3322 36.4058 -4.6595 -20.9195 4.3290
# 2 39.3322 88.0616 23.6391 22.1397 6.0022 8.2748
# 3 36.4058 23.6391 83.9838 5.8104 -12.9206 -7.4413
# 4 -4.6595 22.1397 5.8104 26.5853 2.4652 7.9118
# 5 -20.9195 6.0022 -12.9206 2.4652 43.3072 -2.7708
# 6 4.3290 8.2748 -7.4413 7.9118 -2.7708 37.4982
#
#
#
# Elastic Compliance Matrix: (Units=1/GPa)
#
#
# Indices 1 2 3 4 5 6 
#
# 1 0.024207 -0.013742 -0.006576 0.017338 0.010396 -0.003957
# 2 -0.013742 0.023547 -0.000569 -0.021093 -0.008866 0.000073
# 3 -0.006576 -0.000569 0.016209 -0.006106 0.002442 0.005570
# 4 0.017338 -0.021093 -0.006106 0.062450 0.005196 -0.011351
# 5 0.010396 -0.008866 0.002442 0.005196 0.029925 0.002356
# 6 -0.003957 0.000073 0.005570 -0.011351 0.002356 0.030783
#
#
# Mechanical properties :
#
#
# Convention : Reuss Voigt Hill
#
# Bulk Modulus (GPa) = 45.06805 50.81765 47.94285
# Shear Modulus (GPa) = 21.16032 32.09329 26.62680
#
# Velocity S-wave (km/s) = 3.11655 3.83813 3.49601
# Velocity P-wave (km/s) = 5.79977 6.55497 6.18890
#
# Compressibility (1/GPa) = 0.02218867
#
# Stress axis : x y z
#
# Youngs Moduli (GPa) = 41.31114 42.46864 61.69228
#
# Poissons Ratio (x) = 0.58361 0.40569
# Poissons Ratio (y) = 0.56770 0.03510
# Poissons Ratio (z) = 0.27166 0.02416
#
# Static dielectric constant tensor:
#      x y z
#    x 4.317800 0.251290 -0.512850 
#    y 0.251290 3.764020 0.210520 
#    z -0.512850 0.210520 4.129530 
# 
# 
# High freq. dielectric constant tensor:
#      x y z
#    x 1.864980 0.026360 -0.025470 
#    y 0.026360 1.843630 0.020590 
#    z -0.025470 0.020590 1.851450 
# 
# From -- ./inp_files/153783.got.cif
#   From: 2010.06.25/outbox.cif.g09.slc.cpg/sg2_77_cif.got.tgz:153783.got - 2010.06.27 13:26:56.
