data_PCOD8044589
_publ_section_title
;
Structure prediction by ZEFSAII (Michael W. Deem and Ramdas Pophale) SiO2 
 PCOD8044589
Probable space group: P -1
;
_chemical_formula_sum "Si O2"
_cell_formula_units_Z 14
_cell_length_a 8.722401
_cell_length_b 6.686660
_cell_length_c 16.610130
_cell_angle_alpha 126.760376
_cell_angle_beta 64.016358
_cell_angle_gamma 127.184187
_cell_volume 613.886413
_symmetry_space_group_name_H-M "P -1"
_symmetry_group_IT_number 2
_symmetry_cell_setting 'triclinic'
loop_
_space_group_symop_operation_xyz
x,y,z
-x,-y,-z
loop_
_atom_site_type_symbol
_atom_site_label
_atom_site_fract_x
_atom_site_fract_y
_atom_site_fract_z
Si Si1 0.330793 0.438875 0.796955
Si Si2 0.572652 0.016084 0.347390
Si Si3 0.578106 0.284739 0.999599
Si Si4 0.048732 0.576552 0.148266
Si Si5 0.876386 0.574744 0.484954
Si Si6 0.833555 0.105953 0.641654
Si Si7 0.315331 0.932672 0.847809
O O1 0.419479 0.742402 0.803945
O O2 0.094556 0.296985 0.815886
O O3 0.403533 0.246426 0.684402
O O4 0.405434 0.475877 0.882410
O O5 0.678905 0.290475 0.444426
O O6 0.670411 0.041982 0.244469
O O7 0.351886 0.945456 0.379950
O O8 0.797674 0.382350 0.945323
O O9 0.428758 0.228998 0.945045
O O10 0.500000 0.000000 0.000000
O O11 0.167897 0.740516 0.239005
O O12 0.912726 0.238573 0.116585
O O13 0.000000 0.500000 0.500000
O O14 0.979174 0.689509 0.403449
O O15 0.828663 0.808637 0.591455
#
# Coordination Sequence:
#
# PCOD8044589 Si02
#       7
#     2   2   2   2   2   2   2
#     4   9  22  36  61  90 127 158 213 246 293 370
#     4  12  22  43  62  94 122 162 203 254 315 359
#     4  10  19  38  63  93 122 171 205 251 303 352
#     4  10  19  41  61  89 127 163 202 253 302 360
#     4  11  25  44  66  93 121 158 210 251 315 370
#     4  11  24  42  66  91 126 161 202 258 304 375
#     4   9  21  37  61  86 129 160 201 253 304 351
#
# _framework density 22.805522
#
# number of rings (size 3 to 8) (size 9 to 14) (size 15 to 20)
#    0.857    0.857    2.857    1.714    0.000    2.286 
#    5.143    0.714    0.000    0.000    0.000    0.000 
#    0.000    0.000    0.000    0.000    0.000    0.000 
#
# Total GULP energy -173532.163508 kJ/mol
# GULP energy per Si atom -12395.154536 kJ/mol
# Density = 2.275362 g / cm^3
# Si number density = 22.805522 Si / 1000 Ang^3
#
#
#
# Elastic Constant Matrix: (Units=GPa)
#
#
# Indices 1 2 3 4 5 6 
#
# 1 91.1379 -3.5002 12.8142 22.3561 12.6961 14.6705
# 2 -3.5002 24.3600 10.3225 5.2271 -0.6943 12.7833
# 3 12.8142 10.3225 72.7475 25.1543 10.1435 5.6679
# 4 22.3561 5.2271 25.1543 32.4633 3.3569 4.8763
# 5 12.6961 -0.6943 10.1435 3.3569 44.6741 -1.6927
# 6 14.6705 12.7833 5.6679 4.8763 -1.6927 35.4992
#
#
#
# Elastic Compliance Matrix: (Units=1/GPa)
#
#
# Indices 1 2 3 4 5 6 
#
# 1 0.015907 0.008578 0.001219 -0.011584 -0.004115 -0.008463
# 2 0.008578 0.057973 -0.005213 -0.007751 -0.000625 -0.022554
# 3 0.001219 -0.005213 0.020035 -0.015138 -0.003836 0.000071
# 4 -0.011584 -0.007751 -0.015138 0.050990 0.002896 0.003129
# 5 -0.004115 -0.000625 -0.003836 0.002896 0.024322 0.003300
# 6 -0.008463 -0.022554 0.000071 0.003129 0.003300 0.039505
#
#
# Mechanical properties :
#
#
# Convention : Reuss Voigt Hill
#
# Bulk Modulus (GPa) = 9.70068 25.27981 17.49024
# Shear Modulus (GPa) = 21.37435 33.76793 27.57114
#
# Velocity S-wave (km/s) = 3.06477 3.85215 3.48079
# Velocity P-wave (km/s) = 4.09715 5.55827 4.88267
#
# Compressibility (1/GPa) = 0.10308556
#
# Stress axis : x y z
#
# Youngs Moduli (GPa) = 62.86373 17.24929 49.91276
#
# Poissons Ratio (x) = -0.14797 -0.06086
# Poissons Ratio (y) = -0.53927 0.26018
# Poissons Ratio (z) = -0.07665 0.08992
#
# Static dielectric constant tensor:
#      x y z
#    x 3.950340 0.031270 0.290580 
#    y 0.031270 4.042670 0.195540 
#    z 0.290580 0.195540 4.107840 
# 
# 
# High freq. dielectric constant tensor:
#      x y z
#    x 1.896240 0.000230 0.019280 
#    y 0.000230 1.898980 0.010160 
#    z 0.019280 0.010160 1.898450 
# 
# From -- ./inp_files/553924.got.cif
#   From: 2010.06.25/outbox.cif.g09.slc.cpg/sg2_277_cif.got.tgz:553924.got - 2010.06.27 13:26:56.
