data_PCOD8044743
_publ_section_title
;
Structure prediction by ZEFSAII (Michael W. Deem and Ramdas Pophale) SiO2 
 PCOD8044743
Probable space group: P -1
;
_chemical_formula_sum "Si O2"
_cell_formula_units_Z 16
_cell_length_a 14.245922
_cell_length_b 16.839826
_cell_length_c 5.376195
_cell_angle_alpha 102.112000
_cell_angle_beta 82.195591
_cell_angle_gamma 40.034522
_cell_volume 715.398757
_symmetry_space_group_name_H-M "P -1"
_symmetry_group_IT_number 2
_symmetry_cell_setting 'triclinic'
loop_
_space_group_symop_operation_xyz
x,y,z
-x,-y,-z
loop_
_atom_site_type_symbol
_atom_site_label
_atom_site_fract_x
_atom_site_fract_y
_atom_site_fract_z
Si Si1 0.886983 0.849449 0.031508
Si Si2 0.610397 0.167400 0.303608
Si Si3 0.259799 0.613517 0.647965
Si Si4 0.183233 0.441491 0.098605
Si Si5 0.149163 0.225718 0.508539
Si Si6 0.705497 0.714038 0.520706
Si Si7 0.441863 0.371186 0.099629
Si Si8 0.425665 0.628660 0.330850
O O1 0.849058 0.832006 0.773383
O O2 0.080400 0.735124 0.914298
O O3 0.832116 0.837669 0.285338
O O4 0.790072 0.002561 0.167034
O O5 0.473737 0.194419 0.431113
O O6 0.579891 0.214353 0.059234
O O7 0.601938 0.256509 0.521058
O O8 0.303891 0.495631 0.433085
O O9 0.268899 0.682840 0.491870
O O10 0.403103 0.530633 0.739100
O O11 0.229818 0.360737 0.282080
O O12 0.332346 0.400444 0.954381
O O13 0.015971 0.605758 0.318971
O O14 0.168087 0.398461 0.824853
O O15 0.300939 0.183026 0.404462
O O16 0.534971 0.388820 0.988874
#
# Coordination Sequence:
#
# PCOD8044743 Si02
#       8
#     2   2   2   2   2   2   2   2
#     4  12  27  43  62  94 135 170 209 259 316 374
#     4  10  25  40  61  92 128 172 211 254 312 384
#     4  10  22  39  65  99 122 162 209 271 315 375
#     4  11  20  38  67  95 128 159 212 269 321 358
#     4  12  25  41  65  93 131 168 213 263 319 369
#     4  11  23  40  66  95 126 168 213 264 313 376
#     4  10  19  38  66  89 127 162 212 259 318 371
#     4  10  20  41  69  92 124 161 217 257 324 370
#
# _framework density 22.365148999999999
#
# number of rings (size 3 to 8) (size 9 to 14) (size 15 to 20)
#    0.000    1.250    2.500    3.375    3.500    1.500 
#    0.000    0.625    0.000    0.000    0.000    0.000 
#    0.000    0.000    0.000    0.000    0.000    0.000 
#
# Total GULP energy -198223.727915 kJ/mol
# GULP energy per Si atom -12388.982995 kJ/mol
# Density = 2.231425 g / cm^3
# Si number density = 22.365149 Si / 1000 Ang^3
#
#
#
# Elastic Constant Matrix: (Units=GPa)
#
#
# Indices 1 2 3 4 5 6 
#
# 1 68.4111 30.4186 15.6076 -11.1492 -6.3077 18.4541
# 2 30.4186 109.9142 44.5503 7.0425 -13.7088 9.2126
# 3 15.6076 44.5503 88.1358 -17.9591 4.9564 4.9289
# 4 -11.1492 7.0425 -17.9591 33.7063 2.7626 -3.0316
# 5 -6.3077 -13.7088 4.9564 2.7626 31.7207 -9.7815
# 6 18.4541 9.2126 4.9289 -3.0316 -9.7815 20.7747
#
#
#
# Elastic Compliance Matrix: (Units=1/GPa)
#
#
# Indices 1 2 3 4 5 6 
#
# 1 0.023605 -0.007449 0.002993 0.009668 -0.005926 -0.019755
# 2 -0.007449 0.017107 -0.010609 -0.012107 0.010010 0.004494
# 3 0.002993 -0.010609 0.019922 0.014161 -0.009974 -0.005310
# 4 0.009668 -0.012107 0.014161 0.043353 -0.010969 -0.005417
# 5 -0.005926 0.010010 -0.009974 -0.010969 0.044076 0.022344
# 6 -0.019755 0.004494 -0.005310 -0.005417 0.022344 0.074680
#
#
# Mechanical properties :
#
#
# Convention : Reuss Voigt Hill
#
# Bulk Modulus (GPa) = 32.78239 49.73490 41.25865
# Shear Modulus (GPa) = 19.00839 28.96597 23.98718
#
# Velocity S-wave (km/s) = 2.91849 3.60271 3.27850
# Velocity P-wave (km/s) = 5.10356 6.29221 5.72880
#
# Compressibility (1/GPa) = 0.03050418
#
# Stress axis : x y z
#
# Youngs Moduli (GPa) = 42.36456 58.45509 50.19489
#
# Poissons Ratio (x) = 0.43540 -0.15023
# Poissons Ratio (y) = 0.31555 0.53254
# Poissons Ratio (z) = -0.12680 0.62018
#
# Static dielectric constant tensor:
#      x y z
#    x 4.266690 0.190360 -0.034840 
#    y 0.190360 3.926620 -0.289020 
#    z -0.034840 -0.289020 4.085530 
# 
# 
# High freq. dielectric constant tensor:
#      x y z
#    x 1.892130 0.017060 0.003080 
#    y 0.017060 1.863470 -0.020290 
#    z 0.003080 -0.020290 1.885400 
# 
# From -- ./inp_files/47481.got.cif
#   From: 2010.06.25/outbox.cif.g09.slc.cpg/sg2_24_cif.got.tgz:47481.got - 2010.06.27 13:26:56.
