data_PCOD8044168
_publ_section_title
;
Structure prediction by ZEFSAII (Michael W. Deem and Ramdas Pophale) SiO2 
 PCOD8044168
Probable space group: P -1
;
_chemical_formula_sum "Si O2"
_cell_formula_units_Z 16
_cell_length_a 8.223045
_cell_length_b 19.359857
_cell_length_c 11.140601
_cell_angle_alpha 128.157260
_cell_angle_beta 62.852656
_cell_angle_gamma 147.978214
_cell_volume 729.695456
_symmetry_space_group_name_H-M "P -1"
_symmetry_group_IT_number 2
_symmetry_cell_setting 'triclinic'
loop_
_space_group_symop_operation_xyz
x,y,z
-x,-y,-z
loop_
_atom_site_type_symbol
_atom_site_label
_atom_site_fract_x
_atom_site_fract_y
_atom_site_fract_z
Si Si1 0.210973 0.665499 0.601624
Si Si2 0.621757 0.724790 0.362575
Si Si3 0.002244 0.604045 0.105990
Si Si4 0.833201 0.666728 0.603125
Si Si5 0.849612 0.105892 0.472356
Si Si6 0.669805 0.676978 0.913798
Si Si7 0.048241 0.372837 0.121960
Si Si8 0.368515 0.164388 0.761012
O O1 0.535504 0.758404 0.536815
O O2 0.000000 0.500000 0.500000
O O3 0.058246 0.675517 0.573707
O O4 0.228696 0.709599 0.779556
O O5 0.352275 0.550771 0.234960
O O6 0.691845 0.811416 0.317633
O O7 0.935034 0.795521 0.375180
O O8 0.282985 0.743240 0.247676
O O9 0.668223 0.502474 0.159997
O O10 0.000000 0.500000 0.000000
O O11 0.069193 0.662608 0.011298
O O12 0.500000 0.500000 0.500000
O O13 0.795203 0.719424 0.782594
O O14 0.995683 0.781516 0.565848
O O15 0.500000 0.000000 0.500000
O O16 0.862711 0.006990 0.330882
O O17 0.875970 0.700300 0.962097
O O18 0.677722 0.782233 0.060373
#
# Coordination Sequence:
#
# PCOD8044168 Si02
#       8
#     2   2   2   2   2   2   2   2
#     4   9  20  36  63  95 130 166 213 274 330 384
#     4  11  22  41  64  94 134 181 224 276 334 399
#     4  10  20  35  61  98 132 171 217 274 324 394
#     4  11  24  43  70 100 132 174 228 280 328 398
#     4  12  28  45  67  97 135 181 222 281 342 401
#     4  10  22  38  64  96 132 175 220 275 331 393
#     4  10  19  37  65 102 131 170 226 279 333 386
#     4  11  25  40  63  96 138 180 222 271 342 405
#
# _framework density 21.926956000000001
#
# number of rings (size 3 to 8) (size 9 to 14) (size 15 to 20)
#    0.000    1.500    2.500    3.750    5.250    3.500 
#    0.000    0.000    0.000    3.750    0.000    0.000 
#    0.000    0.000    0.000    0.000    0.000    0.000 
#
# Total GULP energy -198321.669785 kJ/mol
# GULP energy per Si atom -12395.104362 kJ/mol
# Density = 2.187705 g / cm^3
# Si number density = 21.926956 Si / 1000 Ang^3
#
#
#
# Elastic Constant Matrix: (Units=GPa)
#
#
# Indices 1 2 3 4 5 6 
#
# 1 111.9262 51.1045 38.7783 -17.3316 27.3120 -13.4103
# 2 51.1045 106.0498 43.3764 -11.5614 11.2989 -18.5234
# 3 38.7783 43.3764 65.3165 -1.3959 3.2021 -12.6018
# 4 -17.3316 -11.5614 -1.3959 28.9002 -5.5352 -3.4887
# 5 27.3120 11.2989 3.2021 -5.5352 39.9288 -2.0352
# 6 -13.4103 -18.5234 -12.6018 -3.4887 -2.0352 41.9832
#
#
#
# Elastic Compliance Matrix: (Units=1/GPa)
#
#
# Indices 1 2 3 4 5 6 
#
# 1 0.015895 -0.003048 -0.006485 0.006609 -0.008476 0.001924
# 2 -0.003048 0.015116 -0.007368 0.004162 -0.000832 0.003790
# 3 -0.006485 -0.007368 0.024086 -0.004696 0.004026 0.001712
# 4 0.006609 0.004162 -0.004696 0.040847 0.000645 0.005963
# 5 -0.008476 -0.000832 0.004026 0.000645 0.030828 -0.000318
# 6 0.001924 0.003790 0.001712 0.005963 -0.000318 0.027100
#
#
# Mechanical properties :
#
#
# Convention : Reuss Voigt Hill
#
# Bulk Modulus (GPa) = 46.95811 61.09008 54.02409
# Shear Modulus (GPa) = 25.67111 32.16467 28.91789
#
# Velocity S-wave (km/s) = 3.42534 3.83417 3.63551
# Velocity P-wave (km/s) = 6.09148 6.89364 6.50494
#
# Compressibility (1/GPa) = 0.02129558
#
# Stress axis : x y z
#
# Youngs Moduli (GPa) = 62.91356 66.15405 41.51776
#
# Poissons Ratio (x) = 0.20161 0.26924
# Poissons Ratio (y) = 0.19173 0.30592
# Poissons Ratio (z) = 0.40799 0.48745
#
# Static dielectric constant tensor:
#      x y z
#    x 4.487360 0.549180 -0.211390 
#    y 0.549180 4.874170 -0.165920 
#    z -0.211390 -0.165920 3.915050 
# 
# 
# High freq. dielectric constant tensor:
#      x y z
#    x 1.884950 -0.006770 -0.007390 
#    y -0.006770 1.842680 -0.013390 
#    z -0.007390 -0.013390 1.856520 
# 
# From -- ./inp_files/404854.got.cif
#   From: 2010.06.25/outbox.cif.g09.slc.cpg/sg2_203_cif.got.tgz:404854.got - 2010.06.27 13:26:56.
