data_PCOD8044507
_publ_section_title
;
Structure prediction by ZEFSAII (Michael W. Deem and Ramdas Pophale) SiO2 
 PCOD8044507
Probable space group: P -1
;
_chemical_formula_sum "Si O2"
_cell_formula_units_Z 12
_cell_length_a 9.000724
_cell_length_b 12.388527
_cell_length_c 16.926897
_cell_angle_alpha 40.303797
_cell_angle_beta 32.262699
_cell_angle_gamma 37.753713
_cell_volume 590.784341
_symmetry_space_group_name_H-M "P -1"
_symmetry_group_IT_number 2
_symmetry_cell_setting 'triclinic'
loop_
_space_group_symop_operation_xyz
x,y,z
-x,-y,-z
loop_
_atom_site_type_symbol
_atom_site_label
_atom_site_fract_x
_atom_site_fract_y
_atom_site_fract_z
Si Si1 0.404236 0.426978 0.201535
Si Si2 0.576135 0.606650 0.336499
Si Si3 0.623491 0.138908 0.402105
Si Si4 0.798349 0.554263 0.484093
Si Si5 0.271577 0.356916 0.133363
Si Si6 0.172870 0.005133 0.338733
O O1 0.582950 0.289011 0.268881
O O2 0.446237 0.317672 0.161168
O O3 0.032968 0.532921 0.319165
O O4 0.543761 0.576761 0.049186
O O5 0.500000 0.500000 0.500000
O O6 0.371378 0.582042 0.371073
O O7 0.929310 0.518173 0.202492
O O8 0.472083 0.815932 0.294637
O O9 0.447274 0.235729 0.508548
O O10 0.970123 0.029825 0.336906
O O11 0.500000 0.000000 0.500000
O O12 0.000000 0.500000 0.500000
O O13 0.279683 0.168115 0.203287
O O14 0.000000 0.000000 0.500000
#
# Coordination Sequence:
#
# PCOD8044507 Si02
#       6
#     2   2   2   2   2   2
#     4  10  23  42  62  90 132 165 199 262 319 355
#     4  12  21  39  66  90 120 164 213 253 305 370
#     4  11  22  39  65  94 124 161 213 257 306 374
#     4  10  19  38  62  88 120 162 201 253 305 364
#     4  11  23  43  63  93 130 164 205 258 311 369
#     4  12  22  38  66  93 120 165 215 254 302 375
#
# _framework density 20.311982
#
# number of rings (size 3 to 8) (size 9 to 14) (size 15 to 20)
#    0.000    1.000    5.000    3.000    0.000    0.667 
#    3.000    2.500    0.000    0.000    0.000    0.000 
#    0.000    0.000    0.000    0.000    0.000    0.000 
#
# Total GULP energy -148750.335146 kJ/mol
# GULP energy per Si atom -12395.861262 kJ/mol
# Density = 2.026575 g / cm^3
# Si number density = 20.311982 Si / 1000 Ang^3
#
#
#
# Elastic Constant Matrix: (Units=GPa)
#
#
# Indices 1 2 3 4 5 6 
#
# 1 98.9496 22.0543 27.7348 -20.8975 -7.7088 4.2982
# 2 22.0543 145.5150 42.5918 -17.8292 -8.4050 12.1595
# 3 27.7348 42.5918 114.7609 -18.3846 -8.5296 4.3784
# 4 -20.8975 -17.8292 -18.3846 33.9113 4.4457 -9.5321
# 5 -7.7088 -8.4050 -8.5296 4.4457 33.1319 -6.8965
# 6 4.2982 12.1595 4.3784 -9.5321 -6.8965 35.8241
#
#
#
# Elastic Compliance Matrix: (Units=1/GPa)
#
#
# Indices 1 2 3 4 5 6 
#
# 1 0.012109 -0.000571 -0.001616 0.006338 0.001600 0.000933
# 2 -0.000571 0.008099 -0.002429 0.002019 0.000668 -0.001718
# 3 -0.001616 -0.002429 0.010652 0.003577 0.001468 0.000951
# 4 0.006338 0.002019 0.003577 0.038812 -0.000565 0.008336
# 5 0.001600 0.000668 0.001468 -0.000565 0.032317 0.005473
# 6 0.000933 -0.001718 0.000951 0.008336 0.005473 0.031541
#
#
# Mechanical properties :
#
#
# Convention : Reuss Voigt Hill
#
# Bulk Modulus (GPa) = 46.23750 60.44303 53.34026
# Shear Modulus (GPa) = 33.33966 38.36311 35.85138
#
# Velocity S-wave (km/s) = 4.05579 4.35062 4.20579
# Velocity P-wave (km/s) = 6.68922 7.42019 7.06416
#
# Compressibility (1/GPa) = 0.02162747
#
# Stress axis : x y z
#
# Youngs Moduli (GPa) = 82.58252 123.46838 93.88237
#
# Poissons Ratio (x) = 0.07054 0.15169
# Poissons Ratio (y) = 0.04718 0.22807
# Poissons Ratio (z) = 0.13343 0.29994
#
# Static dielectric constant tensor:
#      x y z
#    x 4.065900 -0.241800 -0.221490 
#    y -0.241800 3.907580 1.284270 
#    z -0.221490 1.284270 4.762990 
# 
# 
# High freq. dielectric constant tensor:
#      x y z
#    x 1.817880 0.005270 -0.014310 
#    y 0.005270 1.792380 0.000590 
#    z -0.014310 0.000590 1.771440 
# 
# From -- ./inp_files/146823.got.cif
#   From: 2010.06.25/outbox.cif.g09.slc.cpg/sg2_74_cif.got.tgz:146823.got - 2010.06.27 13:26:56.
