data_PCOD8044637
_publ_section_title
;
Structure prediction by ZEFSAII (Michael W. Deem and Ramdas Pophale) SiO2 
 PCOD8044637
Probable space group: P -1
;
_chemical_formula_sum "Si O2"
_cell_formula_units_Z 16
_cell_length_a 7.641358
_cell_length_b 12.129175
_cell_length_c 9.111744
_cell_angle_alpha 95.674572
_cell_angle_beta 118.523168
_cell_angle_gamma 83.295633
_cell_volume 736.029613
_symmetry_space_group_name_H-M "P -1"
_symmetry_group_IT_number 2
_symmetry_cell_setting 'triclinic'
loop_
_space_group_symop_operation_xyz
x,y,z
-x,-y,-z
loop_
_atom_site_type_symbol
_atom_site_label
_atom_site_fract_x
_atom_site_fract_y
_atom_site_fract_z
Si Si1 0.253322 0.734234 0.408383
Si Si2 0.085889 0.397903 0.615728
Si Si3 0.211333 0.767442 0.054257
Si Si4 0.529690 0.048175 0.859832
Si Si5 0.159293 0.105859 0.217162
Si Si6 0.699392 0.018351 0.491626
Si Si7 0.305685 0.328422 0.420974
Si Si8 0.048492 0.547755 0.869347
O O1 0.085408 0.682053 0.427939
O O2 0.189447 0.748063 0.215460
O O3 0.274950 0.853004 0.505575
O O4 0.458912 0.654598 0.495376
O O5 0.000000 0.500000 0.500000
O O6 0.254937 0.330493 0.576151
O O7 0.166592 0.450252 0.806665
O O8 0.417646 0.821883 0.102530
O O9 0.187030 0.651096 0.945931
O O10 0.042630 0.859315 0.943612
O O11 0.708761 0.972955 0.848419
O O12 0.324316 0.039959 0.683959
O O13 0.500000 0.000000 0.000000
O O14 0.277109 0.210620 0.322157
O O15 0.118789 0.040115 0.345473
O O16 0.500000 0.000000 0.500000
O O17 0.167059 0.420933 0.289182
O O18 0.000000 0.500000 0.000000
#
# Coordination Sequence:
#
# PCOD8044637 Si02
#       8
#     2   2   2   2   2   2   2   2
#     4  12  21  42  71  93 129 176 213 263 334 378
#     4  10  24  43  67  95 126 163 229 269 315 388
#     4  11  22  39  66  91 129 177 210 262 329 381
#     4  11  22  38  62  96 130 165 215 263 314 389
#     4  10  20  42  62  90 136 171 208 259 324 383
#     4  10  19  38  64  90 132 172 212 259 314 401
#     4  10  22  42  69  92 128 172 215 264 326 388
#     4  10  21  42  65  92 129 165 214 278 321 373
#
# _framework density 21.738257000000001
#
# number of rings (size 3 to 8) (size 9 to 14) (size 15 to 20)
#    0.000    1.500    6.250    0.375    0.000    5.000 
#    4.500    1.875    0.000    0.000    0.000    0.000 
#    0.000    0.000    0.000    0.000    0.000    0.000 
#
# Total GULP energy -198295.873036 kJ/mol
# GULP energy per Si atom -12393.492065 kJ/mol
# Density = 2.168878 g / cm^3
# Si number density = 21.738257 Si / 1000 Ang^3
#
#
#
# Elastic Constant Matrix: (Units=GPa)
#
#
# Indices 1 2 3 4 5 6 
#
# 1 58.6837 32.8883 32.4818 3.3357 -7.1344 13.6416
# 2 32.8883 99.0964 38.0686 10.2764 0.4317 24.1921
# 3 32.4818 38.0686 148.7663 -2.6788 -8.8533 4.1481
# 4 3.3357 10.2764 -2.6788 44.1522 2.1223 -0.8632
# 5 -7.1344 0.4317 -8.8533 2.1223 29.4323 -9.0450
# 6 13.6416 24.1921 4.1481 -0.8632 -9.0450 28.1184
#
#
#
# Elastic Compliance Matrix: (Units=1/GPa)
#
#
# Indices 1 2 3 4 5 6 
#
# 1 0.023539 -0.004960 -0.003550 -0.001097 0.003043 -0.005683
# 2 -0.004960 0.016739 -0.003264 -0.003681 -0.006367 -0.013675
# 3 -0.003550 -0.003264 0.008414 0.001481 0.002926 0.004276
# 4 -0.001097 -0.003681 0.001481 0.023769 -0.000207 0.004143
# 5 0.003043 -0.006367 0.002926 -0.000207 0.040834 0.016699
# 6 -0.005683 -0.013675 0.004276 0.004143 0.016699 0.054954
#
#
# Mechanical properties :
#
#
# Convention : Reuss Voigt Hill
#
# Bulk Modulus (GPa) = 39.77382 57.04707 48.41044
# Shear Modulus (GPa) = 24.97739 33.88109 29.42924
#
# Velocity S-wave (km/s) = 3.39338 3.95218 3.68339
# Velocity P-wave (km/s) = 5.80429 6.86484 6.35672
#
# Compressibility (1/GPa) = 0.02514217
#
# Stress axis : x y z
#
# Youngs Moduli (GPa) = 42.48262 59.73959 118.84934
#
# Poissons Ratio (x) = 0.29633 0.42196
# Poissons Ratio (y) = 0.21073 0.38796
# Poissons Ratio (z) = 0.15083 0.19501
#
# Static dielectric constant tensor:
#      x y z
#    x 3.877810 0.026940 -0.069340 
#    y 0.026940 3.905410 -0.180760 
#    z -0.069340 -0.180760 4.689780 
# 
# 
# High freq. dielectric constant tensor:
#      x y z
#    x 1.813730 0.007810 -0.002830 
#    y 0.007810 1.867770 0.007170 
#    z -0.002830 0.007170 1.874580 
# 
# From -- ./inp_files/187913.got.cif
#   From: 2010.06.25/outbox.cif.g09.slc.cpg/sg2_94_cif.got.tgz:187913.got - 2010.06.27 13:26:56.
