data_PCOD8044722
_publ_section_title
;
Structure prediction by ZEFSAII (Michael W. Deem and Ramdas Pophale) SiO2 
 PCOD8044722
Probable space group: P -1
;
_chemical_formula_sum "Si O2"
_cell_formula_units_Z 14
_cell_length_a 8.731995
_cell_length_b 12.272166
_cell_length_c 11.629505
_cell_angle_alpha 54.922571
_cell_angle_beta 141.015292
_cell_angle_gamma 123.102547
_cell_volume 629.540543
_symmetry_space_group_name_H-M "P -1"
_symmetry_group_IT_number 2
_symmetry_cell_setting 'triclinic'
loop_
_space_group_symop_operation_xyz
x,y,z
-x,-y,-z
loop_
_atom_site_type_symbol
_atom_site_label
_atom_site_fract_x
_atom_site_fract_y
_atom_site_fract_z
Si Si1 0.595389 0.537729 0.854366
Si Si2 0.475839 0.733742 0.125917
Si Si3 0.832378 0.805110 0.082303
Si Si4 0.751634 0.965738 0.716230
Si Si5 0.063815 0.230514 0.208246
Si Si6 0.717206 0.625720 0.519475
Si Si7 0.850267 0.498812 0.246590
O O1 0.589158 0.431428 0.812454
O O2 0.798786 0.669865 0.869836
O O3 0.317975 0.566499 0.702328
O O4 0.680519 0.456904 0.061166
O O5 0.623982 0.799028 0.062175
O O6 0.630590 0.750163 0.325150
O O7 0.230985 0.794578 0.959870
O O8 0.913698 0.661643 0.196332
O O9 0.719080 0.855875 0.868222
O O10 0.079743 0.900872 0.213959
O O11 0.872127 0.913414 0.702993
O O12 0.500000 0.000000 0.500000
O O13 0.153803 0.294426 0.343728
O O14 0.500000 0.500000 0.500000
O O15 0.907303 0.565711 0.584396
#
# Coordination Sequence:
#
# PCOD8044722 Si02
#       7
#     2   2   2   2   2   2   2
#     4  10  19  38  65  97 133 171 203 261 337 383
#     4  11  24  42  66  99 137 172 207 270 329 393
#     4  10  25  47  68  93 130 175 224 269 321 376
#     4  11  27  46  71  92 122 175 231 277 315 382
#     4  12  24  42  65  95 138 169 211 274 330 379
#     4  12  25  37  65 106 137 170 212 254 332 405
#     4  10  21  39  66  98 134 171 210 265 324 394
#
# _framework density 22.238439
#
# number of rings (size 3 to 8) (size 9 to 14) (size 15 to 20)
#    0.000    1.143    4.286    1.286    2.000    6.286 
#    0.000    1.429    0.000    0.000    0.000    0.000 
#    0.000    0.000    0.000    0.000    0.000    0.000 
#
# Total GULP energy -173501.695114 kJ/mol
# GULP energy per Si atom -12392.978222 kJ/mol
# Density = 2.218782 g / cm^3
# Si number density = 22.238439 Si / 1000 Ang^3
#
#
#
# Elastic Constant Matrix: (Units=GPa)
#
#
# Indices 1 2 3 4 5 6 
#
# 1 134.5056 31.5869 73.1979 -0.4072 21.7459 -6.9874
# 2 31.5869 43.2419 39.2026 7.0863 -2.0840 -5.3326
# 3 73.1979 39.2026 151.4886 12.6719 16.5629 -11.3094
# 4 -0.4072 7.0863 12.6719 14.8346 1.4420 2.0507
# 5 21.7459 -2.0840 16.5629 1.4420 41.7860 -2.0919
# 6 -6.9874 -5.3326 -11.3094 2.0507 -2.0919 31.4866
#
#
#
# Elastic Compliance Matrix: (Units=1/GPa)
#
#
# Indices 1 2 3 4 5 6 
#
# 1 0.012161 -0.006616 -0.004302 0.007795 -0.005264 -0.000824
# 2 -0.006616 0.036231 -0.005586 -0.014080 0.008156 0.004121
# 3 -0.004302 -0.005586 0.011127 -0.007086 -0.002084 0.002419
# 4 0.007795 -0.014080 -0.007086 0.082141 -0.005230 -0.008897
# 5 -0.005264 0.008156 -0.002084 -0.005230 0.028168 0.001677
# 6 -0.000824 0.004121 0.002419 -0.008897 0.001677 0.033834
#
#
# Mechanical properties :
#
#
# Convention : Reuss Voigt Hill
#
# Bulk Modulus (GPa) = 37.71950 68.57898 53.14924
# Shear Modulus (GPa) = 20.36609 29.97137 25.16873
#
# Velocity S-wave (km/s) = 3.02951 3.67512 3.36782
# Velocity P-wave (km/s) = 5.40698 6.99383 6.25097
#
# Compressibility (1/GPa) = 0.02651149
#
# Stress axis : x y z
#
# Youngs Moduli (GPa) = 82.22779 27.60089 89.87469
#
# Poissons Ratio (x) = 0.18260 0.38666
# Poissons Ratio (y) = 0.54401 0.50200
# Poissons Ratio (z) = 0.35376 0.15416
#
# Static dielectric constant tensor:
#      x y z
#    x 4.259230 -0.114020 -0.096150 
#    y -0.114020 3.985970 0.203010 
#    z -0.096150 0.203010 3.953890 
# 
# 
# High freq. dielectric constant tensor:
#      x y z
#    x 1.890600 -0.010900 -0.003170 
#    y -0.010900 1.868660 0.022100 
#    z -0.003170 0.022100 1.869740 
# 
# From -- ./inp_files/263246.got.cif
#   From: 2010.06.25/outbox.cif.g09.slc.cpg/sg2_132_cif.got.tgz:263246.got - 2010.06.27 13:26:56.
