data_PCOD8044834
_publ_section_title
;
Structure prediction by ZEFSAII (Michael W. Deem and Ramdas Pophale) SiO2 
 PCOD8044834
Probable space group: P 2
;
_chemical_formula_sum "Si O2"
_cell_formula_units_Z 16
_cell_length_a 20.772310
_cell_length_b 9.261754
_cell_length_c 8.981536
_cell_angle_alpha 90.000000
_cell_angle_beta 150.515740
_cell_angle_gamma 90.000000
_cell_volume 850.465172
_symmetry_space_group_name_H-M "P 2"
_symmetry_group_IT_number 3
_symmetry_cell_setting 'monoclinic'
loop_
_space_group_symop_operation_xyz
x,y,z
-x,y,-z
loop_
_atom_site_type_symbol
_atom_site_label
_atom_site_fract_x
_atom_site_fract_y
_atom_site_fract_z
Si Si1 0.337713 0.009490 0.910806
Si Si2 0.738277 0.001164 0.565407
Si Si3 0.039671 0.794016 0.917391
Si Si4 0.875455 0.907065 0.333740
Si Si5 0.401902 0.505544 0.438069
Si Si6 0.523920 0.764927 0.207219
Si Si7 0.868128 0.620556 0.151181
Si Si8 0.448573 0.229863 0.729101
O O1 0.251628 0.036040 0.589663
O O2 0.243339 0.016137 0.867719
O O3 0.445312 0.134566 0.147622
O O4 0.399580 0.848916 0.025197
O O5 0.691634 0.147683 0.553554
O O6 0.628648 0.883883 0.374913
O O7 0.873790 0.940264 0.900192
O O8 0.106978 0.655382 0.973624
O O9 0.913504 0.838525 0.569337
O O10 0.000000 0.738781 0.000000
O O11 0.825608 0.775672 0.131833
O O12 0.000000 0.981871 0.500000
O O13 0.500000 0.484420 0.500000
O O14 0.426522 0.656275 0.568847
O O15 0.426142 0.379950 0.603875
O O16 0.251313 0.507228 0.075087
O O17 0.500000 0.683749 0.000000
O O18 0.000000 0.562072 0.500000
O O19 0.500000 0.254131 0.000000
#
# Coordination Sequence:
#
# PCOD8044834 Si02
#       8
#     2   2   2   2   2   2   2   2
#     4   9  16  33  55  83 112 137 175 234 289 328
#     4   9  16  32  56  84 108 134 177 234 281 328
#     4  10  16  29  57  89 107 138 181 227 278 343
#     4   9  18  30  49  84 115 144 171 228 283 332
#     4  12  22  37  56  82 111 157 195 228 270 336
#     4   9  18  31  57  86 106 135 181 235 287 330
#     4   9  21  37  54  81 122 149 180 237 289 322
#     4   9  21  38  56  77 113 148 182 237 284 320
#
# _framework density 18.813233
#
# number of rings (size 3 to 8) (size 9 to 14) (size 15 to 20)
#    0.000    2.750    2.500    2.625    0.000    0.000 
#    4.500    1.250    2.750    0.750    0.000    0.000 
#    0.000    0.000    0.000    0.000    0.000    0.000 
#
# Total GULP energy -198256.906703 kJ/mol
# GULP energy per Si atom -12391.056669 kJ/mol
# Density = 1.877041 g / cm^3
# Si number density = 18.813233 Si / 1000 Ang^3
#
#
#
# Elastic Constant Matrix: (Units=GPa)
#
#
# Indices 1 2 3 4 5 6 
#
# 1 134.1733 35.6964 38.3690 0.0000 12.7449 0.0000
# 2 35.6964 51.8164 29.1433 0.0000 7.0409 0.0000
# 3 38.3690 29.1433 77.3892 0.0000 5.9225 0.0000
# 4 0.0000 0.0000 0.0000 23.5208 0.0000 -4.8671
# 5 12.7449 7.0409 5.9225 0.0000 28.9142 0.0000
# 6 0.0000 0.0000 0.0000 -4.8671 0.0000 9.2782
#
#
#
# Elastic Compliance Matrix: (Units=1/GPa)
#
#
# Indices 1 2 3 4 5 6 
#
# 1 0.009786 -0.004789 -0.002852 0.000000 -0.002563 0.000000
# 2 -0.004789 0.027326 -0.007689 0.000000 -0.002968 0.000000
# 3 -0.002852 -0.007689 0.017262 0.000000 -0.000406 0.000000
# 4 0.000000 0.000000 0.000000 0.047693 0.000000 0.025018
# 5 -0.002563 -0.002968 -0.000406 0.000000 0.036521 0.000000
# 6 0.000000 0.000000 0.000000 0.025018 0.000000 0.120903
#
#
# Mechanical properties :
#
#
# Convention : Reuss Voigt Hill
#
# Bulk Modulus (GPa) = 42.16925 52.19959 47.18442
# Shear Modulus (GPa) = 16.77531 23.02064 19.89797
#
# Velocity S-wave (km/s) = 2.98933 3.50185 3.25569
# Velocity P-wave (km/s) = 5.86329 6.64508 6.26639
#
# Compressibility (1/GPa) = 0.02371396
#
# Stress axis : x y z
#
# Youngs Moduli (GPa) = 102.18308 36.59515 57.92942
#
# Poissons Ratio (x) = 0.17527 0.16523
# Poissons Ratio (y) = 0.48939 0.44541
# Poissons Ratio (z) = 0.29145 0.28137
#
# Static dielectric constant tensor:
#      x y z
#    x 3.683140 0.000000 0.017810 
#    y 0.000000 3.102450 0.000000 
#    z 0.017810 0.000000 3.663680 
# 
# 
# High freq. dielectric constant tensor:
#      x y z
#    x 1.741980 0.000000 -0.001090 
#    y 0.000000 1.682250 0.000000 
#    z -0.001090 0.000000 1.729570 
# 
# From -- ./inp_files/7199.got.cif
#   From: 2010.03.12/outbox.cif.g09.slc.cpg/sg3_4_cif.got.tgz:7199.got - 2010.03.31 09:20:49.
