data_PCOD8044709
_publ_section_title
;
Structure prediction by ZEFSAII (Michael W. Deem and Ramdas Pophale) SiO2 
 PCOD8044709
Probable space group: P -1
;
_chemical_formula_sum "Si O2"
_cell_formula_units_Z 12
_cell_length_a 16.571111
_cell_length_b 9.834193
_cell_length_c 12.796941
_cell_angle_alpha 146.776940
_cell_angle_beta 153.377151
_cell_angle_gamma 42.957821
_cell_volume 510.933538
_symmetry_space_group_name_H-M "P -1"
_symmetry_group_IT_number 2
_symmetry_cell_setting 'triclinic'
loop_
_space_group_symop_operation_xyz
x,y,z
-x,-y,-z
loop_
_atom_site_type_symbol
_atom_site_label
_atom_site_fract_x
_atom_site_fract_y
_atom_site_fract_z
Si Si1 0.984205 0.379544 0.291383
Si Si2 0.405367 0.636436 0.131575
Si Si3 0.667545 0.833169 0.403148
Si Si4 0.881724 0.218946 0.464134
Si Si5 0.373662 0.550566 0.542239
Si Si6 0.560958 0.868643 0.801316
O O1 0.000000 0.500000 0.500000
O O2 0.127803 0.163943 0.311866
O O3 0.013786 0.591506 0.372618
O O4 0.778369 0.258865 0.965796
O O5 0.524399 0.846962 0.341453
O O6 0.523748 0.546916 0.303765
O O7 0.357308 0.416026 0.853414
O O8 0.623962 0.066581 0.430723
O O9 0.820085 0.364403 0.589333
O O10 0.000000 0.000000 0.500000
O O11 0.700634 0.107978 0.124897
O O12 0.500284 0.777694 0.787265
O O13 0.337679 0.342851 0.278230
#
# Coordination Sequence:
#
# PCOD8044709 Si02
#       6
#     2   2   2   2   2   2
#     4  10  21  36  65 100 122 160 219 256 306 390
#     4  10  19  39  65  92 127 163 211 260 311 380
#     4  10  19  38  65  92 126 166 208 259 316 372
#     4  12  24  41  67  91 126 175 207 262 325 367
#     4  11  24  42  63  94 128 167 217 261 311 384
#     4  11  24  41  65  93 126 171 212 261 319 375
#
# _framework density 23.486419999999999
#
# number of rings (size 3 to 8) (size 9 to 14) (size 15 to 20)
#    0.000    1.333    3.333    3.500    4.667    1.333 
#    0.000    0.833    0.000    0.000    0.000    0.000 
#    0.000    0.000    0.000    0.000    0.000    0.000 
#
# Total GULP energy -148774.733757 kJ/mol
# GULP energy per Si atom -12397.894480 kJ/mol
# Density = 2.343296 g / cm^3
# Si number density = 23.486420 Si / 1000 Ang^3
#
#
#
# Elastic Constant Matrix: (Units=GPa)
#
#
# Indices 1 2 3 4 5 6 
#
# 1 106.3553 -34.4939 -22.1332 31.2340 -15.2624 4.4620
# 2 -34.4939 -17.3519 -68.4005 39.5288 -59.8940 11.1462
# 3 -22.1332 -68.4005 -2.2834 26.5771 -13.0314 7.5010
# 4 31.2340 39.5288 26.5771 -5.0555 31.9095 -4.6392
# 5 -15.2624 -59.8940 -13.0314 31.9095 -6.2294 3.2697
# 6 4.4620 11.1462 7.5010 -4.6392 3.2697 44.0657
#
#
#
# Elastic Compliance Matrix: (Units=1/GPa)
#
#
# Indices 1 2 3 4 5 6 
#
# 1 0.008363 -0.002648 -0.000773 -0.002190 -0.004600 0.000065
# 2 -0.002648 0.010908 0.007832 0.019659 -0.014428 -0.000684
# 3 -0.000773 0.007832 0.074863 0.032452 -0.067066 -0.006253
# 4 -0.002190 0.019659 0.032452 0.047408 -0.011038 -0.004465
# 5 -0.004600 -0.014428 -0.067066 -0.011038 0.077737 0.008601
# 6 0.000065 -0.000684 -0.006253 -0.004465 0.008601 0.022816
#
#
# Mechanical properties :
#
#
# Convention : Reuss Voigt Hill
#
# Bulk Modulus (GPa) = 9.71279 -18.14835 -4.21778
# Shear Modulus (GPa) = 18.68525 20.67268 19.67897
#
# Velocity S-wave (km/s) = 2.82366 2.97003 2.89777
# Velocity P-wave (km/s) = 3.84385 2.00437 3.06535
#
# Compressibility (1/GPa) = 0.10295702
#
# Stress axis : x y z
#
# Youngs Moduli (GPa) = 119.57190 91.67915 13.35765
#
# Poissons Ratio (x) = 0.24274 0.01032
# Poissons Ratio (y) = 0.31659 -0.10461
# Poissons Ratio (z) = 0.09239 -0.71801
#
# Static dielectric constant tensor:
#      x y z
#    x 4.835960 -0.332120 0.264750 
#    y -0.332120 4.415470 -0.332580 
#    z 0.264750 -0.332580 4.232400 
# 
# 
# High freq. dielectric constant tensor:
#      x y z
#    x 1.952490 -0.003970 -0.000410 
#    y -0.003970 1.938170 -0.011260 
#    z -0.000410 -0.011260 1.903930 
# 
# From -- ./inp_files/185184.got.cif
#   From: 2010.06.25/outbox.cif.g09.slc.cpg/sg2_93_cif.got.tgz:185184.got - 2010.06.27 13:26:56.
