data_PCOD8044766
_publ_section_title
;
Structure prediction by ZEFSAII (Michael W. Deem and Ramdas Pophale) SiO2 
 PCOD8044766
Probable space group: P -1
;
_chemical_formula_sum "Si O2"
_cell_formula_units_Z 16
_cell_length_a 9.851490
_cell_length_b 26.100184
_cell_length_c 9.738992
_cell_angle_alpha 43.472941
_cell_angle_beta 42.072727
_cell_angle_gamma 27.581960
_cell_volume 758.165036
_symmetry_space_group_name_H-M "P -1"
_symmetry_group_IT_number 2
_symmetry_cell_setting 'triclinic'
loop_
_space_group_symop_operation_xyz
x,y,z
-x,-y,-z
loop_
_atom_site_type_symbol
_atom_site_label
_atom_site_fract_x
_atom_site_fract_y
_atom_site_fract_z
Si Si1 0.792021 0.363212 0.890817
Si Si2 0.620147 0.743480 0.928677
Si Si3 0.356106 0.756141 0.849331
Si Si4 0.792322 0.213159 0.626265
Si Si5 0.516318 0.784973 0.390569
Si Si6 0.716139 0.024153 0.186300
Si Si7 0.294949 0.001742 0.062930
Si Si8 0.229499 0.624810 0.800931
O O1 0.558252 0.495413 0.783687
O O2 0.121379 0.299121 0.715473
O O3 0.682672 0.322021 0.966793
O O4 0.808544 0.336260 0.090726
O O5 0.632076 0.709024 0.831208
O O6 0.541437 0.854506 0.779697
O O7 0.960430 0.639948 0.939013
O O8 0.370884 0.760227 0.159152
O O9 0.422081 0.763178 0.633355
O O10 0.056777 0.877443 0.902403
O O11 0.575082 0.236245 0.631964
O O12 0.800910 0.298588 0.430659
O O13 0.149169 0.082327 0.616190
O O14 0.323393 0.914064 0.283259
O O15 0.590295 0.032007 0.116498
O O16 0.000000 0.000000 0.000000
O O17 0.500000 0.000000 0.000000
#
# Coordination Sequence:
#
# PCOD8044766 Si02
#       8
#     2   2   2   2   2   2   2   2
#     4  11  25  45  64  98 132 165 230 277 314 383
#     4  11  23  44  67  96 138 166 213 273 325 385
#     4  12  25  41  67 100 136 172 211 268 334 385
#     4  11  21  41  70  94 127 173 217 262 325 391
#     4  12  23  41  69  99 133 172 216 263 329 393
#     4  10  19  38  66  94 129 167 206 261 316 394
#     4  12  22  38  68  99 139 169 204 269 329 385
#     4  11  25  43  70  95 122 178 229 269 321 382
#
# _framework density 21.103584000000001
#
# number of rings (size 3 to 8) (size 9 to 14) (size 15 to 20)
#    0.000    0.750    8.750    0.375    0.000    4.500 
#    0.000    1.250    0.000    0.000    0.000    0.000 
#    0.000    0.000    0.000    0.000    0.000    0.000 
#
# Total GULP energy -198428.499589 kJ/mol
# GULP energy per Si atom -12401.781224 kJ/mol
# Density = 2.105555 g / cm^3
# Si number density = 21.103584 Si / 1000 Ang^3
#
#
#
# Elastic Constant Matrix: (Units=GPa)
#
#
# Indices 1 2 3 4 5 6 
#
# 1 139.7509 25.4259 9.6481 -2.7771 4.4368 -1.5224
# 2 25.4259 58.5638 23.1767 -15.4178 -3.2900 0.4616
# 3 9.6481 23.1767 69.0846 -16.5160 -1.2875 -2.4154
# 4 -2.7771 -15.4178 -16.5160 19.1371 -0.3057 6.3427
# 5 4.4368 -3.2900 -1.2875 -0.3057 22.5388 -5.8671
# 6 -1.5224 0.4616 -2.4154 6.3427 -5.8671 21.1525
#
#
#
# Elastic Compliance Matrix: (Units=1/GPa)
#
#
# Indices 1 2 3 4 5 6 
#
# 1 0.007960 -0.004179 -0.000409 -0.002906 -0.001996 0.000935
# 2 -0.004179 0.025513 -0.003615 0.018899 0.003008 -0.006103
# 3 -0.000409 -0.003615 0.019059 0.014117 0.000335 -0.001914
# 4 -0.002906 0.018899 0.014117 0.087737 -0.001362 -0.025696
# 5 -0.001996 0.003008 0.000335 -0.001362 0.048785 0.013769
# 6 0.000935 -0.006103 -0.001914 -0.025696 0.013769 0.058782
#
#
# Mechanical properties :
#
#
# Convention : Reuss Voigt Hill
#
# Bulk Modulus (GPa) = 27.68020 42.65562 35.16791
# Shear Modulus (GPa) = 18.09745 26.50891 22.30318
#
# Velocity S-wave (km/s) = 2.93158 3.54804 3.25444
# Velocity P-wave (km/s) = 4.96021 6.08615 5.55180
#
# Compressibility (1/GPa) = 0.03612690
#
# Stress axis : x y z
#
# Youngs Moduli (GPa) = 125.62999 39.19632 52.46861
#
# Poissons Ratio (x) = 0.16378 0.02147
# Poissons Ratio (y) = 0.52495 0.18965
# Poissons Ratio (z) = 0.05140 0.14168
#
# Static dielectric constant tensor:
#      x y z
#    x 3.992500 -0.100750 0.076310 
#    y -0.100750 3.963200 -0.107270 
#    z 0.076310 -0.107270 3.728920 
# 
# 
# High freq. dielectric constant tensor:
#      x y z
#    x 1.841870 -0.007360 -0.000670 
#    y -0.007360 1.821100 -0.007390 
#    z -0.000670 -0.007390 1.814520 
# 
# From -- ./inp_files/216859.got.cif
#   From: 2010.06.25/outbox.cif.g09.slc.cpg/sg2_109_cif.got.tgz:216859.got - 2010.06.27 13:26:56.
