data_PCOD8044763
_publ_section_title
;
Structure prediction by ZEFSAII (Michael W. Deem and Ramdas Pophale) SiO2 
 PCOD8044763
Probable space group: P -1
;
_chemical_formula_sum "Si O2"
_cell_formula_units_Z 16
_cell_length_a 10.927871
_cell_length_b 8.901384
_cell_length_c 14.168783
_cell_angle_alpha 38.669610
_cell_angle_beta 74.764537
_cell_angle_gamma 90.335357
_cell_volume 778.332571
_symmetry_space_group_name_H-M "P -1"
_symmetry_group_IT_number 2
_symmetry_cell_setting 'triclinic'
loop_
_space_group_symop_operation_xyz
x,y,z
-x,-y,-z
loop_
_atom_site_type_symbol
_atom_site_label
_atom_site_fract_x
_atom_site_fract_y
_atom_site_fract_z
Si Si1 0.511382 0.032153 0.200122
Si Si2 0.458262 0.695058 0.655746
Si Si3 0.665903 0.806945 0.707492
Si Si4 0.371210 0.510672 0.396660
Si Si5 0.056405 0.788201 0.052798
Si Si6 0.188225 0.711746 0.686707
Si Si7 0.704270 0.346582 0.859980
Si Si8 0.773253 0.027785 0.252027
O O1 0.399270 0.149468 0.202438
O O2 0.637088 0.083232 0.222185
O O3 0.430320 0.730824 0.353386
O O4 0.566063 0.146779 0.030380
O O5 0.536077 0.629477 0.759588
O O6 0.509515 0.599152 0.598128
O O7 0.296389 0.568792 0.753631
O O8 0.500000 0.000000 0.500000
O O9 0.748760 0.609392 0.787702
O O10 0.757295 0.074589 0.511028
O O11 0.313502 0.607250 0.269036
O O12 0.253538 0.275830 0.584802
O O13 0.179572 0.778325 0.097354
O O14 0.946716 0.503082 0.216053
O O15 0.106353 0.859628 0.901217
O O16 0.000000 0.000000 0.000000
O O17 0.169834 0.844648 0.721963
#
# Coordination Sequence:
#
# PCOD8044763 Si02
#       8
#     2   2   2   2   2   2   2   2
#     4  11  22  34  64 102 128 153 199 255 322 364
#     4   9  16  32  60  92 119 154 192 250 301 366
#     4  10  19  38  66  94 123 154 203 255 309 376
#     4  11  21  38  64  94 130 160 197 258 323 360
#     4  11  28  43  62  89 123 165 216 258 297 357
#     4  11  20  40  66  88 124 167 209 247 304 361
#     4  10  23  44  58  88 134 162 201 252 309 373
#     4  11  21  41  62  93 124 165 211 247 297 380
#
# _framework density 20.556764999999999
#
# number of rings (size 3 to 8) (size 9 to 14) (size 15 to 20)
#    0.000    1.500    5.000    2.250    5.250    0.500 
#    0.000    1.875    0.000    0.000    0.000    0.000 
#    0.000    0.000    0.000    0.000    0.000    0.000 
#
# Total GULP energy -198308.495046 kJ/mol
# GULP energy per Si atom -12394.280940 kJ/mol
# Density = 2.050998 g / cm^3
# Si number density = 20.556765 Si / 1000 Ang^3
#
#
#
# Elastic Constant Matrix: (Units=GPa)
#
#
# Indices 1 2 3 4 5 6 
#
# 1 62.5269 29.9852 31.7042 1.7318 -4.2706 -19.2342
# 2 29.9852 74.2435 5.3211 -14.6654 -7.5053 -17.2762
# 3 31.7042 5.3211 100.9384 0.6456 -8.8784 -1.3634
# 4 1.7318 -14.6654 0.6456 35.3047 -0.6011 0.6096
# 5 -4.2706 -7.5053 -8.8784 -0.6011 28.8960 -2.3462
# 6 -19.2342 -17.2762 -1.3634 0.6096 -2.3462 30.7637
#
#
#
# Elastic Compliance Matrix: (Units=1/GPa)
#
#
# Indices 1 2 3 4 5 6 
#
# 1 0.028516 -0.009015 -0.008258 -0.005204 0.000244 0.012522
# 2 -0.009015 0.020759 0.002245 0.009007 0.005453 0.006359
# 3 -0.008258 0.002245 0.012596 0.001213 0.003003 -0.003139
# 4 -0.005204 0.009007 0.001213 0.032321 0.002731 0.001426
# 5 0.000244 0.005453 0.003003 0.002731 0.037539 0.006157
# 6 0.012522 0.006359 -0.003139 0.001426 0.006157 0.044208
#
#
# Mechanical properties :
#
#
# Convention : Reuss Voigt Hill
#
# Bulk Modulus (GPa) = 31.42945 41.30331 36.36638
# Shear Modulus (GPa) = 23.08403 30.37278 26.72840
#
# Velocity S-wave (km/s) = 3.35467 3.84801 3.60977
# Velocity P-wave (km/s) = 5.50703 6.31497 5.92478
#
# Compressibility (1/GPa) = 0.03181729
#
# Stress axis : x y z
#
# Youngs Moduli (GPa) = 35.06808 48.17141 79.38806
#
# Poissons Ratio (x) = 0.43424 0.65555
# Poissons Ratio (y) = 0.31612 -0.17822
# Poissons Ratio (z) = 0.28958 -0.10814
#
# Static dielectric constant tensor:
#      x y z
#    x 4.012640 -0.261290 0.127390 
#    y -0.261290 3.672350 -0.054820 
#    z 0.127390 -0.054820 3.846110 
# 
# 
# High freq. dielectric constant tensor:
#      x y z
#    x 1.777080 -0.012280 0.006590 
#    y -0.012280 1.804180 -0.000800 
#    z 0.006590 -0.000800 1.809540 
# 
# From -- ./inp_files/271237.got.cif
#   From: 2010.06.25/outbox.cif.g09.slc.cpg/sg2_136_cif.got.tgz:271237.got - 2010.06.27 13:26:56.
