data_PCOD8044287
_publ_section_title
;
Structure prediction by ZEFSAII (Michael W. Deem and Ramdas Pophale) SiO2 
 PCOD8044287
Probable space group: P -1
;
_chemical_formula_sum "Si O2"
_cell_formula_units_Z 16
_cell_length_a 9.809980
_cell_length_b 13.851463
_cell_length_c 8.677535
_cell_angle_alpha 136.256606
_cell_angle_beta 64.019259
_cell_angle_gamma 100.846787
_cell_volume 717.108505
_symmetry_space_group_name_H-M "P -1"
_symmetry_group_IT_number 2
_symmetry_cell_setting 'triclinic'
loop_
_space_group_symop_operation_xyz
x,y,z
-x,-y,-z
loop_
_atom_site_type_symbol
_atom_site_label
_atom_site_fract_x
_atom_site_fract_y
_atom_site_fract_z
Si Si1 0.849803 0.752526 0.692941
Si Si2 0.778402 0.047491 0.914979
Si Si3 0.796656 0.726656 0.044207
Si Si4 0.829787 0.174519 0.347110
Si Si5 0.105154 0.001995 0.621723
Si Si6 0.526601 0.340254 0.851826
Si Si7 0.293944 0.748333 0.056004
Si Si8 0.074558 0.531485 0.838105
O O1 0.785491 0.751595 0.895686
O O2 0.824512 0.614610 0.451454
O O3 0.035195 0.739315 0.586867
O O4 0.753079 0.896029 0.817241
O O5 0.650251 0.150299 0.989002
O O6 0.923082 0.022427 0.689954
O O7 0.815717 0.152046 0.147613
O O8 0.934176 0.593395 0.862164
O O9 0.825693 0.859771 0.286963
O O10 0.630062 0.711541 0.168987
O O11 0.663116 0.254705 0.581078
O O12 0.885190 0.018328 0.218563
O O13 0.196534 0.850157 0.347883
O O14 0.558712 0.332093 0.011805
O O15 0.500000 0.500000 0.000000
O O16 0.192772 0.638730 0.916533
O O17 0.000000 0.500000 0.000000
#
# Coordination Sequence:
#
# PCOD8044287 Si02
#       8
#     2   2   2   2   2   2   2   2
#     4  11  22  40  68 101 129 167 218 270 312 385
#     4  11  19  39  66 101 127 161 217 274 324 363
#     4  12  23  42  69  97 125 171 224 264 313 383
#     4  10  19  39  66  94 130 168 213 260 320 385
#     4  10  19  37  68  97 125 165 217 264 314 378
#     4  11  26  46  62  91 136 177 210 258 334 389
#     4  11  24  40  65  96 132 172 208 266 332 381
#     4  12  24  39  64 101 131 167 220 269 316 378
#
# _framework density 22.311826
#
# number of rings (size 3 to 8) (size 9 to 14) (size 15 to 20)
#    0.000    1.000    3.750    5.250    1.750    3.000 
#    0.000    4.375    0.000    0.000    0.000    0.000 
#    0.000    0.000    0.000    0.000    0.000    0.000 
#
# Total GULP energy -198281.978158 kJ/mol
# GULP energy per Si atom -12392.623635 kJ/mol
# Density = 2.226104 g / cm^3
# Si number density = 22.311826 Si / 1000 Ang^3
#
#
#
# Elastic Constant Matrix: (Units=GPa)
#
#
# Indices 1 2 3 4 5 6 
#
# 1 78.7893 31.6497 12.6832 17.5351 -0.4882 -5.6796
# 2 31.6497 118.8072 26.8141 29.7714 3.4546 -18.1658
# 3 12.6832 26.8141 79.8526 27.1865 11.4134 5.3202
# 4 17.5351 29.7714 27.1865 29.2221 2.8009 -2.4682
# 5 -0.4882 3.4546 11.4134 2.8009 24.7180 -2.4974
# 6 -5.6796 -18.1658 5.3202 -2.4682 -2.4974 48.2985
#
#
#
# Elastic Compliance Matrix: (Units=1/GPa)
#
#
# Indices 1 2 3 4 5 6 
#
# 1 0.015217 -0.002278 0.000708 -0.007539 0.001200 0.000531
# 2 -0.002278 0.012342 -0.000502 -0.010414 0.000036 0.003899
# 3 0.000708 -0.000502 0.020085 -0.018188 -0.007496 -0.003635
# 4 -0.007539 -0.010414 -0.018188 0.066115 0.002283 0.000697
# 5 0.001200 0.000036 -0.007496 0.002283 0.044019 0.003373
# 6 0.000531 0.003899 -0.003635 0.000697 0.003373 0.022844
#
#
# Mechanical properties :
#
#
# Convention : Reuss Voigt Hill
#
# Bulk Modulus (GPa) = 22.98868 46.63813 34.81340
# Shear Modulus (GPa) = 25.09215 34.20118 29.64667
#
# Velocity S-wave (km/s) = 3.35716 3.91944 3.64915
# Velocity P-wave (km/s) = 5.03519 6.43669 5.77858
#
# Compressibility (1/GPa) = 0.04349968
#
# Stress axis : x y z
#
# Youngs Moduli (GPa) = 65.71701 81.02503 49.78832
#
# Poissons Ratio (x) = 0.18457 -0.03524
# Poissons Ratio (y) = 0.14970 0.02498
# Poissons Ratio (z) = -0.04651 0.04066
#
# Static dielectric constant tensor:
#      x y z
#    x 3.773360 -0.316230 0.157200 
#    y -0.316230 4.347320 0.060900 
#    z 0.157200 0.060900 3.995830 
# 
# 
# High freq. dielectric constant tensor:
#      x y z
#    x 1.857620 -0.024990 0.012810 
#    y -0.024990 1.899310 0.002760 
#    z 0.012810 0.002760 1.877160 
# 
# From -- ./inp_files/209191.got.cif
#   From: 2010.06.25/outbox.cif.g09.slc.cpg/sg2_105_cif.got.tgz:209191.got - 2010.06.27 13:26:56.
