data_PCOD8044288
_publ_section_title
;
Structure prediction by ZEFSAII (Michael W. Deem and Ramdas Pophale) SiO2 
 PCOD8044288
Probable space group: P -1
;
_chemical_formula_sum "Si O2"
_cell_formula_units_Z 16
_cell_length_a 8.382561
_cell_length_b 15.022498
_cell_length_c 11.751164
_cell_angle_alpha 30.927660
_cell_angle_beta 82.198616
_cell_angle_gamma 72.011815
_cell_volume 697.658278
_symmetry_space_group_name_H-M "P -1"
_symmetry_group_IT_number 2
_symmetry_cell_setting 'triclinic'
loop_
_space_group_symop_operation_xyz
x,y,z
-x,-y,-z
loop_
_atom_site_type_symbol
_atom_site_label
_atom_site_fract_x
_atom_site_fract_y
_atom_site_fract_z
Si Si1 0.711124 0.732343 0.956054
Si Si2 0.824069 0.436272 0.462802
Si Si3 0.916657 0.979514 0.348879
Si Si4 0.219727 0.265154 0.682326
Si Si5 0.054493 0.728400 0.816098
Si Si6 0.591769 0.909730 0.359734
Si Si7 0.863383 0.045332 0.863789
Si Si8 0.618434 0.617944 0.862225
O O1 0.597885 0.709055 0.887751
O O2 0.877184 0.765001 0.858152
O O3 0.585635 0.913261 0.837951
O O4 0.770928 0.550769 0.227114
O O5 0.749006 0.569432 0.432869
O O6 0.750003 0.268941 0.643985
O O7 0.033197 0.344950 0.550493
O O8 0.748004 0.971231 0.313860
O O9 0.017875 0.794120 0.616479
O O10 0.046157 0.001571 0.216612
O O11 0.853586 0.154509 0.250294
O O12 0.366514 0.198547 0.645138
O O13 0.241345 0.091296 0.956384
O O14 0.179758 0.511329 0.039992
O O15 0.551961 0.780399 0.598210
O O16 0.000000 0.000000 0.000000
O O17 0.500000 0.500000 0.000000
#
# Coordination Sequence:
#
# PCOD8044288 Si02
#       8
#     2   2   2   2   2   2   2   2
#     4  12  25  44  69  99 140 181 228 285 341 415
#     4  10  21  41  68 100 129 181 232 282 338 409
#     4  11  22  41  68 100 132 177 231 279 345 403
#     4  10  22  43  71  98 138 179 232 287 347 406
#     4  11  25  40  72  98 129 180 229 282 337 419
#     4  12  25  44  67  96 145 182 219 288 348 403
#     4  10  19  37  68  97 129 170 231 279 331 408
#     4  12  27  45  67 101 140 180 228 283 347 411
#
# _framework density 22.933864
#
# number of rings (size 3 to 8) (size 9 to 14) (size 15 to 20)
#    0.000    1.000    3.750    3.750    3.500    2.500 
#    4.500    0.625    0.000    0.000    0.000    0.000 
#    0.000    0.000    0.000    0.000    0.000    0.000 
#
# Total GULP energy -198441.740982 kJ/mol
# GULP energy per Si atom -12402.608811 kJ/mol
# Density = 2.288167 g / cm^3
# Si number density = 22.933864 Si / 1000 Ang^3
#
#
#
# Elastic Constant Matrix: (Units=GPa)
#
#
# Indices 1 2 3 4 5 6 
#
# 1 49.0598 21.8410 14.4011 3.6345 -1.3878 -7.3763
# 2 21.8410 123.8761 53.5125 -1.6222 9.7638 -27.3639
# 3 14.4011 53.5125 160.8475 8.7146 -0.2960 -6.0635
# 4 3.6345 -1.6222 8.7146 43.1100 0.7598 -0.4465
# 5 -1.3878 9.7638 -0.2960 0.7598 14.9174 -2.3722
# 6 -7.3763 -27.3639 -6.0635 -0.4465 -2.3722 10.5265
#
#
#
# Elastic Compliance Matrix: (Units=1/GPa)
#
#
# Indices 1 2 3 4 5 6 
#
# 1 0.023593 -0.000783 -0.001188 -0.001715 0.005141 0.014898
# 2 -0.000783 0.023845 -0.005897 0.002864 -0.006943 0.056597
# 3 -0.001188 -0.005897 0.007972 -0.001888 0.002231 -0.011148
# 4 -0.001715 0.002864 -0.001888 0.023931 -0.002395 0.005631
# 5 0.005141 -0.006943 0.002231 -0.002395 0.072722 0.003127
# 6 0.014898 0.056597 -0.011148 0.005631 0.003127 0.247085
#
#
# Mechanical properties :
#
#
# Convention : Reuss Voigt Hill
#
# Bulk Modulus (GPa) = 25.20628 57.03250 41.11939
# Shear Modulus (GPa) = 11.67928 29.97936 20.82932
#
# Velocity S-wave (km/s) = 2.25913 3.61946 3.01696
# Velocity P-wave (km/s) = 4.22132 6.51072 5.48676
#
# Compressibility (1/GPa) = 0.03967265
#
# Stress axis : x y z
#
# Youngs Moduli (GPa) = 42.38529 41.93750 125.44646
#
# Poissons Ratio (x) = 0.03286 0.14900
# Poissons Ratio (y) = 0.03321 0.73979
# Poissons Ratio (z) = 0.05034 0.24732
#
# Static dielectric constant tensor:
#      x y z
#    x 3.841130 0.159200 -0.121660 
#    y 0.159200 4.226930 -0.268890 
#    z -0.121660 -0.268890 4.489120 
# 
# 
# High freq. dielectric constant tensor:
#      x y z
#    x 1.879840 0.013410 0.000220 
#    y 0.013410 1.923100 -0.003180 
#    z 0.000220 -0.003180 1.918520 
# 
# From -- ./inp_files/382534.got.cif
#   From: 2010.06.25/outbox.cif.g09.slc.cpg/sg2_192_cif.got.tgz:382534.got - 2010.06.27 13:26:56.
