data_PCOD8044433
_publ_section_title
;
Structure prediction by ZEFSAII (Michael W. Deem and Ramdas Pophale) SiO2 
 PCOD8044433
Probable space group: P -1
;
_chemical_formula_sum "Si O2"
_cell_formula_units_Z 16
_cell_length_a 20.986452
_cell_length_b 13.539540
_cell_length_c 9.214202
_cell_angle_alpha 59.437624
_cell_angle_beta 109.586128
_cell_angle_gamma 159.598432
_cell_volume 693.299047
_symmetry_space_group_name_H-M "P -1"
_symmetry_group_IT_number 2
_symmetry_cell_setting 'triclinic'
loop_
_space_group_symop_operation_xyz
x,y,z
-x,-y,-z
loop_
_atom_site_type_symbol
_atom_site_label
_atom_site_fract_x
_atom_site_fract_y
_atom_site_fract_z
Si Si1 0.902798 0.049834 0.009657
Si Si2 0.704452 0.905662 0.330834
Si Si3 0.852665 0.904382 0.766585
Si Si4 0.157357 0.681233 0.671022
Si Si5 0.567439 0.679934 0.090273
Si Si6 0.900866 0.774660 0.727425
Si Si7 0.117211 0.436312 0.337646
Si Si8 0.262621 0.862621 0.302608
O O1 0.073955 0.426928 0.860860
O O2 0.923970 0.008792 0.909838
O O3 0.928497 0.008530 0.197767
O O4 0.667172 0.721784 0.077859
O O5 0.500000 0.500000 0.500000
O O6 0.705162 0.944150 0.133680
O O7 0.698767 0.015997 0.333967
O O8 0.910902 0.163950 0.319748
O O9 0.675538 0.720105 0.752888
O O10 0.767549 0.647186 0.823692
O O11 0.051946 0.257656 0.561970
O O12 0.293726 0.876840 0.483610
O O13 0.967403 0.457689 0.652403
O O14 0.569516 0.775670 0.889769
O O15 0.778032 0.473910 0.776957
O O16 0.000000 0.000000 0.500000
O O17 0.288247 0.797178 0.260163
#
# Coordination Sequence:
#
# PCOD8044433 Si02
#       8
#     2   2   2   2   2   2   2   2
#     4  11  21  39  64  89 119 160 205 246 297 362
#     4  11  21  34  57  90 127 153 190 251 307 352
#     4  11  22  39  59  91 123 156 201 251 301 347
#     4   9  20  34  59  86 119 161 198 240 303 360
#     4  11  23  34  61  96 121 151 196 255 307 349
#     4  10  23  39  60  89 118 164 205 246 294 358
#     4  10  19  38  61  80 119 162 204 236 294 360
#     4   9  19  36  56  88 120 154 199 249 295 359
#
# _framework density 23.078063
#
# number of rings (size 3 to 8) (size 9 to 14) (size 15 to 20)
#    0.000    1.750    3.750    0.750    3.500    2.500 
#    0.000    0.625    0.000    0.750    0.000    0.000 
#    0.000    0.000    0.000    0.000    0.000    0.000 
#
# Total GULP energy -198217.388286 kJ/mol
# GULP energy per Si atom -12388.586768 kJ/mol
# Density = 2.302554 g / cm^3
# Si number density = 23.078063 Si / 1000 Ang^3
#
#
#
# Elastic Constant Matrix: (Units=GPa)
#
#
# Indices 1 2 3 4 5 6 
#
# 1 123.3510 39.5773 39.3762 20.3644 -11.8089 -32.2291
# 2 39.5773 56.7051 30.9486 10.6310 -5.7391 -33.4675
# 3 39.3762 30.9486 98.1736 26.4815 0.6917 -7.9789
# 4 20.3644 10.6310 26.4815 31.7628 -3.9293 -11.8548
# 5 -11.8089 -5.7391 0.6917 -3.9293 29.2656 13.5361
# 6 -32.2291 -33.4675 -7.9789 -11.8548 13.5361 38.1889
#
#
#
# Elastic Compliance Matrix: (Units=1/GPa)
#
#
# Indices 1 2 3 4 5 6 
#
# 1 0.011921 -0.002605 -0.002973 -0.001846 0.001288 0.006127
# 2 -0.002605 0.053525 -0.015421 0.013792 -0.011372 0.049799
# 3 -0.002973 -0.015421 0.018856 -0.014900 0.001266 -0.017159
# 4 -0.001846 0.013792 -0.014900 0.048926 -0.001882 0.023271
# 5 0.001288 -0.011372 0.001266 -0.001882 0.043575 -0.024644
# 6 0.006127 0.049799 -0.017159 0.023271 -0.024644 0.087373
#
#
# Mechanical properties :
#
#
# Convention : Reuss Voigt Hill
#
# Bulk Modulus (GPa) = 23.63934 55.33710 39.48822
# Shear Modulus (GPa) = 15.61160 31.06531 23.33845
#
# Velocity S-wave (km/s) = 2.60372 3.67290 3.18352
# Velocity P-wave (km/s) = 4.39370 6.48207 5.53723
#
# Compressibility (1/GPa) = 0.04230236
#
# Stress axis : x y z
#
# Youngs Moduli (GPa) = 83.88758 18.68294 53.03399
#
# Poissons Ratio (x) = 0.04866 0.15769
# Poissons Ratio (y) = 0.21850 0.81786
# Poissons Ratio (z) = 0.24942 0.28812
#
# Static dielectric constant tensor:
#      x y z
#    x 4.602850 -0.531970 -0.179760 
#    y -0.531970 3.834590 0.395520 
#    z -0.179760 0.395520 4.261810 
# 
# 
# High freq. dielectric constant tensor:
#      x y z
#    x 1.905960 -0.042550 -0.009340 
#    y -0.042550 1.879290 0.030780 
#    z -0.009340 0.030780 1.912630 
# 
# From -- ./inp_files/218699.got.cif
#   From: 2010.06.25/outbox.cif.g09.slc.cpg/sg2_110_cif.got.tgz:218699.got - 2010.06.27 13:26:56.
