data_PCOD8044592
_publ_section_title
;
Structure prediction by ZEFSAII (Michael W. Deem and Ramdas Pophale) SiO2 
 PCOD8044592
Probable space group: P -1
;
_chemical_formula_sum "Si O2"
_cell_formula_units_Z 16
_cell_length_a 16.313668
_cell_length_b 8.740735
_cell_length_c 10.600732
_cell_angle_alpha 124.533901
_cell_angle_beta 35.562799
_cell_angle_gamma 112.715508
_cell_volume 715.295703
_symmetry_space_group_name_H-M "P -1"
_symmetry_group_IT_number 2
_symmetry_cell_setting 'triclinic'
loop_
_space_group_symop_operation_xyz
x,y,z
-x,-y,-z
loop_
_atom_site_type_symbol
_atom_site_label
_atom_site_fract_x
_atom_site_fract_y
_atom_site_fract_z
Si Si1 0.400163 0.742494 0.982542
Si Si2 0.859312 0.108486 0.784144
Si Si3 0.416745 0.325710 0.504805
Si Si4 0.091738 0.486765 0.002408
Si Si5 0.896954 0.399084 0.424536
Si Si6 0.407821 0.700502 0.230200
Si Si7 0.591055 0.704302 0.229190
Si Si8 0.140120 0.231258 0.210516
O O1 0.527139 0.779106 0.744552
O O2 0.388339 0.522465 0.898986
O O3 0.258365 0.866180 0.165380
O O4 0.419890 0.812730 0.135137
O O5 0.885295 0.307776 0.892242
O O6 0.818813 0.980546 0.889482
O O7 0.000000 0.000000 0.500000
O O8 0.500000 0.500000 0.500000
O O9 0.455199 0.209961 0.533907
O O10 0.246704 0.369899 0.727166
O O11 0.003803 0.385242 0.166592
O O12 0.000000 0.500000 0.000000
O O13 0.755277 0.309402 0.531678
O O14 0.846527 0.617208 0.625412
O O15 0.979397 0.278625 0.379181
O O16 0.477704 0.793153 0.305650
O O17 0.500000 0.500000 0.000000
O O18 0.747487 0.751427 0.031448
#
# Coordination Sequence:
#
# PCOD8044592 Si02
#       8
#     2   2   2   2   2   2   2   2
#     4  10  20  38  65  93 128 171 218 268 322 385
#     4  12  23  40  64 100 134 167 215 281 331 378
#     4  10  20  39  69  86 129 173 226 252 318 408
#     4  12  26  41  68  99 129 176 221 267 331 395
#     4  11  21  39  63  96 126 173 218 267 316 401
#     4  10  20  32  64  93 127 155 228 271 311 368
#     4  10  19  38  63  94 119 175 222 258 316 398
#     4  11  21  36  67  90 127 167 223 263 325 384
#
# _framework density 22.368371
#
# number of rings (size 3 to 8) (size 9 to 14) (size 15 to 20)
#    0.000    1.250    7.500    0.750    5.250    0.000 
#    0.000    1.875    2.750    0.000    0.000    0.000 
#    0.000    0.000    0.000    0.000    0.000    0.000 
#
# Total GULP energy -198280.133066 kJ/mol
# GULP energy per Si atom -12392.508317 kJ/mol
# Density = 2.231746 g / cm^3
# Si number density = 22.368371 Si / 1000 Ang^3
#
#
#
# Elastic Constant Matrix: (Units=GPa)
#
#
# Indices 1 2 3 4 5 6 
#
# 1 166.0353 35.0642 69.7530 -16.9473 -12.4045 -37.3921
# 2 35.0642 46.3675 34.6980 -10.5755 3.4795 -21.0270
# 3 69.7530 34.6980 146.5867 -39.2872 -10.1701 -16.6341
# 4 -16.9473 -10.5755 -39.2872 36.1143 -9.8153 0.1499
# 5 -12.4045 3.4795 -10.1701 -9.8153 32.5550 -13.2264
# 6 -37.3921 -21.0270 -16.6341 0.1499 -13.2264 29.0206
#
#
#
# Elastic Compliance Matrix: (Units=1/GPa)
#
#
# Indices 1 2 3 4 5 6 
#
# 1 0.017700 0.006764 0.002869 0.021678 0.031090 0.043410
# 2 0.006764 0.042982 0.000634 0.023416 0.026427 0.052145
# 3 0.002869 0.000634 0.016888 0.026415 0.024338 0.024791
# 4 0.021678 0.023416 0.026415 0.095387 0.082177 0.096998
# 5 0.031090 0.026427 0.024338 0.082177 0.124770 0.129597
# 6 0.043410 0.052145 0.024791 0.096998 0.129597 0.200946
#
#
# Mechanical properties :
#
#
# Convention : Reuss Voigt Hill
#
# Bulk Modulus (GPa) = 10.19322 70.89113 40.54217
# Shear Modulus (GPa) = 9.78776 34.16959 21.97867
#
# Velocity S-wave (km/s) = 2.09409 3.91267 3.13801
# Velocity P-wave (km/s) = 3.22705 7.22312 5.59407
#
# Compressibility (1/GPa) = 0.09810446
#
# Stress axis : x y z
#
# Youngs Moduli (GPa) = 56.49561 23.26562 59.21293
#
# Poissons Ratio (x) = -0.15738 -0.16988
# Poissons Ratio (y) = -0.38216 -0.03751
# Poissons Ratio (z) = -0.16208 -0.01474
#
# Static dielectric constant tensor:
#      x y z
#    x 4.952530 -0.950570 0.081760 
#    y -0.950570 4.738040 -0.100130 
#    z 0.081760 -0.100130 4.457030 
# 
# 
# High freq. dielectric constant tensor:
#      x y z
#    x 1.888450 -0.026900 -0.008710 
#    y -0.026900 1.856500 -0.027760 
#    z -0.008710 -0.027760 1.886020 
# 
# From -- ./inp_files/461507.got.cif
#   From: 2010.06.25/outbox.cif.g09.slc.cpg/sg2_231_cif.got.tgz:461507.got - 2010.06.27 13:26:56.
