data_PCOD8044037
_publ_section_title
;
Structure prediction by ZEFSAII (Michael W. Deem and Ramdas Pophale) SiO2 
 PCOD8044037
Probable space group: P -1
;
_chemical_formula_sum "Si O2"
_cell_formula_units_Z 16
_cell_length_a 9.283971
_cell_length_b 11.600105
_cell_length_c 16.741324
_cell_angle_alpha 54.225448
_cell_angle_beta 101.048192
_cell_angle_gamma 57.460328
_cell_volume 829.529593
_symmetry_space_group_name_H-M "P -1"
_symmetry_group_IT_number 2
_symmetry_cell_setting 'triclinic'
loop_
_space_group_symop_operation_xyz
x,y,z
-x,-y,-z
loop_
_atom_site_type_symbol
_atom_site_label
_atom_site_fract_x
_atom_site_fract_y
_atom_site_fract_z
Si Si1 0.080820 0.077705 0.888485
Si Si2 0.240901 0.460819 0.570090
Si Si3 0.014512 0.566008 0.350789
Si Si4 0.810972 0.317761 0.274277
Si Si5 0.555735 0.310682 0.039350
Si Si6 0.730624 0.885796 0.525232
Si Si7 0.230643 0.968998 0.673845
Si Si8 0.597131 0.304713 0.790321
O O1 0.116168 0.207911 0.806059
O O2 0.785284 0.283024 0.793086
O O3 0.192028 0.881558 0.912321
O O4 0.242857 0.936433 0.044115
O O5 0.189010 0.344282 0.647222
O O6 0.506265 0.303700 0.698635
O O7 0.246234 0.443070 0.481019
O O8 0.031185 0.742866 0.456856
O O9 0.098088 0.381037 0.373391
O O10 0.830103 0.143825 0.312678
O O11 0.642609 0.447939 0.284718
O O12 0.094873 0.148132 0.389154
O O13 0.683273 0.526540 0.111210
O O14 0.598345 0.160467 0.174660
O O15 0.500000 0.500000 0.000000
O O16 0.500000 0.000000 0.500000
O O17 0.621228 0.063493 0.367073
#
# Coordination Sequence:
#
# PCOD8044037 Si02
#       8
#     2   2   2   2   2   2   2   2
#     4  10  21  36  59  86 113 149 186 240 279 325
#     4  10  20  37  57  83 113 150 189 229 287 342
#     4  10  21  38  56  81 118 150 187 226 287 339
#     4  10  20  38  61  82 111 154 192 231 282 334
#     4   9  19  38  60  83 114 145 190 234 283 337
#     4  11  24  39  56  87 117 149 192 233 278 339
#     4  10  19  37  63  83 110 152 188 236 287 326
#     4  10  21  37  56  87 115 142 196 232 277 336
#
# _framework density 19.288041
#
# number of rings (size 3 to 8) (size 9 to 14) (size 15 to 20)
#    0.000    2.000    3.750    0.375    1.750    1.000 
#    4.500    0.625    0.000    0.000    0.000    0.000 
#    0.000    0.000    0.000    0.000    0.000    0.000 
#
# Total GULP energy -198268.458048 kJ/mol
# GULP energy per Si atom -12391.778628 kJ/mol
# Density = 1.924414 g / cm^3
# Si number density = 19.288041 Si / 1000 Ang^3
#
#
#
# Elastic Constant Matrix: (Units=GPa)
#
#
# Indices 1 2 3 4 5 6 
#
# 1 76.7929 19.8825 43.6685 -2.8478 -8.2162 -6.9093
# 2 19.8825 49.8325 16.7840 7.3588 -5.3281 5.0384
# 3 43.6685 16.7840 97.8307 16.0605 -16.5112 -5.1948
# 4 -2.8478 7.3588 16.0605 26.1084 0.5473 -2.9522
# 5 -8.2162 -5.3281 -16.5112 0.5473 29.4755 -0.3034
# 6 -6.9093 5.0384 -5.1948 -2.9522 -0.3034 29.7310
#
#
#
# Elastic Compliance Matrix: (Units=1/GPa)
#
#
# Indices 1 2 3 4 5 6 
#
# 1 0.021499 -0.007556 -0.010055 0.011321 -0.001158 0.005632
# 2 -0.007556 0.025206 0.000691 -0.009183 0.002938 -0.006789
# 3 -0.010055 0.000691 0.017899 -0.012516 0.007576 -0.000492
# 4 0.011321 -0.009183 -0.012516 0.050747 -0.006386 0.006974
# 5 -0.001158 0.002938 0.007576 -0.006386 0.038500 0.000315
# 6 0.005632 -0.006789 -0.000492 0.006974 0.000315 0.036704
#
#
# Mechanical properties :
#
#
# Convention : Reuss Voigt Hill
#
# Bulk Modulus (GPa) = 32.50584 42.79181 37.64882
# Shear Modulus (GPa) = 21.30848 26.67106 23.98977
#
# Velocity S-wave (km/s) = 3.32739 3.72261 3.53053
# Velocity P-wave (km/s) = 5.62596 6.38051 6.01508
#
# Compressibility (1/GPa) = 0.03076371
#
# Stress axis : x y z
#
# Youngs Moduli (GPa) = 46.51399 39.67343 55.87051
#
# Poissons Ratio (x) = 0.29978 0.56178
# Poissons Ratio (y) = 0.35147 -0.03863
# Poissons Ratio (z) = 0.46770 -0.02743
#
# Static dielectric constant tensor:
#      x y z
#    x 3.084640 0.248410 -0.258220 
#    y 0.248410 3.497120 0.422880 
#    z -0.258220 0.422880 3.978080 
# 
# 
# High freq. dielectric constant tensor:
#      x y z
#    x 1.717510 0.008450 -0.017960 
#    y 0.008450 1.753450 0.016130 
#    z -0.017960 0.016130 1.762100 
# 
# From -- ./inp_files/257054.got.cif
#   From: 2010.06.25/outbox.cif.g09.slc.cpg/sg2_129_cif.got.tgz:257054.got - 2010.06.27 13:26:56.
