data_PCOD8044225
_publ_section_title
;
Structure prediction by ZEFSAII (Michael W. Deem and Ramdas Pophale) SiO2 
 PCOD8044225
Probable space group: P -1
;
_chemical_formula_sum "Si O2"
_cell_formula_units_Z 16
_cell_length_a 10.358822
_cell_length_b 13.805481
_cell_length_c 13.002075
_cell_angle_alpha 34.890833
_cell_angle_beta 48.953022
_cell_angle_gamma 70.450155
_cell_volume 706.780109
_symmetry_space_group_name_H-M "P -1"
_symmetry_group_IT_number 2
_symmetry_cell_setting 'triclinic'
loop_
_space_group_symop_operation_xyz
x,y,z
-x,-y,-z
loop_
_atom_site_type_symbol
_atom_site_label
_atom_site_fract_x
_atom_site_fract_y
_atom_site_fract_z
Si Si1 0.139264 0.940216 0.614624
Si Si2 0.914783 0.142875 0.899349
Si Si3 0.918495 0.730523 0.712381
Si Si4 0.085249 0.454123 0.824188
Si Si5 0.389108 0.557818 0.744995
Si Si6 0.722792 0.505790 0.525493
Si Si7 0.403129 0.919171 0.012772
Si Si8 0.485522 0.031655 0.658830
O O1 0.074019 0.843806 0.620842
O O2 0.083004 0.113180 0.504685
O O3 0.375377 0.032619 0.419500
O O4 0.046874 0.777482 0.893036
O O5 0.811381 0.095554 0.881152
O O6 0.084351 0.360270 0.627157
O O7 0.747344 0.113981 0.097802
O O8 0.000000 0.000000 0.000000
O O9 0.966652 0.574656 0.766047
O O10 0.699639 0.616003 0.974796
O O11 0.208202 0.534760 0.792302
O O12 0.227950 0.487800 0.625364
O O13 0.558798 0.569620 0.572425
O O14 0.471633 0.759320 0.586625
O O15 0.628022 0.293201 0.803990
O O16 0.545174 0.051702 0.732866
O O17 0.500000 0.000000 0.000000
#
# Coordination Sequence:
#
# PCOD8044225 Si02
#       8
#     2   2   2   2   2   2   2   2
#     4  10  19  38  60  90 126 175 223 278 330 392
#     4  10  23  42  63  93 135 184 213 265 349 403
#     4  10  20  35  62  89 127 175 226 273 338 391
#     4  11  22  37  60  95 139 166 223 281 335 390
#     4  11  19  37  63  92 128 177 221 274 332 396
#     4  12  23  40  62  98 135 173 210 281 340 397
#     4  10  23  39  64  98 129 168 228 277 322 391
#     4  10  19  37  66  87 130 167 226 265 331 387
#
# _framework density 22.637875000000001
#
# number of rings (size 3 to 8) (size 9 to 14) (size 15 to 20)
#    0.750    0.750    3.750    3.000    0.000    1.000 
#    4.500    0.625    0.000    0.750    0.000    0.000 
#    0.000    0.000    0.000    0.000    0.000    0.000 
#
# Total GULP energy -198214.424804 kJ/mol
# GULP energy per Si atom -12388.401550 kJ/mol
# Density = 2.258635 g / cm^3
# Si number density = 22.637875 Si / 1000 Ang^3
#
#
#
# Elastic Constant Matrix: (Units=GPa)
#
#
# Indices 1 2 3 4 5 6 
#
# 1 76.0940 24.8048 24.3912 -17.7891 -4.6357 -23.3703
# 2 24.8048 75.8761 33.1074 -1.1486 4.2931 -33.4880
# 3 24.3912 33.1074 121.5336 -13.3437 -0.4252 -24.1854
# 4 -17.7891 -1.1486 -13.3437 37.1171 -10.5357 -5.0413
# 5 -4.6357 4.2931 -0.4252 -10.5357 40.5063 -4.2769
# 6 -23.3703 -33.4880 -24.1854 -5.0413 -4.2769 37.2074
#
#
#
# Elastic Compliance Matrix: (Units=1/GPa)
#
#
# Indices 1 2 3 4 5 6 
#
# 1 0.022676 -0.000165 0.000828 0.016041 0.008673 0.017803
# 2 -0.000165 0.022697 -0.001997 0.002624 0.000287 0.019415
# 3 0.000828 -0.001997 0.010583 0.005795 0.002631 0.006689
# 4 0.016041 0.002624 0.005795 0.044528 0.015739 0.024046
# 5 0.008673 0.000287 0.002631 0.015739 0.031157 0.013130
# 6 0.017803 0.019415 0.006689 0.024046 0.013130 0.064648
#
#
# Mechanical properties :
#
#
# Convention : Reuss Voigt Hill
#
# Bulk Modulus (GPa) = 18.76585 48.67895 33.72240
# Shear Modulus (GPa) = 23.07132 35.71284 29.39208
#
# Velocity S-wave (km/s) = 3.19587 3.97617 3.60718
# Velocity P-wave (km/s) = 4.68249 6.52916 5.68136
#
# Compressibility (1/GPa) = 0.05328830
#
# Stress axis : x y z
#
# Youngs Moduli (GPa) = 44.09939 44.05873 94.49429
#
# Poissons Ratio (x) = 0.00726 -0.07828
# Poissons Ratio (y) = 0.00727 0.18872
# Poissons Ratio (z) = -0.03653 0.08799
#
# Static dielectric constant tensor:
#      x y z
#    x 4.080090 -0.259520 -0.058210 
#    y -0.259520 3.629130 -0.032650 
#    z -0.058210 -0.032650 4.459600 
# 
# 
# High freq. dielectric constant tensor:
#      x y z
#    x 1.868970 -0.032290 0.000270 
#    y -0.032290 1.860330 0.000230 
#    z 0.000270 0.000230 1.914900 
# 
# From -- ./inp_files/522132.got.cif
#   From: 2010.06.25/outbox.cif.g09.slc.cpg/sg2_262_cif.got.tgz:522132.got - 2010.06.27 13:26:56.
