data_PCOD8044426
_publ_section_title
;
Structure prediction by ZEFSAII (Michael W. Deem and Ramdas Pophale) SiO2 
 PCOD8044426
Probable space group: P -1
;
_chemical_formula_sum "Si O2"
_cell_formula_units_Z 16
_cell_length_a 9.069549
_cell_length_b 8.736671
_cell_length_c 21.165461
_cell_angle_alpha 139.016149
_cell_angle_beta 133.665603
_cell_angle_gamma 59.904021
_cell_volume 794.971943
_symmetry_space_group_name_H-M "P -1"
_symmetry_group_IT_number 2
_symmetry_cell_setting 'triclinic'
loop_
_space_group_symop_operation_xyz
x,y,z
-x,-y,-z
loop_
_atom_site_type_symbol
_atom_site_label
_atom_site_fract_x
_atom_site_fract_y
_atom_site_fract_z
Si Si1 0.506674 0.756215 0.165497
Si Si2 0.070857 0.527427 0.291965
Si Si3 0.280423 0.973106 0.458528
Si Si4 0.659245 0.745805 0.025367
Si Si5 0.903395 0.807569 0.228645
Si Si6 0.444161 0.218727 0.129520
Si Si7 0.186720 0.091665 0.126751
Si Si8 0.275895 0.351669 0.681094
O O1 0.681646 0.881135 0.212036
O O2 0.578428 0.776453 0.266106
O O3 0.298739 0.884588 0.130296
O O4 0.463935 0.480980 0.053738
O O5 0.261956 0.718648 0.408220
O O6 0.130149 0.259337 0.220996
O O7 0.939672 0.565266 0.200648
O O8 0.937689 0.578884 0.330049
O O9 0.095180 0.987483 0.356526
O O10 0.500000 0.000000 0.500000
O O11 0.237419 0.176215 0.557802
O O12 0.877288 0.777377 0.135948
O O13 0.514862 0.957058 0.062681
O O14 0.702017 0.729157 0.957822
O O15 0.327845 0.248168 0.169884
O O16 0.630494 0.406691 0.243266
O O17 0.000000 0.000000 0.000000
#
# Coordination Sequence:
#
# PCOD8044426 Si02
#       8
#     2   2   2   2   2   2   2   2
#     4  10  21  37  66  88 129 164 213 247 309 385
#     4   9  22  37  66  88 122 166 205 257 311 367
#     4  10  21  40  69  94 123 160 211 267 309 366
#     4  10  19  38  60  94 118 170 204 255 302 381
#     4   9  19  36  67  87 119 166 208 247 310 375
#     4  10  23  34  64  86 134 155 211 257 312 368
#     4  12  24  38  58  99 132 164 201 261 320 364
#     4  10  21  44  65  92 118 173 214 250 310 378
#
# _framework density 20.126495999999999
#
# number of rings (size 3 to 8) (size 9 to 14) (size 15 to 20)
#    0.750    1.250    1.250    2.250    7.000    0.000 
#    2.250    3.125    0.000    0.000    0.000    0.000 
#    0.000    0.000    0.000    0.000    0.000    0.000 
#
# Total GULP energy -198233.004986 kJ/mol
# GULP energy per Si atom -12389.562812 kJ/mol
# Density = 2.008069 g / cm^3
# Si number density = 20.126496 Si / 1000 Ang^3
#
#
#
# Elastic Constant Matrix: (Units=GPa)
#
#
# Indices 1 2 3 4 5 6 
#
# 1 111.8969 41.5215 58.2996 10.1212 10.2998 -1.7008
# 2 41.5215 81.4406 47.4123 6.7937 4.9914 -8.3515
# 3 58.2996 47.4123 149.8252 4.7516 6.6715 -5.7660
# 4 10.1212 6.7937 4.7516 35.7471 -3.3682 -3.5775
# 5 10.2998 4.9914 6.6715 -3.3682 31.8989 0.1147
# 6 -1.7008 -8.3515 -5.7660 -3.5775 0.1147 26.2502
#
#
#
# Elastic Compliance Matrix: (Units=1/GPa)
#
#
# Indices 1 2 3 4 5 6 
#
# 1 0.012847 -0.004269 -0.003487 -0.002816 -0.003042 -0.001662
# 2 -0.004269 0.017076 -0.003510 -0.001214 -0.000703 0.004223
# 3 -0.003487 -0.003510 0.009164 0.000492 -0.000192 0.000738
# 4 -0.002816 -0.001214 0.000492 0.029682 0.004117 0.003567
# 5 -0.003042 -0.000703 -0.000192 0.004117 0.032916 -0.000046
# 6 -0.001662 0.004223 0.000738 0.003567 -0.000046 0.039979
#
#
# Mechanical properties :
#
#
# Convention : Reuss Voigt Hill
#
# Bulk Modulus (GPa) = 60.40891 70.84772 65.62831
# Shear Modulus (GPa) = 29.46100 31.84118 30.65109
#
# Velocity S-wave (km/s) = 3.83010 3.98182 3.90670
# Velocity P-wave (km/s) = 7.04552 7.51116 7.28206
#
# Compressibility (1/GPa) = 0.01655385
#
# Stress axis : x y z
#
# Youngs Moduli (GPa) = 77.83756 58.56049 109.12650
#
# Poissons Ratio (x) = 0.24999 0.38057
# Poissons Ratio (y) = 0.33228 0.38308
# Poissons Ratio (z) = 0.27145 0.20557
#
# Static dielectric constant tensor:
#      x y z
#    x 3.596460 0.133700 0.019900 
#    y 0.133700 3.637060 -0.150960 
#    z 0.019900 -0.150960 3.673620 
# 
# 
# High freq. dielectric constant tensor:
#      x y z
#    x 1.775450 0.007300 0.002820 
#    y 0.007300 1.771110 0.000240 
#    z 0.002820 0.000240 1.784700 
# 
# From -- ./inp_files/588234.got.cif
#   From: 2010.06.25/outbox.cif.g09.slc.cpg/sg2_295_cif.got.tgz:588234.got - 2010.06.27 13:26:56.
