data_PCOD8044595
_publ_section_title
;
Structure prediction by ZEFSAII (Michael W. Deem and Ramdas Pophale) SiO2 
 PCOD8044595
Probable space group: P -1
;
_chemical_formula_sum "Si O2"
_cell_formula_units_Z 16
_cell_length_a 20.916578
_cell_length_b 18.052975
_cell_length_c 12.012240
_cell_angle_alpha 36.672444
_cell_angle_beta 152.139393
_cell_angle_gamma 158.936891
_cell_volume 754.672799
_symmetry_space_group_name_H-M "P -1"
_symmetry_group_IT_number 2
_symmetry_cell_setting 'triclinic'
loop_
_space_group_symop_operation_xyz
x,y,z
-x,-y,-z
loop_
_atom_site_type_symbol
_atom_site_label
_atom_site_fract_x
_atom_site_fract_y
_atom_site_fract_z
Si Si1 0.654944 0.822790 0.138100
Si Si2 0.647414 0.480412 0.376602
Si Si3 0.037448 0.674060 0.339732
Si Si4 0.662929 0.524618 0.093741
Si Si5 0.927151 0.556764 0.070766
Si Si6 0.233379 0.697633 0.184052
Si Si7 0.850863 0.718599 0.617404
Si Si8 0.596912 0.146996 0.171581
O O1 0.692374 0.723855 0.387553
O O2 0.560054 0.719108 0.993653
O O3 0.461032 0.762635 0.971349
O O4 0.891403 0.069029 0.199614
O O5 0.736247 0.551667 0.300525
O O6 0.607734 0.308464 0.555221
O O7 0.841144 0.678325 0.519223
O O8 0.407697 0.381296 0.140167
O O9 0.290616 0.869447 0.547741
O O10 0.000000 0.500000 0.500000
O O11 0.870894 0.642647 0.190527
O O12 0.017024 0.692102 0.156958
O O13 0.774685 0.319749 0.140440
O O14 0.158870 0.689806 0.201132
O O15 0.769990 0.540701 0.779089
O O16 0.370608 0.906124 0.076297
O O17 0.000000 0.500000 0.000000
#
# Coordination Sequence:
#
# PCOD8044595 Si02
#       8
#     2   2   2   2   2   2   2   2
#     4  10  19  38  63  94 125 163 215 257 316 374
#     4  10  21  39  62  90 128 176 202 261 321 375
#     4  10  20  38  61  95 125 157 212 268 314 370
#     4  10  20  39  67  90 126 168 217 260 313 379
#     4  11  22  39  64  94 130 164 208 270 313 373
#     4  12  24  42  61  92 134 167 211 256 319 389
#     4  10  21  38  61  95 129 164 213 258 317 384
#     4  11  23  39  64  95 123 169 212 262 319 369
#
# _framework density 21.201242000000001
#
# number of rings (size 3 to 8) (size 9 to 14) (size 15 to 20)
#    0.000    1.500    5.000    1.500    0.000    2.500 
#    0.000    1.875    0.000    1.500    0.000    0.000 
#    0.000    0.000    0.000    0.000    0.000    0.000 
#
# Total GULP energy -198226.395309 kJ/mol
# GULP energy per Si atom -12389.149707 kJ/mol
# Density = 2.115299 g / cm^3
# Si number density = 21.201242 Si / 1000 Ang^3
#
#
#
# Elastic Constant Matrix: (Units=GPa)
#
#
# Indices 1 2 3 4 5 6 
#
# 1 90.1526 13.5324 49.3740 -2.3079 4.2549 -11.3449
# 2 13.5324 94.6325 35.8604 -4.2434 -4.3933 -3.0227
# 3 49.3740 35.8604 125.6124 -11.1607 0.2141 -7.7085
# 4 -2.3079 -4.2434 -11.1607 35.0218 -10.0339 2.5738
# 5 4.2549 -4.3933 0.2141 -10.0339 48.0341 -0.5971
# 6 -11.3449 -3.0227 -7.7085 2.5738 -0.5971 22.6667
#
#
#
# Elastic Compliance Matrix: (Units=1/GPa)
#
#
# Indices 1 2 3 4 5 6 
#
# 1 0.014949 0.000051 -0.005688 -0.001692 -0.001577 0.005705
# 2 0.000051 0.011929 -0.003338 0.000713 0.001256 0.000433
# 3 -0.005688 -0.003338 0.011438 0.003073 0.000793 0.000270
# 4 -0.001692 0.000713 0.003073 0.031680 0.006780 -0.003126
# 5 -0.001577 0.001256 0.000793 0.006780 0.022479 -0.000530
# 6 0.005705 0.000433 0.000270 -0.003126 -0.000530 0.047464
#
#
# Mechanical properties :
#
#
# Convention : Reuss Voigt Hill
#
# Bulk Modulus (GPa) = 49.10161 56.43678 52.76920
# Shear Modulus (GPa) = 30.36251 35.25323 32.80787
#
# Velocity S-wave (km/s) = 3.78843 4.08216 3.93803
# Velocity P-wave (km/s) = 6.50740 6.99257 6.75434
#
# Compressibility (1/GPa) = 0.02036593
#
# Stress axis : x y z
#
# Youngs Moduli (GPa) = 66.89475 83.83058 87.42885
#
# Poissons Ratio (x) = -0.00427 0.49730
# Poissons Ratio (y) = -0.00340 0.29181
# Poissons Ratio (z) = 0.38050 0.27980
#
# Static dielectric constant tensor:
#      x y z
#    x 3.986370 -0.340630 -0.049150 
#    y -0.340630 3.645910 0.063070 
#    z -0.049150 0.063070 4.466790 
# 
# 
# High freq. dielectric constant tensor:
#      x y z
#    x 1.823180 -0.027280 0.006270 
#    y -0.027280 1.797440 -0.003540 
#    z 0.006270 -0.003540 1.853760 
# 
# From -- ./inp_files/472400.got.cif
#   From: 2010.06.25/outbox.cif.g09.slc.cpg/sg2_237_cif.got.tgz:472400.got - 2010.06.27 13:26:56.
