data_PCOD8044981
_publ_section_title
;
Structure prediction by ZEFSAII (Michael W. Deem and Ramdas Pophale) SiO2 
 PCOD8044981
Probable space group: P 2
;
_chemical_formula_sum "Si O2"
_cell_formula_units_Z 15
_cell_length_a 9.636000
_cell_length_b 6.680706
_cell_length_c 12.028329
_cell_angle_alpha 90.000000
_cell_angle_beta 109.181056
_cell_angle_gamma 90.000000
_cell_volume 731.340357
_symmetry_space_group_name_H-M "P 2"
_symmetry_group_IT_number 3
_symmetry_cell_setting 'monoclinic'
loop_
_space_group_symop_operation_xyz
x,y,z
-x,y,-z
loop_
_atom_site_type_symbol
_atom_site_label
_atom_site_fract_x
_atom_site_fract_y
_atom_site_fract_z
Si Si1 0.075744 0.857630 0.131244
Si Si2 0.318851 0.132579 0.230913
Si Si3 0.655853 0.009908 0.524381
Si Si4 0.724701 0.605124 0.465224
Si Si5 0.935505 0.125129 0.269329
Si Si6 0.344132 0.230206 0.683783
Si Si7 0.848820 0.463213 0.719780
Si Si8 0.000000 0.873791 0.500000
O O1 0.113390 0.679037 0.224003
O O2 0.223584 0.980823 0.129914
O O3 0.957955 0.999278 0.162825
O O4 0.000000 0.773817 0.000000
O O5 0.263996 0.041216 0.337165
O O6 0.492291 0.140652 0.248862
O O7 0.253243 0.356243 0.213352
O O8 0.500000 0.122380 0.500000
O O9 0.734694 0.116923 0.440876
O O10 0.617618 0.780601 0.480442
O O11 0.653776 0.466862 0.348600
O O12 0.759397 0.469858 0.581117
O O13 0.864228 0.722896 0.454121
O O14 0.761408 0.173333 0.241483
O O15 0.003464 0.343737 0.268803
O O16 0.012672 0.009037 0.392746
#
# Coordination Sequence:
#
# PCOD8044981 Si02
#       8
#     2   2   2   2   2   2   2   1
#     4  11  25  46  69  87 115 172 230 273 308 360
#     4  10  22  41  60  91 129 167 212 263 315 378
#     4  10  20  32  53  86 130 168 199 236 305 380
#     4  12  20  31  55  90 133 172 198 244 304 391
#     4  11  23  40  61  94 130 163 210 261 324 381
#     4  11  23  35  59  97 133 166 200 247 329 394
#     4  11  21  37  61  89 125 166 219 257 306 375
#     4  12  20  36  56  96 138 174 200 252 324 392
#
# _framework density 20.510287999999999
#
# number of rings (size 3 to 8) (size 9 to 14) (size 15 to 20)
#    0.000    1.067    5.333    2.400    1.867    2.133 
#    0.000    0.667    0.000    0.000    0.000    0.000 
#    0.000    0.000    0.000    0.000    0.000    0.000 
#
# Total GULP energy -185854.231489 kJ/mol
# GULP energy per Si atom -12390.282099 kJ/mol
# Density = 2.046361 g / cm^3
# Si number density = 20.510288 Si / 1000 Ang^3
#
#
#
# Elastic Constant Matrix: (Units=GPa)
#
#
# Indices 1 2 3 4 5 6 
#
# 1 117.4587 28.6927 17.2039 0.0000 -3.5888 0.0000
# 2 28.6927 100.9050 7.2925 0.0000 1.2006 0.0000
# 3 17.2039 7.2925 43.7442 0.0000 2.9683 0.0000
# 4 0.0000 0.0000 0.0000 13.4299 0.0000 0.3891
# 5 -3.5888 1.2006 2.9683 0.0000 18.2210 0.0000
# 6 0.0000 0.0000 0.0000 0.3891 0.0000 24.5539
#
#
#
# Elastic Compliance Matrix: (Units=1/GPa)
#
#
# Indices 1 2 3 4 5 6 
#
# 1 0.009742 -0.002543 -0.003589 0.000000 0.002671 0.000000
# 2 -0.002543 0.010698 -0.000709 0.000000 -0.001090 0.000000
# 3 -0.003589 -0.000709 0.024708 0.000000 -0.004685 0.000000
# 4 0.000000 0.000000 0.000000 0.074495 0.000000 -0.001180
# 5 0.002671 -0.001090 -0.004685 0.000000 0.056243 0.000000
# 6 0.000000 0.000000 0.000000 -0.001180 0.000000 0.040745
#
#
# Mechanical properties :
#
#
# Convention : Reuss Voigt Hill
#
# Bulk Modulus (GPa) = 31.78058 40.94291 36.36174
# Shear Modulus (GPa) = 20.76408 25.16888 22.96648
#
# Velocity S-wave (km/s) = 3.18523 3.50685 3.34990
# Velocity P-wave (km/s) = 5.39038 6.03347 5.72097
#
# Compressibility (1/GPa) = 0.03146576
#
# Stress axis : x y z
#
# Youngs Moduli (GPa) = 102.64868 93.47940 40.47312
#
# Poissons Ratio (x) = 0.23768 0.14525
# Poissons Ratio (y) = 0.26099 0.02871
# Poissons Ratio (z) = 0.36838 0.06632
#
# Static dielectric constant tensor:
#      x y z
#    x 3.745110 0.000000 -0.106160 
#    y 0.000000 3.866850 0.000000 
#    z -0.106160 0.000000 3.235920 
# 
# 
# High freq. dielectric constant tensor:
#      x y z
#    x 1.812720 0.000000 -0.007540 
#    y 0.000000 1.819440 0.000000 
#    z -0.007540 0.000000 1.741180 
# 
# From -- ./inp_files/11197.got.cif
#   From: 2010.03.12/outbox.cif.g09.slc.cpg/sg3_6_cif.got.tgz:11197.got - 2010.03.31 09:20:49.
