data_PCOD8044314
_publ_section_title
;
Structure prediction by ZEFSAII (Michael W. Deem and Ramdas Pophale) SiO2 
 PCOD8044314
Probable space group: P -1
;
_chemical_formula_sum "Si O2"
_cell_formula_units_Z 14
_cell_length_a 12.114360
_cell_length_b 13.955435
_cell_length_c 8.992764
_cell_angle_alpha 136.440300
_cell_angle_beta 81.849184
_cell_angle_gamma 122.478778
_cell_volume 799.809885
_symmetry_space_group_name_H-M "P -1"
_symmetry_group_IT_number 2
_symmetry_cell_setting 'triclinic'
loop_
_space_group_symop_operation_xyz
x,y,z
-x,-y,-z
loop_
_atom_site_type_symbol
_atom_site_label
_atom_site_fract_x
_atom_site_fract_y
_atom_site_fract_z
Si Si1 0.523228 0.214718 0.865800
Si Si2 0.321536 0.943627 0.345992
Si Si3 0.227966 0.373761 0.770291
Si Si4 0.742230 0.913143 0.050603
Si Si5 0.922707 0.182168 0.551635
Si Si6 0.797360 0.939661 0.724485
Si Si7 0.115873 0.154548 0.829850
O O1 0.428712 0.113776 0.623708
O O2 0.612059 0.149049 0.822257
O O3 0.628164 0.424547 0.046032
O O4 0.421961 0.175856 0.979322
O O5 0.295319 0.014524 0.285414
O O6 0.171976 0.794266 0.296653
O O7 0.248229 0.247958 0.534652
O O8 0.201197 0.324237 0.894535
O O9 0.091982 0.356334 0.711606
O O10 0.758445 0.915667 0.876770
O O11 0.783246 0.798155 0.992116
O O12 0.852901 0.118762 0.328131
O O13 0.916751 0.019953 0.443601
O O14 0.967274 0.105747 0.858797
#
# Coordination Sequence:
#
# PCOD8044314 Si02
#       7
#     2   2   2   2   2   2   2
#     4  10  23  35  50  81 105 139 166 218 256 309
#     4  10  19  38  55  71 105 140 180 199 262 307
#     4  11  18  32  57  81 104 125 179 219 257 288
#     4   9  20  33  52  79 108 137 169 203 263 313
#     4   8  16  33  53  78 100 133 171 215 241 306
#     4  11  18  33  60  77  99 143 171 212 251 311
#     4   9  17  32  53  84  99 128 173 221 245 300
#
# _framework density 17.504159999999999
#
# number of rings (size 3 to 8) (size 9 to 14) (size 15 to 20)
#    0.857    1.429    2.857    1.286    0.000    4.000 
#    0.000    0.000    0.000    0.857    0.000    0.000 
#    0.000    0.000    0.000    0.000    0.000    0.000 
#
# Total GULP energy -173525.734818 kJ/mol
# GULP energy per Si atom -12394.695344 kJ/mol
# Density = 1.746432 g / cm^3
# Si number density = 17.504160 Si / 1000 Ang^3
#
#
#
# Elastic Constant Matrix: (Units=GPa)
#
#
# Indices 1 2 3 4 5 6 
#
# 1 132.5044 57.6381 35.8626 -17.9964 -4.5966 3.6152
# 2 57.6381 101.9181 53.7902 -30.4089 -5.9862 6.7107
# 3 35.8626 53.7902 50.6204 -18.6716 -4.5750 -3.3204
# 4 -17.9964 -30.4089 -18.6716 22.9107 -0.9780 1.9242
# 5 -4.5966 -5.9862 -4.5750 -0.9780 12.4410 -5.4305
# 6 3.6152 6.7107 -3.3204 1.9242 -5.4305 20.3656
#
#
#
# Elastic Compliance Matrix: (Units=1/GPa)
#
#
# Indices 1 2 3 4 5 6 
#
# 1 0.010161 -0.004149 -0.002651 0.000401 0.000474 -0.000780
# 2 -0.004149 0.032849 -0.025318 0.021058 -0.000515 -0.016343
# 3 -0.002651 -0.025318 0.054166 0.007372 0.016675 0.021394
# 4 0.000401 0.021058 0.007372 0.079346 0.015190 -0.009255
# 5 0.000474 -0.000515 0.016675 0.015190 0.099853 0.027995
# 6 -0.000780 -0.016343 0.021394 -0.009255 0.027995 0.066454
#
#
# Mechanical properties :
#
#
# Convention : Reuss Voigt Hill
#
# Bulk Modulus (GPa) = 30.35710 64.40275 47.37992
# Shear Modulus (GPa) = 11.96042 20.32693 16.14368
#
# Velocity S-wave (km/s) = 2.61682 3.41143 3.04020
# Velocity P-wave (km/s) = 5.14886 7.23808 6.28095
#
# Compressibility (1/GPa) = 0.03294122
#
# Stress axis : x y z
#
# Youngs Moduli (GPa) = 98.41403 30.44213 18.46160
#
# Poissons Ratio (x) = 0.12629 0.04894
# Poissons Ratio (y) = 0.40828 0.46741
# Poissons Ratio (z) = 0.26090 0.77074
#
# Static dielectric constant tensor:
#      x y z
#    x 3.529830 0.157950 0.096660 
#    y 0.157950 2.929960 -0.093750 
#    z 0.096660 -0.093750 2.916980 
# 
# 
# High freq. dielectric constant tensor:
#      x y z
#    x 1.693680 0.014150 0.010940 
#    y 0.014150 1.652900 -0.014210 
#    z 0.010940 -0.014210 1.642670 
# 
# From -- ./inp_files/269245.got.cif
#   From: 2010.06.25/outbox.cif.g09.slc.cpg/sg2_135_cif.got.tgz:269245.got - 2010.06.27 13:26:56.
