data_PCOD8044940
_publ_section_title
;
Structure prediction by ZEFSAII (Michael W. Deem and Ramdas Pophale) SiO2 
 PCOD8044940
Probable space group: P 2
;
_chemical_formula_sum "Si O2"
_cell_formula_units_Z 14
_cell_length_a 9.500484
_cell_length_b 15.342221
_cell_length_c 4.947563
_cell_angle_alpha 90.000000
_cell_angle_beta 62.475926
_cell_angle_gamma 90.000000
_cell_volume 639.527437
_symmetry_space_group_name_H-M "P 2"
_symmetry_group_IT_number 3
_symmetry_cell_setting 'monoclinic'
loop_
_space_group_symop_operation_xyz
x,y,z
-x,y,-z
loop_
_atom_site_type_symbol
_atom_site_label
_atom_site_fract_x
_atom_site_fract_y
_atom_site_fract_z
Si Si1 0.321848 0.493050 0.613902
Si Si2 0.189174 0.066480 0.838706
Si Si3 0.819079 0.787444 0.619348
Si Si4 0.188126 0.170446 0.345444
Si Si5 0.678222 0.609556 0.879915
Si Si6 0.895629 0.339605 0.339830
Si Si7 0.678324 0.875431 0.242402
O O1 0.500000 0.457459 0.500000
O O2 0.300633 0.527465 0.331538
O O3 0.198862 0.414002 0.739313
O O4 0.286233 0.572573 0.852121
O O5 0.265919 0.974126 0.824103
O O6 0.254086 0.098983 0.494575
O O7 0.000000 0.056164 0.000000
O O8 0.251474 0.139407 0.998428
O O9 0.801425 0.684570 0.690596
O O10 0.781264 0.814006 0.346729
O O11 0.000000 0.815831 0.500000
O O12 0.699509 0.838387 0.923116
O O13 0.226874 0.268221 0.420183
O O14 0.000000 0.169375 0.500000
O O15 0.500000 0.647532 0.000000
O O16 0.000000 0.376209 0.500000
O O17 0.000000 0.296956 0.000000
O O18 0.500000 0.869537 0.500000
#
# Coordination Sequence:
#
# PCOD8044940 Si02
#       7
#     2   2   2   2   2   2   2
#     4  10  22  39  60  86 121 163 202 246 307 372
#     4  10  19  35  59  84 114 154 201 247 296 357
#     4  12  25  42  65  94 124 160 210 259 306 366
#     4   9  18  33  56  84 114 151 195 247 302 354
#     4  10  21  39  61  86 120 162 204 249 309 370
#     4  11  21  36  60  90 120 155 205 256 306 363
#     4  12  25  42  64  92 128 165 203 252 315 376
#
# _framework density 21.891164
#
# number of rings (size 3 to 8) (size 9 to 14) (size 15 to 20)
#    0.000    1.429    0.000    7.286    0.000    4.000 
#    0.000    0.714    0.000    5.143    0.000    0.000 
#    0.000    0.000    0.000    0.000    0.000    0.000 
#
# Total GULP energy -173543.819928 kJ/mol
# GULP energy per Si atom -12395.987138 kJ/mol
# Density = 2.184134 g / cm^3
# Si number density = 21.891164 Si / 1000 Ang^3
#
#
#
# Elastic Constant Matrix: (Units=GPa)
#
#
# Indices 1 2 3 4 5 6 
#
# 1 62.8686 26.7987 17.8180 0.0000 5.2799 0.0000
# 2 26.7987 95.6381 3.2128 0.0000 -6.9631 0.0000
# 3 17.8180 3.2128 68.1809 0.0000 3.2414 0.0000
# 4 0.0000 0.0000 0.0000 30.4044 0.0000 4.7615
# 5 5.2799 -6.9631 3.2414 0.0000 29.3183 0.0000
# 6 0.0000 0.0000 0.0000 4.7615 0.0000 12.7887
#
#
#
# Elastic Compliance Matrix: (Units=1/GPa)
#
#
# Indices 1 2 3 4 5 6 
#
# 1 0.020105 -0.005799 -0.004768 0.000000 -0.004471 0.000000
# 2 -0.005799 0.012339 0.000749 0.000000 0.003892 0.000000
# 3 -0.004768 0.000749 0.015912 0.000000 -0.000723 0.000000
# 4 0.000000 0.000000 0.000000 0.034926 0.000000 -0.013004
# 5 -0.004471 0.003892 -0.000723 0.000000 0.035918 0.000000
# 6 0.000000 0.000000 0.000000 -0.013004 0.000000 0.083036
#
#
# Mechanical properties :
#
#
# Convention : Reuss Voigt Hill
#
# Bulk Modulus (GPa) = 34.81931 35.81630 35.31781
# Shear Modulus (GPa) = 21.60334 26.42616 24.01475
#
# Velocity S-wave (km/s) = 3.14483 3.47819 3.31570
# Velocity P-wave (km/s) = 5.39692 5.70325 5.55220
#
# Compressibility (1/GPa) = 0.02871970
#
# Stress axis : x y z
#
# Youngs Moduli (GPa) = 49.73906 81.04256 62.84550
#
# Poissons Ratio (x) = 0.46996 0.29967
# Poissons Ratio (y) = 0.28843 -0.04707
# Poissons Ratio (z) = 0.23717 -0.06070
#
# Static dielectric constant tensor:
#      x y z
#    x 3.872120 0.000000 0.321420 
#    y 0.000000 3.993780 0.000000 
#    z 0.321420 0.000000 4.098890 
# 
# 
# High freq. dielectric constant tensor:
#      x y z
#    x 1.846820 0.000000 0.029060 
#    y 0.000000 1.863230 0.000000 
#    z 0.029060 0.000000 1.862680 
# 
# From -- ./inp_files/1395.got.cif
#   From: 2010.03.12/outbox.cif.g09.slc.cpg/sg3_1_cif.got.tgz:1395.got - 2010.03.31 09:20:49.
