data_PCOD8044189
_publ_section_title
;
Structure prediction by ZEFSAII (Michael W. Deem and Ramdas Pophale) SiO2 
 PCOD8044189
Probable space group: P -1
;
_chemical_formula_sum "Si O2"
_cell_formula_units_Z 16
_cell_length_a 9.890303
_cell_length_b 10.074385
_cell_length_c 13.210168
_cell_angle_alpha 95.629442
_cell_angle_beta 75.825372
_cell_angle_gamma 140.591003
_cell_volume 801.254640
_symmetry_space_group_name_H-M "P -1"
_symmetry_group_IT_number 2
_symmetry_cell_setting 'triclinic'
loop_
_space_group_symop_operation_xyz
x,y,z
-x,-y,-z
loop_
_atom_site_type_symbol
_atom_site_label
_atom_site_fract_x
_atom_site_fract_y
_atom_site_fract_z
Si Si1 0.061475 0.698889 0.232660
Si Si2 0.372436 0.268328 0.622142
Si Si3 0.222452 0.464825 0.917563
Si Si4 0.642432 0.832102 0.754115
Si Si5 0.340879 0.257863 0.850780
Si Si6 0.767718 0.456607 0.857737
Si Si7 0.017843 0.130574 0.233442
Si Si8 0.362202 0.556598 0.598261
O O1 0.980033 0.681844 0.134928
O O2 0.854215 0.523036 0.333349
O O3 0.197235 0.663242 0.202546
O O4 0.220115 0.930613 0.263276
O O5 0.462508 0.365696 0.726367
O O6 0.295166 0.350916 0.593897
O O7 0.559897 0.341606 0.521395
O O8 0.156780 0.011694 0.651590
O O9 0.426385 0.699858 0.851945
O O10 0.295174 0.366567 0.917250
O O11 0.146278 0.473692 0.037446
O O12 0.568947 0.734748 0.648026
O O13 0.777503 0.814750 0.781795
O O14 0.505900 0.296101 0.894230
O O15 0.108285 0.008371 0.857723
O O16 0.902371 0.659553 0.778303
#
# Coordination Sequence:
#
# PCOD8044189 Si02
#       8
#     2   2   2   2   2   2   2   2
#     4  11  23  42  57  91 120 151 199 249 284 351
#     4   9  18  39  62  90 118 145 197 253 279 343
#     4  11  22  40  61  87 118 156 201 245 279 350
#     4  11  19  38  64  84 120 152 200 240 288 349
#     4  10  20  39  57  90 120 145 199 245 280 352
#     4  12  25  37  62  85 122 162 191 238 307 336
#     4  10  20  38  59  87 118 154 190 243 286 352
#     4  10  19  37  65  90 116 149 197 247 293 335
#
# _framework density 19.968682999999999
#
# number of rings (size 3 to 8) (size 9 to 14) (size 15 to 20)
#    0.750    0.750    6.250    0.750    0.000    4.500 
#    2.250    1.250    0.000    0.000    0.000    0.000 
#    0.000    0.000    0.000    0.000    0.000    0.000 
#
# Total GULP energy -198350.164689 kJ/mol
# GULP energy per Si atom -12396.885293 kJ/mol
# Density = 1.992323 g / cm^3
# Si number density = 19.968683 Si / 1000 Ang^3
#
#
#
# Elastic Constant Matrix: (Units=GPa)
#
#
# Indices 1 2 3 4 5 6 
#
# 1 60.3917 32.8103 -2.5518 2.4777 -11.5707 -10.9353
# 2 32.8103 92.2693 8.2524 -4.5746 -0.7944 -0.5641
# 3 -2.5518 8.2524 64.8187 -0.5730 -2.8673 -10.5123
# 4 2.4777 -4.5746 -0.5730 21.0151 -1.8559 -1.2264
# 5 -11.5707 -0.7944 -2.8673 -1.8559 17.8979 3.3667
# 6 -10.9353 -0.5641 -10.5123 -1.2264 3.3667 27.8492
#
#
#
# Elastic Compliance Matrix: (Units=1/GPa)
#
#
# Indices 1 2 3 4 5 6 
#
# 1 0.027193 -0.010053 0.004667 -0.003292 0.015621 0.010202
# 2 -0.010053 0.014803 -0.003134 0.003626 -0.005208 -0.004042
# 3 0.004667 -0.003134 0.017472 0.000074 0.004206 0.007859
# 4 -0.003292 0.003626 0.000074 0.049066 0.003019 0.000605
# 5 0.015621 -0.005208 0.004206 0.003019 0.066788 -0.000325
# 6 0.010202 -0.004042 0.007859 0.000605 -0.000325 0.042864
#
#
# Mechanical properties :
#
#
# Convention : Reuss Voigt Hill
#
# Bulk Modulus (GPa) = 23.57012 32.72239 28.14626
# Shear Modulus (GPa) = 20.05054 25.28370 22.66712
#
# Velocity S-wave (km/s) = 3.17219 3.56218 3.37283
# Velocity P-wave (km/s) = 5.02456 5.77419 5.41237
#
# Compressibility (1/GPa) = 0.04242659
#
# Stress axis : x y z
#
# Youngs Moduli (GPa) = 36.77423 67.55235 57.23547
#
# Poissons Ratio (x) = 0.67913 -0.26712
# Poissons Ratio (y) = 0.36971 0.17939
# Poissons Ratio (z) = -0.17162 0.21173
#
# Static dielectric constant tensor:
#      x y z
#    x 3.369730 0.137010 -0.024770 
#    y 0.137010 3.566820 -0.048600 
#    z -0.024770 -0.048600 3.582150 
# 
# 
# High freq. dielectric constant tensor:
#      x y z
#    x 1.752700 0.012910 -0.001950 
#    y 0.012910 1.779120 -0.003430 
#    z -0.001950 -0.003430 1.768720 
# 
# From -- ./inp_files/492961.got.cif
#   From: 2010.06.25/outbox.cif.g09.slc.cpg/sg2_247_cif.got.tgz:492961.got - 2010.06.27 13:26:56.
