data_PCOD8044735
_publ_section_title
;
Structure prediction by ZEFSAII (Michael W. Deem and Ramdas Pophale) SiO2 
 PCOD8044735
Probable space group: P -1
;
_chemical_formula_sum "Si O2"
_cell_formula_units_Z 16
_cell_length_a 18.132848
_cell_length_b 9.509149
_cell_length_c 8.517311
_cell_angle_alpha 99.460337
_cell_angle_beta 145.639734
_cell_angle_gamma 69.174502
_cell_volume 751.163471
_symmetry_space_group_name_H-M "P -1"
_symmetry_group_IT_number 2
_symmetry_cell_setting 'triclinic'
loop_
_space_group_symop_operation_xyz
x,y,z
-x,-y,-z
loop_
_atom_site_type_symbol
_atom_site_label
_atom_site_fract_x
_atom_site_fract_y
_atom_site_fract_z
Si Si1 0.874903 0.843515 0.118057
Si Si2 0.755392 0.610144 0.145932
Si Si3 0.974645 0.977839 0.772917
Si Si4 0.663856 0.047360 0.281066
Si Si5 0.393208 0.059194 0.160035
Si Si6 0.980973 0.324850 0.360067
Si Si7 0.329985 0.178580 0.474861
Si Si8 0.559734 0.627812 0.078290
O O1 0.985455 0.722879 0.407131
O O2 0.739371 0.966446 0.999141
O O3 0.815699 0.753224 0.869994
O O4 0.955197 0.936659 0.196880
O O5 0.833139 0.475403 0.130583
O O6 0.676472 0.555777 0.133715
O O7 0.879828 0.651218 0.455817
O O8 0.643931 0.755616 0.877117
O O9 0.046683 0.796994 0.821752
O O10 0.807789 0.046438 0.458905
O O11 0.000000 0.000000 0.000000
O O12 0.696905 0.930706 0.462556
O O13 0.567484 0.223783 0.191887
O O14 0.585171 0.992068 0.996877
O O15 0.551435 0.933217 0.468331
O O16 0.370079 0.316458 0.640284
O O17 0.500000 0.500000 0.000000
#
# Coordination Sequence:
#
# PCOD8044735 Si02
#       8
#     2   2   2   2   2   2   2   2
#     4  11  23  35  62  93 123 160 206 264 306 369
#     4  10  19  40  63  85 124 168 205 245 323 379
#     4  12  23  39  62  93 125 156 215 261 304 369
#     4  11  20  40  65  89 124 169 209 254 308 373
#     4  10  19  38  66  86 117 166 214 254 300 376
#     4  10  23  39  63  90 125 170 200 254 323 374
#     4  11  20  40  64  95 123 165 217 251 312 375
#     4  11  23  37  65  94 123 166 210 265 311 365
#
# _framework density 21.300291000000001
#
# number of rings (size 3 to 8) (size 9 to 14) (size 15 to 20)
#    0.000    1.250    6.250    1.500    1.750    1.000 
#    0.000    4.375    0.000    4.500    0.000    0.000 
#    0.000    0.000    0.000    0.000    0.000    0.000 
#
# Total GULP energy -198313.645305 kJ/mol
# GULP energy per Si atom -12394.602832 kJ/mol
# Density = 2.125181 g / cm^3
# Si number density = 21.300291 Si / 1000 Ang^3
#
#
#
# Elastic Constant Matrix: (Units=GPa)
#
#
# Indices 1 2 3 4 5 6 
#
# 1 123.5848 44.8551 14.0207 7.5590 22.2495 20.6876
# 2 44.8551 122.7928 48.4888 11.7925 5.6755 2.4023
# 3 14.0207 48.4888 60.2168 6.3263 2.5548 -3.1068
# 4 7.5590 11.7925 6.3263 31.8704 -3.4047 5.7094
# 5 22.2495 5.6755 2.5548 -3.4047 28.8694 0.5764
# 6 20.6876 2.4023 -3.1068 5.7094 0.5764 32.0837
#
#
#
# Elastic Compliance Matrix: (Units=1/GPa)
#
#
# Indices 1 2 3 4 5 6 
#
# 1 0.012375 -0.004062 0.000510 -0.001171 -0.008777 -0.007260
# 2 -0.004062 0.013641 -0.009797 -0.002212 0.001034 0.001024
# 3 0.000510 -0.009797 0.024803 -0.002096 -0.000973 0.003197
# 4 -0.001171 -0.002212 -0.002096 0.034487 0.005700 -0.005522
# 5 -0.008777 0.001034 -0.000973 0.005700 0.041884 0.003721
# 6 -0.007260 0.001024 0.003197 -0.005522 0.003721 0.036998
#
#
# Mechanical properties :
#
#
# Convention : Reuss Voigt Hill
#
# Bulk Modulus (GPa) = 41.45638 57.92483 49.69060
# Shear Modulus (GPa) = 25.13490 31.84671 28.49081
#
# Velocity S-wave (km/s) = 3.43888 3.87089 3.66126
# Velocity P-wave (km/s) = 5.93910 6.87254 6.42280
#
# Compressibility (1/GPa) = 0.02412174
#
# Stress axis : x y z
#
# Youngs Moduli (GPa) = 80.80797 73.30949 40.31735
#
# Poissons Ratio (x) = 0.29777 -0.02057
# Poissons Ratio (y) = 0.32823 0.39499
# Poissons Ratio (z) = -0.04122 0.71821
#
# Static dielectric constant tensor:
#      x y z
#    x 3.929390 -0.220000 0.014920 
#    y -0.220000 3.697970 -0.073130 
#    z 0.014920 -0.073130 4.388330 
# 
# 
# High freq. dielectric constant tensor:
#      x y z
#    x 1.861420 -0.008600 0.007730 
#    y -0.008600 1.811450 -0.001560 
#    z 0.007730 -0.001560 1.828030 
# 
# From -- ./inp_files/329231.got.cif
#   From: 2010.06.25/outbox.cif.g09.slc.cpg/sg2_165_cif.got.tgz:329231.got - 2010.06.27 13:26:56.
