data_PCOD8044559
_publ_section_title
;
Structure prediction by ZEFSAII (Michael W. Deem and Ramdas Pophale) SiO2 
 PCOD8044559
Probable space group: P -1
;
_chemical_formula_sum "Si O2"
_cell_formula_units_Z 16
_cell_length_a 13.910532
_cell_length_b 13.753242
_cell_length_c 14.244184
_cell_angle_alpha 30.035512
_cell_angle_beta 147.359128
_cell_angle_gamma 149.126788
_cell_volume 645.829123
_symmetry_space_group_name_H-M "P -1"
_symmetry_group_IT_number 2
_symmetry_cell_setting 'triclinic'
loop_
_space_group_symop_operation_xyz
x,y,z
-x,-y,-z
loop_
_atom_site_type_symbol
_atom_site_label
_atom_site_fract_x
_atom_site_fract_y
_atom_site_fract_z
Si Si1 0.935952 0.822228 0.453211
Si Si2 0.718339 0.528236 0.673480
Si Si3 0.823942 0.265339 0.837053
Si Si4 0.745558 0.309996 0.240210
Si Si5 0.468955 0.807055 0.495925
Si Si6 0.353482 0.249752 0.878847
Si Si7 0.668660 0.473003 0.216153
Si Si8 0.206517 0.321467 0.190890
O O1 0.878362 0.768834 0.560094
O O2 0.719237 0.704510 0.319126
O O3 0.054388 0.680990 0.647298
O O4 0.068168 0.075836 0.324385
O O5 0.500000 0.500000 0.500000
O O6 0.741761 0.331036 0.807485
O O7 0.754771 0.517677 0.823110
O O8 0.741138 0.322117 0.627177
O O9 0.072881 0.367657 0.961775
O O10 0.733404 0.007254 0.972824
O O11 0.815579 0.469636 0.257081
O O12 0.596461 0.063463 0.362633
O O13 0.603118 0.360523 0.005007
O O14 0.415434 0.759968 0.601415
O O15 0.588656 0.667384 0.689656
O O16 0.242808 0.323569 0.806916
O O17 0.500000 0.500000 0.000000
#
# Coordination Sequence:
#
# PCOD8044559 Si02
#       8
#     2   2   2   2   2   2   2   2
#     4  10  22  41  62  88 123 161 198 251 301 355
#     4  12  23  40  64  91 122 158 204 252 303 360
#     4  10  21  39  59  88 119 161 200 249 301 354
#     4   9  20  38  61  90 119 164 201 245 302 355
#     4  10  19  38  63  86 127 159 199 253 298 353
#     4   9  20  38  59  85 126 157 198 249 298 352
#     4  10  20  36  62  93 122 161 202 243 303 363
#     4  10  22  41  62  88 123 159 204 245 302 361
#
# _framework density 24.774356000000001
#
# number of rings (size 3 to 8) (size 9 to 14) (size 15 to 20)
#    0.000    2.000    1.250    1.875    0.000    2.500 
#    2.250    3.750    0.000   13.500    0.000    0.000 
#    0.000    0.000    0.000    0.000    0.000    0.000 
#
# Total GULP energy -198271.243887 kJ/mol
# GULP energy per Si atom -12391.952743 kJ/mol
# Density = 2.471797 g / cm^3
# Si number density = 24.774356 Si / 1000 Ang^3
#
#
#
# Elastic Constant Matrix: (Units=GPa)
#
#
# Indices 1 2 3 4 5 6 
#
# 1 122.3689 24.1764 31.8506 25.7598 -0.6447 -3.8563
# 2 24.1764 87.5803 37.8381 16.6021 13.5136 2.9400
# 3 31.8506 37.8381 140.2147 16.0378 -2.7296 8.4221
# 4 25.7598 16.6021 16.0378 45.7766 -3.2849 8.1255
# 5 -0.6447 13.5136 -2.7296 -3.2849 44.7947 3.4893
# 6 -3.8563 2.9400 8.4221 8.1255 3.4893 39.0022
#
#
#
# Elastic Compliance Matrix: (Units=1/GPa)
#
#
# Indices 1 2 3 4 5 6 
#
# 1 0.009948 -0.001189 -0.001508 -0.005088 -0.000156 0.002473
# 2 -0.001189 0.014712 -0.003390 -0.003978 -0.005015 0.000783
# 3 -0.001508 -0.003390 0.008585 -0.000495 0.001627 -0.001790
# 4 -0.005088 -0.003978 -0.000495 0.027682 0.003609 -0.006186
# 5 -0.000156 -0.005015 0.001627 0.003609 0.024426 -0.002926
# 6 0.002473 0.000783 -0.001790 -0.006186 -0.002926 0.027762
#
#
# Mechanical properties :
#
#
# Convention : Reuss Voigt Hill
#
# Bulk Modulus (GPa) = 47.45808 59.76600 53.61204
# Shear Modulus (GPa) = 37.78901 43.00128 40.39515
#
# Velocity S-wave (km/s) = 3.90978 4.17071 4.04235
# Velocity P-wave (km/s) = 6.29123 6.88256 6.59353
#
# Compressibility (1/GPa) = 0.02107123
#
# Stress axis : x y z
#
# Youngs Moduli (GPa) = 100.52510 67.96984 116.47981
#
# Poissons Ratio (x) = 0.08080 0.17571
# Poissons Ratio (y) = 0.11950 0.39485
# Poissons Ratio (z) = 0.15164 0.23041
#
# Static dielectric constant tensor:
#      x y z
#    x 5.010560 -0.395820 0.088370 
#    y -0.395820 5.019960 0.228540 
#    z 0.088370 0.228540 5.395560 
# 
# 
# High freq. dielectric constant tensor:
#      x y z
#    x 1.977000 0.001480 -0.004890 
#    y 0.001480 2.001330 -0.016110 
#    z -0.004890 -0.016110 2.029600 
# 
# From -- ./inp_files/216635.got.cif
#   From: 2010.06.25/outbox.cif.g09.slc.cpg/sg2_109_cif.got.tgz:216635.got - 2010.06.27 13:26:56.
