data_PCOD8044924
_publ_section_title
;
Structure prediction by ZEFSAII (Michael W. Deem and Ramdas Pophale) SiO2 
 PCOD8044924
Probable space group: P 2
;
_chemical_formula_sum "Si O2"
_cell_formula_units_Z 16
_cell_length_a 25.298180
_cell_length_b 7.713378
_cell_length_c 4.981837
_cell_angle_alpha 90.000000
_cell_angle_beta 124.999689
_cell_angle_gamma 90.000000
_cell_volume 796.323582
_symmetry_space_group_name_H-M "P 2"
_symmetry_group_IT_number 3
_symmetry_cell_setting 'monoclinic'
loop_
_space_group_symop_operation_xyz
x,y,z
-x,y,-z
loop_
_atom_site_type_symbol
_atom_site_label
_atom_site_fract_x
_atom_site_fract_y
_atom_site_fract_z
Si Si1 0.295149 0.147130 0.932141
Si Si2 0.925766 0.151823 0.805017
Si Si3 0.566190 0.151738 0.765260
Si Si4 0.817895 0.650469 0.894570
Si Si5 0.074234 0.379568 0.694983
Si Si6 0.566190 0.379653 0.265260
Si Si7 0.817895 0.880923 0.394571
Si Si8 0.704851 0.384261 0.567859
O O1 0.287061 0.308665 0.706341
O O2 0.242234 0.003717 0.719150
O O3 0.365931 0.055772 0.100473
O O4 0.287061 0.222726 0.206340
O O5 0.909137 0.304604 0.548332
O O6 0.884412 0.981667 0.632532
O O7 0.909137 0.226787 0.048331
O O8 0.000000 0.094264 0.000000
O O9 0.500000 0.043942 0.500000
O O10 0.564818 0.324001 0.571744
O O11 0.564818 0.207390 0.071744
O O12 0.815110 0.716474 0.582365
O O13 0.757766 0.527675 0.780847
O O14 0.884412 0.549724 0.132531
O O15 0.815110 0.814917 0.082365
O O16 0.000000 0.437128 0.500000
O O17 0.634069 0.475619 0.399527
O O18 0.500000 0.487449 0.000000
#
# Coordination Sequence:
#
# PCOD8044924 Si02
#       8
#     2   2   2   2   2   2   2   2
#     4  10  19  34  55  75 101 138 177 214 254 306
#     4  10  21  39  61  81 103 135 175 214 254 306
#     4   8  14  25  45  73  97 121 164 218 258 290
#     4  12  24  36  53  79 111 140 170 212 258 306
#     4  10  21  39  61  81 103 135 175 214 254 306
#     4   8  14  25  45  73  97 121 164 218 258 290
#     4  12  24  36  53  79 111 140 170 212 258 306
#     4  10  19  34  55  75 101 138 177 214 254 306
#
# _framework density 20.092336
#
# number of rings (size 3 to 8) (size 9 to 14) (size 15 to 20)
#    0.000    2.000    0.000    4.500    0.000    1.000 
#    0.000    0.000    0.000    1.500    0.000    0.000 
#    0.000    0.000    0.000    0.000    0.000    0.000 
#
# Total GULP energy -198346.871391 kJ/mol
# GULP energy per Si atom -12396.679462 kJ/mol
# Density = 2.004661 g / cm^3
# Si number density = 20.092336 Si / 1000 Ang^3
#
#
#
# Elastic Constant Matrix: (Units=GPa)
#
#
# Indices 1 2 3 4 5 6 
#
# 1 85.9976 29.5433 36.9829 0.0000 19.8817 0.0000
# 2 29.5433 51.4323 25.2961 0.0000 23.3062 0.0000
# 3 36.9829 25.2961 96.9112 0.0000 17.9388 0.0000
# 4 0.0000 0.0000 0.0000 12.3299 0.0000 -9.3553
# 5 19.8817 23.3062 17.9388 0.0000 46.1805 0.0000
# 6 0.0000 0.0000 0.0000 -9.3553 0.0000 7.3656
#
#
#
# Elastic Compliance Matrix: (Units=1/GPa)
#
#
# Indices 1 2 3 4 5 6 
#
# 1 0.016023 -0.006204 -0.004092 0.000000 -0.002177 0.000000
# 2 -0.006204 0.029623 -0.003331 0.000000 -0.010985 0.000000
# 3 -0.004092 -0.003331 0.013051 0.000000 -0.001627 0.000000
# 4 0.000000 0.000000 0.000000 2.234589 0.000000 2.838223
# 5 -0.002177 -0.010985 -0.001627 0.000000 0.028767 0.000000
# 6 0.000000 0.000000 0.000000 2.838223 0.000000 3.740685
#
#
# Mechanical properties :
#
#
# Convention : Reuss Voigt Hill
#
# Bulk Modulus (GPa) = 31.80515 46.44285 39.12400
# Shear Modulus (GPa) = 0.81961 22.67646 11.74803
#
# Velocity S-wave (km/s) = 0.63938 3.36313 2.42068
# Velocity P-wave (km/s) = 4.05079 6.18431 5.22755
#
# Compressibility (1/GPa) = 0.03144145
#
# Stress axis : x y z
#
# Youngs Moduli (GPa) = 62.41091 33.75749 76.62274
#
# Poissons Ratio (x) = 0.20945 0.31354
# Poissons Ratio (y) = 0.38723 0.25525
# Poissons Ratio (z) = 0.25539 0.11245
#
# Static dielectric constant tensor:
#      x y z
#    x 3.991260 0.000000 0.199180 
#    y 0.000000 2.982750 0.000000 
#    z 0.199180 0.000000 4.054970 
# 
# 
# High freq. dielectric constant tensor:
#      x y z
#    x 1.810700 0.000000 0.004640 
#    y 0.000000 1.713340 0.000000 
#    z 0.004640 0.000000 1.815570 
# 
# From -- ./inp_files/4022.got.cif
#   From: 2010.03.12/outbox.cif.g09.slc.cpg/sg3_3_cif.got.tgz:4022.got - 2010.03.31 09:20:49.
