data_PCOD8044953
_publ_section_title
;
Structure prediction by ZEFSAII (Michael W. Deem and Ramdas Pophale) SiO2 
 PCOD8044953
Probable space group: P 2
;
_chemical_formula_sum "Si O2"
_cell_formula_units_Z 16
_cell_length_a 8.687998
_cell_length_b 17.626425
_cell_length_c 9.688756
_cell_angle_alpha 90.000000
_cell_angle_beta 31.040065
_cell_angle_gamma 90.000000
_cell_volume 765.061461
_symmetry_space_group_name_H-M "P 2"
_symmetry_group_IT_number 3
_symmetry_cell_setting 'monoclinic'
loop_
_space_group_symop_operation_xyz
x,y,z
-x,y,-z
loop_
_atom_site_type_symbol
_atom_site_label
_atom_site_fract_x
_atom_site_fract_y
_atom_site_fract_z
Si Si1 0.707423 0.158570 0.973371
Si Si2 0.351848 0.327386 0.965964
Si Si3 0.357976 0.581321 0.460942
Si Si4 0.336960 0.091337 0.491802
Si Si5 0.720748 0.654643 0.948222
Si Si6 0.845246 0.420805 0.472594
Si Si7 0.825277 0.823561 0.778073
Si Si8 0.821584 0.926425 0.280332
O O1 0.040874 0.135695 0.675869
O O2 0.500000 0.156635 0.000000
O O3 0.739734 0.243153 0.011798
O O4 0.573539 0.098812 0.185766
O O5 0.598314 0.355388 0.669908
O O6 0.500000 0.320349 0.000000
O O7 0.082648 0.388811 0.179141
O O8 0.500000 0.588367 0.500000
O O9 0.337775 0.493931 0.434742
O O10 0.027567 0.611722 0.701420
O O11 0.571934 0.634125 0.206596
O O12 0.500000 0.126976 0.500000
O O13 0.249139 0.004898 0.588700
O O14 0.775674 0.743853 0.892325
O O15 0.500000 0.623664 0.000000
O O16 0.000000 0.438451 0.500000
O O17 0.000000 0.812922 0.500000
O O18 0.996930 0.876203 0.752289
O O19 0.500000 0.860270 0.000000
O O20 0.500000 0.886547 0.500000
O O21 0.000000 0.938365 0.000000
#
# Coordination Sequence:
#
# PCOD8044953 Si02
#       8
#     2   2   2   2   2   2   2   2
#     4  11  22  39  64  93 120 157 210 264 306 359
#     4   9  19  35  58  86 116 152 203 254 303 363
#     4  12  25  40  61  94 127 158 203 260 306 359
#     4  11  23  41  60  88 127 167 204 247 308 378
#     4  11  23  43  65  89 122 165 205 246 307 378
#     4  10  19  36  60  84 115 161 203 245 304 373
#     4  11  24  43  67  97 126 157 207 269 312 360
#     4  11  24  43  65  91 127 171 209 251 310 382
#
# _framework density 20.913353000000001
#
# number of rings (size 3 to 8) (size 9 to 14) (size 15 to 20)
#    0.000    1.250    0.000    7.500    0.000    6.000 
#    0.000    3.750    0.000    0.000    0.000    0.000 
#    0.000    0.000    0.000    0.000    0.000    0.000 
#
# Total GULP energy -198395.255817 kJ/mol
# GULP energy per Si atom -12399.703489 kJ/mol
# Density = 2.086575 g / cm^3
# Si number density = 20.913353 Si / 1000 Ang^3
#
#
#
# Elastic Constant Matrix: (Units=GPa)
#
#
# Indices 1 2 3 4 5 6 
#
# 1 123.2705 50.3210 37.7855 0.0000 -7.1480 0.0000
# 2 50.3210 104.7716 37.1305 0.0000 4.0369 0.0000
# 3 37.7855 37.1305 127.9261 0.0000 -0.7069 0.0000
# 4 0.0000 0.0000 0.0000 86.6087 0.0000 -160.0970
# 5 -7.1480 4.0369 -0.7069 0.0000 41.4860 0.0000
# 6 0.0000 0.0000 0.0000 -160.0970 0.0000 408.1589
#
#
#
# Elastic Compliance Matrix: (Units=1/GPa)
#
#
# Indices 1 2 3 4 5 6 
#
# 1 0.010662 -0.004565 -0.001812 0.000000 0.002250 0.000000
# 2 -0.004565 0.012643 -0.002333 0.000000 -0.002057 0.000000
# 3 -0.001812 -0.002333 0.009030 0.000000 0.000069 0.000000
# 4 0.000000 0.000000 0.000000 0.041996 0.000000 0.016472
# 5 0.002250 -0.002057 0.000069 0.000000 0.024694 0.000000
# 6 0.000000 0.000000 0.000000 0.016472 0.000000 0.008911
#
#
# Mechanical properties :
#
#
# Convention : Reuss Voigt Hill
#
# Bulk Modulus (GPa) = 67.04545 67.38245 67.21395
# Shear Modulus (GPa) = 38.36536 122.63280 80.49908
#
# Velocity S-wave (km/s) = 4.28774 7.66589 6.21090
# Velocity P-wave (km/s) = 7.52604 10.51875 9.14564
#
# Compressibility (1/GPa) = 0.01491526
#
# Stress axis : x y z
#
# Youngs Moduli (GPa) = 93.79356 79.09390 110.74802
#
# Poissons Ratio (x) = 0.36110 0.20063
# Poissons Ratio (y) = 0.42821 0.25833
# Poissons Ratio (z) = 0.16992 0.18449
#
# Static dielectric constant tensor:
#      x y z
#    x 3.753980 0.000000 -0.071150 
#    y 0.000000 3.799990 0.000000 
#    z -0.071150 0.000000 3.922830 
# 
# 
# High freq. dielectric constant tensor:
#      x y z
#    x 1.815860 0.000000 -0.014560 
#    y 0.000000 1.821480 0.000000 
#    z -0.014560 0.000000 1.838300 
# 
# From -- ./inp_files/6192.got.cif
#   From: 2010.03.12/outbox.cif.g09.slc.cpg/sg3_4_cif.got.tgz:6192.got - 2010.03.31 09:20:49.
