data_PCOD8044493
_publ_section_title
;
Structure prediction by ZEFSAII (Michael W. Deem and Ramdas Pophale) SiO2 
 PCOD8044493
Probable space group: P -1
;
_chemical_formula_sum "Si O2"
_cell_formula_units_Z 16
_cell_length_a 15.430299
_cell_length_b 11.295176
_cell_length_c 9.275155
_cell_angle_alpha 108.102916
_cell_angle_beta 39.310247
_cell_angle_gamma 88.916399
_cell_volume 878.524820
_symmetry_space_group_name_H-M "P -1"
_symmetry_group_IT_number 2
_symmetry_cell_setting 'triclinic'
loop_
_space_group_symop_operation_xyz
x,y,z
-x,-y,-z
loop_
_atom_site_type_symbol
_atom_site_label
_atom_site_fract_x
_atom_site_fract_y
_atom_site_fract_z
Si Si1 0.647354 0.023715 0.335786
Si Si2 0.423954 0.687954 0.536590
Si Si3 0.780080 0.338246 0.700521
Si Si4 0.279804 0.563143 0.880342
Si Si5 0.999090 0.493767 0.827863
Si Si6 0.268014 0.373953 0.237622
Si Si7 0.399959 0.775357 0.294896
Si Si8 0.894375 0.730348 0.828978
O O1 0.625300 0.150261 0.303645
O O2 0.662770 0.070131 0.498136
O O3 0.500000 0.000000 0.500000
O O4 0.794220 0.888297 0.056113
O O5 0.300240 0.644062 0.746997
O O6 0.590598 0.594240 0.350429
O O7 0.428701 0.667047 0.349359
O O8 0.719740 0.484263 0.753498
O O9 0.722473 0.235263 0.658484
O O10 0.962563 0.270959 0.441862
O O11 0.711172 0.358177 0.956979
O O12 0.115305 0.568798 0.092732
O O13 0.947863 0.642894 0.874878
O O14 0.165453 0.389340 0.516438
O O15 0.000000 0.500000 0.000000
O O16 0.195326 0.334573 0.177039
O O17 0.438732 0.259437 0.003765
#
# Coordination Sequence:
#
# PCOD8044493 Si02
#       8
#     2   2   2   2   2   2   2   2
#     4  10  19  38  62  82 112 155 205 224 276 350
#     4   9  22  34  59  85 112 150 186 239 294 334
#     4  11  20  33  57  87 119 143 195 243 284 338
#     4  11  19  37  55  86 123 142 186 243 305 326
#     4  11  23  34  58  89 116 148 190 244 292 333
#     4  11  19  37  60  87 112 153 198 229 290 336
#     4  10  21  35  58  89 106 154 195 238 276 337
#     4  11  20  38  62  81 116 161 191 232 280 352
#
# _framework density 18.212347999999999
#
# number of rings (size 3 to 8) (size 9 to 14) (size 15 to 20)
#    0.750    0.750    5.000    1.875    3.500    1.500 
#    0.000    0.625    2.750    1.500    0.000    0.000 
#    0.000    0.000    0.000    0.000    0.000    0.000 
#
# Total GULP energy -198321.703806 kJ/mol
# GULP energy per Si atom -12395.106488 kJ/mol
# Density = 1.817090 g / cm^3
# Si number density = 18.212348 Si / 1000 Ang^3
#
#
#
# Elastic Constant Matrix: (Units=GPa)
#
#
# Indices 1 2 3 4 5 6 
#
# 1 73.8768 22.8663 19.4605 -1.3081 8.4754 18.7294
# 2 22.8663 76.3565 44.4587 5.6832 2.4291 3.1801
# 3 19.4605 44.4587 117.0488 -2.6433 3.3997 3.4155
# 4 -1.3081 5.6832 -2.6433 33.4042 3.5594 5.4811
# 5 8.4754 2.4291 3.3997 3.5594 31.0032 -4.2792
# 6 18.7294 3.1801 3.4155 5.4811 -4.2792 28.4429
#
#
#
# Elastic Compliance Matrix: (Units=1/GPa)
#
#
# Indices 1 2 3 4 5 6 
#
# 1 0.019912 -0.005116 -0.000617 0.004786 -0.007528 -0.014521
# 2 -0.005116 0.018527 -0.006429 -0.004557 0.001615 0.003190
# 3 -0.000617 -0.006429 0.011186 0.002179 -0.000911 -0.000775
# 4 0.004786 -0.004557 0.002179 0.033453 -0.006456 -0.010322
# 5 -0.007528 0.001615 -0.000911 -0.006456 0.036634 0.011642
# 6 -0.014521 0.003190 -0.000775 -0.010322 0.011642 0.048197
#
#
# Mechanical properties :
#
#
# Convention : Reuss Voigt Hill
#
# Bulk Modulus (GPa) = 39.52438 48.98370 44.25404
# Shear Modulus (GPa) = 24.91694 30.60316 27.76005
#
# Velocity S-wave (km/s) = 3.70284 4.10366 3.90839
# Velocity P-wave (km/s) = 6.32696 7.02905 6.68723
#
# Compressibility (1/GPa) = 0.02530084
#
# Stress axis : x y z
#
# Youngs Moduli (GPa) = 50.22181 53.97562 89.39387
#
# Poissons Ratio (x) = 0.27612 0.05515
# Poissons Ratio (y) = 0.25692 0.57476
# Poissons Ratio (z) = 0.03099 0.34704
#
# Static dielectric constant tensor:
#      x y z
#    x 3.219000 0.067560 0.010350 
#    y 0.067560 3.230180 0.004850 
#    z 0.010350 0.004850 3.665590 
# 
# 
# High freq. dielectric constant tensor:
#      x y z
#    x 1.690350 0.019100 -0.003890 
#    y 0.019100 1.677220 -0.008040 
#    z -0.003890 -0.008040 1.721850 
# 
# From -- ./inp_files/307878.got.cif
#   From: 2010.06.25/outbox.cif.g09.slc.cpg/sg2_154_cif.got.tgz:307878.got - 2010.06.27 13:26:56.
