data_PCOD8044032
_publ_section_title
;
Structure prediction by ZEFSAII (Michael W. Deem and Ramdas Pophale) SiO2 
 PCOD8044032
Probable space group: P -1
;
_chemical_formula_sum "Si O2"
_cell_formula_units_Z 16
_cell_length_a 11.884517
_cell_length_b 11.348741
_cell_length_c 16.251135
_cell_angle_alpha 32.756905
_cell_angle_beta 57.056442
_cell_angle_gamma 80.845072
_cell_volume 750.512811
_symmetry_space_group_name_H-M "P -1"
_symmetry_group_IT_number 2
_symmetry_cell_setting 'triclinic'
loop_
_space_group_symop_operation_xyz
x,y,z
-x,-y,-z
loop_
_atom_site_type_symbol
_atom_site_label
_atom_site_fract_x
_atom_site_fract_y
_atom_site_fract_z
Si Si1 0.529710 0.287290 0.831307
Si Si2 0.594376 0.816651 0.890289
Si Si3 0.009083 0.267454 0.327460
Si Si4 0.906550 0.719688 0.379286
Si Si5 0.673798 0.431632 0.089558
Si Si6 0.966988 0.382278 0.454226
Si Si7 0.245316 0.340816 0.893505
Si Si8 0.647227 0.110042 0.538565
O O1 0.698414 0.562843 0.552168
O O2 0.361205 0.246784 0.889947
O O3 0.558783 0.353045 0.879722
O O4 0.500000 0.000000 0.000000
O O5 0.773239 0.067053 0.722298
O O6 0.555855 0.951622 0.755553
O O7 0.621290 0.605374 0.965312
O O8 0.048656 0.428621 0.304108
O O9 0.822468 0.149721 0.433054
O O10 0.163297 0.498933 0.066726
O O11 0.000000 0.000000 0.500000
O O12 0.952761 0.624341 0.336698
O O13 0.915289 0.596468 0.533664
O O14 0.036879 0.065723 0.124695
O O15 0.729666 0.523099 0.107487
O O16 0.500065 0.092313 0.354050
O O17 0.301027 0.580861 0.663325
#
# Coordination Sequence:
#
# PCOD8044032 Si02
#       8
#     2   2   2   2   2   2   2   2
#     4  11  21  38  71  91 120 163 215 253 303 373
#     4  10  20  40  61  97 124 154 215 260 300 372
#     4  11  22  38  64  93 124 157 211 254 307 373
#     4  11  20  38  67  88 128 165 200 260 317 351
#     4  11  22  41  65  91 125 165 216 254 306 372
#     4  10  19  37  62  98 120 153 210 264 298 363
#     4  11  25  44  58  97 130 161 210 256 309 383
#     4  11  25  41  62  89 135 164 200 264 318 356
#
# _framework density 21.318756
#
# number of rings (size 3 to 8) (size 9 to 14) (size 15 to 20)
#    0.000    1.250    6.250    1.500    1.750    4.500 
#    0.000    3.125    0.000    0.000    0.000    0.000 
#    0.000    0.000    0.000    0.000    0.000    0.000 
#
# Total GULP energy -198364.000832 kJ/mol
# GULP energy per Si atom -12397.750052 kJ/mol
# Density = 2.127023 g / cm^3
# Si number density = 21.318756 Si / 1000 Ang^3
#
#
#
# Elastic Constant Matrix: (Units=GPa)
#
#
# Indices 1 2 3 4 5 6 
#
# 1 45.5308 19.7443 28.2459 -0.7184 -2.0789 -12.1880
# 2 19.7443 107.6589 38.6398 9.9564 -5.8356 -3.0954
# 3 28.2459 38.6398 115.9115 -16.2605 -6.7164 -13.4934
# 4 -0.7184 9.9564 -16.2605 28.7462 3.3392 3.1522
# 5 -2.0789 -5.8356 -6.7164 3.3392 37.5839 -4.6564
# 6 -12.1880 -3.0954 -13.4934 3.1522 -4.6564 24.3279
#
#
#
# Elastic Compliance Matrix: (Units=1/GPa)
#
#
# Indices 1 2 3 4 5 6 
#
# 1 0.029777 -0.002906 -0.005100 -0.002743 0.002073 0.012472
# 2 -0.002906 0.012025 -0.004297 -0.006700 0.001388 -0.001175
# 3 -0.005100 -0.004297 0.012879 0.008179 0.001019 0.003177
# 4 -0.002743 -0.006700 0.008179 0.042567 -0.004005 -0.003972
# 5 0.002073 0.001388 0.001019 -0.004005 0.028434 0.007742
# 6 0.012472 -0.001175 0.003177 -0.003972 0.007742 0.050962
#
#
# Mechanical properties :
#
#
# Convention : Reuss Voigt Hill
#
# Bulk Modulus (GPa) = 33.25039 49.15124 41.20082
# Shear Modulus (GPa) = 23.66589 30.29636 26.98112
#
# Velocity S-wave (km/s) = 3.33543 3.77385 3.56139
# Velocity P-wave (km/s) = 5.51943 6.48805 6.02324
#
# Compressibility (1/GPa) = 0.03007483
#
# Stress axis : x y z
#
# Youngs Moduli (GPa) = 33.58265 83.16179 77.64760
#
# Poissons Ratio (x) = 0.24165 0.39603
# Poissons Ratio (y) = 0.09759 0.33363
# Poissons Ratio (z) = 0.17129 0.35732
#
# Static dielectric constant tensor:
#      x y z
#    x 3.671050 -0.010890 -0.149650 
#    y -0.010890 3.929020 0.055160 
#    z -0.149650 0.055160 3.855390 
# 
# 
# High freq. dielectric constant tensor:
#      x y z
#    x 1.812280 0.003740 -0.014610 
#    y 0.003740 1.834040 0.001760 
#    z -0.014610 0.001760 1.836350 
# 
# From -- ./inp_files/464538.got.cif
#   From: 2010.06.25/outbox.cif.g09.slc.cpg/sg2_233_cif.got.tgz:464538.got - 2010.06.27 13:26:56.
