data_PCOD8044707
_publ_section_title
;
Structure prediction by ZEFSAII (Michael W. Deem and Ramdas Pophale) SiO2 
 PCOD8044707
Probable space group: P -1
;
_chemical_formula_sum "Si O2"
_cell_formula_units_Z 12
_cell_length_a 11.880696
_cell_length_b 9.442111
_cell_length_c 8.100687
_cell_angle_alpha 42.257884
_cell_angle_beta 129.355199
_cell_angle_gamma 109.580323
_cell_volume 456.503017
_symmetry_space_group_name_H-M "P -1"
_symmetry_group_IT_number 2
_symmetry_cell_setting 'triclinic'
loop_
_space_group_symop_operation_xyz
x,y,z
-x,-y,-z
loop_
_atom_site_type_symbol
_atom_site_label
_atom_site_fract_x
_atom_site_fract_y
_atom_site_fract_z
Si Si1 0.680912 0.494805 0.350528
Si Si2 0.985697 0.497671 0.794314
Si Si3 0.573238 0.082098 0.715992
Si Si4 0.190112 0.712059 0.663223
Si Si5 0.744338 0.876875 0.762770
Si Si6 0.433534 0.712257 0.145062
O O1 0.598765 0.302608 0.468621
O O2 0.723017 0.495221 0.194791
O O3 0.559137 0.717309 0.112415
O O4 0.830469 0.451472 0.638328
O O5 0.017786 0.714492 0.553342
O O6 0.130762 0.333079 0.991815
O O7 0.000000 0.500000 0.000000
O O8 0.399754 0.081607 0.527269
O O9 0.599589 0.079831 0.941174
O O10 0.689895 0.880062 0.902609
O O11 0.176284 0.927231 0.359163
O O12 0.279022 0.701637 0.926331
O O13 0.500000 0.500000 0.500000
#
# Coordination Sequence:
#
# PCOD8044707 Si02
#       6
#     2   2   2   2   2   2
#     4  10  21  38  65  96 127 167 207 253 314 373
#     4  12  24  43  66  90 130 169 204 258 316 373
#     4   9  19  39  62  91 124 161 205 255 309 360
#     4  11  24  41  63  94 126 166 212 256 310 370
#     4  10  23  42  65  93 126 163 208 257 312 374
#     4  10  19  38  65  92 123 160 210 258 305 365
#
# _framework density 26.286791999999998
#
# number of rings (size 3 to 8) (size 9 to 14) (size 15 to 20)
#    0.000    1.667    0.000    6.000    0.000    6.667 
#    0.000    5.000    0.000    0.000    0.000    0.000 
#    0.000    0.000    0.000    0.000    0.000    0.000 
#
# Total GULP energy -148776.051567 kJ/mol
# GULP energy per Si atom -12398.004297 kJ/mol
# Density = 2.622696 g / cm^3
# Si number density = 26.286792 Si / 1000 Ang^3
#
#
#
# Elastic Constant Matrix: (Units=GPa)
#
#
# Indices 1 2 3 4 5 6 
#
# 1 137.9626 51.9430 3.8527 -6.2804 -4.9144 -2.8530
# 2 51.9430 142.0420 13.0874 19.2534 6.7146 -33.0550
# 3 3.8527 13.0874 38.9197 15.4476 16.3911 -7.8940
# 4 -6.2804 19.2534 15.4476 29.3336 -7.1693 -2.5572
# 5 -4.9144 6.7146 16.3911 -7.1693 39.2681 6.4614
# 6 -2.8530 -33.0550 -7.8940 -2.5572 6.4614 59.3023
#
#
#
# Elastic Compliance Matrix: (Units=1/GPa)
#
#
# Indices 1 2 3 4 5 6 
#
# 1 0.010762 -0.006435 -0.009062 0.013189 0.009416 -0.004733
# 2 -0.006435 0.013566 0.010036 -0.017716 -0.012052 0.009137
# 3 -0.009062 0.010036 0.064375 -0.051224 -0.041717 0.016064
# 4 0.013189 -0.017716 -0.051224 0.084865 0.044392 -0.017236
# 5 0.009416 -0.012052 -0.041717 0.044392 0.056873 -0.016100
# 6 -0.004733 0.009137 0.016064 -0.017236 -0.016100 0.024878
#
#
# Mechanical properties :
#
#
# Convention : Reuss Voigt Hill
#
# Bulk Modulus (GPa) = 12.85655 50.74340 31.79998
# Shear Modulus (GPa) = 17.11355 42.25020 29.68187
#
# Velocity S-wave (km/s) = 2.55430 4.01344 3.36394
# Velocity P-wave (km/s) = 3.68792 6.38925 5.21648
#
# Compressibility (1/GPa) = 0.07778136
#
# Stress axis : x y z
#
# Youngs Moduli (GPa) = 92.91920 73.71338 15.53408
#
# Poissons Ratio (x) = 0.47433 0.14077
# Poissons Ratio (y) = 0.59791 -0.15590
# Poissons Ratio (z) = 0.84203 -0.73979
#
# Static dielectric constant tensor:
#      x y z
#    x 5.600830 -0.403780 -0.162290 
#    y -0.403780 5.686670 -0.221950 
#    z -0.162290 -0.221950 4.089530 
# 
# 
# High freq. dielectric constant tensor:
#      x y z
#    x 2.095230 0.003490 -0.023080 
#    y 0.003490 2.084410 -0.011370 
#    z -0.023080 -0.011370 2.018510 
# 
# From -- ./inp_files/167197.got.cif
#   From: 2010.06.25/outbox.cif.g09.slc.cpg/sg2_84_cif.got.tgz:167197.got - 2010.06.27 13:26:56.
