data_PCOD8044461
_publ_section_title
;
Structure prediction by ZEFSAII (Michael W. Deem and Ramdas Pophale) SiO2 
 PCOD8044461
Probable space group: P -1
;
_chemical_formula_sum "Si O2"
_cell_formula_units_Z 14
_cell_length_a 11.328940
_cell_length_b 8.028655
_cell_length_c 13.158693
_cell_angle_alpha 78.198471
_cell_angle_beta 126.949030
_cell_angle_gamma 62.856737
_cell_volume 629.391762
_symmetry_space_group_name_H-M "P -1"
_symmetry_group_IT_number 2
_symmetry_cell_setting 'triclinic'
loop_
_space_group_symop_operation_xyz
x,y,z
-x,-y,-z
loop_
_atom_site_type_symbol
_atom_site_label
_atom_site_fract_x
_atom_site_fract_y
_atom_site_fract_z
Si Si1 0.052418 0.973199 0.814011
Si Si2 0.759380 0.655585 0.827323
Si Si3 0.659463 0.547253 0.497948
Si Si4 0.330517 0.102984 0.615214
Si Si5 0.592744 0.440304 0.807329
Si Si6 0.711150 0.987708 0.615023
Si Si7 0.201206 0.906368 0.676690
O O1 0.183983 0.881813 0.788875
O O2 0.943348 0.878608 0.774527
O O3 0.226492 0.839968 0.013111
O O4 0.864782 0.276547 0.688806
O O5 0.727791 0.481070 0.822384
O O6 0.704967 0.796794 0.674021
O O7 0.595138 0.879609 0.799261
O O8 0.000000 0.500000 0.000000
O O9 0.758230 0.632689 0.484065
O O10 0.547770 0.530942 0.354963
O O11 0.481128 0.735820 0.468475
O O12 0.316312 0.989084 0.523163
O O13 0.199944 0.114910 0.634513
O O14 0.431693 0.637826 0.789213
O O15 0.000000 0.000000 0.500000
#
# Coordination Sequence:
#
# PCOD8044461 Si02
#       7
#     2   2   2   2   2   2   2
#     4  12  23  41  68  96 127 173 214 266 326 376
#     4  10  19  38  61  89 126 162 211 259 312 381
#     4  11  24  42  62  97 136 166 212 268 328 382
#     4  10  23  43  66  91 128 173 216 263 318 389
#     4  11  24  43  66  98 132 165 219 270 318 383
#     4  11  22  42  65  92 129 174 215 259 327 390
#     4  11  21  44  71  90 125 175 222 264 313 385
#
# _framework density 22.243697999999998
#
# number of rings (size 3 to 8) (size 9 to 14) (size 15 to 20)
#    0.000    1.143    4.286    3.429    0.000    2.286 
#   10.286    0.714    0.000    0.000    0.000    0.000 
#    0.000    0.000    0.000    0.000    0.000    0.000 
#
# Total GULP energy -173565.368352 kJ/mol
# GULP energy per Si atom -12397.526311 kJ/mol
# Density = 2.219307 g / cm^3
# Si number density = 22.243698 Si / 1000 Ang^3
#
#
#
# Elastic Constant Matrix: (Units=GPa)
#
#
# Indices 1 2 3 4 5 6 
#
# 1 138.6648 25.7057 29.1215 -14.7800 -4.7725 12.5185
# 2 25.7057 67.2215 16.0173 -10.6240 -6.4609 4.4261
# 3 29.1215 16.0173 132.9685 -16.5340 -6.0383 1.8521
# 4 -14.7800 -10.6240 -16.5340 18.2326 4.1246 -4.9670
# 5 -4.7725 -6.4609 -6.0383 4.1246 34.0403 -1.8246
# 6 12.5185 4.4261 1.8521 -4.9670 -1.8246 34.3966
#
#
#
# Elastic Compliance Matrix: (Units=1/GPa)
#
#
# Indices 1 2 3 4 5 6 
#
# 1 0.008467 -0.002208 -0.001058 0.004035 -0.000024 -0.002159
# 2 -0.002208 0.017203 -0.000604 0.007177 0.001966 -0.000237
# 3 -0.001058 -0.000604 0.008682 0.006825 0.000504 0.001007
# 4 0.004035 0.007177 0.006825 0.071647 -0.005151 0.007313
# 5 -0.000024 0.001966 0.000504 -0.005151 0.030493 0.000602
# 6 -0.002159 -0.000237 0.001007 0.007313 0.000602 0.030923
#
#
# Mechanical properties :
#
#
# Convention : Reuss Voigt Hill
#
# Bulk Modulus (GPa) = 37.57424 53.39377 45.48401
# Shear Modulus (GPa) = 27.17013 35.20125 31.18569
#
# Velocity S-wave (km/s) = 3.49875 3.98241 3.74839
# Velocity P-wave (km/s) = 5.76632 6.72326 6.26310
#
# Compressibility (1/GPa) = 0.02661398
#
# Stress axis : x y z
#
# Youngs Moduli (GPa) = 118.10077 58.12800 115.17510
#
# Poissons Ratio (x) = 0.12837 0.12182
# Poissons Ratio (y) = 0.26081 0.06952
# Poissons Ratio (z) = 0.12491 0.03509
#
# Static dielectric constant tensor:
#      x y z
#    x 4.465230 0.113610 -0.043610 
#    y 0.113610 3.793700 -0.133750 
#    z -0.043610 -0.133750 4.189480 
# 
# 
# High freq. dielectric constant tensor:
#      x y z
#    x 1.898500 0.013340 -0.000800 
#    y 0.013340 1.845950 -0.007410 
#    z -0.000800 -0.007410 1.881480 
# 
# From -- ./inp_files/469164.got.cif
#   From: 2010.06.25/outbox.cif.g09.slc.cpg/sg2_235_cif.got.tgz:469164.got - 2010.06.27 13:26:56.
