data_PCOD8044125
_publ_section_title
;
Structure prediction by ZEFSAII (Michael W. Deem and Ramdas Pophale) SiO2 
 PCOD8044125
Probable space group: P -1
;
_chemical_formula_sum "Si O2"
_cell_formula_units_Z 16
_cell_length_a 25.952190
_cell_length_b 8.720966
_cell_length_c 19.920251
_cell_angle_alpha 43.388864
_cell_angle_beta 19.840592
_cell_angle_gamma 33.544226
_cell_volume 805.165812
_symmetry_space_group_name_H-M "P -1"
_symmetry_group_IT_number 2
_symmetry_cell_setting 'triclinic'
loop_
_space_group_symop_operation_xyz
x,y,z
-x,-y,-z
loop_
_atom_site_type_symbol
_atom_site_label
_atom_site_fract_x
_atom_site_fract_y
_atom_site_fract_z
Si Si1 0.041172 0.643597 0.995237
Si Si2 0.869124 0.295091 0.988647
Si Si3 0.912973 0.910009 0.586455
Si Si4 0.922255 0.323665 0.669363
Si Si5 0.448698 0.676106 0.312160
Si Si6 0.700767 0.664657 0.353367
Si Si7 0.094092 0.265695 0.605414
Si Si8 0.488631 0.750924 0.086187
O O1 0.142331 0.569033 0.968562
O O2 0.216975 0.428911 0.794469
O O3 0.875020 0.605602 0.205120
O O4 0.923835 0.984413 0.021020
O O5 0.663347 0.509938 0.133578
O O6 0.042297 0.256299 0.747992
O O7 0.965614 0.939042 0.437031
O O8 0.021169 0.580812 0.578451
O O9 0.675367 0.138454 0.805387
O O10 0.000000 0.000000 0.500000
O O11 0.000000 0.500000 0.500000
O O12 0.976774 0.211965 0.714591
O O13 0.693527 0.482124 0.888171
O O14 0.348035 0.538978 0.499563
O O15 0.451761 0.676232 0.227688
O O16 0.324988 0.002337 0.390664
O O17 0.500000 0.000000 0.500000
O O18 0.500000 0.000000 0.000000
#
# Coordination Sequence:
#
# PCOD8044125 Si02
#       8
#     2   2   2   2   2   2   2   2
#     4  10  24  42  65  92 134 166 209 273 332 375
#     4  11  22  41  65  97 122 169 216 270 318 384
#     4  11  24  40  62  94 133 167 207 276 328 364
#     4  10  19  37  64  87 120 168 210 255 315 377
#     4  12  23  37  70  95 123 172 222 257 317 394
#     4  11  23  43  65  96 132 170 212 266 329 389
#     4  11  21  40  64  92 127 167 220 257 314 397
#     4  12  20  39  66  94 122 171 222 254 311 393
#
# _framework density 19.871683999999998
#
# number of rings (size 3 to 8) (size 9 to 14) (size 15 to 20)
#    0.000    1.000    7.500    0.750    0.000    3.000 
#    0.000    0.000    0.000    0.000    0.000    0.000 
#    0.000    0.000    0.000    0.000    0.000    0.000 
#
# Total GULP energy -198212.476525 kJ/mol
# GULP energy per Si atom -12388.279783 kJ/mol
# Density = 1.982646 g / cm^3
# Si number density = 19.871684 Si / 1000 Ang^3
#
#
#
# Elastic Constant Matrix: (Units=GPa)
#
#
# Indices 1 2 3 4 5 6 
#
# 1 121.3222 28.4620 36.6188 -3.9974 -9.6817 10.9122
# 2 28.4620 46.8098 23.7359 11.8981 -4.3065 -8.6644
# 3 36.6188 23.7359 110.7954 11.3203 -2.7326 2.5297
# 4 -3.9974 11.8981 11.3203 33.7557 -5.7959 1.1105
# 5 -9.6817 -4.3065 -2.7326 -5.7959 35.2873 2.2369
# 6 10.9122 -8.6644 2.5297 1.1105 2.2369 25.7413
#
#
#
# Elastic Compliance Matrix: (Units=1/GPa)
#
#
# Indices 1 2 3 4 5 6 
#
# 1 0.012466 -0.009234 -0.002514 0.006501 0.003721 -0.008749
# 2 -0.009234 0.035053 -0.003544 -0.013112 -0.001748 0.016779
# 3 -0.002514 -0.003544 0.010908 -0.002788 -0.000671 -0.001020
# 4 0.006501 -0.013112 -0.002788 0.037398 0.006686 -0.009090
# 5 0.003721 -0.001748 -0.000671 0.006686 0.030512 -0.005040
# 6 -0.008749 0.016779 -0.001020 -0.009090 -0.005040 0.049135
#
#
# Mechanical properties :
#
#
# Convention : Reuss Voigt Hill
#
# Bulk Modulus (GPa) = 35.91846 50.72896 43.32371
# Shear Modulus (GPa) = 23.21935 31.63092 27.42513
#
# Velocity S-wave (km/s) = 3.42199 3.99401 3.71902
# Velocity P-wave (km/s) = 5.80756 6.84494 6.34748
#
# Compressibility (1/GPa) = 0.02784083
#
# Stress axis : x y z
#
# Youngs Moduli (GPa) = 80.21864 28.52845 91.67972
#
# Poissons Ratio (x) = 0.26344 0.23053
# Poissons Ratio (y) = 0.74076 0.32490
# Poissons Ratio (z) = 0.20171 0.10110
#
# Static dielectric constant tensor:
#      x y z
#    x 4.694090 0.598880 0.442000 
#    y 0.598880 3.732200 0.250350 
#    z 0.442000 0.250350 3.765440 
# 
# 
# High freq. dielectric constant tensor:
#      x y z
#    x 1.776190 -0.008030 0.007060 
#    y -0.008030 1.763340 0.015280 
#    z 0.007060 0.015280 1.787630 
# 
# From -- ./inp_files/599746.got.cif
#   From: 2010.06.25/outbox.cif.g09.slc.cpg/sg2_300_cif.got.tgz:599746.got - 2010.06.27 13:26:56.
