data_PCOD8044694
_publ_section_title
;
Structure prediction by ZEFSAII (Michael W. Deem and Ramdas Pophale) SiO2 
 PCOD8044694
Probable space group: P -1
;
_chemical_formula_sum "Si O2"
_cell_formula_units_Z 12
_cell_length_a 11.794450
_cell_length_b 9.101195
_cell_length_c 14.150387
_cell_angle_alpha 73.644921
_cell_angle_beta 148.627935
_cell_angle_gamma 84.718393
_cell_volume 566.285359
_symmetry_space_group_name_H-M "P -1"
_symmetry_group_IT_number 2
_symmetry_cell_setting 'triclinic'
loop_
_space_group_symop_operation_xyz
x,y,z
-x,-y,-z
loop_
_atom_site_type_symbol
_atom_site_label
_atom_site_fract_x
_atom_site_fract_y
_atom_site_fract_z
Si Si1 0.158174 0.188706 0.718903
Si Si2 0.089529 0.781028 0.160424
Si Si3 0.325368 0.355070 0.438867
Si Si4 0.820873 0.632287 0.465477
Si Si5 0.173259 0.926901 0.912560
Si Si6 0.161349 0.186786 0.223443
O O1 0.066046 0.268296 0.529454
O O2 0.032587 0.091757 0.695302
O O3 0.055402 0.385612 0.669683
O O4 0.500000 0.000000 0.000000
O O5 0.250420 0.567038 0.366819
O O6 0.321344 0.811025 0.298387
O O7 0.850415 0.962450 0.027481
O O8 0.963266 0.766748 0.978113
O O9 0.240298 0.298670 0.481840
O O10 0.138345 0.369808 0.217071
O O11 0.515149 0.726193 0.180101
O O12 0.996487 0.853028 0.808449
O O13 0.500000 0.000000 0.500000
#
# Coordination Sequence:
#
# PCOD8044694 Si02
#       6
#     2   2   2   2   2   2
#     4   9  20  37  65  91 113 160 211 255 308 363
#     4  11  22  39  60  90 127 169 205 245 307 366
#     4  11  22  38  62  90 126 165 206 252 305 368
#     4  10  19  38  65  89 118 161 209 253 306 361
#     4  11  20  38  62  91 127 161 205 251 303 365
#     4  12  23  36  57  94 132 164 202 247 305 368
#
# _framework density 21.190729999999999
#
# number of rings (size 3 to 8) (size 9 to 14) (size 15 to 20)
#    0.000    1.333    5.000    2.000    0.000    0.000 
#    3.000    0.833    0.000    9.000    0.000    0.000 
#    0.000    0.000    0.000    0.000    0.000    0.000 
#
# Total GULP energy -148657.212800 kJ/mol
# GULP energy per Si atom -12388.101067 kJ/mol
# Density = 2.114250 g / cm^3
# Si number density = 21.190730 Si / 1000 Ang^3
#
#
#
# Elastic Constant Matrix: (Units=GPa)
#
#
# Indices 1 2 3 4 5 6 
#
# 1 124.3264 25.9465 26.0070 4.6948 -5.8080 2.6787
# 2 25.9465 73.1737 27.8189 5.7639 5.4621 -1.2644
# 3 26.0070 27.8189 76.0260 -0.6978 4.5822 -4.0167
# 4 4.6948 5.7639 -0.6978 41.2284 -6.2538 -1.8325
# 5 -5.8080 5.4621 4.5822 -6.2538 28.6244 -4.9062
# 6 2.6787 -1.2644 -4.0167 -1.8325 -4.9062 25.0896
#
#
#
# Elastic Compliance Matrix: (Units=1/GPa)
#
#
# Indices 1 2 3 4 5 6 
#
# 1 0.009234 -0.002514 -0.002447 -0.000413 0.002475 -0.001051
# 2 -0.002514 0.017014 -0.005205 -0.002759 -0.003633 -0.000619
# 3 -0.002447 -0.005205 0.016117 0.001170 -0.001419 0.002387
# 4 -0.000413 -0.002759 0.001170 0.025831 0.006454 0.003241
# 5 0.002475 -0.003633 -0.001419 0.006454 0.039042 0.007432
# 6 -0.001051 -0.000619 0.002387 0.003241 0.007432 0.042010
#
#
# Mechanical properties :
#
#
# Convention : Reuss Voigt Hill
#
# Bulk Modulus (GPa) = 45.38632 48.11897 46.75264
# Shear Modulus (GPa) = 28.26065 31.90540 30.08302
#
# Velocity S-wave (km/s) = 3.65586 3.88445 3.77189
# Velocity P-wave (km/s) = 6.26776 6.54794 6.40938
#
# Compressibility (1/GPa) = 0.02203307
#
# Stress axis : x y z
#
# Youngs Moduli (GPa) = 108.29788 58.77476 62.04489
#
# Poissons Ratio (x) = 0.14777 0.15183
# Poissons Ratio (y) = 0.27228 0.32293
# Poissons Ratio (z) = 0.26502 0.30591
#
# Static dielectric constant tensor:
#      x y z
#    x 4.376480 0.226490 -0.000470 
#    y 0.226490 4.041100 -0.169260 
#    z -0.000470 -0.169260 3.740320 
# 
# 
# High freq. dielectric constant tensor:
#      x y z
#    x 1.854130 0.009650 0.000110 
#    y 0.009650 1.807970 -0.039390 
#    z 0.000110 -0.039390 1.813840 
# 
# From -- ./inp_files/35298.got.cif
#   From: 2010.06.25/outbox.cif.g09.slc.cpg/sg2_18_cif.got.tgz:35298.got - 2010.06.27 13:26:56.
