data_PCOD8044051
_publ_section_title
;
Structure prediction by ZEFSAII (Michael W. Deem and Ramdas Pophale) SiO2 
 PCOD8044051
Probable space group: P -1
;
_chemical_formula_sum "Si O2"
_cell_formula_units_Z 16
_cell_length_a 11.708258
_cell_length_b 11.080574
_cell_length_c 21.250604
_cell_angle_alpha 43.071147
_cell_angle_beta 135.546507
_cell_angle_gamma 154.528314
_cell_volume 795.724515
_symmetry_space_group_name_H-M "P -1"
_symmetry_group_IT_number 2
_symmetry_cell_setting 'triclinic'
loop_
_space_group_symop_operation_xyz
x,y,z
-x,-y,-z
loop_
_atom_site_type_symbol
_atom_site_label
_atom_site_fract_x
_atom_site_fract_y
_atom_site_fract_z
Si Si1 0.310506 0.139345 0.509492
Si Si2 0.157747 0.377847 0.390766
Si Si3 0.634019 0.342662 0.254173
Si Si4 0.746125 0.221087 0.466226
Si Si5 0.717844 0.298952 0.935940
Si Si6 0.604213 0.483054 0.908810
Si Si7 0.169967 0.882375 0.040302
Si Si8 0.158070 0.764586 0.218550
O O1 0.243688 0.288887 0.413594
O O2 0.627203 0.402734 0.551731
O O3 0.232442 0.956809 0.487406
O O4 0.135013 0.916252 0.583674
O O5 0.128421 0.530731 0.280194
O O6 0.711027 0.337806 0.354538
O O7 0.461494 0.370732 0.182633
O O8 0.905256 0.611372 0.218922
O O9 0.440170 0.031837 0.263982
O O10 0.000000 0.500000 0.500000
O O11 0.500000 0.000000 0.500000
O O12 0.635995 0.431114 0.869258
O O13 0.741692 0.245285 0.894447
O O14 0.000000 0.500000 0.000000
O O15 0.500000 0.000000 0.000000
O O16 0.878442 0.689859 0.975546
O O17 0.376522 0.197051 0.970919
O O18 0.169985 0.892112 0.111782
#
# Coordination Sequence:
#
# PCOD8044051 Si02
#       8
#     2   2   2   2   2   2   2   2
#     4  10  20  38  64  86 111 158 196 240 309 349
#     4  10  19  37  63  86 117 152 197 244 295 366
#     4  12  25  40  61  86 122 163 193 247 306 356
#     4  12  24  42  64  87 122 156 202 247 303 372
#     4   8  16  34  57  76 108 152 192 239 286 330
#     4  10  21  39  59  85 122 159 202 234 293 354
#     4  10  21  36  61  89 116 160 199 246 288 342
#     4  12  22  38  61  89 127 155 199 247 297 353
#
# _framework density 20.107461000000001
#
# number of rings (size 3 to 8) (size 9 to 14) (size 15 to 20)
#    0.000    1.500    2.500    3.000    0.000    3.000 
#    2.250    0.000    8.250    0.000    0.000    0.000 
#    0.000    0.000    0.000    0.000    0.000    0.000 
#
# Total GULP energy -198275.867115 kJ/mol
# GULP energy per Si atom -12392.241695 kJ/mol
# Density = 2.006170 g / cm^3
# Si number density = 20.107461 Si / 1000 Ang^3
#
#
#
# Elastic Constant Matrix: (Units=GPa)
#
#
# Indices 1 2 3 4 5 6 
#
# 1 118.1191 35.3771 59.0209 -0.7879 4.5793 -3.5877
# 2 35.3771 132.4120 32.9713 6.2283 -4.6441 6.9674
# 3 59.0209 32.9713 102.2315 0.0989 8.4220 -4.9256
# 4 -0.7879 6.2283 0.0989 25.6770 -3.9258 1.1304
# 5 4.5793 -4.6441 8.4220 -3.9258 34.8932 -5.9563
# 6 -3.5877 6.9674 -4.9256 1.1304 -5.9563 39.5465
#
#
#
# Elastic Compliance Matrix: (Units=1/GPa)
#
#
# Indices 1 2 3 4 5 6 
#
# 1 0.012247 -0.001729 -0.006479 0.000781 -0.000088 0.000573
# 2 -0.001729 0.008741 -0.002014 -0.001881 0.001377 -0.001687
# 3 -0.006479 -0.002014 0.014453 -0.000235 -0.002734 0.001162
# 4 0.000781 -0.001881 -0.000235 0.040073 0.004188 -0.000142
# 5 -0.000088 0.001377 -0.002734 0.004188 0.030652 0.003906
# 6 0.000573 -0.001687 0.001162 -0.000142 0.003906 0.026373
#
#
# Mechanical properties :
#
#
# Convention : Reuss Voigt Hill
#
# Bulk Modulus (GPa) = 66.67529 67.50015 67.08772
# Shear Modulus (GPa) = 31.64923 35.04956 33.34940
#
# Velocity S-wave (km/s) = 3.97168 4.17959 4.07696
# Velocity P-wave (km/s) = 7.36639 7.54550 7.45648
#
# Compressibility (1/GPa) = 0.01499806
#
# Stress axis : x y z
#
# Youngs Moduli (GPa) = 81.65125 114.40256 69.18891
#
# Poissons Ratio (x) = 0.19778 0.44827
# Poissons Ratio (y) = 0.14116 0.13934
# Poissons Ratio (z) = 0.52902 0.23040
#
# Static dielectric constant tensor:
#      x y z
#    x 2.722530 0.433460 -0.337810 
#    y 0.433460 3.641840 0.147710 
#    z -0.337810 0.147710 3.084370 
# 
# 
# High freq. dielectric constant tensor:
#      x y z
#    x 1.793900 0.006530 0.023260 
#    y 0.006530 1.812030 -0.006010 
#    z 0.023260 -0.006010 1.753500 
# 
# From -- ./inp_files/113426.got.cif
#   From: 2010.06.25/outbox.cif.g09.slc.cpg/sg2_57_cif.got.tgz:113426.got - 2010.06.27 13:26:56.
