data_PCOD8044590
_publ_section_title
;
Structure prediction by ZEFSAII (Michael W. Deem and Ramdas Pophale) SiO2 
 PCOD8044590
Probable space group: P -1
;
_chemical_formula_sum "Si O2"
_cell_formula_units_Z 16
_cell_length_a 10.357473
_cell_length_b 12.123993
_cell_length_c 13.595205
_cell_angle_alpha 137.454960
_cell_angle_beta 58.267845
_cell_angle_gamma 90.505443
_cell_volume 738.928376
_symmetry_space_group_name_H-M "P -1"
_symmetry_group_IT_number 2
_symmetry_cell_setting 'triclinic'
loop_
_space_group_symop_operation_xyz
x,y,z
-x,-y,-z
loop_
_atom_site_type_symbol
_atom_site_label
_atom_site_fract_x
_atom_site_fract_y
_atom_site_fract_z
Si Si1 0.320259 0.498989 0.323464
Si Si2 0.905666 0.217850 0.060302
Si Si3 0.291451 0.322451 0.538818
Si Si4 0.214374 0.923790 0.145355
Si Si5 0.721724 0.782201 0.744661
Si Si6 0.723086 0.320156 0.751189
Si Si7 0.131956 0.097687 0.507485
Si Si8 0.702772 0.213175 0.314088
O O1 0.202005 0.409951 0.334385
O O2 0.251534 0.618100 0.325279
O O3 0.277217 0.660900 0.530537
O O4 0.552709 0.286166 0.093316
O O5 0.879089 0.429687 0.195391
O O6 0.716518 0.283663 0.245614
O O7 0.910799 0.128941 0.893159
O O8 0.112994 0.043392 0.919497
O O9 0.277642 0.305113 0.417874
O O10 0.251657 0.182254 0.520919
O O11 0.507123 0.242248 0.428521
O O12 0.149360 0.141186 0.259761
O O13 0.160545 0.976239 0.314922
O O14 0.500000 0.000000 0.000000
O O15 0.887849 0.292296 0.739089
O O16 0.774995 0.089410 0.570600
O O17 0.500000 0.500000 0.000000
#
# Coordination Sequence:
#
# PCOD8044590 Si02
#       8
#     2   2   2   2   2   2   2   2
#     4  11  19  37  65  89 123 169 200 253 313 361
#     4  11  22  37  60  92 130 172 198 238 305 378
#     4  11  21  41  62  88 131 162 197 254 306 366
#     4  10  19  38  63  93 128 159 199 253 309 369
#     4   9  19  33  60  93 123 161 197 246 310 364
#     4  11  23  43  66  89 121 160 212 261 311 356
#     4  10  24  43  65  94 120 158 209 265 307 358
#     4  11  22  36  60  92 128 168 203 239 304 379
#
# _framework density 21.652978000000001
#
# number of rings (size 3 to 8) (size 9 to 14) (size 15 to 20)
#    0.000    1.500    3.750    2.625    0.000    1.000 
#    4.500    2.500    0.000    7.500    0.000    0.000 
#    0.000    0.000    0.000    0.000    0.000    0.000 
#
# Total GULP energy -198332.684899 kJ/mol
# GULP energy per Si atom -12395.792806 kJ/mol
# Density = 2.160370 g / cm^3
# Si number density = 21.652978 Si / 1000 Ang^3
#
#
#
# Elastic Constant Matrix: (Units=GPa)
#
#
# Indices 1 2 3 4 5 6 
#
# 1 65.1144 32.1062 33.0449 16.3086 14.1405 13.3499
# 2 32.1062 135.0278 34.1989 38.7194 5.6658 13.7881
# 3 33.0449 34.1989 94.4769 16.8792 8.1955 9.0826
# 4 16.3086 38.7194 16.8792 38.0876 2.8216 2.6909
# 5 14.1405 5.6658 8.1955 2.8216 35.5729 -0.5843
# 6 13.3499 13.7881 9.0826 2.6909 -0.5843 31.9695
#
#
#
# Elastic Compliance Matrix: (Units=1/GPa)
#
#
# Indices 1 2 3 4 5 6 
#
# 1 0.023186 -0.001777 -0.005289 -0.004720 -0.007458 -0.007152
# 2 -0.001777 0.011332 -0.001426 -0.009920 -0.000031 -0.002906
# 3 -0.005289 -0.001426 0.013468 -0.002150 -0.000617 -0.000833
# 4 -0.004720 -0.009920 -0.002150 0.038991 0.000918 0.003595
# 5 -0.007458 -0.000031 -0.000617 0.000918 0.031213 0.003796
# 6 -0.007152 -0.002906 -0.000833 0.003595 0.003796 0.035523
#
#
# Mechanical properties :
#
#
# Convention : Reuss Voigt Hill
#
# Bulk Modulus (GPa) = 32.25513 54.81326 43.53420
# Shear Modulus (GPa) = 27.61962 34.14394 30.88178
#
# Velocity S-wave (km/s) = 3.57537 3.97529 3.78062
# Velocity P-wave (km/s) = 5.65447 6.81469 6.26151
#
# Compressibility (1/GPa) = 0.03100282
#
# Stress axis : x y z
#
# Youngs Moduli (GPa) = 43.12989 88.24514 74.24824
#
# Poissons Ratio (x) = 0.15679 0.39267
# Poissons Ratio (y) = 0.07663 0.10590
# Poissons Ratio (z) = 0.22810 0.12586
#
# Static dielectric constant tensor:
#      x y z
#    x 3.735430 0.225680 -0.061150 
#    y 0.225680 4.142420 0.197380 
#    z -0.061150 0.197380 4.231330 
# 
# 
# High freq. dielectric constant tensor:
#      x y z
#    x 1.828270 0.010130 -0.010990 
#    y 0.010130 1.847860 0.013920 
#    z -0.010990 0.013920 1.868340 
# 
# From -- ./inp_files/519904.got.cif
#   From: 2010.06.25/outbox.cif.g09.slc.cpg/sg2_260_cif.got.tgz:519904.got - 2010.06.27 13:26:56.
