data_PCOD8044090
_publ_section_title
;
Structure prediction by ZEFSAII (Michael W. Deem and Ramdas Pophale) SiO2 
 PCOD8044090
Probable space group: P -1
;
_chemical_formula_sum "Si O2"
_cell_formula_units_Z 16
_cell_length_a 16.265434
_cell_length_b 8.770203
_cell_length_c 12.414491
_cell_angle_alpha 129.747209
_cell_angle_beta 35.526646
_cell_angle_gamma 136.249886
_cell_volume 705.739795
_symmetry_space_group_name_H-M "P -1"
_symmetry_group_IT_number 2
_symmetry_cell_setting 'triclinic'
loop_
_space_group_symop_operation_xyz
x,y,z
-x,-y,-z
loop_
_atom_site_type_symbol
_atom_site_label
_atom_site_fract_x
_atom_site_fract_y
_atom_site_fract_z
Si Si1 0.623421 0.562068 0.799116
Si Si2 0.579049 0.841732 0.529024
Si Si3 0.706570 0.083188 0.220107
Si Si4 0.614307 0.601944 0.200815
Si Si5 0.759652 0.024259 0.909776
Si Si6 0.835020 0.388297 0.816456
Si Si7 0.435447 0.948853 0.164656
Si Si8 0.810453 0.297045 0.421282
O O1 0.536177 0.573048 0.785318
O O2 0.691935 0.386071 0.635183
O O3 0.779612 0.803996 0.759668
O O4 0.500000 0.500000 0.000000
O O5 0.453200 0.897945 0.625402
O O6 0.575506 0.621308 0.378450
O O7 0.559575 0.835158 0.678147
O O8 0.751731 0.051959 0.422440
O O9 0.805701 0.278030 0.287341
O O10 0.668010 0.842422 0.198819
O O11 0.815596 0.122802 0.014319
O O12 0.754434 0.530710 0.018331
O O13 0.837874 0.215461 0.824406
O O14 0.564807 0.900411 0.067712
O O15 0.739601 0.258833 0.751524
O O16 0.010693 0.547810 0.662787
O O17 0.500000 0.000000 0.000000
#
# Coordination Sequence:
#
# PCOD8044090 Si02
#       8
#     2   2   2   2   2   2   2   2
#     4  12  20  38  69  93 109 167 219 252 294 372
#     4  10  19  37  63  93 116 160 216 259 292 360
#     4  10  19  39  66  90 115 161 216 257 286 368
#     4  11  20  37  64  95 119 156 214 249 308 366
#     4  10  21  39  64  86 123 165 210 246 302 374
#     4  11  25  39  56  94 133 162 189 260 329 359
#     4   9  19  38  59  83 125 163 197 246 306 364
#     4  11  23  38  61  94 126 153 205 266 309 361
#
# _framework density 22.671246
#
# number of rings (size 3 to 8) (size 9 to 14) (size 15 to 20)
#    0.000    1.500    5.000    1.500    0.000    3.500 
#    0.000    9.375    0.000    0.000    0.000    0.000 
#    0.000    0.000    0.000    0.000    0.000    0.000 
#
# Total GULP energy -198218.107288 kJ/mol
# GULP energy per Si atom -12388.631706 kJ/mol
# Density = 2.261965 g / cm^3
# Si number density = 22.671246 Si / 1000 Ang^3
#
#
#
# Elastic Constant Matrix: (Units=GPa)
#
#
# Indices 1 2 3 4 5 6 
#
# 1 43.9781 1.6593 28.8687 12.9970 19.5377 21.4547
# 2 1.6593 70.7339 30.5467 17.0891 -1.8674 20.6501
# 3 28.8687 30.5467 97.8674 28.5508 21.7802 18.5021
# 4 12.9970 17.0891 28.5508 42.8327 12.1253 -4.5046
# 5 19.5377 -1.8674 21.7802 12.1253 36.6571 8.6229
# 6 21.4547 20.6501 18.5021 -4.5046 8.6229 34.0001
#
#
#
# Elastic Compliance Matrix: (Units=1/GPa)
#
#
# Indices 1 2 3 4 5 6 
#
# 1 0.062249 0.022548 -0.006149 -0.027114 -0.007325 -0.051363
# 2 0.022548 0.031970 -0.005234 -0.022306 0.008549 -0.035920
# 3 -0.006149 -0.005234 0.016795 -0.006143 -0.004525 -0.001746
# 4 -0.027114 -0.022306 -0.006143 0.052132 -0.010530 0.043577
# 5 -0.007325 0.008549 -0.004525 -0.010530 0.040064 -0.009664
# 6 -0.051363 -0.035920 -0.001746 0.043577 -0.009664 0.092814
#
#
# Mechanical properties :
#
#
# Convention : Reuss Voigt Hill
#
# Bulk Modulus (GPa) = 7.49949 37.19210 22.34579
# Shear Modulus (GPa) = 15.71616 32.79828 24.25722
#
# Velocity S-wave (km/s) = 2.63576 3.80766 3.27457
# Velocity P-wave (km/s) = 3.54656 5.98094 4.91680
#
# Compressibility (1/GPa) = 0.13334242
#
# Stress axis : x y z
#
# Youngs Moduli (GPa) = 16.06448 31.27904 59.54168
#
# Poissons Ratio (x) = -0.70527 0.36615
# Poissons Ratio (y) = -0.36221 0.31165
# Poissons Ratio (z) = 0.09879 0.16372
#
# Static dielectric constant tensor:
#      x y z
#    x 4.295870 0.616730 0.456660 
#    y 0.616730 4.519990 0.650960 
#    z 0.456660 0.650960 4.264270 
# 
# 
# High freq. dielectric constant tensor:
#      x y z
#    x 1.879670 0.005240 0.030570 
#    y 0.005240 1.893440 0.035290 
#    z 0.030570 0.035290 1.883860 
# 
# From -- ./inp_files/540857.got.cif
#   From: 2010.06.25/outbox.cif.g09.slc.cpg/sg2_271_cif.got.tgz:540857.got - 2010.06.27 13:26:56.
