data_PCOD8044340
_publ_section_title
;
Structure prediction by ZEFSAII (Michael W. Deem and Ramdas Pophale) SiO2 
 PCOD8044340
Probable space group: P -1
;
_chemical_formula_sum "Si O2"
_cell_formula_units_Z 16
_cell_length_a 20.898966
_cell_length_b 5.319049
_cell_length_c 27.111842
_cell_angle_alpha 108.320119
_cell_angle_beta 18.791004
_cell_angle_gamma 118.116568
_cell_volume 758.490429
_symmetry_space_group_name_H-M "P -1"
_symmetry_group_IT_number 2
_symmetry_cell_setting 'triclinic'
loop_
_space_group_symop_operation_xyz
x,y,z
-x,-y,-z
loop_
_atom_site_type_symbol
_atom_site_label
_atom_site_fract_x
_atom_site_fract_y
_atom_site_fract_z
Si Si1 0.198936 0.100867 0.105229
Si Si2 0.248633 0.626253 0.502104
Si Si3 0.711183 0.906529 0.427177
Si Si4 0.716214 0.238310 0.892123
Si Si5 0.519723 0.277094 0.284854
Si Si6 0.766763 0.123275 0.299789
Si Si7 0.782814 0.651850 0.208666
Si Si8 0.843073 0.217313 0.978808
O O1 0.312326 0.475795 0.054620
O O2 0.302896 0.959644 0.057512
O O3 0.267226 0.081581 0.996884
O O4 0.906934 0.896156 0.316781
O O5 0.379030 0.443609 0.388917
O O6 0.961660 0.369895 0.690284
O O7 0.300089 0.793601 0.528681
O O8 0.345446 0.912663 0.408946
O O9 0.439851 0.592363 0.607501
O O10 0.834004 0.981357 0.287863
O O11 0.500000 0.000000 0.000000
O O12 0.739768 0.497822 0.176884
O O13 0.635876 0.271501 0.148207
O O14 0.947627 0.501629 0.190648
O O15 0.500000 0.000000 0.500000
O O16 0.781962 0.973291 0.227830
O O17 0.041133 0.780808 0.052840
#
# Coordination Sequence:
#
# PCOD8044340 Si02
#       8
#     2   2   2   2   2   2   2   2
#     4  11  23  39  65  98 128 157 197 254 324 370
#     4  10  22  42  63  88 120 161 202 254 315 372
#     4  10  19  38  57  89 123 163 212 267 311 357
#     4  11  23  44  75 102 121 143 190 259 331 396
#     4  11  26  40  59  83 130 178 218 245 289 354
#     4  12  21  33  56  80 121 164 221 275 309 331
#     4  11  22  36  53  83 120 174 226 256 291 339
#     4  12  25  38  56  86 126 176 215 256 291 354
#
# _framework density 21.094529999999999
#
# number of rings (size 3 to 8) (size 9 to 14) (size 15 to 20)
#    0.000    1.000    2.500    6.375    3.500    0.500 
#    0.000    0.000    0.000    4.500    0.000    0.000 
#    0.000    0.000    0.000    0.000    0.000    0.000 
#
# Total GULP energy -198250.928777 kJ/mol
# GULP energy per Si atom -12390.683049 kJ/mol
# Density = 2.104652 g / cm^3
# Si number density = 21.094530 Si / 1000 Ang^3
#
#
#
# Elastic Constant Matrix: (Units=GPa)
#
#
# Indices 1 2 3 4 5 6 
#
# 1 80.0887 50.2858 34.6000 2.4592 -11.2603 -0.3020
# 2 50.2858 154.2474 57.5795 13.5902 -8.0496 2.3498
# 3 34.6000 57.5795 74.8310 10.2314 -8.3834 16.6412
# 4 2.4592 13.5902 10.2314 32.6371 5.0935 1.7366
# 5 -11.2603 -8.0496 -8.3834 5.0935 30.2062 1.2143
# 6 -0.3020 2.3498 16.6412 1.7366 1.2143 35.7042
#
#
#
# Elastic Compliance Matrix: (Units=1/GPa)
#
#
# Indices 1 2 3 4 5 6 
#
# 1 0.017753 -0.003552 -0.005884 0.001251 0.003709 0.002940
# 2 -0.003552 0.010195 -0.006478 -0.002051 -0.000157 0.002424
# 3 -0.005884 -0.006478 0.024615 -0.004635 0.004136 -0.011011
# 4 0.001251 -0.002051 -0.004635 0.033917 -0.007122 0.000899
# 5 0.003709 -0.000157 0.004136 -0.007122 0.036908 -0.002795
# 6 0.002940 0.002424 -0.011011 0.000899 -0.002795 0.033057
#
#
# Mechanical properties :
#
#
# Convention : Reuss Voigt Hill
#
# Bulk Modulus (GPa) = 48.23264 66.01087 57.12175
# Shear Modulus (GPa) = 25.61673 30.82294 28.21983
#
# Velocity S-wave (km/s) = 3.48857 3.82669 3.66154
# Velocity P-wave (km/s) = 6.25632 7.13341 6.70921
#
# Compressibility (1/GPa) = 0.02073285
#
# Stress axis : x y z
#
# Youngs Moduli (GPa) = 56.32869 98.08613 40.62607
#
# Poissons Ratio (x) = 0.34845 0.23905
# Poissons Ratio (y) = 0.20011 0.26319
# Poissons Ratio (z) = 0.33145 0.63542
#
# Static dielectric constant tensor:
#      x y z
#    x 10.066490 -0.490080 1.146310 
#    y -0.490080 4.061210 0.078940 
#    z 1.146310 0.078940 3.859190 
# 
# 
# High freq. dielectric constant tensor:
#      x y z
#    x 1.802850 -0.013430 0.004690 
#    y -0.013430 1.843950 0.020560 
#    z 0.004690 0.020560 1.804050 
# 
# From -- ./inp_files/118349.got.cif
#   From: 2010.06.25/outbox.cif.g09.slc.cpg/sg2_60_cif.got.tgz:118349.got - 2010.06.27 13:26:56.
