data_PCOD8044988
_publ_section_title
;
Structure prediction by ZEFSAII (Michael W. Deem and Ramdas Pophale) SiO2 
 PCOD8044988
Probable space group: P 2
;
_chemical_formula_sum "Si O2"
_cell_formula_units_Z 16
_cell_length_a 13.042962
_cell_length_b 11.646531
_cell_length_c 7.771476
_cell_angle_alpha 90.000000
_cell_angle_beta 138.900780
_cell_angle_gamma 90.000000
_cell_volume 776.037834
_symmetry_space_group_name_H-M "P 2"
_symmetry_group_IT_number 3
_symmetry_cell_setting 'monoclinic'
loop_
_space_group_symop_operation_xyz
x,y,z
-x,y,-z
loop_
_atom_site_type_symbol
_atom_site_label
_atom_site_fract_x
_atom_site_fract_y
_atom_site_fract_z
Si Si1 0.691195 0.307810 0.918330
Si Si2 0.101810 0.083644 0.795428
Si Si3 0.664855 0.294340 0.504883
Si Si4 0.399726 0.864803 0.542687
Si Si5 0.798520 0.052791 0.591951
Si Si6 0.685763 0.455017 0.229538
Si Si7 0.312550 0.929806 0.877556
Si Si8 0.673924 0.703234 0.279640
O O1 0.690960 0.356454 0.722822
O O2 0.518040 0.270777 0.757575
O O3 0.798221 0.196778 0.049756
O O4 0.748583 0.405166 0.126359
O O5 0.000000 0.107601 0.500000
O O6 0.986692 0.055354 0.809565
O O7 0.212167 0.971748 0.914132
O O8 0.748736 0.172929 0.607533
O O9 0.741738 0.372927 0.454947
O O10 0.500000 0.843469 0.500000
O O11 0.329990 0.743472 0.523549
O O12 0.259322 0.956556 0.342370
O O13 0.507572 0.915264 0.835792
O O14 0.713774 0.026903 0.302057
O O15 0.761170 0.581528 0.359783
O O16 0.500000 0.461803 0.000000
O O17 0.246417 0.806163 0.729487
O O18 0.500000 0.680919 0.000000
#
# Coordination Sequence:
#
# PCOD8044988 Si02
#       8
#     2   2   2   2   2   2   2   2
#     4  10  21  35  55  81 114 143 187 224 274 336
#     4  10  20  34  55  82 110 147 184 224 279 336
#     4  10  21  35  54  84 110 151 182 226 278 325
#     4  10  20  33  52  82 111 146 184 228 279 334
#     4  10  20  33  53  77 110 145 182 223 277 327
#     4   9  17  34  55  79 112 142 183 234 276 322
#     4   9  18  34  54  76 111 143 183 226 278 340
#     4   8  16  33  53  78 107 142 181 229 279 322
#
# _framework density 20.617550999999999
#
# number of rings (size 3 to 8) (size 9 to 14) (size 15 to 20)
#    0.000    2.500    0.000    3.375    3.500    3.500 
#    9.000    0.000    0.000   11.250    0.000    0.000 
#    0.000    0.000    0.000    0.000    0.000    0.000 
#
# Total GULP energy -198260.002455 kJ/mol
# GULP energy per Si atom -12391.250153 kJ/mol
# Density = 2.057062 g / cm^3
# Si number density = 20.617551 Si / 1000 Ang^3
#
#
#
# Elastic Constant Matrix: (Units=GPa)
#
#
# Indices 1 2 3 4 5 6 
#
# 1 115.8327 70.9330 26.3149 0.0000 -14.1574 0.0000
# 2 70.9330 151.4959 24.3695 0.0000 -10.1741 0.0000
# 3 26.3149 24.3695 21.8233 0.0000 -3.4970 0.0000
# 4 0.0000 0.0000 0.0000 6.1606 0.0000 -5.8886
# 5 -14.1574 -10.1741 -3.4970 0.0000 31.5001 0.0000
# 6 0.0000 0.0000 0.0000 -5.8886 0.0000 12.6073
#
#
#
# Elastic Compliance Matrix: (Units=1/GPa)
#
#
# Indices 1 2 3 4 5 6 
#
# 1 0.014662 -0.004712 -0.011816 0.000000 0.003756 0.000000
# 2 -0.004712 0.009644 -0.005016 0.000000 0.000440 0.000000
# 3 -0.011816 -0.005016 0.065731 0.000000 0.000366 0.000000
# 4 0.000000 0.000000 0.000000 0.293237 0.000000 0.136963
# 5 0.003756 0.000440 0.000366 0.000000 0.033617 0.000000
# 6 0.000000 0.000000 0.000000 0.136963 0.000000 0.143291
#
#
# Mechanical properties :
#
#
# Convention : Reuss Voigt Hill
#
# Bulk Modulus (GPa) = 21.30033 59.15409 40.22721
# Shear Modulus (GPa) = 8.07859 21.22258 14.65058
#
# Velocity S-wave (km/s) = 1.98162 3.21182 2.66858
# Velocity P-wave (km/s) = 3.94833 6.51980 5.38967
#
# Compressibility (1/GPa) = 0.04694762
#
# Stress axis : x y z
#
# Youngs Moduli (GPa) = 68.20257 103.69572 15.21352
#
# Poissons Ratio (x) = 0.48863 0.17977
# Poissons Ratio (y) = 0.32138 0.07632
# Poissons Ratio (z) = 0.80589 0.52017
#
# Static dielectric constant tensor:
#      x y z
#    x 4.022220 0.000000 -0.093960 
#    y 0.000000 3.854620 0.000000 
#    z -0.093960 0.000000 3.586900 
# 
# 
# High freq. dielectric constant tensor:
#      x y z
#    x 1.810310 0.000000 -0.019330 
#    y 0.000000 1.789790 0.000000 
#    z -0.019330 0.000000 1.780540 
# 
# From -- ./inp_files/7744.got.cif
#   From: 2010.03.12/outbox.cif.g09.slc.cpg/sg3_4_cif.got.tgz:7744.got - 2010.03.31 09:20:49.
