data_PCOD8044823
_publ_section_title
;
Structure prediction by ZEFSAII (Michael W. Deem and Ramdas Pophale) SiO2 
 PCOD8044823
Probable space group: P -1
;
_chemical_formula_sum "Si O2"
_cell_formula_units_Z 16
_cell_length_a 8.437248
_cell_length_b 8.455983
_cell_length_c 11.952515
_cell_angle_alpha 109.425989
_cell_angle_beta 84.108363
_cell_angle_gamma 109.224448
_cell_volume 759.340646
_symmetry_space_group_name_H-M "P -1"
_symmetry_group_IT_number 2
_symmetry_cell_setting 'triclinic'
loop_
_space_group_symop_operation_xyz
x,y,z
-x,-y,-z
loop_
_atom_site_type_symbol
_atom_site_label
_atom_site_fract_x
_atom_site_fract_y
_atom_site_fract_z
Si Si1 0.027522 0.555692 0.836425
Si Si2 0.138092 0.692636 0.515746
Si Si3 0.650689 0.761858 0.047213
Si Si4 0.675829 0.556031 0.556191
Si Si5 0.268749 0.594702 0.022212
Si Si6 0.818298 0.777652 0.806500
Si Si7 0.877813 0.998307 0.265786
Si Si8 0.095627 0.274646 0.620351
O O1 0.969180 0.701879 0.811735
O O2 0.169669 0.647460 0.939212
O O3 0.122167 0.456836 0.726537
O O4 0.855727 0.418770 0.867220
O O5 0.303339 0.637639 0.471841
O O6 0.000000 0.500000 0.500000
O O7 0.095273 0.787263 0.429114
O O8 0.155272 0.822464 0.649873
O O9 0.699038 0.592192 0.045300
O O10 0.742412 0.919387 0.160567
O O11 0.451606 0.737100 0.062228
O O12 0.712684 0.810181 0.926627
O O13 0.500000 0.500000 0.500000
O O14 0.689067 0.652781 0.698164
O O15 0.798206 0.691794 0.493760
O O16 0.930832 0.962085 0.785400
O O17 0.857393 0.866404 0.340379
#
# Coordination Sequence:
#
# PCOD8044823 Si02
#       8
#     2   2   2   2   2   2   2   2
#     4  10  19  38  69  89 122 170 214 253 305 392
#     4  10  20  42  64  89 120 167 213 256 310 382
#     4  10  22  38  63  96 129 162 205 271 315 369
#     4  11  24  41  66  96 124 167 214 259 316 375
#     4   9  20  39  62  96 122 166 214 253 319 371
#     4  11  22  40  63  90 132 169 211 252 314 384
#     4  12  22  40  66  94 129 166 215 261 318 370
#     4  11  21  38  67  95 122 166 212 263 307 376
#
# _framework density 21.070910000000001
#
# number of rings (size 3 to 8) (size 9 to 14) (size 15 to 20)
#    0.000    1.500    5.000    1.500    1.750    1.000 
#    0.000    2.500    0.000    0.000    0.000    0.000 
#    0.000    0.000    0.000    0.000    0.000    0.000 
#
# Total GULP energy -198248.493846 kJ/mol
# GULP energy per Si atom -12390.530865 kJ/mol
# Density = 2.102295 g / cm^3
# Si number density = 21.070910 Si / 1000 Ang^3
#
#
#
# Elastic Constant Matrix: (Units=GPa)
#
#
# Indices 1 2 3 4 5 6 
#
# 1 107.4632 22.4324 47.3648 3.6094 31.3705 5.8742
# 2 22.4324 51.4972 43.6096 3.8831 6.0435 5.2416
# 3 47.3648 43.6096 152.4021 6.1656 22.7180 4.1639
# 4 3.6094 3.8831 6.1656 35.7662 1.3909 4.4827
# 5 31.3705 6.0435 22.7180 1.3909 33.2601 2.8037
# 6 5.8742 5.2416 4.1639 4.4827 2.8037 19.8083
#
#
#
# Elastic Compliance Matrix: (Units=1/GPa)
#
#
# Indices 1 2 3 4 5 6 
#
# 1 0.014167 -0.003212 -0.001730 -0.000170 -0.011478 -0.001325
# 2 -0.003212 0.026965 -0.007053 -0.000896 0.003404 -0.004979
# 3 -0.001730 -0.007053 0.009678 -0.000712 -0.003755 0.001038
# 4 -0.000170 -0.000896 -0.000712 0.028961 0.000116 -0.006133
# 5 -0.011478 0.003404 -0.003755 0.000116 0.043072 -0.002830
# 6 -0.001325 -0.004979 0.001038 -0.006133 -0.002830 0.053765
#
#
# Mechanical properties :
#
#
# Convention : Reuss Voigt Hill
#
# Bulk Modulus (GPa) = 37.28445 59.79736 48.54090
# Shear Modulus (GPa) = 23.86212 30.96399 27.41306
#
# Velocity S-wave (km/s) = 3.36887 3.83758 3.61084
# Velocity P-wave (km/s) = 5.73284 6.93374 6.36169
#
# Compressibility (1/GPa) = 0.02682084
#
# Stress axis : x y z
#
# Youngs Moduli (GPa) = 70.58517 37.08485 103.33153
#
# Poissons Ratio (x) = 0.11910 0.17875
# Poissons Ratio (y) = 0.22670 0.72880
# Poissons Ratio (z) = 0.12210 0.26156
#
# Static dielectric constant tensor:
#      x y z
#    x 3.530100 -0.078430 0.118890 
#    y -0.078430 3.760090 -0.180670 
#    z 0.118890 -0.180670 3.958800 
# 
# 
# High freq. dielectric constant tensor:
#      x y z
#    x 1.813390 -0.008640 0.011360 
#    y -0.008640 1.802900 -0.012110 
#    z 0.011360 -0.012110 1.841800 
# 
# From -- ./inp_files/351702.got.cif
#   From: 2010.06.25/outbox.cif.g09.slc.cpg/sg2_176_cif.got.tgz:351702.got - 2010.06.27 13:26:56.
