data_PCOD8044601
_publ_section_title
;
Structure prediction by ZEFSAII (Michael W. Deem and Ramdas Pophale) SiO2 
 PCOD8044601
Probable space group: P -1
;
_chemical_formula_sum "Si O2"
_cell_formula_units_Z 14
_cell_length_a 14.332083
_cell_length_b 8.716055
_cell_length_c 9.454016
_cell_angle_alpha 101.374700
_cell_angle_beta 53.525887
_cell_angle_gamma 139.287231
_cell_volume 542.367271
_symmetry_space_group_name_H-M "P -1"
_symmetry_group_IT_number 2
_symmetry_cell_setting 'triclinic'
loop_
_space_group_symop_operation_xyz
x,y,z
-x,-y,-z
loop_
_atom_site_type_symbol
_atom_site_label
_atom_site_fract_x
_atom_site_fract_y
_atom_site_fract_z
Si Si1 0.368598 0.411173 0.471413
Si Si2 0.751629 0.483534 0.963816
Si Si3 0.559520 0.212549 0.384939
Si Si4 0.791704 0.197635 0.094779
Si Si5 0.306598 0.236638 0.968452
Si Si6 0.841534 0.117375 0.447819
Si Si7 0.666368 0.977929 0.873684
O O1 0.500000 0.500000 0.500000
O O2 0.340628 0.567847 0.543124
O O3 0.172512 0.088682 0.582743
O O4 0.476273 0.489768 0.241474
O O5 0.812192 0.732263 0.927265
O O6 0.707470 0.408673 0.154432
O O7 0.560443 0.225601 0.995580
O O8 0.944298 0.598243 0.754717
O O9 0.329949 0.994882 0.516305
O O10 0.613956 0.083533 0.333542
O O11 0.793150 0.011885 0.085308
O O12 0.737564 0.173347 0.972125
O O13 0.000000 0.500000 0.000000
O O14 0.328144 0.194027 0.100511
O O15 0.814227 0.151023 0.638448
#
# Coordination Sequence:
#
# PCOD8044601 Si02
#       7
#     2   2   2   2   2   2   2
#     4  10  19  38  63  95 128 165 211 268 319 368
#     4  11  21  40  72  99 124 172 215 274 318 371
#     4  10  23  44  62  97 137 165 217 266 314 388
#     4  10  25  44  64  92 135 179 205 261 331 387
#     4  10  21  41  65  93 132 167 211 271 318 373
#     4  10  22  38  69 101 123 169 217 269 325 370
#     4   9  22  44  64  95 137 159 222 268 319 377
#
# _framework density 25.812764000000001
#
# number of rings (size 3 to 8) (size 9 to 14) (size 15 to 20)
#    0.857    1.143    4.286    0.429    2.000    6.286 
#    2.571    2.857    0.000    0.000    0.000    0.000 
#    0.000    0.000    0.000    0.000    0.000    0.000 
#
# Total GULP energy -173508.619558 kJ/mol
# GULP energy per Si atom -12393.472826 kJ/mol
# Density = 2.575401 g / cm^3
# Si number density = 25.812764 Si / 1000 Ang^3
#
#
#
# Elastic Constant Matrix: (Units=GPa)
#
#
# Indices 1 2 3 4 5 6 
#
# 1 74.8901 26.6999 33.8131 1.3677 0.3240 -3.7161
# 2 26.6999 121.3092 37.6011 13.0951 -19.1493 -2.6212
# 3 33.8131 37.6011 162.9393 -8.7002 -21.0758 12.8580
# 4 1.3677 13.0951 -8.7002 38.3785 0.7660 4.4511
# 5 0.3240 -19.1493 -21.0758 0.7660 37.0917 0.4327
# 6 -3.7161 -2.6212 12.8580 4.4511 0.4327 25.0085
#
#
#
# Elastic Compliance Matrix: (Units=1/GPa)
#
#
# Indices 1 2 3 4 5 6 
#
# 1 0.016214 -0.002872 -0.003547 -0.000809 -0.003671 0.004139
# 2 -0.002872 0.010627 -0.001659 -0.004249 0.004631 0.002216
# 3 -0.003547 -0.001659 0.008380 0.003168 0.003936 -0.005641
# 4 -0.000809 -0.004249 0.003168 0.029125 -0.000902 -0.007362
# 5 -0.003671 0.004631 0.003936 -0.000902 0.031667 -0.002471
# 6 0.004139 0.002216 -0.005641 -0.007362 -0.002471 0.045087
#
#
# Mechanical properties :
#
#
# Convention : Reuss Voigt Hill
#
# Bulk Modulus (GPa) = 52.45187 61.70744 57.07965
# Shear Modulus (GPa) = 30.56013 37.49738 34.02876
#
# Velocity S-wave (km/s) = 3.44454 3.81552 3.63477
# Velocity P-wave (km/s) = 6.01532 6.58549 6.30685
#
# Compressibility (1/GPa) = 0.01906510
#
# Stress axis : x y z
#
# Youngs Moduli (GPa) = 61.67412 94.09559 119.33774
#
# Poissons Ratio (x) = 0.27026 0.42325
# Poissons Ratio (y) = 0.17714 0.19801
# Poissons Ratio (z) = 0.21874 0.15613
#
# Static dielectric constant tensor:
#      x y z
#    x 5.035150 -0.659800 0.194380 
#    y -0.659800 4.897400 0.350530 
#    z 0.194380 0.350530 4.704920 
# 
# 
# High freq. dielectric constant tensor:
#      x y z
#    x 2.027180 -0.031080 0.023860 
#    y -0.031080 2.041130 0.011520 
#    z 0.023860 0.011520 2.043720 
# 
# From -- ./inp_files/471039.got.cif
#   From: 2010.06.25/outbox.cif.g09.slc.cpg/sg2_236_cif.got.tgz:471039.got - 2010.06.27 13:26:56.
