data_PCOD8044883
_publ_section_title
;
Structure prediction by ZEFSAII (Michael W. Deem and Ramdas Pophale) SiO2 
 PCOD8044883
Probable space group: P 2
;
_chemical_formula_sum "Si O2"
_cell_formula_units_Z 9
_cell_length_a 14.884054
_cell_length_b 6.340817
_cell_length_c 10.651160
_cell_angle_alpha 90.000000
_cell_angle_beta 154.735481
_cell_angle_gamma 90.000000
_cell_volume 429.028021
_symmetry_space_group_name_H-M "P 2"
_symmetry_group_IT_number 3
_symmetry_cell_setting 'monoclinic'
loop_
_space_group_symop_operation_xyz
x,y,z
-x,y,-z
loop_
_atom_site_type_symbol
_atom_site_label
_atom_site_fract_x
_atom_site_fract_y
_atom_site_fract_z
Si Si1 0.514108 0.856520 0.372194
Si Si2 0.500000 0.932177 0.000000
Si Si3 0.129845 0.596792 0.790645
Si Si4 0.552333 0.245476 0.855762
Si Si5 0.247199 0.621246 0.517148
O O1 0.500000 0.803739 0.500000
O O2 0.720637 0.735762 0.577478
O O3 0.527823 0.108209 0.365735
O O4 0.311401 0.770032 0.039733
O O5 0.675409 0.781601 0.278808
O O6 0.389497 0.080701 0.962407
O O7 0.000000 0.649520 0.500000
O O8 0.992983 0.581842 0.745753
O O9 0.236789 0.368749 0.911974
O O10 0.367464 0.398805 0.669883
#
# Coordination Sequence:
#
# PCOD8044883 Si02
#       5
#     2   1   2   2   2
#     4  10  24  43  60  85 125 166 201 244 299 357
#     4  10  18  36  58  86 128 160 188 244 308 358
#     4  11  22  38  64  95 120 152 201 253 301 354
#     4  10  21  36  60  88 124 160 197 245 301 358
#     4  10  21  38  60  88 121 157 200 248 298 353
#
# _framework density 20.977651000000002
#
# number of rings (size 3 to 8) (size 9 to 14) (size 15 to 20)
#    0.000    1.778    0.000    6.000    0.000   10.667 
#    0.000    2.222    0.000    0.000    0.000    0.000 
#    0.000    0.000    0.000    0.000    0.000    0.000 
#
# Total GULP energy -111559.403366 kJ/mol
# GULP energy per Si atom -12395.489263 kJ/mol
# Density = 2.092991 g / cm^3
# Si number density = 20.977651 Si / 1000 Ang^3
#
#
#
# Elastic Constant Matrix: (Units=GPa)
#
#
# Indices 1 2 3 4 5 6 
#
# 1 149.1016 50.2170 31.2543 0.0000 17.1599 0.0000
# 2 50.2170 137.6141 28.4766 0.0000 7.0167 0.0000
# 3 31.2543 28.4766 41.1791 0.0000 8.2322 0.0000
# 4 0.0000 0.0000 0.0000 12.8386 0.0000 11.5931
# 5 17.1599 7.0167 8.2322 0.0000 45.0282 0.0000
# 6 0.0000 0.0000 0.0000 11.5931 0.0000 9.5691
#
#
#
# Elastic Compliance Matrix: (Units=1/GPa)
#
#
# Indices 1 2 3 4 5 6 
#
# 1 0.008631 -0.002070 -0.004698 0.000000 -0.002108 0.000000
# 2 -0.002070 0.008980 -0.004688 0.000000 0.000247 0.000000
# 3 -0.004698 -0.004688 0.031748 0.000000 -0.003283 0.000000
# 4 0.000000 0.000000 0.000000 -0.828723 0.000000 1.004012
# 5 -0.002108 0.000247 -0.003283 0.000000 0.023573 0.000000
# 6 0.000000 0.000000 0.000000 1.004012 0.000000 -1.111874
#
#
# Mechanical properties :
#
#
# Convention : Reuss Voigt Hill
#
# Bulk Modulus (GPa) = 37.81149 60.86561 49.33855
# Shear Modulus (GPa) = -2.72341 28.01697 12.64678
#
# Velocity S-wave (km/s) = -1.14064 3.65850 2.45800
# Velocity P-wave (km/s) = 4.04092 6.85008 5.62373
#
# Compressibility (1/GPa) = 0.02644699
#
# Stress axis : x y z
#
# Youngs Moduli (GPa) = 115.85559 111.36413 31.49787
#
# Poissons Ratio (x) = 0.23053 0.14798
# Poissons Ratio (y) = 0.23982 0.14766
# Poissons Ratio (z) = 0.54432 0.52206
#
# Static dielectric constant tensor:
#      x y z
#    x 4.066060 0.000000 0.118080 
#    y 0.000000 4.043060 0.000000 
#    z 0.118080 0.000000 3.369120 
# 
# 
# High freq. dielectric constant tensor:
#      x y z
#    x 1.843400 0.000000 0.008650 
#    y 0.000000 1.838550 0.000000 
#    z 0.008650 0.000000 1.774380 
# 
# From -- ./inp_files/6359.got.cif
#   From: 2010.03.12/outbox.cif.g09.slc.cpg/sg3_4_cif.got.tgz:6359.got - 2010.03.31 09:20:49.
