data_PCOD8044091
_publ_section_title
;
Structure prediction by ZEFSAII (Michael W. Deem and Ramdas Pophale) SiO2 
 PCOD8044091
Probable space group: P -1
;
_chemical_formula_sum "Si O2"
_cell_formula_units_Z 16
_cell_length_a 21.560059
_cell_length_b 17.033815
_cell_length_c 10.291063
_cell_angle_alpha 150.169394
_cell_angle_beta 31.806022
_cell_angle_gamma 155.676602
_cell_volume 741.162581
_symmetry_space_group_name_H-M "P -1"
_symmetry_group_IT_number 2
_symmetry_cell_setting 'triclinic'
loop_
_space_group_symop_operation_xyz
x,y,z
-x,-y,-z
loop_
_atom_site_type_symbol
_atom_site_label
_atom_site_fract_x
_atom_site_fract_y
_atom_site_fract_z
Si Si1 0.859746 0.369854 0.167430
Si Si2 0.636500 0.259617 0.031224
Si Si3 0.094457 0.737830 0.424129
Si Si4 0.988047 0.028908 0.212237
Si Si5 0.249626 0.054256 0.832231
Si Si6 0.827973 0.033776 0.875740
Si Si7 0.830737 0.726214 0.287497
Si Si8 0.461172 0.817768 0.629099
O O1 0.713039 0.349075 0.358327
O O2 0.928278 0.496706 0.366159
O O3 0.796470 0.138081 0.973575
O O4 0.000000 0.500000 0.000000
O O5 0.705559 0.472097 0.137812
O O6 0.536593 0.227950 0.288245
O O7 0.769597 0.262838 0.859346
O O8 0.530812 0.058465 0.833638
O O9 0.075678 0.848772 0.497883
O O10 0.129387 0.839801 0.651135
O O11 0.868077 0.814025 0.199867
O O12 0.166434 0.154842 0.131033
O O13 0.000000 0.000000 0.000000
O O14 0.423835 0.207116 0.680730
O O15 0.262327 0.002816 0.882705
O O16 0.014616 0.194442 0.799259
O O17 0.761756 0.811432 0.614938
#
# Coordination Sequence:
#
# PCOD8044091 Si02
#       8
#     2   2   2   2   2   2   2   2
#     4  12  21  36  62  95 116 156 213 258 308 360
#     4  10  20  40  63  93 118 169 204 251 313 367
#     4  10  19  37  65  92 118 155 213 249 304 361
#     4   9  19  37  62  95 124 158 203 258 303 358
#     4   9  21  40  59  85 126 170 192 249 320 363
#     4  10  21  36  61  88 126 157 207 261 298 362
#     4  10  19  37  63  93 121 158 213 253 301 365
#     4  10  22  38  62  87 133 157 203 260 311 371
#
# _framework density 21.587707999999999
#
# number of rings (size 3 to 8) (size 9 to 14) (size 15 to 20)
#    0.000    2.000    2.500    0.750    0.000    3.000 
#    6.750    3.125    0.000    0.000    0.000    0.000 
#    0.000    0.000    0.000    0.000    0.000    0.000 
#
# Total GULP energy -198223.410255 kJ/mol
# GULP energy per Si atom -12388.963141 kJ/mol
# Density = 2.153857 g / cm^3
# Si number density = 21.587708 Si / 1000 Ang^3
#
#
#
# Elastic Constant Matrix: (Units=GPa)
#
#
# Indices 1 2 3 4 5 6 
#
# 1 78.0816 37.1999 38.1405 -12.8267 -1.4311 -12.6690
# 2 37.1999 101.6470 49.6973 -9.0665 -5.9293 -10.1461
# 3 38.1405 49.6973 84.3775 -13.8582 -3.0613 -18.8056
# 4 -12.8267 -9.0665 -13.8582 34.9257 -6.0711 -0.4174
# 5 -1.4311 -5.9293 -3.0613 -6.0711 30.6776 2.4977
# 6 -12.6690 -10.1461 -18.8056 -0.4174 2.4977 46.6269
#
#
#
# Elastic Compliance Matrix: (Units=1/GPa)
#
#
# Indices 1 2 3 4 5 6 
#
# 1 0.017862 -0.003604 -0.004849 0.003765 0.000224 0.002135
# 2 -0.003604 0.014676 -0.007110 0.000007 0.002022 -0.000762
# 3 -0.004849 -0.007110 0.020195 0.004606 0.000897 0.005274
# 4 0.003765 0.000007 0.004606 0.033087 0.006956 0.002806
# 5 0.000224 0.002022 0.000897 0.006956 0.034540 -0.000925
# 6 0.002135 -0.000762 0.005274 0.002806 -0.000925 0.024063
#
#
# Mechanical properties :
#
#
# Convention : Reuss Voigt Hill
#
# Bulk Modulus (GPa) = 46.28114 57.13129 51.70621
# Shear Modulus (GPa) = 27.35972 31.71726 29.53849
#
# Velocity S-wave (km/s) = 3.56388 3.83721 3.70307
# Velocity P-wave (km/s) = 6.19840 6.79370 6.50287
#
# Compressibility (1/GPa) = 0.02160707
#
# Stress axis : x y z
#
# Youngs Moduli (GPa) = 55.98581 68.13957 49.51665
#
# Poissons Ratio (x) = 0.24559 0.24009
# Poissons Ratio (y) = 0.20179 0.35205
# Poissons Ratio (z) = 0.27146 0.48446
#
# Static dielectric constant tensor:
#      x y z
#    x 3.881150 -0.007770 -0.234460 
#    y -0.007770 3.764320 0.158320 
#    z -0.234460 0.158320 4.430000 
# 
# 
# High freq. dielectric constant tensor:
#      x y z
#    x 1.838620 -0.004700 -0.000060 
#    y -0.004700 1.818480 -0.003790 
#    z -0.000060 -0.003790 1.849830 
# 
# From -- ./inp_files/436486.got.cif
#   From: 2010.06.25/outbox.cif.g09.slc.cpg/sg2_219_cif.got.tgz:436486.got - 2010.06.27 13:26:56.
