data_PCOD8044439
_publ_section_title
;
Structure prediction by ZEFSAII (Michael W. Deem and Ramdas Pophale) SiO2 
 PCOD8044439
Probable space group: P -1
;
_chemical_formula_sum "Si O2"
_cell_formula_units_Z 14
_cell_length_a 15.782272
_cell_length_b 13.436912
_cell_length_c 28.585328
_cell_angle_alpha 23.043589
_cell_angle_beta 162.284493
_cell_angle_gamma 150.283570
_cell_volume 720.368749
_symmetry_space_group_name_H-M "P -1"
_symmetry_group_IT_number 2
_symmetry_cell_setting 'triclinic'
loop_
_space_group_symop_operation_xyz
x,y,z
-x,-y,-z
loop_
_atom_site_type_symbol
_atom_site_label
_atom_site_fract_x
_atom_site_fract_y
_atom_site_fract_z
Si Si1 0.388882 0.272066 0.278810
Si Si2 0.916524 0.239217 0.117101
Si Si3 0.391616 0.203139 0.455950
Si Si4 0.229358 0.642106 0.776730
Si Si5 0.118507 0.040389 0.475040
Si Si6 0.893087 0.528989 0.566704
Si Si7 0.027408 0.705033 0.386318
O O1 0.095711 0.252550 0.158107
O O2 0.641764 0.239043 0.463594
O O3 0.436565 0.054710 0.359041
O O4 0.352387 0.555319 0.112650
O O5 0.105780 0.274947 0.246784
O O6 0.826117 0.948576 0.191635
O O7 0.580098 0.444417 0.446040
O O8 0.316824 0.148875 0.493559
O O9 0.301422 0.893865 0.675871
O O10 0.067442 0.456176 0.737227
O O11 0.500000 0.500000 0.000000
O O12 0.046860 0.717387 0.693683
O O13 0.902792 0.835627 0.430236
O O14 0.046067 0.389165 0.663152
O O15 0.000000 0.500000 0.500000
#
# Coordination Sequence:
#
# PCOD8044439 Si02
#       7
#     2   2   2   2   2   2   2
#     4  10  20  36  54  80 126 153 186 238 279 333
#     4  10  20  36  54  81 125 153 185 239 281 329
#     4  11  19  38  61  85 117 154 197 234 289 352
#     4   9  21  45  59  81 120 143 187 257 296 340
#     4   9  22  40  60  83 112 150 187 246 305 334
#     4  10  19  38  61  85 112 156 193 234 291 347
#     4  11  20  36  56  85 122 157 192 234 281 350
#
# _framework density 19.43449
#
# number of rings (size 3 to 8) (size 9 to 14) (size 15 to 20)
#    0.857    1.143    2.857    2.571    0.000    2.286 
#    5.143    0.714    0.000    0.000    0.000    0.000 
#    0.000    0.000    0.000    0.000    0.000    0.000 
#
# Total GULP energy -173458.245288 kJ/mol
# GULP energy per Si atom -12389.874663 kJ/mol
# Density = 1.939026 g / cm^3
# Si number density = 19.434490 Si / 1000 Ang^3
#
#
#
# Elastic Constant Matrix: (Units=GPa)
#
#
# Indices 1 2 3 4 5 6 
#
# 1 102.1970 24.3424 15.0652 -1.4905 6.0998 -9.5702
# 2 24.3424 88.8533 14.0783 -5.2641 0.0426 -14.1670
# 3 15.0652 14.0783 99.7112 -17.1348 -5.9931 -20.9665
# 4 -1.4905 -5.2641 -17.1348 18.8750 0.9878 -7.8456
# 5 6.0998 0.0426 -5.9931 0.9878 16.8955 -0.7786
# 6 -9.5702 -14.1670 -20.9665 -7.8456 -0.7786 32.8167
#
#
#
# Elastic Compliance Matrix: (Units=1/GPa)
#
#
# Indices 1 2 3 4 5 6 
#
# 1 0.010972 -0.002673 -0.001477 -0.000638 -0.004402 0.000845
# 2 -0.002673 0.013531 0.001795 0.008562 0.001449 0.008290
# 3 -0.001477 0.001795 0.018312 0.024139 0.006441 0.017968
# 4 -0.000638 0.008562 0.024139 0.094247 0.005177 0.041588
# 5 -0.004402 0.001449 0.006441 0.005177 0.063040 0.006190
# 6 0.000845 0.008290 0.017968 0.041588 0.006190 0.055867
#
#
# Mechanical properties :
#
#
# Convention : Reuss Voigt Hill
#
# Bulk Modulus (GPa) = 26.24294 44.19258 35.21776
# Shear Modulus (GPa) = 18.28960 29.53580 23.91270
#
# Velocity S-wave (km/s) = 3.07105 3.90264 3.51155
# Velocity P-wave (km/s) = 5.10957 6.56476 5.88234
#
# Compressibility (1/GPa) = 0.03810549
#
# Stress axis : x y z
#
# Youngs Moduli (GPa) = 91.14142 73.90617 54.60880
#
# Poissons Ratio (x) = 0.19754 0.08065
# Poissons Ratio (y) = 0.24360 -0.09802
# Poissons Ratio (z) = 0.13460 -0.13266
#
# Static dielectric constant tensor:
#      x y z
#    x 3.558690 -0.241280 -0.016230 
#    y -0.241280 2.509500 -0.918930 
#    z -0.016230 -0.918930 3.692390 
# 
# 
# High freq. dielectric constant tensor:
#      x y z
#    x 1.759810 -0.002230 -0.003860 
#    y -0.002230 1.749230 -0.015790 
#    z -0.003860 -0.015790 1.734850 
# 
# From -- ./inp_files/317108.got.cif
#   From: 2010.06.25/outbox.cif.g09.slc.cpg/sg2_159_cif.got.tgz:317108.got - 2010.06.27 13:26:56.
