data_PCOD8044840
_publ_section_title
;
Structure prediction by ZEFSAII (Michael W. Deem and Ramdas Pophale) SiO2 
 PCOD8044840
Probable space group: P 2
;
_chemical_formula_sum "Si O2"
_cell_formula_units_Z 16
_cell_length_a 13.025357
_cell_length_b 7.660357
_cell_length_c 8.914364
_cell_angle_alpha 90.000000
_cell_angle_beta 110.998692
_cell_angle_gamma 90.000000
_cell_volume 830.394668
_symmetry_space_group_name_H-M "P 2"
_symmetry_group_IT_number 3
_symmetry_cell_setting 'monoclinic'
loop_
_space_group_symop_operation_xyz
x,y,z
-x,y,-z
loop_
_atom_site_type_symbol
_atom_site_label
_atom_site_fract_x
_atom_site_fract_y
_atom_site_fract_z
Si Si1 0.757159 0.449080 0.080165
Si Si2 0.417247 0.954539 0.828332
Si Si3 0.406768 0.066586 0.284389
Si Si4 0.574233 0.449513 0.746426
Si Si5 0.125986 0.753979 0.025559
Si Si6 0.236620 0.059824 0.932921
Si Si7 0.307615 0.749379 0.365764
Si Si8 0.349662 0.594722 0.697852
O O1 0.810680 0.256309 0.092237
O O2 0.740314 0.498933 0.245491
O O3 0.637611 0.449886 0.938387
O O4 0.840762 0.580717 0.046340
O O5 0.410954 0.745368 0.823119
O O6 0.466711 0.027719 0.698051
O O7 0.294575 0.027009 0.801264
O O8 0.500000 0.017590 0.000000
O O9 0.397897 0.269436 0.327878
O O10 0.369351 0.937833 0.399327
O O11 0.328258 0.021671 0.105211
O O12 0.609763 0.613355 0.667476
O O13 0.443217 0.455957 0.701261
O O14 0.193083 0.763523 0.216643
O O15 0.000000 0.740534 0.000000
O O16 0.141348 0.921076 0.923151
O O17 0.286343 0.683383 0.523657
#
# Coordination Sequence:
#
# PCOD8044840 Si02
#       8
#     2   2   2   2   2   2   2   2
#     4  10  20  35  58  82 109 141 184 225 268 327
#     4  10  17  29  52  78 108 146 180 208 249 315
#     4   9  18  33  52  74 113 154 182 214 256 314
#     4  10  19  34  53  78 112 154 188 211 252 323
#     4  10  21  40  63  80  97 138 187 240 283 325
#     4   9  18  34  56  84 104 134 188 233 262 319
#     4  10  22  37  49  80 117 141 185 225 271 320
#     4  12  20  32  51  83 116 151 172 217 268 325
#
# _framework density 19.267946999999999
#
# number of rings (size 3 to 8) (size 9 to 14) (size 15 to 20)
#    0.000    2.000    2.500    2.250    0.000    2.500 
#    6.750    0.625    0.000    0.000    3.250    0.000 
#    0.000    0.000    0.000    0.000    0.000    0.000 
#
# Total GULP energy -198330.210626 kJ/mol
# GULP energy per Si atom -12395.638164 kJ/mol
# Density = 1.922409 g / cm^3
# Si number density = 19.267947 Si / 1000 Ang^3
#
#
#
# Elastic Constant Matrix: (Units=GPa)
#
#
# Indices 1 2 3 4 5 6 
#
# 1 118.3013 52.0686 40.3195 0.0000 -5.9073 0.0000
# 2 52.0686 152.5701 31.2203 0.0000 -7.6261 0.0000
# 3 40.3195 31.2203 74.6654 0.0000 -11.7884 0.0000
# 4 0.0000 0.0000 0.0000 13.0093 0.0000 -2.2327
# 5 -5.9073 -7.6261 -11.7884 0.0000 10.4129 0.0000
# 6 0.0000 0.0000 0.0000 -2.2327 0.0000 16.8681
#
#
#
# Elastic Compliance Matrix: (Units=1/GPa)
#
#
# Indices 1 2 3 4 5 6 
#
# 1 0.011430 -0.002914 -0.005195 0.000000 -0.001532 0.000000
# 2 -0.002914 0.007955 -0.001332 0.000000 0.002665 0.000000
# 3 -0.005195 -0.001332 0.019648 0.000000 0.018321 0.000000
# 4 0.000000 0.000000 0.000000 0.078655 0.000000 0.010411
# 5 -0.001532 0.002665 0.018321 0.000000 0.117858 0.000000
# 6 0.000000 0.000000 0.000000 0.010411 0.000000 0.060661
#
#
# Mechanical properties :
#
#
# Convention : Reuss Voigt Hill
#
# Bulk Modulus (GPa) = 49.62837 65.86151 57.74494
# Shear Modulus (GPa) = 15.53727 22.85328 19.19527
#
# Velocity S-wave (km/s) = 2.84276 3.44768 3.15973
# Velocity P-wave (km/s) = 6.04880 7.07847 6.58380
#
# Compressibility (1/GPa) = 0.02014977
#
# Stress axis : x y z
#
# Youngs Moduli (GPa) = 87.49018 125.71326 50.89568
#
# Poissons Ratio (x) = 0.36635 0.26443
# Poissons Ratio (y) = 0.25496 0.06778
# Poissons Ratio (z) = 0.45455 0.16741
#
# Static dielectric constant tensor:
#      x y z
#    x 3.128620 0.000000 -0.212860 
#    y 0.000000 3.693920 0.000000 
#    z -0.212860 0.000000 3.457600 
# 
# 
# High freq. dielectric constant tensor:
#      x y z
#    x 1.702060 0.000000 -0.023610 
#    y 0.000000 1.768570 0.000000 
#    z -0.023610 0.000000 1.731780 
# 
# From -- ./inp_files/7221.got.cif
#   From: 2010.03.12/outbox.cif.g09.slc.cpg/sg3_4_cif.got.tgz:7221.got - 2010.03.31 09:20:49.
