data_PCOD8044187
_publ_section_title
;
Structure prediction by ZEFSAII (Michael W. Deem and Ramdas Pophale) SiO2 
 PCOD8044187
Probable space group: P -1
;
_chemical_formula_sum "Si O2"
_cell_formula_units_Z 16
_cell_length_a 8.784649
_cell_length_b 19.199191
_cell_length_c 16.217959
_cell_angle_alpha 157.555240
_cell_angle_beta 55.027175
_cell_angle_gamma 135.842215
_cell_volume 684.698587
_symmetry_space_group_name_H-M "P -1"
_symmetry_group_IT_number 2
_symmetry_cell_setting 'triclinic'
loop_
_space_group_symop_operation_xyz
x,y,z
-x,-y,-z
loop_
_atom_site_type_symbol
_atom_site_label
_atom_site_fract_x
_atom_site_fract_y
_atom_site_fract_z
Si Si1 0.327387 0.275374 0.645220
Si Si2 0.270659 0.775481 0.547094
Si Si3 0.867833 0.800696 0.206570
Si Si4 0.131025 0.665500 0.884052
Si Si5 0.782816 0.599724 0.333447
Si Si6 0.424101 0.278395 0.334838
Si Si7 0.390229 0.923371 0.852937
Si Si8 0.299452 0.972035 0.585707
O O1 0.550233 0.282205 0.580732
O O2 0.294379 0.332330 0.809638
O O3 0.361162 0.461443 0.773716
O O4 0.101779 0.036989 0.421368
O O5 0.007943 0.546571 0.368029
O O6 0.278977 0.862633 0.731093
O O7 0.337383 0.966225 0.665849
O O8 0.721303 0.827537 0.213439
O O9 0.932670 0.649027 0.979497
O O10 0.295490 0.635735 0.858748
O O11 0.323576 0.907565 0.048539
O O12 0.743957 0.749086 0.570507
O O13 0.056084 0.735308 0.377534
O O14 0.500000 0.500000 0.500000
O O15 0.642669 0.291278 0.323088
O O16 0.296363 0.051838 0.067968
O O17 0.500000 0.000000 0.500000
#
# Coordination Sequence:
#
# PCOD8044187 Si02
#       8
#     2   2   2   2   2   2   2   2
#     4  10  19  37  65  89 130 177 228 270 327 407
#     4  11  22  41  66 100 132 176 230 268 336 411
#     4  10  20  37  61  93 131 181 221 271 336 390
#     4  11  23  41  65  96 139 175 222 279 334 401
#     4  10  21  39  65  95 133 175 224 281 330 405
#     4  11  22  43  76  97 130 177 228 277 348 405
#     4  11  23  44  73  98 133 180 215 287 348 389
#     4  10  20  38  63  92 136 177 216 279 332 389
#
# _framework density 23.367946
#
# number of rings (size 3 to 8) (size 9 to 14) (size 15 to 20)
#    0.000    1.500    5.000    0.750    0.000    1.000 
#    4.500    5.000    0.000    0.000    0.000    0.000 
#    0.000    0.000    0.000    0.000    0.000    0.000 
#
# Total GULP energy -198229.760805 kJ/mol
# GULP energy per Si atom -12389.360050 kJ/mol
# Density = 2.331476 g / cm^3
# Si number density = 23.367946 Si / 1000 Ang^3
#
#
#
# Elastic Constant Matrix: (Units=GPa)
#
#
# Indices 1 2 3 4 5 6 
#
# 1 151.9542 38.0778 38.7772 -1.5770 -17.9616 -40.6034
# 2 38.0778 71.8735 22.7195 -9.8803 -3.9446 -18.5183
# 3 38.7772 22.7195 70.1871 -9.9761 -16.4847 -20.9151
# 4 -1.5770 -9.8803 -9.9761 28.6952 1.1339 3.6487
# 5 -17.9616 -3.9446 -16.4847 1.1339 41.3142 -9.5555
# 6 -40.6034 -18.5183 -20.9151 3.6487 -9.5555 46.8151
#
#
#
# Elastic Compliance Matrix: (Units=1/GPa)
#
#
# Indices 1 2 3 4 5 6 
#
# 1 0.010724 -0.002961 -0.001173 -0.002224 0.006058 0.009016
# 2 -0.002961 0.017679 -0.002585 0.004662 -0.000091 0.002888
# 3 -0.001173 -0.002585 0.021467 0.004957 0.009792 0.009163
# 4 -0.002224 0.004662 0.004957 0.038148 0.000225 -0.000797
# 5 0.006058 -0.000091 0.009792 0.000225 0.034578 0.016633
# 6 0.009016 0.002888 0.009163 -0.000797 0.016633 0.037874
#
#
# Mechanical properties :
#
#
# Convention : Reuss Voigt Hill
#
# Bulk Modulus (GPa) = 27.44753 54.79597 41.12175
# Shear Modulus (GPa) = 26.87407 36.32758 31.60083
#
# Velocity S-wave (km/s) = 3.39490 3.94711 3.68137
# Velocity P-wave (km/s) = 5.20946 6.65379 5.97543
#
# Compressibility (1/GPa) = 0.03643315
#
# Stress axis : x y z
#
# Youngs Moduli (GPa) = 93.24508 56.56341 46.58224
#
# Poissons Ratio (x) = 0.16749 0.05465
# Poissons Ratio (y) = 0.27611 0.12040
# Poissons Ratio (z) = 0.10940 0.14620
#
# Static dielectric constant tensor:
#      x y z
#    x 4.613450 -0.448860 -0.266380 
#    y -0.448860 4.460090 -0.074150 
#    z -0.266380 -0.074150 3.918380 
# 
# 
# High freq. dielectric constant tensor:
#      x y z
#    x 1.933140 -0.020530 -0.021220 
#    y -0.020530 1.934320 -0.008510 
#    z -0.021220 -0.008510 1.896840 
# 
# From -- ./inp_files/562762.got.cif
#   From: 2010.06.25/outbox.cif.g09.slc.cpg/sg2_282_cif.got.tgz:562762.got - 2010.06.27 13:26:56.
