data_PCOD8044508
_publ_section_title
;
Structure prediction by ZEFSAII (Michael W. Deem and Ramdas Pophale) SiO2 
 PCOD8044508
Probable space group: P -1
;
_chemical_formula_sum "Si O2"
_cell_formula_units_Z 14
_cell_length_a 15.501181
_cell_length_b 15.659565
_cell_length_c 9.088560
_cell_angle_alpha 36.083308
_cell_angle_beta 38.739994
_cell_angle_gamma 30.904803
_cell_volume 639.448196
_symmetry_space_group_name_H-M "P -1"
_symmetry_group_IT_number 2
_symmetry_cell_setting 'triclinic'
loop_
_space_group_symop_operation_xyz
x,y,z
-x,-y,-z
loop_
_atom_site_type_symbol
_atom_site_label
_atom_site_fract_x
_atom_site_fract_y
_atom_site_fract_z
Si Si1 0.619678 0.971074 0.131479
Si Si2 0.835486 0.589358 0.489119
Si Si3 0.986623 0.367185 0.306290
Si Si4 0.366389 0.769421 0.434836
Si Si5 0.318035 0.963582 0.502327
Si Si6 0.528116 0.236634 0.132521
Si Si7 0.301744 0.616350 0.479618
O O1 0.789629 0.782997 0.234131
O O2 0.499733 0.927375 0.274917
O O3 0.513723 0.116894 0.200814
O O4 0.685487 0.041915 0.826147
O O5 0.881271 0.468637 0.452437
O O6 0.668665 0.616221 0.747809
O O7 0.000000 0.500000 0.500000
O O8 0.886330 0.304966 0.439918
O O9 0.169868 0.179682 0.372379
O O10 0.000000 0.500000 0.000000
O O11 0.269429 0.704288 0.563736
O O12 0.575405 0.605987 0.367042
O O13 0.304426 0.828593 0.603886
O O14 0.327968 0.898266 0.746848
O O15 0.594530 0.339073 0.824539
#
# Coordination Sequence:
#
# PCOD8044508 Si02
#       7
#     2   2   2   2   2   2   2
#     4  10  19  38  62  88 121 156 198 240 294 355
#     4  11  22  38  64  92 119 154 198 249 293 346
#     4  12  25  40  60  89 122 155 201 250 294 350
#     4  10  21  38  61  84 116 161 199 240 294 353
#     4  11  21  36  60  89 120 158 198 241 292 350
#     4  10  22  40  62  88 122 159 196 242 300 356
#     4  10  23  42  61  86 119 159 200 244 299 354
#
# _framework density 21.893877
#
# number of rings (size 3 to 8) (size 9 to 14) (size 15 to 20)
#    0.000    1.429    0.000    7.286    0.000    5.714 
#    0.000    2.857    0.000    0.000    0.000    0.000 
#    0.000    0.000    0.000    0.000    0.000    0.000 
#
# Total GULP energy -173563.773631 kJ/mol
# GULP energy per Si atom -12397.412402 kJ/mol
# Density = 2.184405 g / cm^3
# Si number density = 21.893877 Si / 1000 Ang^3
#
#
#
# Elastic Constant Matrix: (Units=GPa)
#
#
# Indices 1 2 3 4 5 6 
#
# 1 141.8338 50.2590 40.2232 5.5611 5.8647 0.5619
# 2 50.2590 103.7997 24.0782 -8.8874 2.5235 -5.2119
# 3 40.2232 24.0782 65.1928 -10.8367 0.0738 -10.0229
# 4 5.5611 -8.8874 -10.8367 28.4719 1.3995 10.7366
# 5 5.8647 2.5235 0.0738 1.3995 26.8254 -1.0257
# 6 0.5619 -5.2119 -10.0229 10.7366 -1.0257 53.6220
#
#
#
# Elastic Compliance Matrix: (Units=1/GPa)
#
#
# Indices 1 2 3 4 5 6 
#
# 1 0.010467 -0.004143 -0.005894 -0.005279 -0.001629 -0.000588
# 2 -0.004143 0.012309 -0.001279 0.004124 -0.000458 0.000166
# 3 -0.005894 -0.001279 0.021111 0.007858 0.001030 0.002330
# 4 -0.005279 0.004124 0.007858 0.043056 -0.001759 -0.006730
# 5 -0.001629 -0.000458 0.001030 -0.001759 0.037814 0.001241
# 6 -0.000588 0.000166 0.002330 -0.006730 0.001241 0.020478
#
#
# Mechanical properties :
#
#
# Convention : Reuss Voigt Hill
#
# Bulk Modulus (GPa) = 47.04415 59.99411 53.51913
# Shear Modulus (GPa) = 28.57968 34.86825 31.72396
#
# Velocity S-wave (km/s) = 3.61691 3.99507 3.81069
# Velocity P-wave (km/s) = 6.24314 6.98158 6.62266
#
# Compressibility (1/GPa) = 0.02125663
#
# Stress axis : x y z
#
# Youngs Moduli (GPa) = 95.54254 81.24182 47.36871
#
# Poissons Ratio (x) = 0.33655 0.27918
# Poissons Ratio (y) = 0.39579 0.06056
# Poissons Ratio (z) = 0.56311 0.10387
#
# Static dielectric constant tensor:
#      x y z
#    x 4.202670 0.091100 0.283520 
#    y 0.091100 3.996530 -0.240620 
#    z 0.283520 -0.240620 3.791190 
# 
# 
# High freq. dielectric constant tensor:
#      x y z
#    x 1.879550 0.007210 0.019190 
#    y 0.007210 1.862180 -0.018590 
#    z 0.019190 -0.018590 1.843530 
# 
# From -- ./inp_files/158199.got.cif
#   From: 2010.06.25/outbox.cif.g09.slc.cpg/sg2_80_cif.got.tgz:158199.got - 2010.06.27 13:26:56.
