data_PCOD8044291
_publ_section_title
;
Structure prediction by ZEFSAII (Michael W. Deem and Ramdas Pophale) SiO2 
 PCOD8044291
Probable space group: P -1
;
_chemical_formula_sum "Si O2"
_cell_formula_units_Z 14
_cell_length_a 18.548382
_cell_length_b 9.075237
_cell_length_c 5.051921
_cell_angle_alpha 107.783106
_cell_angle_beta 74.295074
_cell_angle_gamma 133.120966
_cell_volume 588.705263
_symmetry_space_group_name_H-M "P -1"
_symmetry_group_IT_number 2
_symmetry_cell_setting 'triclinic'
loop_
_space_group_symop_operation_xyz
x,y,z
-x,-y,-z
loop_
_atom_site_type_symbol
_atom_site_label
_atom_site_fract_x
_atom_site_fract_y
_atom_site_fract_z
Si Si1 0.536141 0.423639 0.712033
Si Si2 0.036324 0.883607 0.492636
Si Si3 0.349370 0.178576 0.502474
Si Si4 0.732999 0.540421 0.590678
Si Si5 0.196907 0.189040 0.849282
Si Si6 0.149176 0.589847 0.542718
Si Si7 0.181357 0.833718 0.150671
O O1 0.437288 0.201297 0.574948
O O2 0.595837 0.592193 0.517444
O O3 0.617582 0.409351 0.722462
O O4 0.500000 0.500000 0.000000
O O5 0.125711 0.925187 0.255152
O O6 0.947944 0.642580 0.442961
O O7 0.084530 0.980262 0.787016
O O8 0.000000 0.000000 0.500000
O O9 0.265807 0.127396 0.763684
O O10 0.297021 0.015008 0.224321
O O11 0.763648 0.639385 0.323205
O O12 0.753642 0.386631 0.522865
O O13 0.805061 0.727471 0.824835
O O14 0.134360 0.651208 0.308914
O O15 0.168194 0.746250 0.827169
#
# Coordination Sequence:
#
# PCOD8044291 Si02
#       7
#     2   2   2   2   2   2   2
#     4  10  19  37  69 100 126 164 227 286 325 379
#     4  11  24  45  73 102 129 175 236 279 318 390
#     4   9  21  38  64  98 130 168 218 277 333 388
#     4  11  22  39  64  96 133 169 218 270 334 380
#     4  10  21  38  63  98 128 163 217 287 318 369
#     4  12  26  46  65  96 143 185 214 268 337 409
#     4  11  27  47  67  96 143 181 214 266 348 401
#
# _framework density 23.780999999999999
#
# number of rings (size 3 to 8) (size 9 to 14) (size 15 to 20)
#    0.000    1.429    2.857    1.714    2.000    5.143 
#    0.000    1.429    0.000    0.000    0.000    0.000 
#    0.000    0.000    0.000    0.000    0.000    0.000 
#
# Total GULP energy -173489.949023 kJ/mol
# GULP energy per Si atom -12392.139216 kJ/mol
# Density = 2.372687 g / cm^3
# Si number density = 23.781000 Si / 1000 Ang^3
#
#
#
# Elastic Constant Matrix: (Units=GPa)
#
#
# Indices 1 2 3 4 5 6 
#
# 1 160.8004 35.7295 45.8608 26.2290 -12.4629 20.1127
# 2 35.7295 71.6445 13.8644 29.3986 0.2334 15.2819
# 3 45.8608 13.8644 73.6345 10.4752 -1.6467 0.3127
# 4 26.2290 29.3986 10.4752 25.8383 6.2763 8.4849
# 5 -12.4629 0.2334 -1.6467 6.2763 32.7199 7.2341
# 6 20.1127 15.2819 0.3127 8.4849 7.2341 45.3692
#
#
#
# Elastic Compliance Matrix: (Units=1/GPa)
#
#
# Indices 1 2 3 4 5 6 
#
# 1 0.009877 0.000375 -0.004833 -0.008709 0.006028 -0.003804
# 2 0.000375 0.028154 -0.000762 -0.032282 0.007145 -0.004746
# 3 -0.004833 -0.000762 0.016936 -0.001704 -0.001276 0.002804
# 4 -0.008709 -0.032282 -0.001704 0.089553 -0.020636 0.001289
# 5 0.006028 0.007145 -0.001276 -0.020636 0.038320 -0.007321
# 6 -0.003804 -0.004746 0.002804 0.001289 -0.007321 0.026234
#
#
# Mechanical properties :
#
#
# Convention : Reuss Voigt Hill
#
# Bulk Modulus (GPa) = 22.45798 55.22099 38.83949
# Shear Modulus (GPa) = 21.33497 34.82711 28.08104
#
# Velocity S-wave (km/s) = 2.99848 3.83102 3.44003
# Velocity P-wave (km/s) = 4.63164 6.54523 5.66975
#
# Compressibility (1/GPa) = 0.04452760
#
# Stress axis : x y z
#
# Youngs Moduli (GPa) = 101.24028 35.51889 59.04627
#
# Poissons Ratio (x) = -0.01331 0.28534
# Poissons Ratio (y) = -0.03793 0.04500
# Poissons Ratio (z) = 0.48925 0.02707
#
# Static dielectric constant tensor:
#      x y z
#    x 5.199540 0.476820 0.064410 
#    y 0.476820 4.399770 0.111630 
#    z 0.064410 0.111630 4.119170 
# 
# 
# High freq. dielectric constant tensor:
#      x y z
#    x 1.958190 0.018070 0.010660 
#    y 0.018070 1.926920 0.001860 
#    z 0.010660 0.001860 1.936170 
# 
# From -- ./inp_files/39272.got.cif
#   From: 2010.06.25/outbox.cif.g09.slc.cpg/sg2_20_cif.got.tgz:39272.got - 2010.06.27 13:26:56.
