data_PCOD8044303
_publ_section_title
;
Structure prediction by ZEFSAII (Michael W. Deem and Ramdas Pophale) SiO2 
 PCOD8044303
Probable space group: P -1
;
_chemical_formula_sum "Si O2"
_cell_formula_units_Z 14
_cell_length_a 8.627739
_cell_length_b 11.894789
_cell_length_c 10.227494
_cell_angle_alpha 49.040394
_cell_angle_beta 135.897813
_cell_angle_gamma 115.184463
_cell_volume 549.577067
_symmetry_space_group_name_H-M "P -1"
_symmetry_group_IT_number 2
_symmetry_cell_setting 'triclinic'
loop_
_space_group_symop_operation_xyz
x,y,z
-x,-y,-z
loop_
_atom_site_type_symbol
_atom_site_label
_atom_site_fract_x
_atom_site_fract_y
_atom_site_fract_z
Si Si1 0.450371 0.641868 0.015367
Si Si2 0.091659 0.731488 0.149315
Si Si3 0.171590 0.387013 0.528154
Si Si4 0.187474 0.789258 0.439578
Si Si5 0.779569 0.055541 0.398713
Si Si6 0.521189 0.868884 0.219419
Si Si7 0.355354 0.333892 0.169546
O O1 0.681729 0.619268 0.248603
O O2 0.301129 0.502741 0.060950
O O3 0.299520 0.791847 0.843436
O O4 0.515018 0.657520 0.893844
O O5 0.153532 0.553729 0.333889
O O6 0.046998 0.815360 0.199360
O O7 0.282086 0.803826 0.129639
O O8 0.864294 0.755566 0.906844
O O9 0.287885 0.264994 0.592136
O O10 0.921966 0.344271 0.445674
O O11 0.182767 0.928015 0.433398
O O12 0.438170 0.749567 0.561024
O O13 0.593379 0.938654 0.348660
O O14 0.000000 0.000000 0.500000
O O15 0.500000 0.000000 0.000000
#
# Coordination Sequence:
#
# PCOD8044303 Si02
#       7
#     2   2   2   2   2   2   2
#     4  10  19  37  71 104 140 180 228 288 355 425
#     4  12  25  45  73 108 141 181 244 301 349 416
#     4  12  21  44  74 105 141 183 232 299 358 418
#     4  11  23  43  77 108 142 180 238 298 353 424
#     4  11  23  43  69 100 144 197 231 274 360 430
#     4  12  28  49  67  97 148 199 235 285 359 430
#     4  10  21  39  68 113 139 172 231 299 359 404
#
# _framework density 25.474135
#
# number of rings (size 3 to 8) (size 9 to 14) (size 15 to 20)
#    0.000    0.857    5.714    3.429    0.000    0.571 
#    2.571    7.143    0.000    0.000    0.000    0.000 
#    0.000    0.000    0.000    0.000    0.000    0.000 
#
# Total GULP energy -173485.941231 kJ/mol
# GULP energy per Si atom -12391.852945 kJ/mol
# Density = 2.541615 g / cm^3
# Si number density = 25.474135 Si / 1000 Ang^3
#
#
#
# Elastic Constant Matrix: (Units=GPa)
#
#
# Indices 1 2 3 4 5 6 
#
# 1 84.1942 58.5006 25.3992 -4.1995 24.2741 21.4307
# 2 58.5006 166.4735 38.1542 21.2199 18.3467 10.1976
# 3 25.3992 38.1542 54.1054 10.8638 36.2168 20.3032
# 4 -4.1995 21.2199 10.8638 45.0556 1.6634 9.5166
# 5 24.2741 18.3467 36.2168 1.6634 37.0101 6.8486
# 6 21.4307 10.1976 20.3032 9.5166 6.8486 45.0687
#
#
#
# Elastic Compliance Matrix: (Units=1/GPa)
#
#
# Indices 1 2 3 4 5 6 
#
# 1 0.024929 -0.009605 0.015127 0.007117 -0.024058 -0.014343
# 2 -0.009605 0.011353 -0.014491 -0.004831 0.013688 0.007467
# 3 0.015127 -0.014491 0.093077 -0.004293 -0.087780 -0.031599
# 4 0.007117 -0.004831 -0.004293 0.027459 0.001885 -0.006442
# 5 -0.024058 0.013688 -0.087780 0.001885 0.116310 0.029814
# 6 -0.014343 0.007467 -0.031599 -0.006442 0.029814 0.038384
#
#
# Mechanical properties :
#
#
# Convention : Reuss Voigt Hill
#
# Bulk Modulus (GPa) = 8.97489 60.98679 34.98084
# Shear Modulus (GPa) = 13.63914 37.60817 25.62366
#
# Velocity S-wave (km/s) = 2.31641 3.84647 3.17499
# Velocity P-wave (km/s) = 3.26881 6.61209 5.21559
#
# Compressibility (1/GPa) = 0.11142196
#
# Stress axis : x y z
#
# Youngs Moduli (GPa) = 40.11325 88.07991 10.74375
#
# Poissons Ratio (x) = 0.84598 -0.16252
# Poissons Ratio (y) = 0.38528 0.15569
# Poissons Ratio (z) = -0.60679 1.27640
#
# Static dielectric constant tensor:
#      x y z
#    x 4.163920 -0.228620 0.304300 
#    y -0.228620 5.370600 0.181740 
#    z 0.304300 0.181740 5.079290 
# 
# 
# High freq. dielectric constant tensor:
#      x y z
#    x 1.985280 -0.003950 0.010890 
#    y -0.003950 2.043580 0.019480 
#    z 0.010890 0.019480 2.019200 
# 
# From -- ./inp_files/392254.got.cif
#   From: 2010.06.25/outbox.cif.g09.slc.cpg/sg2_197_cif.got.tgz:392254.got - 2010.06.27 13:26:56.
