data_PCOD8044878
_publ_section_title
;
Structure prediction by ZEFSAII (Michael W. Deem and Ramdas Pophale) SiO2 
 PCOD8044878
Probable space group: P 2
;
_chemical_formula_sum "Si O2"
_cell_formula_units_Z 15
_cell_length_a 8.314041
_cell_length_b 7.670106
_cell_length_c 14.471198
_cell_angle_alpha 90.000000
_cell_angle_beta 55.845176
_cell_angle_gamma 90.000000
_cell_volume 763.657024
_symmetry_space_group_name_H-M "P 2"
_symmetry_group_IT_number 3
_symmetry_cell_setting 'monoclinic'
loop_
_space_group_symop_operation_xyz
x,y,z
-x,y,-z
loop_
_atom_site_type_symbol
_atom_site_label
_atom_site_fract_x
_atom_site_fract_y
_atom_site_fract_z
Si Si1 0.188587 0.665070 0.996575
Si Si2 0.478355 0.378087 0.107079
Si Si3 0.815001 0.680002 0.790009
Si Si4 0.468432 0.519674 0.645496
Si Si5 0.174461 0.539883 0.585632
Si Si6 0.521357 0.819877 0.213643
Si Si7 0.599559 0.171980 0.692323
Si Si8 0.000000 0.269791 0.500000
O O1 0.335926 0.503364 0.942088
O O2 0.291709 0.831928 0.914104
O O3 0.140193 0.723849 0.117196
O O4 0.000000 0.610457 0.000000
O O5 0.281314 0.489271 0.181811
O O6 0.459775 0.221362 0.184449
O O7 0.500000 0.289428 0.000000
O O8 0.671809 0.818308 0.787993
O O9 0.010361 0.681775 0.664419
O O10 0.270169 0.490831 0.653128
O O11 0.646909 0.612796 0.533169
O O12 0.443913 0.638411 0.742961
O O13 0.520639 0.320662 0.650873
O O14 0.074029 0.383422 0.562672
O O15 0.504772 0.984264 0.288610
O O16 0.829001 0.149987 0.597194
#
# Coordination Sequence:
#
# PCOD8044878 Si02
#       8
#     2   2   2   2   2   2   2   1
#     4  10  20  36  59  84 119 154 196 247 294 349
#     4   9  18  34  56  83 111 151 194 238 290 344
#     4  10  18  34  60  85 111 154 198 237 292 347
#     4  10  21  38  58  88 119 155 192 243 297 350
#     4  10  19  36  65  84 116 156 195 242 298 348
#     4  11  22  38  60  86 120 156 195 242 293 349
#     4  11  21  38  61  86 121 156 194 246 289 352
#     4  10  20  38  60  92 118 150 204 244 288 354
#
# _framework density 19.642327999999999
#
# number of rings (size 3 to 8) (size 9 to 14) (size 15 to 20)
#    0.000    1.867    4.000    2.800    0.000    2.133 
#    0.000    8.667    0.000    0.000    0.000    0.000 
#    0.000    0.000    0.000    0.000    0.000    0.000 
#
# Total GULP energy -185842.040258 kJ/mol
# GULP energy per Si atom -12389.469351 kJ/mol
# Density = 1.959762 g / cm^3
# Si number density = 19.642328 Si / 1000 Ang^3
#
#
#
# Elastic Constant Matrix: (Units=GPa)
#
#
# Indices 1 2 3 4 5 6 
#
# 1 108.6427 13.2470 35.0047 0.0000 7.5592 0.0000
# 2 13.2470 57.5642 20.2493 0.0000 -2.4019 0.0000
# 3 35.0047 20.2493 109.8358 0.0000 -3.9330 0.0000
# 4 0.0000 0.0000 0.0000 27.0794 0.0000 -2.8185
# 5 7.5592 -2.4019 -3.9330 0.0000 33.8522 0.0000
# 6 0.0000 0.0000 0.0000 -2.8185 0.0000 8.0158
#
#
#
# Elastic Compliance Matrix: (Units=1/GPa)
#
#
# Indices 1 2 3 4 5 6 
#
# 1 0.010615 -0.001428 -0.003221 0.000000 -0.002846 0.000000
# 2 -0.001428 0.018798 -0.002964 0.000000 0.001308 0.000000
# 3 -0.003221 -0.002964 0.010740 0.000000 0.001757 0.000000
# 4 0.000000 0.000000 0.000000 0.038331 0.000000 0.013478
# 5 -0.002846 0.001308 0.001757 0.000000 0.030473 0.000000
# 6 0.000000 0.000000 0.000000 0.013478 0.000000 0.129492
#
#
# Mechanical properties :
#
#
# Convention : Reuss Voigt Hill
#
# Bulk Modulus (GPa) = 40.11830 45.89386 43.00608
# Shear Modulus (GPa) = 19.08515 27.62560 23.35538
#
# Velocity S-wave (km/s) = 3.12049 3.75431 3.45198
# Velocity P-wave (km/s) = 5.78377 6.49682 6.15064
#
# Compressibility (1/GPa) = 0.02492628
#
# Stress axis : x y z
#
# Youngs Moduli (GPa) = 94.20984 53.19821 93.10601
#
# Poissons Ratio (x) = 0.07598 0.29994
# Poissons Ratio (y) = 0.13455 0.27592
# Poissons Ratio (z) = 0.30349 0.15765
#
# Static dielectric constant tensor:
#      x y z
#    x 3.638530 0.000000 0.014290 
#    y 0.000000 3.052260 0.000000 
#    z 0.014290 0.000000 3.986160 
# 
# 
# High freq. dielectric constant tensor:
#      x y z
#    x 1.765940 0.000000 0.001790 
#    y 0.000000 1.711480 0.000000 
#    z 0.001790 0.000000 1.792640 
# 
# From -- ./inp_files/13548.got.cif
#   From: 2010.03.12/outbox.cif.g09.slc.cpg/sg3_7_cif.got.tgz:13548.got - 2010.03.31 09:20:49.
