data_PCOD8044929
_publ_section_title
;
Structure prediction by ZEFSAII (Michael W. Deem and Ramdas Pophale) SiO2 
 PCOD8044929
Probable space group: P 2
;
_chemical_formula_sum "Si O2"
_cell_formula_units_Z 14
_cell_length_a 8.891573
_cell_length_b 9.008834
_cell_length_c 16.894001
_cell_angle_alpha 90.000000
_cell_angle_beta 148.208721
_cell_angle_gamma 90.000000
_cell_volume 712.930592
_symmetry_space_group_name_H-M "P 2"
_symmetry_group_IT_number 3
_symmetry_cell_setting 'monoclinic'
loop_
_space_group_symop_operation_xyz
x,y,z
-x,y,-z
loop_
_atom_site_type_symbol
_atom_site_label
_atom_site_fract_x
_atom_site_fract_y
_atom_site_fract_z
Si Si1 0.302965 0.139420 0.840569
Si Si2 0.760790 0.466433 0.213377
Si Si3 0.512869 0.864655 0.162253
Si Si4 0.316848 0.767325 0.236926
Si Si5 0.902159 0.717410 0.578480
Si Si6 0.217892 0.610672 0.950632
Si Si7 0.212199 0.938347 0.340303
O O1 0.181501 0.291970 0.750208
O O2 0.046574 0.045976 0.760923
O O3 0.478479 0.039477 0.856166
O O4 0.500000 0.193247 0.000000
O O5 0.805951 0.541578 0.147191
O O6 0.994983 0.546764 0.372501
O O7 0.433601 0.501111 0.095644
O O8 0.302914 0.832343 0.142064
O O9 0.832863 0.818455 0.331392
O O10 0.384796 0.771535 0.029988
O O11 0.639581 0.717511 0.400459
O O12 0.094500 0.629397 0.148879
O O13 0.224121 0.901689 0.252886
O O14 0.812225 0.781159 0.624256
O O15 0.500000 0.018994 0.500000
#
# Coordination Sequence:
#
# PCOD8044929 Si02
#       7
#     2   2   2   2   2   2   2
#     4  11  21  36  59  84 116 160 194 236 295 356
#     4  10  20  37  56  87 113 153 198 238 293 349
#     4  10  22  34  61  86 117 152 193 243 295 346
#     4  11  19  35  61  89 115 143 197 251 291 326
#     4   9  19  36  61  84 110 154 197 239 284 346
#     4  10  19  34  57  85 113 144 199 253 278 334
#     4   9  19  34  55  84 112 146 202 248 276 332
#
# _framework density 19.637256000000001
#
# number of rings (size 3 to 8) (size 9 to 14) (size 15 to 20)
#    0.000    2.000    2.857    1.714    6.000    0.000 
#    2.571    0.000    9.429   10.286    0.000    0.000 
#    0.000    0.000    0.000    0.000    0.000    0.000 
#
# Total GULP energy -173449.573457 kJ/mol
# GULP energy per Si atom -12389.255247 kJ/mol
# Density = 1.959256 g / cm^3
# Si number density = 19.637256 Si / 1000 Ang^3
#
#
#
# Elastic Constant Matrix: (Units=GPa)
#
#
# Indices 1 2 3 4 5 6 
#
# 1 92.4623 31.8281 10.6893 0.0000 2.1494 0.0000
# 2 31.8281 125.8498 24.4867 0.0000 -6.1941 0.0000
# 3 10.6893 24.4867 68.2371 0.0000 20.1734 0.0000
# 4 0.0000 0.0000 0.0000 16.5347 0.0000 -2.5963
# 5 2.1494 -6.1941 20.1734 0.0000 23.8412 0.0000
# 6 0.0000 0.0000 0.0000 -2.5963 0.0000 8.9281
#
#
#
# Elastic Compliance Matrix: (Units=1/GPa)
#
#
# Indices 1 2 3 4 5 6 
#
# 1 0.011934 -0.003038 -0.000304 0.000000 -0.001608 0.000000
# 2 -0.003038 0.010122 -0.005354 0.000000 0.007434 0.000000
# 3 -0.000304 -0.005354 0.022707 0.000000 -0.020577 0.000000
# 4 0.000000 0.000000 0.000000 0.063373 0.000000 0.018429
# 5 -0.001608 0.007434 -0.020577 0.000000 0.061432 0.000000
# 6 0.000000 0.000000 0.000000 0.018429 0.000000 0.117365
#
#
# Mechanical properties :
#
#
# Convention : Reuss Voigt Hill
#
# Bulk Modulus (GPa) = 36.53536 46.72860 41.63198
# Shear Modulus (GPa) = 15.95158 24.49715 20.22437
#
# Velocity S-wave (km/s) = 2.85320 3.53580 3.21268
# Velocity P-wave (km/s) = 5.43138 6.36528 5.91678
#
# Compressibility (1/GPa) = 0.02737074
#
# Stress axis : x y z
#
# Youngs Moduli (GPa) = 83.79765 98.79493 44.03904
#
# Poissons Ratio (x) = 0.30015 0.01338
# Poissons Ratio (y) = 0.25459 0.23579
# Poissons Ratio (z) = 0.02545 0.52896
#
# Static dielectric constant tensor:
#      x y z
#    x 3.524810 0.000000 0.259940 
#    y 0.000000 3.336470 0.000000 
#    z 0.259940 0.000000 3.892440 
# 
# 
# High freq. dielectric constant tensor:
#      x y z
#    x 1.748910 0.000000 0.015580 
#    y 0.000000 1.727880 0.000000 
#    z 0.015580 0.000000 1.782060 
# 
# From -- ./inp_files/15055.got.cif
#   From: 2010.03.12/outbox.cif.g09.slc.cpg/sg3_8_cif.got.tgz:15055.got - 2010.03.31 09:20:49.
