data_PCOD8044999
_publ_section_title
;
Structure prediction by ZEFSAII (Michael W. Deem and Ramdas Pophale) SiO2 
 PCOD8044999
Probable space group: P 2
;
_chemical_formula_sum "Si O2"
_cell_formula_units_Z 14
_cell_length_a 11.075888
_cell_length_b 10.254319
_cell_length_c 5.406653
_cell_angle_alpha 90.000000
_cell_angle_beta 75.925659
_cell_angle_gamma 90.000000
_cell_volume 595.630752
_symmetry_space_group_name_H-M "P 2"
_symmetry_group_IT_number 3
_symmetry_cell_setting 'monoclinic'
loop_
_space_group_symop_operation_xyz
x,y,z
-x,y,-z
loop_
_atom_site_type_symbol
_atom_site_label
_atom_site_fract_x
_atom_site_fract_y
_atom_site_fract_z
Si Si1 0.290747 0.343950 0.322161
Si Si2 0.638876 0.073771 0.826916
Si Si3 0.500000 0.439046 0.500000
Si Si4 0.500000 0.949800 0.500000
Si Si5 0.638914 0.572426 0.037496
Si Si6 0.290904 0.847225 0.883380
Si Si7 0.926631 0.948315 0.285528
Si Si8 0.073587 0.252978 0.711046
O O1 0.280130 0.206020 0.180416
O O2 0.435359 0.346169 0.332477
O O3 0.199289 0.338600 0.608033
O O4 0.273661 0.468722 0.152671
O O5 0.613579 0.037015 0.553109
O O6 0.500000 0.086359 0.000000
O O7 0.727855 0.963423 0.906095
O O8 0.613292 0.525082 0.330939
O O9 0.436013 0.856204 0.732122
O O10 0.721126 0.703979 0.991797
O O11 0.500000 0.591279 0.000000
O O12 0.200015 0.865243 0.691264
O O13 0.000000 0.905353 0.500000
O O14 0.893201 0.100646 0.309587
O O15 0.000000 0.913188 0.000000
O O16 0.000000 0.290530 0.500000
O O17 0.000000 0.293102 0.000000
#
# Coordination Sequence:
#
# PCOD8044999 Si02
#       8
#     2   2   1   1   2   2   2   2
#     4  11  23  39  68 101 138 181 233 288 360 415
#     4  10  21  35  60 104 141 179 227 296 352 423
#     4  10  22  40  66  98 140 182 230 282 354 426
#     4  10  20  34  60 102 136 180 234 290 354 410
#     4  10  22  41  63 102 141 188 228 286 359 435
#     4  11  23  39  69  97 140 179 238 286 360 418
#     4  10  24  44  68 105 138 183 234 297 353 411
#     4  10  24  43  71 103 140 181 236 293 354 412
#
# _framework density 23.504494999999999
#
# number of rings (size 3 to 8) (size 9 to 14) (size 15 to 20)
#    0.000    1.714    0.000    4.286   10.000    3.429 
#    0.000    0.000    3.143    0.000    0.000    0.000 
#    0.000    0.000    0.000    0.000    0.000    0.000 
#
# Total GULP energy -173453.544092 kJ/mol
# GULP energy per Si atom -12389.538864 kJ/mol
# Density = 2.345100 g / cm^3
# Si number density = 23.504495 Si / 1000 Ang^3
#
#
#
# Elastic Constant Matrix: (Units=GPa)
#
#
# Indices 1 2 3 4 5 6 
#
# 1 82.0258 53.4910 41.1084 0.0000 7.7266 0.0000
# 2 53.4910 162.4922 67.1050 0.0000 -2.8536 0.0000
# 3 41.1084 67.1050 129.0597 0.0000 4.4423 0.0000
# 4 0.0000 0.0000 0.0000 26.4334 0.0000 -1.1372
# 5 7.7266 -2.8536 4.4423 0.0000 41.8419 0.0000
# 6 0.0000 0.0000 0.0000 -1.1372 0.0000 20.0280
#
#
#
# Elastic Compliance Matrix: (Units=1/GPa)
#
#
# Indices 1 2 3 4 5 6 
#
# 1 0.016820 -0.004359 -0.002985 0.000000 -0.003086 0.000000
# 2 -0.004359 0.009006 -0.003355 0.000000 0.001775 0.000000
# 3 -0.002985 -0.003355 0.010471 0.000000 -0.000789 0.000000
# 4 0.000000 0.000000 0.000000 0.037924 0.000000 0.002153
# 5 -0.003086 0.001775 -0.000789 0.000000 0.024674 0.000000
# 6 0.000000 0.000000 0.000000 0.002153 0.000000 0.050052
#
#
# Mechanical properties :
#
#
# Convention : Reuss Voigt Hill
#
# Bulk Modulus (GPa) = 67.11885 77.44294 72.28090
# Shear Modulus (GPa) = 28.52055 31.78553 30.15304
#
# Velocity S-wave (km/s) = 3.48718 3.68138 3.58559
# Velocity P-wave (km/s) = 6.69564 7.14771 6.92536
#
# Compressibility (1/GPa) = 0.01489894
#
# Stress axis : x y z
#
# Youngs Moduli (GPa) = 59.45161 111.03953 95.50151
#
# Poissons Ratio (x) = 0.48397 0.28509
# Poissons Ratio (y) = 0.25912 0.32045
# Poissons Ratio (z) = 0.17748 0.37258
#
# Static dielectric constant tensor:
#      x y z
#    x 4.173960 0.000000 0.013850 
#    y 0.000000 3.998740 0.000000 
#    z 0.013850 0.000000 4.598380 
# 
# 
# High freq. dielectric constant tensor:
#      x y z
#    x 1.918180 0.000000 0.001300 
#    y 0.000000 1.903420 0.000000 
#    z 0.001300 0.000000 1.937780 
# 
# From -- ./inp_files/2212.got.cif
#   From: 2010.03.12/outbox.cif.g09.slc.cpg/sg3_2_cif.got.tgz:2212.got - 2010.03.31 09:20:49.
