data_PCOD8044596
_publ_section_title
;
Structure prediction by ZEFSAII (Michael W. Deem and Ramdas Pophale) SiO2 
 PCOD8044596
Probable space group: P -1
;
_chemical_formula_sum "Si O2"
_cell_formula_units_Z 14
_cell_length_a 8.999068
_cell_length_b 8.394442
_cell_length_c 26.274846
_cell_angle_alpha 151.064038
_cell_angle_beta 136.732816
_cell_angle_gamma 50.777205
_cell_volume 658.144171
_symmetry_space_group_name_H-M "P -1"
_symmetry_group_IT_number 2
_symmetry_cell_setting 'triclinic'
loop_
_space_group_symop_operation_xyz
x,y,z
-x,-y,-z
loop_
_atom_site_type_symbol
_atom_site_label
_atom_site_fract_x
_atom_site_fract_y
_atom_site_fract_z
Si Si1 0.321670 0.877081 0.960766
Si Si2 0.518333 0.843455 0.190790
Si Si3 0.911017 0.038280 0.404753
Si Si4 0.700337 0.242041 0.627677
Si Si5 0.452032 0.274997 0.197511
Si Si6 0.131074 0.152933 0.217937
Si Si7 0.921438 0.492171 0.342204
O O1 0.389467 0.516568 0.894815
O O2 0.082182 0.864084 0.874704
O O3 0.500000 0.000000 0.000000
O O4 0.307539 0.114687 0.072279
O O5 0.677391 0.061286 0.327290
O O6 0.498609 0.004048 0.175763
O O7 0.281433 0.833894 0.157175
O O8 0.967486 0.381776 0.542966
O O9 0.920886 0.754755 0.369977
O O10 0.082479 0.971421 0.383332
O O11 0.675117 0.409402 0.723812
O O12 0.712453 0.538424 0.672627
O O13 0.500000 0.000000 0.500000
O O14 0.676870 0.390285 0.261910
O O15 0.060043 0.186702 0.268926
#
# Coordination Sequence:
#
# PCOD8044596 Si02
#       7
#     2   2   2   2   2   2   2
#     4  12  23  46  69  88 129 175 213 265 320 375
#     4  11  24  42  63  96 131 163 215 270 315 376
#     4  10  20  39  67  89 134 172 207 263 318 380
#     4  10  19  38  63  94 128 166 207 254 323 377
#     4  11  23  38  65  98 127 165 219 264 316 375
#     4  10  23  42  67  94 132 166 216 261 314 384
#     4  10  19  40  65  93 128 173 211 256 321 382
#
# _framework density 21.271934000000002
#
# number of rings (size 3 to 8) (size 9 to 14) (size 15 to 20)
#    0.000    1.429    5.714    0.429    0.000    4.000 
#    2.571    1.429    0.000    0.000    0.000    0.000 
#    0.000    0.000    0.000    0.000    0.000    0.000 
#
# Total GULP energy -173553.775694 kJ/mol
# GULP energy per Si atom -12396.698264 kJ/mol
# Density = 2.122352 g / cm^3
# Si number density = 21.271934 Si / 1000 Ang^3
#
#
#
# Elastic Constant Matrix: (Units=GPa)
#
#
# Indices 1 2 3 4 5 6 
#
# 1 148.0013 34.1328 70.2215 -4.7005 -18.6634 -36.6272
# 2 34.1328 59.1035 43.0483 -15.1373 -6.8792 -22.6459
# 3 70.2215 43.0483 155.8207 -7.2482 -25.3303 -13.4163
# 4 -4.7005 -15.1373 -7.2482 16.2153 -1.4328 -0.6091
# 5 -18.6634 -6.8792 -25.3303 -1.4328 48.5161 5.8683
# 6 -36.6272 -22.6459 -13.4163 -0.6091 5.8683 33.3045
#
#
#
# Elastic Compliance Matrix: (Units=1/GPa)
#
#
# Indices 1 2 3 4 5 6 
#
# 1 0.011744 0.002727 -0.004552 0.004495 0.001109 0.012822
# 2 0.002727 0.042446 -0.008684 0.037635 0.000134 0.029027
# 3 -0.004552 -0.008684 0.010551 -0.004695 0.003274 -0.007323
# 4 0.004495 0.037635 -0.004695 0.097469 0.003896 0.029739
# 5 0.001109 0.000134 0.003274 0.003896 0.023046 -0.001360
# 6 0.012822 0.029027 -0.007323 0.029739 -0.001360 0.061699
#
#
# Mechanical properties :
#
#
# Convention : Reuss Voigt Hill
#
# Bulk Modulus (GPa) = 22.87126 73.08119 47.97622
# Shear Modulus (GPa) = 17.69617 33.97537 25.83577
#
# Velocity S-wave (km/s) = 2.88740 4.00082 3.48882
# Velocity P-wave (km/s) = 4.67881 7.46809 6.23152
#
# Compressibility (1/GPa) = 0.04372300
#
# Stress axis : x y z
#
# Youngs Moduli (GPa) = 85.15279 23.55927 94.77467
#
# Poissons Ratio (x) = -0.06424 0.43144
# Poissons Ratio (y) = -0.23220 0.82299
# Poissons Ratio (z) = 0.38764 0.20458
#
# Static dielectric constant tensor:
#      x y z
#    x 4.376150 -0.274200 -0.220690 
#    y -0.274200 3.563770 0.101220 
#    z -0.220690 0.101220 4.192070 
# 
# 
# High freq. dielectric constant tensor:
#      x y z
#    x 1.855310 -0.015640 -0.004290 
#    y -0.015640 1.799680 0.000870 
#    z -0.004290 0.000870 1.845410 
# 
# From -- ./inp_files/186352.got.cif
#   From: 2010.06.25/outbox.cif.g09.slc.cpg/sg2_94_cif.got.tgz:186352.got - 2010.06.27 13:26:56.
