data_PCOD8044570
_publ_section_title
;
Structure prediction by ZEFSAII (Michael W. Deem and Ramdas Pophale) SiO2 
 PCOD8044570
Probable space group: P -1
;
_chemical_formula_sum "Si O2"
_cell_formula_units_Z 14
_cell_length_a 14.195531
_cell_length_b 9.787357
_cell_length_c 7.793841
_cell_angle_alpha 74.848959
_cell_angle_beta 72.290511
_cell_angle_gamma 127.864402
_cell_volume 654.039490
_symmetry_space_group_name_H-M "P -1"
_symmetry_group_IT_number 2
_symmetry_cell_setting 'triclinic'
loop_
_space_group_symop_operation_xyz
x,y,z
-x,-y,-z
loop_
_atom_site_type_symbol
_atom_site_label
_atom_site_fract_x
_atom_site_fract_y
_atom_site_fract_z
Si Si1 0.243866 0.903868 0.369212
Si Si2 0.750463 0.563972 0.962107
Si Si3 0.068984 0.814914 0.794606
Si Si4 0.433050 0.407933 0.751562
Si Si5 0.459246 0.915047 0.859905
Si Si6 0.733057 0.771091 0.641308
Si Si7 0.250570 0.930833 0.973757
O O1 0.107704 0.749800 0.634471
O O2 0.379166 0.952079 0.355635
O O3 0.303629 0.131171 0.252948
O O4 0.194552 0.809558 0.231497
O O5 0.813852 0.738180 0.722172
O O6 0.891998 0.649305 0.954090
O O7 0.651835 0.540649 0.163464
O O8 0.654763 0.338223 0.000864
O O9 0.114348 0.795890 0.958214
O O10 0.160654 0.062454 0.630822
O O11 0.500000 0.500000 0.500000
O O12 0.574960 0.531654 0.754510
O O13 0.319126 0.156513 0.897284
O O14 0.377155 0.963922 0.807751
O O15 0.500000 0.000000 0.000000
#
# Coordination Sequence:
#
# PCOD8044570 Si02
#       7
#     2   2   2   2   2   2   2
#     4   9  19  41  62  89 123 161 204 254 310 350
#     4  12  22  40  66  89 126 165 204 253 318 367
#     4  10  23  39  61  96 127 164 200 256 315 371
#     4  12  21  39  62  95 118 159 213 260 297 366
#     4  10  22  40  67  92 117 170 209 255 309 364
#     4  10  19  38  63  88 121 158 204 257 304 348
#     4  11  22  40  64  90 133 156 210 259 302 368
#
# _framework density 21.405436000000002
#
# number of rings (size 3 to 8) (size 9 to 14) (size 15 to 20)
#    0.857    0.571    4.286    2.571    0.000    1.714 
#    2.571    2.857    0.000    0.000    0.000    0.000 
#    0.000    0.000    0.000    0.000    0.000    0.000 
#
# Total GULP energy -173456.176310 kJ/mol
# GULP energy per Si atom -12389.726879 kJ/mol
# Density = 2.135672 g / cm^3
# Si number density = 21.405436 Si / 1000 Ang^3
#
#
#
# Elastic Constant Matrix: (Units=GPa)
#
#
# Indices 1 2 3 4 5 6 
#
# 1 136.0707 59.8518 15.3318 7.2882 -12.4231 19.8123
# 2 59.8518 87.4123 32.7445 12.5816 -7.6866 -5.1774
# 3 15.3318 32.7445 52.7693 12.4125 -4.5492 11.9428
# 4 7.2882 12.5816 12.4125 16.9952 10.9615 1.8569
# 5 -12.4231 -7.6866 -4.5492 10.9615 25.7814 3.7630
# 6 19.8123 -5.1774 11.9428 1.8569 3.7630 33.3420
#
#
#
# Elastic Compliance Matrix: (Units=1/GPa)
#
#
# Indices 1 2 3 4 5 6 
#
# 1 0.016345 -0.013535 0.011510 -0.012303 0.013552 -0.016781
# 2 -0.013535 0.028685 -0.017853 -0.002705 -0.002795 0.019358
# 3 0.011510 -0.017853 0.044684 -0.040206 0.029094 -0.026661
# 4 -0.012303 -0.002705 -0.040206 0.143391 -0.078023 0.022112
# 5 0.013552 -0.002795 0.029094 -0.078023 0.086339 -0.024307
# 6 -0.016781 0.019358 -0.026661 0.022112 -0.024307 0.054031
#
#
# Mechanical properties :
#
#
# Convention : Reuss Voigt Hill
#
# Bulk Modulus (GPa) = 20.01656 54.67872 37.34764
# Shear Modulus (GPa) = 11.63102 26.44532 19.03817
#
# Velocity S-wave (km/s) = 2.33355 3.51871 2.98553
# Velocity P-wave (km/s) = 4.07825 6.48908 5.41942
#
# Compressibility (1/GPa) = 0.04995863
#
# Stress axis : x y z
#
# Youngs Moduli (GPa) = 61.17982 34.86134 22.37929
#
# Poissons Ratio (x) = 0.47184 -0.25758
# Poissons Ratio (y) = 0.82805 0.39954
# Poissons Ratio (z) = -0.70417 0.62238
#
# Static dielectric constant tensor:
#      x y z
#    x 4.261960 -0.018360 -0.020460 
#    y -0.018360 3.716480 0.480210 
#    z -0.020460 0.480210 3.452490 
# 
# 
# High freq. dielectric constant tensor:
#      x y z
#    x 1.845740 0.002700 -0.003650 
#    y 0.002700 1.836670 0.013940 
#    z -0.003650 0.013940 1.810390 
# 
# From -- ./inp_files/295201.got.cif
#   From: 2010.06.25/outbox.cif.g09.slc.cpg/sg2_148_cif.got.tgz:295201.got - 2010.06.27 13:26:56.
