data_PCOD8044725
_publ_section_title
;
Structure prediction by ZEFSAII (Michael W. Deem and Ramdas Pophale) SiO2 
 PCOD8044725
Probable space group: P -1
;
_chemical_formula_sum "Si O2"
_cell_formula_units_Z 14
_cell_length_a 15.878408
_cell_length_b 11.141145
_cell_length_c 10.717051
_cell_angle_alpha 114.416175
_cell_angle_beta 42.880069
_cell_angle_gamma 147.465429
_cell_volume 575.484933
_symmetry_space_group_name_H-M "P -1"
_symmetry_group_IT_number 2
_symmetry_cell_setting 'triclinic'
loop_
_space_group_symop_operation_xyz
x,y,z
-x,-y,-z
loop_
_atom_site_type_symbol
_atom_site_label
_atom_site_fract_x
_atom_site_fract_y
_atom_site_fract_z
Si Si1 0.437507 0.228398 0.170813
Si Si2 0.738079 0.772254 0.115763
Si Si3 0.214791 0.996925 0.049191
Si Si4 0.323675 0.586980 0.509914
Si Si5 0.968608 0.669418 0.520019
Si Si6 0.127394 0.536607 0.200958
Si Si7 0.203303 0.748168 0.791714
O O1 0.590133 0.498725 0.158426
O O2 0.399651 0.186274 0.045404
O O3 0.167181 0.974605 0.424962
O O4 0.593274 0.243750 0.054491
O O5 0.552824 0.706526 0.355442
O O6 0.800110 0.878758 0.954339
O O7 0.000000 0.000000 0.000000
O O8 0.934446 0.694213 0.262793
O O9 0.335232 0.994797 0.824852
O O10 0.391772 0.802317 0.569168
O O11 0.276081 0.527327 0.385150
O O12 0.110179 0.673968 0.309252
O O13 0.910676 0.593990 0.694498
O O14 0.930853 0.316887 0.212711
O O15 0.000000 0.500000 0.000000
#
# Coordination Sequence:
#
# PCOD8044725 Si02
#       7
#     2   2   2   2   2   2   2
#     4  11  23  40  65  94 131 168 210 267 316 380
#     4  12  26  42  61  91 130 177 223 262 315 380
#     4  10  22  42  67  95 126 166 213 264 329 386
#     4   9  21  42  66  93 128 167 214 270 322 382
#     4   9  20  37  66 100 125 164 214 264 327 377
#     4  10  19  38  65  98 132 161 206 264 322 387
#     4   9  19  40  67  95 128 164 205 261 325 382
#
# _framework density 24.327307999999999
#
# number of rings (size 3 to 8) (size 9 to 14) (size 15 to 20)
#    0.000    2.000    0.000    3.429    0.000    4.571 
#    0.000   10.000    0.000    0.000    0.000    0.000 
#    0.000    0.000    0.000    0.000    0.000    0.000 
#
# Total GULP energy -173599.648504 kJ/mol
# GULP energy per Si atom -12399.974893 kJ/mol
# Density = 2.427194 g / cm^3
# Si number density = 24.327308 Si / 1000 Ang^3
#
#
#
# Elastic Constant Matrix: (Units=GPa)
#
#
# Indices 1 2 3 4 5 6 
#
# 1 118.2537 42.0816 38.5355 -5.8216 -21.2922 13.2560
# 2 42.0816 146.8132 31.7026 -21.0005 -12.9553 10.6718
# 3 38.5355 31.7026 77.7209 7.8906 -21.3205 18.6882
# 4 -5.8216 -21.0005 7.8906 26.1464 -0.6141 0.9774
# 5 -21.2922 -12.9553 -21.3205 -0.6141 52.8758 -4.3918
# 6 13.2560 10.6718 18.6882 0.9774 -4.3918 30.1695
#
#
#
# Elastic Compliance Matrix: (Units=1/GPa)
#
#
# Indices 1 2 3 4 5 6 
#
# 1 0.011074 -0.001619 -0.004087 0.002510 0.002319 -0.001505
# 2 -0.001619 0.009296 -0.003631 0.008228 0.000210 -0.000564
# 3 -0.004087 -0.003631 0.020849 -0.009672 0.005029 -0.008789
# 4 0.002510 0.008228 -0.009672 0.048312 -0.000281 0.000372
# 5 0.002319 0.000210 0.005029 -0.000281 0.021837 -0.001020
# 6 -0.001505 -0.000564 -0.008789 0.000372 -0.001020 0.039290
#
#
# Mechanical properties :
#
#
# Convention : Reuss Voigt Hill
#
# Bulk Modulus (GPa) = 44.35655 63.04746 53.70201
# Shear Modulus (GPa) = 28.27279 37.20289 32.73784
#
# Velocity S-wave (km/s) = 3.41278 3.91482 3.67239
# Velocity P-wave (km/s) = 5.81397 6.81227 6.33282
#
# Compressibility (1/GPa) = 0.02254459
#
# Stress axis : x y z
#
# Youngs Moduli (GPa) = 90.30056 107.57382 47.96344
#
# Poissons Ratio (x) = 0.17411 0.19604
# Poissons Ratio (y) = 0.14616 0.17418
# Poissons Ratio (z) = 0.36909 0.39065
#
# Static dielectric constant tensor:
#      x y z
#    x 4.409920 -0.066470 0.067280 
#    y -0.066470 4.386570 -0.026300 
#    z 0.067280 -0.026300 4.508560 
# 
# 
# High freq. dielectric constant tensor:
#      x y z
#    x 1.964230 -0.004710 0.003280 
#    y -0.004710 1.970190 -0.021010 
#    z 0.003280 -0.021010 1.983540 
# 
# From -- ./inp_files/464731.got.cif
#   From: 2010.06.25/outbox.cif.g09.slc.cpg/sg2_233_cif.got.tgz:464731.got - 2010.06.27 13:26:56.
