data_PCOD8044611
_publ_section_title
;
Structure prediction by ZEFSAII (Michael W. Deem and Ramdas Pophale) SiO2 
 PCOD8044611
Probable space group: P -1
;
_chemical_formula_sum "Si O2"
_cell_formula_units_Z 16
_cell_length_a 8.350837
_cell_length_b 8.949841
_cell_length_c 13.458215
_cell_angle_alpha 63.301469
_cell_angle_beta 104.455545
_cell_angle_gamma 128.147107
_cell_volume 706.133064
_symmetry_space_group_name_H-M "P -1"
_symmetry_group_IT_number 2
_symmetry_cell_setting 'triclinic'
loop_
_space_group_symop_operation_xyz
x,y,z
-x,-y,-z
loop_
_atom_site_type_symbol
_atom_site_label
_atom_site_fract_x
_atom_site_fract_y
_atom_site_fract_z
Si Si1 0.333163 0.769928 0.066661
Si Si2 0.790340 0.076011 0.496978
Si Si3 0.497158 0.254298 0.702982
Si Si4 0.462091 0.036106 0.325695
Si Si5 0.793275 0.709378 0.586401
Si Si6 0.287182 0.637183 0.883621
Si Si7 0.025852 0.193897 0.997310
Si Si8 0.940225 0.151104 0.222640
O O1 0.404006 0.693417 0.188545
O O2 0.140879 0.766508 0.068605
O O3 0.313196 0.644067 0.004129
O O4 0.500000 0.000000 0.000000
O O5 0.733129 0.031133 0.618121
O O6 0.740847 0.868119 0.498440
O O7 0.657720 0.134716 0.399894
O O8 0.030138 0.260521 0.467657
O O9 0.582230 0.482500 0.608736
O O10 0.595908 0.168623 0.676888
O O11 0.252440 0.088142 0.718544
O O12 0.511921 0.206056 0.198611
O O13 0.884037 0.775894 0.692066
O O14 0.128086 0.695507 0.821603
O O15 0.221757 0.407313 0.918446
O O16 0.032575 0.168774 0.123864
O O17 0.000000 0.000000 0.000000
#
# Coordination Sequence:
#
# PCOD8044611 Si02
#       8
#     2   2   2   2   2   2   2   2
#     4  11  19  38  63  87 115 159 200 229 293 379
#     4  10  23  41  60  86 124 152 205 253 300 346
#     4  11  21  37  69  90 116 157 206 239 299 365
#     4  10  21  41  61  87 120 160 196 252 300 349
#     4  11  22  40  64  90 115 159 202 251 301 353
#     4  10  19  38  64  83 119 164 195 237 297 362
#     4  11  23  36  58  92 126 151 196 249 296 354
#     4  10  20  41  60  90 124 158 196 247 297 358
#
# _framework density 22.658618000000001
#
# number of rings (size 3 to 8) (size 9 to 14) (size 15 to 20)
#    0.000    1.500    6.250    3.000    0.000    3.000 
#    0.000    0.625    0.000    0.000    0.000    0.000 
#    0.000    0.000    0.000    0.000    0.000    0.000 
#
# Total GULP energy -198254.999699 kJ/mol
# GULP energy per Si atom -12390.937481 kJ/mol
# Density = 2.260705 g / cm^3
# Si number density = 22.658618 Si / 1000 Ang^3
#
#
#
# Elastic Constant Matrix: (Units=GPa)
#
#
# Indices 1 2 3 4 5 6 
#
# 1 38.7791 17.5992 31.4799 -3.0802 -21.5724 1.5344
# 2 17.5992 133.6341 33.4332 -34.8747 -7.6566 -1.6322
# 3 31.4799 33.4332 88.5848 -1.9112 -27.4172 -5.3390
# 4 -3.0802 -34.8747 -1.9112 37.6468 1.5580 -5.2684
# 5 -21.5724 -7.6566 -27.4172 1.5580 31.8433 4.0379
# 6 1.5344 -1.6322 -5.3390 -5.2684 4.0379 18.7834
#
#
#
# Elastic Compliance Matrix: (Units=1/GPa)
#
#
# Indices 1 2 3 4 5 6 
#
# 1 0.050192 -0.003740 -0.008840 -0.002844 0.027359 -0.013617
# 2 -0.003740 0.011632 -0.003845 0.011033 -0.004120 0.004204
# 3 -0.008840 -0.003845 0.018786 -0.003307 0.009062 0.002852
# 4 -0.002844 0.011033 -0.003307 0.038318 -0.005542 0.012190
# 5 0.027359 -0.004120 0.009062 -0.005542 0.058824 -0.014217
# 6 -0.013617 0.004204 0.002852 0.012190 -0.014217 0.062002
#
#
# Mechanical properties :
#
#
# Convention : Reuss Voigt Hill
#
# Bulk Modulus (GPa) = 20.93696 47.33584 34.13640
# Shear Modulus (GPa) = 17.32954 29.55376 23.44165
#
# Velocity S-wave (km/s) = 2.76852 3.61544 3.21994
# Velocity P-wave (km/s) = 4.41360 6.19393 5.37794
#
# Compressibility (1/GPa) = 0.04776243
#
# Stress axis : x y z
#
# Youngs Moduli (GPa) = 19.92341 85.96786 53.22996
#
# Poissons Ratio (x) = 0.32149 0.47053
# Poissons Ratio (y) = 0.07451 0.20467
# Poissons Ratio (z) = 0.17611 0.33054
#
# Static dielectric constant tensor:
#      x y z
#    x 3.799540 0.082760 -0.229920 
#    y 0.082760 4.029310 -0.167070 
#    z -0.229920 -0.167070 4.290200 
# 
# 
# High freq. dielectric constant tensor:
#      x y z
#    x 1.861370 0.007240 -0.010240 
#    y 0.007240 1.884880 -0.009570 
#    z -0.010240 -0.009570 1.914700 
# 
# From -- ./inp_files/297507.got.cif
#   From: 2010.06.25/outbox.cif.g09.slc.cpg/sg2_149_cif.got.tgz:297507.got - 2010.06.27 13:26:56.
