data_PCOD8044765
_publ_section_title
;
Structure prediction by ZEFSAII (Michael W. Deem and Ramdas Pophale) SiO2 
 PCOD8044765
Probable space group: P -1
;
_chemical_formula_sum "Si O2"
_cell_formula_units_Z 16
_cell_length_a 11.541665
_cell_length_b 16.302496
_cell_length_c 21.944809
_cell_angle_alpha 153.224388
_cell_angle_beta 150.541630
_cell_angle_gamma 25.975243
_cell_volume 764.616006
_symmetry_space_group_name_H-M "P -1"
_symmetry_group_IT_number 2
_symmetry_cell_setting 'triclinic'
loop_
_space_group_symop_operation_xyz
x,y,z
-x,-y,-z
loop_
_atom_site_type_symbol
_atom_site_label
_atom_site_fract_x
_atom_site_fract_y
_atom_site_fract_z
Si Si1 0.331411 0.386862 0.073535
Si Si2 0.085267 0.465668 0.756210
Si Si3 0.740533 0.316325 0.446454
Si Si4 0.163293 0.224173 0.347357
Si Si5 0.493676 0.062523 0.195296
Si Si6 0.490659 0.153049 0.823215
Si Si7 0.698892 0.427293 0.360961
Si Si8 0.691050 0.387659 0.139828
O O1 0.435210 0.434211 0.214961
O O2 0.412697 0.488085 0.121763
O O3 0.000000 0.500000 0.000000
O O4 0.490256 0.125943 0.963676
O O5 0.211511 0.383838 0.827853
O O6 0.324057 0.449799 0.810595
O O7 0.022376 0.292789 0.584220
O O8 0.815601 0.714559 0.802683
O O9 0.500000 0.500000 0.500000
O O10 0.735419 0.099986 0.307797
O O11 0.691211 0.387262 0.401274
O O12 0.322003 0.348058 0.511950
O O13 0.991328 0.237379 0.337493
O O14 0.961096 0.318457 0.258415
O O15 0.392950 0.974165 0.271723
O O16 0.576578 0.980624 0.248816
O O17 0.719825 0.185315 0.982160
#
# Coordination Sequence:
#
# PCOD8044765 Si02
#       8
#     2   2   2   2   2   2   2   2
#     4  10  24  41  64  94 130 175 210 255 322 384
#     4  11  22  39  66 100 123 161 223 263 319 369
#     4  10  21  40  62  90 127 168 215 260 309 384
#     4  10  19  38  66  94 128 168 208 262 327 370
#     4  10  23  42  65  91 133 171 206 267 315 379
#     4  11  22  37  65 100 125 163 212 266 323 374
#     4  10  21  38  65  90 127 176 210 258 320 378
#     4  10  20  40  66  92 134 160 210 272 309 376
#
# _framework density 20.925536000000001
#
# number of rings (size 3 to 8) (size 9 to 14) (size 15 to 20)
#    0.000    1.750    2.500    1.500    3.500    6.000 
#    2.250    0.625    0.000    0.000    0.000    0.000 
#    0.000    0.000    0.000    0.000    0.000    0.000 
#
# Total GULP energy -198296.920133 kJ/mol
# GULP energy per Si atom -12393.557508 kJ/mol
# Density = 2.087791 g / cm^3
# Si number density = 20.925536 Si / 1000 Ang^3
#
#
#
# Elastic Constant Matrix: (Units=GPa)
#
#
# Indices 1 2 3 4 5 6 
#
# 1 116.3530 40.4545 46.4650 -2.3697 3.1620 9.1824
# 2 40.4545 94.7313 29.9635 -8.4165 0.1611 8.8078
# 3 46.4650 29.9635 139.7966 -9.3585 2.1492 -4.4369
# 4 -2.3697 -8.4165 -9.3585 20.8086 1.5912 -0.9816
# 5 3.1620 0.1611 2.1492 1.5912 44.3327 2.0951
# 6 9.1824 8.8078 -4.4369 -0.9816 2.0951 25.7781
#
#
#
# Elastic Compliance Matrix: (Units=1/GPa)
#
#
# Indices 1 2 3 4 5 6 
#
# 1 0.011408 -0.003695 -0.003219 -0.001771 -0.000420 -0.003388
# 2 -0.003695 0.013268 -0.001451 0.004113 0.000296 -0.003334
# 3 -0.003219 -0.001451 0.008863 0.003225 -0.000468 0.003329
# 4 -0.001771 0.004113 0.003225 0.051210 -0.001972 0.001891
# 5 -0.000420 0.000296 -0.000468 -0.001972 0.022772 -0.001958
# 6 -0.003388 -0.003334 0.003329 0.001891 -0.001958 0.041943
#
#
# Mechanical properties :
#
#
# Convention : Reuss Voigt Hill
#
# Bulk Modulus (GPa) = 59.49304 64.96078 62.22691
# Shear Modulus (GPa) = 29.10439 33.78373 31.44406
#
# Velocity S-wave (km/s) = 3.73346 4.02241 3.88063
# Velocity P-wave (km/s) = 6.86131 7.25839 7.06264
#
# Compressibility (1/GPa) = 0.01680869
#
# Stress axis : x y z
#
# Youngs Moduli (GPa) = 87.66117 75.37009 112.82897
#
# Poissons Ratio (x) = 0.27848 0.36323
# Poissons Ratio (y) = 0.32390 0.16368
# Poissons Ratio (z) = 0.28221 0.10934
#
# Static dielectric constant tensor:
#      x y z
#    x 4.085000 0.090040 0.195460 
#    y 0.090040 3.408050 0.097350 
#    z 0.195460 0.097350 4.350370 
# 
# 
# High freq. dielectric constant tensor:
#      x y z
#    x 1.826970 0.009410 0.004580 
#    y 0.009410 1.776910 -0.000240 
#    z 0.004580 -0.000240 1.841490 
# 
# From -- ./inp_files/461991.got.cif
#   From: 2010.06.25/outbox.cif.g09.slc.cpg/sg2_231_cif.got.tgz:461991.got - 2010.06.27 13:26:56.
