data_PCOD8044938
_publ_section_title
;
Structure prediction by ZEFSAII (Michael W. Deem and Ramdas Pophale) SiO2 
 PCOD8044938
Probable space group: P 2
;
_chemical_formula_sum "Si O2"
_cell_formula_units_Z 15
_cell_length_a 10.610546
_cell_length_b 10.808492
_cell_length_c 10.303764
_cell_angle_alpha 90.000000
_cell_angle_beta 41.215475
_cell_angle_gamma 90.000000
_cell_volume 778.598222
_symmetry_space_group_name_H-M "P 2"
_symmetry_group_IT_number 3
_symmetry_cell_setting 'monoclinic'
loop_
_space_group_symop_operation_xyz
x,y,z
-x,y,-z
loop_
_atom_site_type_symbol
_atom_site_label
_atom_site_fract_x
_atom_site_fract_y
_atom_site_fract_z
Si Si1 0.832511 0.256660 0.040247
Si Si2 0.872515 0.029121 0.480352
Si Si3 0.531100 0.417777 0.616706
Si Si4 0.502018 0.889811 0.847612
Si Si5 0.095433 0.298215 0.612185
Si Si6 0.601649 0.608081 0.791814
Si Si7 0.000000 0.514097 0.500000
Si Si8 0.111921 0.981924 0.036094
O O1 0.805574 0.110674 0.085495
O O2 0.903809 0.269440 0.838462
O O3 0.638713 0.328846 0.209022
O O4 0.000000 0.312951 0.000000
O O5 0.856132 0.178013 0.512745
O O6 0.000000 0.975292 0.500000
O O7 0.964594 0.997157 0.269799
O O8 0.661349 0.970244 0.649847
O O9 0.500000 0.480958 0.500000
O O10 0.713849 0.328439 0.454163
O O11 0.551933 0.522367 0.708545
O O12 0.547159 0.746150 0.797242
O O13 0.500000 0.930930 0.000000
O O14 0.294584 0.904739 0.942352
O O15 0.048305 0.425089 0.579578
O O16 0.823844 0.605598 0.658237
O O17 0.500000 0.558425 0.000000
O O18 0.000000 0.917953 0.000000
#
# Coordination Sequence:
#
# PCOD8044938 Si02
#       8
#     2   2   2   2   2   2   1   2
#     4  10  19  35  58  84 122 152 183 236 305 360
#     4  11  21  38  65  93 120 157 203 253 307 366
#     4  11  21  38  60  87 117 155 201 241 296 359
#     4  11  23  41  64  89 121 164 213 253 297 359
#     4  10  20  35  58  89 120 145 188 246 301 358
#     4  10  24  41  61  82 119 158 204 248 294 347
#     4  10  20  36  58  86 112 150 190 242 298 346
#     4  10  23  41  61  92 125 158 200 251 312 368
#
# _framework density 19.265394000000001
#
# number of rings (size 3 to 8) (size 9 to 14) (size 15 to 20)
#    0.000    1.600    3.333    1.600    0.933    0.533 
#    2.400    1.333    0.000    0.000    0.000    0.000 
#    0.000    0.000    0.000    0.000    0.000    0.000 
#
# Total GULP energy -185924.579091 kJ/mol
# GULP energy per Si atom -12394.971939 kJ/mol
# Density = 1.922154 g / cm^3
# Si number density = 19.265394 Si / 1000 Ang^3
#
#
#
# Elastic Constant Matrix: (Units=GPa)
#
#
# Indices 1 2 3 4 5 6 
#
# 1 138.8135 43.5082 66.8041 0.0000 -11.5712 0.0000
# 2 43.5082 83.8559 49.0269 0.0000 -11.1211 0.0000
# 3 66.8041 49.0269 111.4561 0.0000 -3.7749 0.0000
# 4 0.0000 0.0000 0.0000 53.8446 0.0000 6.8939
# 5 -11.5712 -11.1211 -3.7749 0.0000 35.7937 0.0000
# 6 0.0000 0.0000 0.0000 6.8939 0.0000 31.3202
#
#
#
# Elastic Compliance Matrix: (Units=1/GPa)
#
#
# Indices 1 2 3 4 5 6 
#
# 1 0.010630 -0.002072 -0.005385 0.000000 0.002225 0.000000
# 2 -0.002072 0.017132 -0.006158 0.000000 0.004003 0.000000
# 3 -0.005385 -0.006158 0.014838 0.000000 -0.002089 0.000000
# 4 0.000000 0.000000 0.000000 0.019111 0.000000 -0.004206
# 5 0.002225 0.004003 -0.002089 0.000000 0.029681 0.000000
# 6 0.000000 0.000000 0.000000 -0.004206 0.000000 0.032854
#
#
# Mechanical properties :
#
#
# Convention : Reuss Voigt Hill
#
# Bulk Modulus (GPa) = 65.06392 72.53376 68.79884
# Shear Modulus (GPa) = 31.92881 35.84410 33.88646
#
# Velocity S-wave (km/s) = 4.07543 4.31808 4.19851
# Velocity P-wave (km/s) = 7.48273 7.91155 7.70012
#
# Compressibility (1/GPa) = 0.01536950
#
# Stress axis : x y z
#
# Youngs Moduli (GPa) = 94.07149 58.37101 67.39604
#
# Poissons Ratio (x) = 0.12096 0.36290
# Poissons Ratio (y) = 0.19494 0.41504
# Poissons Ratio (z) = 0.50654 0.35946
#
# Static dielectric constant tensor:
#      x y z
#    x 2.579670 0.000000 0.317790 
#    y 0.000000 3.404370 0.000000 
#    z 0.317790 0.000000 3.492340 
# 
# 
# High freq. dielectric constant tensor:
#      x y z
#    x 1.761140 0.000000 -0.004680 
#    y 0.000000 1.733030 0.000000 
#    z -0.004680 0.000000 1.757710 
# 
# From -- ./inp_files/3310.got.cif
#   From: 2010.03.12/outbox.cif.g09.slc.cpg/sg3_2_cif.got.tgz:3310.got - 2010.03.31 09:20:49.
