data_PCOD8044249
_publ_section_title
;
Structure prediction by ZEFSAII (Michael W. Deem and Ramdas Pophale) SiO2 
 PCOD8044249
Probable space group: P -1
;
_chemical_formula_sum "Si O2"
_cell_formula_units_Z 16
_cell_length_a 9.062409
_cell_length_b 21.877895
_cell_length_c 5.128246
_cell_angle_alpha 76.971723
_cell_angle_beta 56.533400
_cell_angle_gamma 53.414880
_cell_volume 672.933241
_symmetry_space_group_name_H-M "P -1"
_symmetry_group_IT_number 2
_symmetry_cell_setting 'triclinic'
loop_
_space_group_symop_operation_xyz
x,y,z
-x,-y,-z
loop_
_atom_site_type_symbol
_atom_site_label
_atom_site_fract_x
_atom_site_fract_y
_atom_site_fract_z
Si Si1 0.616180 0.433134 0.250502
Si Si2 0.284238 0.722106 0.582662
Si Si3 0.164507 0.524166 0.374242
Si Si4 0.632071 0.736033 0.404579
Si Si5 0.962937 0.211326 0.726171
Si Si6 0.891044 0.683952 0.698108
Si Si7 0.227301 0.905371 0.649838
Si Si8 0.037638 0.070870 0.613063
O O1 0.500000 0.500000 0.500000
O O2 0.731470 0.350113 0.351111
O O3 0.413792 0.449943 0.251138
O O4 0.811191 0.432117 0.930314
O O5 0.524443 0.694378 0.444690
O O6 0.235004 0.759822 0.310322
O O7 0.118236 0.781979 0.906967
O O8 0.000000 0.500000 0.500000
O O9 0.067854 0.590388 0.630680
O O10 0.707988 0.700487 0.653626
O O11 0.470589 0.828651 0.471993
O O12 0.818768 0.713613 0.034015
O O13 0.129420 0.120645 0.569019
O O14 0.043869 0.264293 0.552709
O O15 0.073014 0.903131 0.589487
O O16 0.145016 0.911520 0.016564
O O17 0.230720 0.979627 0.514192
#
# Coordination Sequence:
#
# PCOD8044249 Si02
#       8
#     2   2   2   2   2   2   2   2
#     4  11  26  44  70  97 129 177 225 284 336 406
#     4  12  24  42  70  94 130 166 232 268 323 397
#     4  11  26  47  66  96 134 175 222 280 345 403
#     4  12  24  42  64  99 129 176 215 273 324 396
#     4  12  22  43  65  97 130 175 213 272 327 394
#     4  12  27  42  64  94 140 168 214 271 338 397
#     4  10  20  37  63  99 129 162 225 268 320 386
#     4  10  19  37  66  95 128 170 212 278 320 382
#
# _framework density 23.776503999999999
#
# number of rings (size 3 to 8) (size 9 to 14) (size 15 to 20)
#    0.000    0.750    3.750    3.750    5.250    0.500 
#    0.000    1.250    0.000    0.000    0.000    0.000 
#    0.000    0.000    0.000    0.000    0.000    0.000 
#
# Total GULP energy -198243.790883 kJ/mol
# GULP energy per Si atom -12390.236930 kJ/mol
# Density = 2.372239 g / cm^3
# Si number density = 23.776504 Si / 1000 Ang^3
#
#
#
# Elastic Constant Matrix: (Units=GPa)
#
#
# Indices 1 2 3 4 5 6 
#
# 1 51.0537 1.5613 15.1497 -5.3885 1.0297 16.7193
# 2 1.5613 128.0534 20.2483 13.1015 2.5416 21.1233
# 3 15.1497 20.2483 84.4024 8.0534 7.2948 -7.4996
# 4 -5.3885 13.1015 8.0534 35.6738 7.4468 1.7230
# 5 1.0297 2.5416 7.2948 7.4468 40.5528 -6.4488
# 6 16.7193 21.1233 -7.4996 1.7230 -6.4488 43.0629
#
#
#
# Elastic Compliance Matrix: (Units=1/GPa)
#
#
# Indices 1 2 3 4 5 6 
#
# 1 0.026609 0.002417 -0.006866 0.005913 -0.002804 -0.013369
# 2 0.002417 0.009486 -0.003003 -0.001992 -0.000727 -0.006144
# 3 -0.006866 -0.003003 0.014784 -0.003477 -0.000583 0.006765
# 4 0.005913 -0.001992 -0.003477 0.031871 -0.005902 -0.004083
# 5 -0.002804 -0.000727 -0.000583 -0.005902 0.026855 0.005601
# 6 -0.013369 -0.006144 0.006765 -0.004083 0.005601 0.033606
#
#
# Mechanical properties :
#
#
# Convention : Reuss Voigt Hill
#
# Bulk Modulus (GPa) = 27.79539 37.49202 32.64370
# Shear Modulus (GPa) = 29.39329 38.96125 34.17727
#
# Velocity S-wave (km/s) = 3.51982 4.05241 3.79547
# Velocity P-wave (km/s) = 5.31362 6.13993 5.74166
#
# Compressibility (1/GPa) = 0.03597719
#
# Stress axis : x y z
#
# Youngs Moduli (GPa) = 37.58066 105.41517 67.64087
#
# Poissons Ratio (x) = -0.25482 0.46441
# Poissons Ratio (y) = -0.09084 0.20310
# Poissons Ratio (z) = 0.25802 0.31652
#
# Static dielectric constant tensor:
#      x y z
#    x 4.764000 -0.272100 0.131310 
#    y -0.272100 5.129920 -0.006770 
#    z 0.131310 -0.006770 4.143670 
# 
# 
# High freq. dielectric constant tensor:
#      x y z
#    x 1.939810 0.009720 0.027760 
#    y 0.009720 1.964340 -0.004630 
#    z 0.027760 -0.004630 1.928470 
# 
# From -- ./inp_files/52853.got.cif
#   From: 2010.06.25/outbox.cif.g09.slc.cpg/sg2_27_cif.got.tgz:52853.got - 2010.06.27 13:26:56.
