data_PCOD8044907
_publ_section_title
;
Structure prediction by ZEFSAII (Michael W. Deem and Ramdas Pophale) SiO2 
 PCOD8044907
Probable space group: P 2
;
_chemical_formula_sum "Si O2"
_cell_formula_units_Z 16
_cell_length_a 15.012527
_cell_length_b 6.906327
_cell_length_c 24.112077
_cell_angle_alpha 90.000000
_cell_angle_beta 159.054449
_cell_angle_gamma 90.000000
_cell_volume 893.692330
_symmetry_space_group_name_H-M "P 2"
_symmetry_group_IT_number 3
_symmetry_cell_setting 'monoclinic'
loop_
_space_group_symop_operation_xyz
x,y,z
-x,y,-z
loop_
_atom_site_type_symbol
_atom_site_label
_atom_site_fract_x
_atom_site_fract_y
_atom_site_fract_z
Si Si1 0.841110 0.834870 0.627060
Si Si2 0.611142 0.573405 0.340434
Si Si3 0.957683 0.847916 0.819450
Si Si4 0.959931 0.834870 0.372940
Si Si5 0.500665 0.847916 0.819449
Si Si6 0.782948 0.161876 0.413900
Si Si7 0.589842 0.573406 0.659568
Si Si8 0.458752 0.161877 0.413900
O O1 0.979449 0.817510 0.766060
O O2 0.044041 0.813025 0.696028
O O3 0.639582 0.662913 0.508220
O O4 0.700536 0.039020 0.536926
O O5 0.885079 0.662912 0.508221
O O6 0.492347 0.656174 0.214857
O O7 0.633207 0.342329 0.351010
O O8 0.434715 0.629308 0.289810
O O9 0.847779 0.656174 0.785146
O O10 0.784948 0.029658 0.732970
O O11 0.228407 0.892628 1.000000
O O12 0.681268 0.817512 0.233938
O O13 0.089759 0.039018 0.463074
O O14 0.413961 0.029659 0.732970
O O15 0.000000 0.238932 0.500000
O O16 0.580180 0.342330 0.648992
O O17 0.500000 0.238932 0.500000
#
# Coordination Sequence:
#
# PCOD8044907 Si02
#       8
#     2   2   2   2   2   2   2   2
#     4   9  18  33  54  77  97 124 166 208 244 287
#     4  10  19  33  54  75  96 128 169 208 243 282
#     4  10  21  34  48  73 107 134 159 196 244 299
#     4   9  18  33  54  77  97 124 166 208 244 287
#     4  10  21  34  48  73 107 134 159 196 244 299
#     4   9  17  32  53  74  97 127 164 206 247 286
#     4  10  19  33  54  75  96 128 169 208 243 282
#     4   9  17  32  53  74  97 127 164 206 247 286
#
# _framework density 17.903254
#
# number of rings (size 3 to 8) (size 9 to 14) (size 15 to 20)
#    0.000    2.500    0.000    4.500    0.000    3.000 
#    0.000    0.000    0.000    0.000    0.000    7.000 
#    0.000    0.000    0.000    0.000    0.000    0.000 
#
# Total GULP energy -198416.222673 kJ/mol
# GULP energy per Si atom -12401.013917 kJ/mol
# Density = 1.786251 g / cm^3
# Si number density = 17.903254 Si / 1000 Ang^3
#
#
#
# Elastic Constant Matrix: (Units=GPa)
#
#
# Indices 1 2 3 4 5 6 
#
# 1 92.5955 26.2730 35.9327 0.0000 0.0736 0.0000
# 2 26.2730 90.0143 18.0466 0.0000 0.0259 0.0000
# 3 35.9327 18.0466 88.6981 0.0000 -0.0623 0.0000
# 4 0.0000 0.0000 0.0000 10.4991 0.0000 0.0468
# 5 0.0736 0.0259 -0.0623 0.0000 16.4484 0.0000
# 6 0.0000 0.0000 0.0000 0.0468 0.0000 25.4356
#
#
#
# Elastic Compliance Matrix: (Units=1/GPa)
#
#
# Indices 1 2 3 4 5 6 
#
# 1 0.013537 -0.002973 -0.004879 0.000000 -0.000074 0.000000
# 2 -0.002973 0.012235 -0.001285 0.000000 -0.000011 0.000000
# 3 -0.004879 -0.001285 0.013512 0.000000 0.000075 0.000000
# 4 0.000000 0.000000 0.000000 0.095247 0.000000 -0.000175
# 5 -0.000074 -0.000011 0.000075 0.000000 0.060797 0.000000
# 6 0.000000 0.000000 0.000000 -0.000175 0.000000 0.039315
#
#
# Mechanical properties :
#
#
# Convention : Reuss Voigt Hill
#
# Bulk Modulus (GPa) = 47.59667 47.97917 47.78792
# Shear Modulus (GPa) = 19.23675 23.21367 21.22521
#
# Velocity S-wave (km/s) = 3.28149 3.60476 3.44692
# Velocity P-wave (km/s) = 6.40318 6.64704 6.52625
#
# Compressibility (1/GPa) = 0.02100988
#
# Stress axis : x y z
#
# Youngs Moduli (GPa) = 73.87390 81.73505 74.00692
#
# Poissons Ratio (x) = 0.24298 0.36108
# Poissons Ratio (y) = 0.21961 0.09510
# Poissons Ratio (z) = 0.36043 0.10503
#
# Static dielectric constant tensor:
#      x y z
#    x 3.446440 0.000000 0.001590 
#    y 0.000000 3.224000 0.000000 
#    z 0.001590 0.000000 2.938590 
# 
# 
# High freq. dielectric constant tensor:
#      x y z
#    x 1.707970 0.000000 0.000160 
#    y 0.000000 1.692610 0.000000 
#    z 0.000160 0.000000 1.658050 
# 
# From -- ./inp_files/11219.got.cif
#   From: 2010.03.12/outbox.cif.g09.slc.cpg/sg3_6_cif.got.tgz:11219.got - 2010.03.31 09:20:49.
