data_PCOD8044525
_publ_section_title
;
Structure prediction by ZEFSAII (Michael W. Deem and Ramdas Pophale) SiO2 
 PCOD8044525
Probable space group: P -1
;
_chemical_formula_sum "Si O2"
_cell_formula_units_Z 12
_cell_length_a 14.750620
_cell_length_b 14.132633
_cell_length_c 23.047423
_cell_angle_alpha 159.745075
_cell_angle_beta 21.169959
_cell_angle_gamma 147.364267
_cell_volume 579.738415
_symmetry_space_group_name_H-M "P -1"
_symmetry_group_IT_number 2
_symmetry_cell_setting 'triclinic'
loop_
_space_group_symop_operation_xyz
x,y,z
-x,-y,-z
loop_
_atom_site_type_symbol
_atom_site_label
_atom_site_fract_x
_atom_site_fract_y
_atom_site_fract_z
Si Si1 0.270749 0.600678 0.148232
Si Si2 0.270198 0.085298 0.121549
Si Si3 0.966186 0.224565 0.828165
Si Si4 0.269721 0.713754 0.492021
Si Si5 0.233442 0.963663 0.269297
Si Si6 0.484192 0.110711 0.663011
O O1 0.318628 0.831174 0.205551
O O2 0.500000 0.500000 0.000000
O O3 0.271101 0.315800 0.948953
O O4 0.991071 0.739630 0.423524
O O5 0.260138 0.398231 0.330272
O O6 0.015171 0.088641 0.237911
O O7 0.519557 0.951951 0.856716
O O8 0.258729 0.890635 0.072124
O O9 0.864524 0.261308 0.843370
O O10 0.240729 0.992332 0.527791
O O11 0.000000 0.500000 0.000000
O O12 0.469362 0.714144 0.320488
O O13 0.377308 0.841030 0.556996
#
# Coordination Sequence:
#
# PCOD8044525 Si02
#       6
#     2   2   2   2   2   2
#     4  11  23  41  64  89 127 178 213 248 305 380
#     4  10  20  37  62  95 130 157 203 268 325 369
#     4  11  23  37  65  98 124 157 209 269 322 376
#     4   9  19  34  64  95 121 164 204 265 317 365
#     4  11  23  40  64  93 127 166 215 253 311 382
#     4  10  19  38  62  90 127 163 214 252 310 371
#
# _framework density 20.698990999999999
#
# number of rings (size 3 to 8) (size 9 to 14) (size 15 to 20)
#    0.000    1.667    3.333    1.500    4.667    0.000 
#    0.000    0.833    0.000    3.000    0.000    0.000 
#    0.000    0.000    0.000    0.000    0.000    0.000 
#
# Total GULP energy -148744.591729 kJ/mol
# GULP energy per Si atom -12395.382644 kJ/mol
# Density = 2.065188 g / cm^3
# Si number density = 20.698991 Si / 1000 Ang^3
#
#
#
# Elastic Constant Matrix: (Units=GPa)
#
#
# Indices 1 2 3 4 5 6 
#
# 1 112.4554 32.2845 50.4600 -5.5511 -5.1248 3.8187
# 2 32.2845 93.4163 29.8044 -1.2997 12.1466 4.4261
# 3 50.4600 29.8044 143.5088 -19.6211 5.9015 0.1562
# 4 -5.5511 -1.2997 -19.6211 30.5324 -1.0316 -2.2703
# 5 -5.1248 12.1466 5.9015 -1.0316 31.3107 5.9848
# 6 3.8187 4.4261 0.1562 -2.2703 5.9848 23.3850
#
#
#
# Elastic Compliance Matrix: (Units=1/GPa)
#
#
# Indices 1 2 3 4 5 6 
#
# 1 0.011764 -0.003353 -0.003671 -0.000395 0.004367 -0.002418
# 2 -0.003353 0.013032 -0.001480 -0.001234 -0.005234 -0.000689
# 3 -0.003671 -0.001480 0.009379 0.005367 -0.001970 0.001842
# 4 -0.000395 -0.001234 0.005367 0.036357 -0.000131 0.003826
# 5 0.004367 -0.005234 -0.001970 -0.000131 0.036797 -0.009139
# 6 -0.002418 -0.000689 0.001842 0.003826 -0.009139 0.045986
#
#
# Mechanical properties :
#
#
# Convention : Reuss Voigt Hill
#
# Bulk Modulus (GPa) = 58.25354 63.83091 61.04223
# Shear Modulus (GPa) = 28.40164 32.83440 30.61802
#
# Velocity S-wave (km/s) = 3.70824 3.98713 3.85021
# Velocity P-wave (km/s) = 6.82195 7.21810 7.02282
#
# Compressibility (1/GPa) = 0.01716634
#
# Stress axis : x y z
#
# Youngs Moduli (GPa) = 85.00585 76.73437 106.61812
#
# Poissons Ratio (x) = 0.25730 0.39139
# Poissons Ratio (y) = 0.28504 0.15782
# Poissons Ratio (z) = 0.31206 0.11359
#
# Static dielectric constant tensor:
#      x y z
#    x 3.874430 0.081020 -0.115230 
#    y 0.081020 3.503670 -0.128300 
#    z -0.115230 -0.128300 4.009810 
# 
# 
# High freq. dielectric constant tensor:
#      x y z
#    x 1.814260 0.007980 -0.018440 
#    y 0.007980 1.777740 -0.003090 
#    z -0.018440 -0.003090 1.826360 
# 
# From -- ./inp_files/262849.got.cif
#   From: 2010.06.25/outbox.cif.g09.slc.cpg/sg2_132_cif.got.tgz:262849.got - 2010.06.27 13:26:56.
