data_PCOD8044435
_publ_section_title
;
Structure prediction by ZEFSAII (Michael W. Deem and Ramdas Pophale) SiO2 
 PCOD8044435
Probable space group: P -1
;
_chemical_formula_sum "Si O2"
_cell_formula_units_Z 12
_cell_length_a 8.609015
_cell_length_b 10.180129
_cell_length_c 12.543171
_cell_angle_alpha 147.365716
_cell_angle_beta 101.415518
_cell_angle_gamma 73.040134
_cell_volume 564.607071
_symmetry_space_group_name_H-M "P -1"
_symmetry_group_IT_number 2
_symmetry_cell_setting 'triclinic'
loop_
_space_group_symop_operation_xyz
x,y,z
-x,-y,-z
loop_
_atom_site_type_symbol
_atom_site_label
_atom_site_fract_x
_atom_site_fract_y
_atom_site_fract_z
Si Si1 0.342639 0.222083 0.603883
Si Si2 0.441785 0.615538 0.735239
Si Si3 0.272605 0.609271 0.045004
Si Si4 0.036927 0.011764 0.389379
Si Si5 0.483671 0.199518 0.917285
Si Si6 0.302505 0.772600 0.609426
O O1 0.379796 0.399475 0.638329
O O2 0.194285 0.120172 0.469738
O O3 0.500000 0.000000 0.500000
O O4 0.273973 0.383076 0.809469
O O5 0.307481 0.753723 0.725759
O O6 0.608305 0.493740 0.611353
O O7 0.471995 0.820777 0.964921
O O8 0.355895 0.821434 0.148871
O O9 0.091111 0.739188 0.151871
O O10 0.375130 0.482952 0.076137
O O11 0.882966 0.171742 0.415230
O O12 0.000000 0.000000 0.500000
O O13 0.390783 0.987237 0.727599
#
# Coordination Sequence:
#
# PCOD8044435 Si02
#       6
#     2   2   2   2   2   2
#     4  11  22  41  64  86 116 155 199 241 289 353
#     4  10  22  40  60  83 114 160 199 232 289 353
#     4  10  21  36  62  88 112 152 199 243 291 344
#     4  12  24  37  58  91 121 150 194 249 297 340
#     4  10  19  38  61  83 112 152 197 239 286 347
#     4  11  23  37  58  87 120 153 193 243 293 343
#
# _framework density 21.253720999999999
#
# number of rings (size 3 to 8) (size 9 to 14) (size 15 to 20)
#    0.000    1.333    0.000    8.500    0.000    4.667 
#    0.000    3.333    0.000    0.000    0.000    0.000 
#    0.000    0.000    0.000    0.000    0.000    0.000 
#
# Total GULP energy -148776.073731 kJ/mol
# GULP energy per Si atom -12398.006144 kJ/mol
# Density = 2.120535 g / cm^3
# Si number density = 21.253721 Si / 1000 Ang^3
#
#
#
# Elastic Constant Matrix: (Units=GPa)
#
#
# Indices 1 2 3 4 5 6 
#
# 1 86.8065 41.1874 51.1293 -9.5593 -7.5644 -31.1847
# 2 41.1874 130.8096 27.2404 -20.4695 -13.4610 -22.1460
# 3 51.1293 27.2404 86.5703 -9.2781 -16.8039 -9.5608
# 4 -9.5593 -20.4695 -9.2781 28.3548 3.5918 3.8045
# 5 -7.5644 -13.4610 -16.8039 3.5918 42.0214 1.9673
# 6 -31.1847 -22.1460 -9.5608 3.8045 1.9673 37.6942
#
#
#
# Elastic Compliance Matrix: (Units=1/GPa)
#
#
# Indices 1 2 3 4 5 6 
#
# 1 0.026822 -0.002899 -0.013427 0.000550 -0.002319 0.017147
# 2 -0.002899 0.010175 -0.000168 0.005669 0.002052 0.002857
# 3 -0.013427 -0.000168 0.020139 0.002105 0.005712 -0.006609
# 4 0.000550 0.005669 0.002105 0.040284 -0.000700 0.000290
# 5 -0.002319 0.002052 0.005712 -0.000700 0.026408 -0.000572
# 6 0.017147 0.002857 -0.006609 0.000290 -0.000572 0.040718
#
#
# Mechanical properties :
#
#
# Convention : Reuss Voigt Hill
#
# Bulk Modulus (GPa) = 41.41159 60.36672 50.88916
# Shear Modulus (GPa) = 24.32122 33.92269 29.12195
#
# Velocity S-wave (km/s) = 3.38646 3.99943 3.70564
# Velocity P-wave (km/s) = 5.90064 7.05633 6.50421
#
# Compressibility (1/GPa) = 0.02414783
#
# Stress axis : x y z
#
# Youngs Moduli (GPa) = 37.28265 98.28444 49.65609
#
# Poissons Ratio (x) = 0.28493 0.66672
# Poissons Ratio (y) = 0.10808 0.00834
# Poissons Ratio (z) = 0.50059 0.01650
#
# Static dielectric constant tensor:
#      x y z
#    x 3.738550 0.037470 -0.020490 
#    y 0.037470 3.881390 -0.198000 
#    z -0.020490 -0.198000 4.076110 
# 
# 
# High freq. dielectric constant tensor:
#      x y z
#    x 1.815870 0.008720 -0.002150 
#    y 0.008720 1.834790 -0.014810 
#    z -0.002150 -0.014810 1.848380 
# 
# From -- ./inp_files/259757.got.cif
#   From: 2010.06.25/outbox.cif.g09.slc.cpg/sg2_130_cif.got.tgz:259757.got - 2010.06.27 13:26:56.
