data_PCOD8044970
_publ_section_title
;
Structure prediction by ZEFSAII (Michael W. Deem and Ramdas Pophale) SiO2 
 PCOD8044970
Probable space group: P 2
;
_chemical_formula_sum "Si O2"
_cell_formula_units_Z 12
_cell_length_a 19.671173
_cell_length_b 7.490569
_cell_length_c 12.953841
_cell_angle_alpha 90.000000
_cell_angle_beta 161.655770
_cell_angle_gamma 90.000000
_cell_volume 600.724379
_symmetry_space_group_name_H-M "P 2"
_symmetry_group_IT_number 3
_symmetry_cell_setting 'monoclinic'
loop_
_space_group_symop_operation_xyz
x,y,z
-x,y,-z
loop_
_atom_site_type_symbol
_atom_site_label
_atom_site_fract_x
_atom_site_fract_y
_atom_site_fract_z
Si Si1 0.281860 0.458700 0.249402
Si Si2 0.191665 0.311768 0.699370
Si Si3 0.246906 0.974883 0.653029
Si Si4 0.980042 0.155347 0.859063
Si Si5 0.863301 0.598783 0.551416
Si Si6 0.637750 0.459014 0.406371
O O1 0.500000 0.462524 0.500000
O O2 0.329480 0.537379 0.432200
O O3 0.202261 0.251343 0.141646
O O4 0.107613 0.591503 0.946450
O O5 0.174337 0.420877 0.568854
O O6 0.000000 0.358705 0.500000
O O7 0.183158 0.102915 0.656213
O O8 0.407620 0.364297 0.069813
O O9 0.177908 0.771957 0.580056
O O10 0.108547 0.015865 0.350868
O O11 0.500000 0.999927 0.000000
O O12 0.819119 0.317934 0.640661
O O13 0.000000 0.058461 0.000000
O O14 0.681610 0.609556 0.381606
#
# Coordination Sequence:
#
# PCOD8044970 Si02
#       6
#     2   2   2   2   2   2
#     4  10  20  38  64  91 125 165 205 257 317 368
#     4  12  23  39  63  90 127 166 204 262 318 367
#     4  12  22  40  65  92 125 162 212 259 308 375
#     4   9  19  35  60  88 118 156 211 255 300 369
#     4  11  23  40  64  91 124 164 214 254 304 377
#     4  10  19  38  63  88 118 165 213 248 306 367
#
# _framework density 19.975884000000001
#
# number of rings (size 3 to 8) (size 9 to 14) (size 15 to 20)
#    0.000    1.333    5.000    4.000    0.000    2.000 
#    0.000    2.500    0.000    0.000    0.000    0.000 
#    0.000    0.000    0.000    0.000    0.000    0.000 
#
# Total GULP energy -148781.849373 kJ/mol
# GULP energy per Si atom -12398.487448 kJ/mol
# Density = 1.993042 g / cm^3
# Si number density = 19.975884 Si / 1000 Ang^3
#
#
#
# Elastic Constant Matrix: (Units=GPa)
#
#
# Indices 1 2 3 4 5 6 
#
# 1 80.7698 14.8020 38.6695 0.0000 13.3145 0.0000
# 2 14.8020 74.8605 21.4199 0.0000 2.3871 0.0000
# 3 38.6695 21.4199 95.9157 0.0000 2.5036 0.0000
# 4 0.0000 0.0000 0.0000 38.1626 0.0000 -3.1676
# 5 13.3145 2.3871 2.5036 0.0000 38.5672 0.0000
# 6 0.0000 0.0000 0.0000 -3.1676 0.0000 17.5896
#
#
#
# Elastic Compliance Matrix: (Units=1/GPa)
#
#
# Indices 1 2 3 4 5 6 
#
# 1 0.016447 -0.001312 -0.006202 0.000000 -0.005194 0.000000
# 2 -0.001312 0.014392 -0.002678 0.000000 -0.000264 0.000000
# 3 -0.006202 -0.002678 0.013487 0.000000 0.001431 0.000000
# 4 0.000000 0.000000 0.000000 0.026601 0.000000 0.004790
# 5 -0.005194 -0.000264 0.001431 0.000000 0.027645 0.000000
# 6 0.000000 0.000000 0.000000 0.004790 0.000000 0.057715
#
#
# Mechanical properties :
#
#
# Convention : Reuss Voigt Hill
#
# Bulk Modulus (GPa) = 41.76823 44.59210 43.18017
# Shear Modulus (GPa) = 27.07787 30.64084 28.85936
#
# Velocity S-wave (km/s) = 3.68574 3.92074 3.80506
# Velocity P-wave (km/s) = 6.25041 6.54734 6.40060
#
# Compressibility (1/GPa) = 0.02394164
#
# Stress axis : x y z
#
# Youngs Moduli (GPa) = 60.80187 69.48145 74.14497
#
# Poissons Ratio (x) = 0.09114 0.45986
# Poissons Ratio (y) = 0.07976 0.19859
# Poissons Ratio (z) = 0.37711 0.18610
#
# Static dielectric constant tensor:
#      x y z
#    x 3.749310 0.000000 -0.024120 
#    y 0.000000 3.421250 0.000000 
#    z -0.024120 0.000000 3.419060 
# 
# 
# High freq. dielectric constant tensor:
#      x y z
#    x 1.775920 0.000000 -0.012590 
#    y 0.000000 1.749130 0.000000 
#    z -0.012590 0.000000 1.797120 
# 
# From -- ./inp_files/5230.got.cif
#   From: 2010.03.12/outbox.cif.g09.slc.cpg/sg3_3_cif.got.tgz:5230.got - 2010.03.31 09:20:49.
