data_PCOD8044419
_publ_section_title
;
Structure prediction by ZEFSAII (Michael W. Deem and Ramdas Pophale) SiO2 
 PCOD8044419
Probable space group: P -1
;
_chemical_formula_sum "Si O2"
_cell_formula_units_Z 16
_cell_length_a 9.398782
_cell_length_b 15.221979
_cell_length_c 8.807799
_cell_angle_alpha 128.031546
_cell_angle_beta 107.745079
_cell_angle_gamma 48.414339
_cell_volume 730.705776
_symmetry_space_group_name_H-M "P -1"
_symmetry_group_IT_number 2
_symmetry_cell_setting 'triclinic'
loop_
_space_group_symop_operation_xyz
x,y,z
-x,-y,-z
loop_
_atom_site_type_symbol
_atom_site_label
_atom_site_fract_x
_atom_site_fract_y
_atom_site_fract_z
Si Si1 0.519068 0.859536 0.862816
Si Si2 0.931595 0.727062 0.901243
Si Si3 0.472779 0.631151 0.055746
Si Si4 0.903252 0.428428 0.904529
Si Si5 0.146249 0.032578 0.073375
Si Si6 0.095241 0.750366 0.532449
Si Si7 0.296579 0.580558 0.703079
Si Si8 0.609946 0.252145 0.531467
O O1 0.746242 0.730813 0.834942
O O2 0.460290 0.830685 0.652849
O O3 0.500000 0.000000 0.000000
O O4 0.371633 0.885853 0.976821
O O5 0.884708 0.876116 0.990152
O O6 0.105754 0.601837 0.716759
O O7 0.013704 0.686713 0.055096
O O8 0.396909 0.752753 0.291485
O O9 0.500000 0.500000 0.000000
O O10 0.679831 0.568279 0.993355
O O11 0.322321 0.681581 0.922664
O O12 0.950564 0.336345 0.672224
O O13 0.000000 0.500000 0.000000
O O14 0.103202 0.123732 0.309371
O O15 0.000000 0.000000 0.000000
O O16 0.267202 0.637687 0.584746
O O17 0.173633 0.816732 0.526142
O O18 0.478011 0.414411 0.597807
#
# Coordination Sequence:
#
# PCOD8044419 Si02
#       8
#     2   2   2   2   2   2   2   2
#     4  10  23  39  63  92 127 167 218 263 309 372
#     4  10  22  42  62  90 138 164 205 268 326 372
#     4  10  19  38  60  89 136 158 207 259 312 399
#     4  12  25  40  59  97 140 168 202 262 330 390
#     4  10  21  44  68  92 119 165 229 270 302 368
#     4  11  22  37  67  93 126 164 219 265 311 383
#     4  10  20  36  64  98 123 161 211 260 322 386
#     4  11  19  35  68  88 126 165 208 254 333 372
#
# _framework density 21.896639
#
# number of rings (size 3 to 8) (size 9 to 14) (size 15 to 20)
#    0.000    1.500    6.250    0.375    1.750    3.500 
#    0.000    1.250    8.250    0.000    0.000    0.000 
#    0.000    0.000    0.000    0.000    0.000    0.000 
#
# Total GULP energy -198236.528956 kJ/mol
# GULP energy per Si atom -12389.783060 kJ/mol
# Density = 2.184680 g / cm^3
# Si number density = 21.896639 Si / 1000 Ang^3
#
#
#
# Elastic Constant Matrix: (Units=GPa)
#
#
# Indices 1 2 3 4 5 6 
#
# 1 151.0686 26.5889 59.7584 0.7356 -4.4999 -25.1838
# 2 26.5889 37.3409 22.9442 -9.5889 -4.8465 -8.1520
# 3 59.7584 22.9442 181.2016 -10.7394 6.5010 -3.7447
# 4 0.7356 -9.5889 -10.7394 23.0543 -6.5518 -4.9222
# 5 -4.4999 -4.8465 6.5010 -6.5518 41.1315 5.2192
# 6 -25.1838 -8.1520 -3.7447 -4.9222 5.2192 32.2897
#
#
#
# Elastic Compliance Matrix: (Units=1/GPa)
#
#
# Indices 1 2 3 4 5 6 
#
# 1 0.009335 -0.004469 -0.002522 -0.002192 -0.000160 0.005552
# 2 -0.004469 0.038770 -0.002399 0.018651 0.006436 0.007827
# 3 -0.002522 -0.002399 0.006765 0.001604 -0.001201 -0.001350
# 4 -0.002192 0.018651 0.001604 0.056840 0.009448 0.010323
# 5 -0.000160 0.006436 -0.001201 0.009448 0.026945 -0.001554
# 6 0.005552 0.007827 -0.001350 0.010323 -0.001554 0.038944
#
#
# Mechanical properties :
#
#
# Convention : Reuss Voigt Hill
#
# Bulk Modulus (GPa) = 27.70909 65.35489 46.53199
# Shear Modulus (GPa) = 23.99128 36.64975 30.32052
#
# Velocity S-wave (km/s) = 3.31367 4.09560 3.72521
# Velocity P-wave (km/s) = 5.22709 7.23029 6.30871
#
# Compressibility (1/GPa) = 0.03608924
#
# Stress axis : x y z
#
# Youngs Moduli (GPa) = 107.12138 25.79308 147.82918
#
# Poissons Ratio (x) = 0.11527 0.37285
# Poissons Ratio (y) = 0.47873 0.35466
# Poissons Ratio (z) = 0.27018 0.06188
#
# Static dielectric constant tensor:
#      x y z
#    x 4.351090 -0.486250 -0.242530 
#    y -0.486250 4.176020 -0.502580 
#    z -0.242530 -0.502580 4.916160 
# 
# 
# High freq. dielectric constant tensor:
#      x y z
#    x 1.872240 -0.019530 -0.014380 
#    y -0.019530 1.827020 -0.001660 
#    z -0.014380 -0.001660 1.862580 
# 
# From -- ./inp_files/215918.got.cif
#   From: 2010.06.25/outbox.cif.g09.slc.cpg/sg2_108_cif.got.tgz:215918.got - 2010.06.27 13:26:56.
