data_PCOD8044250
_publ_section_title
;
Structure prediction by ZEFSAII (Michael W. Deem and Ramdas Pophale) SiO2 
 PCOD8044250
Probable space group: P -1
;
_chemical_formula_sum "Si O2"
_cell_formula_units_Z 16
_cell_length_a 9.036609
_cell_length_b 15.072977
_cell_length_c 14.981351
_cell_angle_alpha 36.852879
_cell_angle_beta 39.227900
_cell_angle_gamma 42.145035
_cell_volume 733.127652
_symmetry_space_group_name_H-M "P -1"
_symmetry_group_IT_number 2
_symmetry_cell_setting 'triclinic'
loop_
_space_group_symop_operation_xyz
x,y,z
-x,-y,-z
loop_
_atom_site_type_symbol
_atom_site_label
_atom_site_fract_x
_atom_site_fract_y
_atom_site_fract_z
Si Si1 0.804969 0.847719 0.454684
Si Si2 0.320073 0.205817 0.845534
Si Si3 0.478487 0.874358 0.742181
Si Si4 0.702229 0.538750 0.206898
Si Si5 0.151178 0.260349 0.169188
Si Si6 0.155848 0.016028 0.222665
Si Si7 0.067949 0.822993 0.077118
Si Si8 0.836933 0.397505 0.628758
O O1 0.626346 0.794267 0.648658
O O2 0.026566 0.698745 0.442434
O O3 0.649070 0.939868 0.368111
O O4 0.916593 0.964737 0.360904
O O5 0.279142 0.367615 0.787084
O O6 0.160459 0.228907 0.810613
O O7 0.605920 0.130774 0.744139
O O8 0.228234 0.085076 0.042869
O O9 0.657810 0.850133 0.762284
O O10 0.269697 0.794966 0.925957
O O11 0.439950 0.505941 0.351132
O O12 0.916268 0.372371 0.242228
O O13 0.722617 0.636757 0.030837
O O14 0.069402 0.144638 0.236454
O O15 0.189380 0.715867 0.189449
O O16 0.000000 0.000000 0.000000
O O17 0.000000 0.500000 0.500000
#
# Coordination Sequence:
#
# PCOD8044250 Si02
#       8
#     2   2   2   2   2   2   2   2
#     4  11  24  43  65 101 137 172 223 294 336 390
#     4  10  20  36  67  98 126 181 223 277 329 405
#     4  11  23  41  68  96 137 171 227 281 332 393
#     4  10  22  43  65  94 140 173 226 271 348 410
#     4  10  22  40  66  99 129 181 223 281 329 410
#     4  10  19  37  66  95 132 165 229 281 335 383
#     4  12  22  43  73 101 129 180 243 274 327 415
#     4  12  26  46  68  98 140 180 220 284 350 406
#
# _framework density 21.824303
#
# number of rings (size 3 to 8) (size 9 to 14) (size 15 to 20)
#    0.000    1.250    5.000    0.750    1.750    3.500 
#    4.500    2.500    0.000    0.000    0.000    0.000 
#    0.000    0.000    0.000    0.000    0.000    0.000 
#
# Total GULP energy -198408.542917 kJ/mol
# GULP energy per Si atom -12400.533932 kJ/mol
# Density = 2.177463 g / cm^3
# Si number density = 21.824303 Si / 1000 Ang^3
#
#
#
# Elastic Constant Matrix: (Units=GPa)
#
#
# Indices 1 2 3 4 5 6 
#
# 1 114.2317 45.7506 17.3986 1.0207 -23.6168 -3.4206
# 2 45.7506 128.9900 24.5242 16.5094 -21.2004 5.3923
# 3 17.3986 24.5242 73.1198 14.8274 -12.0970 4.0614
# 4 1.0207 16.5094 14.8274 26.4068 -1.3165 -4.2541
# 5 -23.6168 -21.2004 -12.0970 -1.3165 34.3404 -0.3458
# 6 -3.4206 5.3923 4.0614 -4.2541 -0.3458 33.0771
#
#
#
# Elastic Compliance Matrix: (Units=1/GPa)
#
#
# Indices 1 2 3 4 5 6 
#
# 1 0.011514 -0.003417 -0.001471 0.003174 0.005437 0.002393
# 2 -0.003417 0.010639 -0.000691 -0.006396 0.003702 -0.002787
# 3 -0.001471 -0.000691 0.017037 -0.009401 0.004170 -0.003297
# 4 0.003174 -0.006396 -0.009401 0.048269 -0.003139 0.008700
# 5 0.005437 0.003702 0.004170 -0.003139 0.036487 -0.000576
# 6 0.002393 -0.002787 -0.003297 0.008700 -0.000576 0.032452
#
#
# Mechanical properties :
#
#
# Convention : Reuss Voigt Hill
#
# Bulk Modulus (GPa) = 35.67230 54.63205 45.15217
# Shear Modulus (GPa) = 28.26453 34.00940 31.13697
#
# Velocity S-wave (km/s) = 3.60265 3.95185 3.78128
# Velocity P-wave (km/s) = 5.80397 6.77568 6.30856
#
# Compressibility (1/GPa) = 0.02803296
#
# Stress axis : x y z
#
# Youngs Moduli (GPa) = 86.85126 93.99053 58.69500
#
# Poissons Ratio (x) = 0.32115 0.08632
# Poissons Ratio (y) = 0.29676 0.04057
# Poissons Ratio (z) = 0.12773 0.06497
#
# Static dielectric constant tensor:
#      x y z
#    x 3.836200 -0.160100 0.012910 
#    y -0.160100 3.969540 0.190110 
#    z 0.012910 0.190110 3.930000 
# 
# 
# High freq. dielectric constant tensor:
#      x y z
#    x 1.862780 -0.011130 -0.000060 
#    y -0.011130 1.852550 0.020230 
#    z -0.000060 0.020230 1.845800 
# 
# From -- ./inp_files/419320.got.cif
#   From: 2010.06.25/outbox.cif.g09.slc.cpg/sg2_210_cif.got.tgz:419320.got - 2010.06.27 13:26:56.
