data_PCOD8044750
_publ_section_title
;
Structure prediction by ZEFSAII (Michael W. Deem and Ramdas Pophale) SiO2 
 PCOD8044750
Probable space group: P -1
;
_chemical_formula_sum "Si O2"
_cell_formula_units_Z 16
_cell_length_a 8.638578
_cell_length_b 12.657468
_cell_length_c 14.424002
_cell_angle_alpha 67.070737
_cell_angle_beta 56.216956
_cell_angle_gamma 111.894517
_cell_volume 770.076183
_symmetry_space_group_name_H-M "P -1"
_symmetry_group_IT_number 2
_symmetry_cell_setting 'triclinic'
loop_
_space_group_symop_operation_xyz
x,y,z
-x,-y,-z
loop_
_atom_site_type_symbol
_atom_site_label
_atom_site_fract_x
_atom_site_fract_y
_atom_site_fract_z
Si Si1 0.339232 0.111495 0.740283
Si Si2 0.332958 0.189711 0.905122
Si Si3 0.696174 0.515422 0.994053
Si Si4 0.669356 0.107623 0.311980
Si Si5 0.656626 0.979291 0.895081
Si Si6 0.664231 0.542115 0.196776
Si Si7 0.309773 0.752924 0.914234
Si Si8 0.651088 0.671436 0.448972
O O1 0.479087 0.186230 0.771824
O O2 0.470792 0.269528 0.574707
O O3 0.381939 0.012397 0.708468
O O4 0.010762 0.990752 0.912142
O O5 0.407790 0.357533 0.808416
O O6 0.441015 0.187924 0.967293
O O7 0.999534 0.727522 0.822095
O O8 0.500000 0.500000 0.000000
O O9 0.558344 0.446980 0.165311
O O10 0.730013 0.399141 0.992578
O O11 0.590491 0.184063 0.250025
O O12 0.500000 0.000000 0.500000
O O13 0.547117 0.922895 0.844875
O O14 0.999644 0.169873 0.718955
O O15 0.500000 0.000000 0.000000
O O16 0.462804 0.381044 0.390884
O O17 0.005086 0.676425 0.055541
O O18 0.500000 0.500000 0.500000
#
# Coordination Sequence:
#
# PCOD8044750 Si02
#       8
#     2   2   2   2   2   2   2   2
#     4  10  20  35  65  90 125 160 217 250 322 374
#     4  10  19  38  66  91 120 167 209 259 319 389
#     4  11  25  44  64  92 130 174 217 263 322 382
#     4  11  24  42  66  96 128 173 219 266 319 385
#     4  11  24  41  65  94 130 165 212 263 326 387
#     4  11  21  42  66  91 125 166 219 262 323 379
#     4  11  24  43  65  93 129 171 216 263 327 382
#     4  11  23  38  64  98 124 165 208 266 322 382
#
# _framework density 20.777165
#
# number of rings (size 3 to 8) (size 9 to 14) (size 15 to 20)
#    0.000    1.250    3.750    3.750    7.000    1.000 
#    0.000    1.875    0.000    0.000    0.000    0.000 
#    0.000    0.000    0.000    0.000    0.000    0.000 
#
# Total GULP energy -198230.052469 kJ/mol
# GULP energy per Si atom -12389.378279 kJ/mol
# Density = 2.072988 g / cm^3
# Si number density = 20.777165 Si / 1000 Ang^3
#
#
#
# Elastic Constant Matrix: (Units=GPa)
#
#
# Indices 1 2 3 4 5 6 
#
# 1 117.2824 26.4798 37.7025 4.2786 13.0646 12.3419
# 2 26.4798 96.5003 21.4927 9.2781 -4.3260 4.8745
# 3 37.7025 21.4927 100.1533 18.3688 25.5451 10.2318
# 4 4.2786 9.2781 18.3688 31.5781 6.0359 7.6521
# 5 13.0646 -4.3260 25.5451 6.0359 32.4001 -1.5235
# 6 12.3419 4.8745 10.2318 7.6521 -1.5235 42.4883
#
#
#
# Elastic Compliance Matrix: (Units=1/GPa)
#
#
# Indices 1 2 3 4 5 6 
#
# 1 0.010499 -0.002453 -0.002823 0.002108 -0.002848 -0.002570
# 2 -0.002453 0.012073 -0.002517 -0.002891 0.005154 0.000639
# 3 -0.002823 -0.002517 0.015451 -0.005374 -0.010473 -0.002020
# 4 0.002108 -0.002891 -0.005374 0.037609 -0.004283 -0.005913
# 5 -0.002848 0.005154 -0.010473 -0.004283 0.041993 0.005035
# 6 -0.002570 0.000639 -0.002020 -0.005913 0.005035 0.025941
#
#
# Mechanical properties :
#
#
# Convention : Reuss Voigt Hill
#
# Bulk Modulus (GPa) = 44.57070 53.92066 49.24568
# Shear Modulus (GPa) = 30.00642 36.51070 33.25856
#
# Velocity S-wave (km/s) = 3.80439 4.19651 4.00525
# Velocity P-wave (km/s) = 6.38719 7.03485 6.71883
#
# Compressibility (1/GPa) = 0.02243627
#
# Stress axis : x y z
#
# Youngs Moduli (GPa) = 95.25062 82.82942 64.72008
#
# Poissons Ratio (x) = 0.20314 0.18273
# Poissons Ratio (y) = 0.23360 0.16292
# Poissons Ratio (z) = 0.26893 0.20851
#
# Static dielectric constant tensor:
#      x y z
#    x 4.217830 0.090470 0.583380 
#    y 0.090470 3.895420 0.007780 
#    z 0.583380 0.007780 3.981820 
# 
# 
# High freq. dielectric constant tensor:
#      x y z
#    x 1.821640 0.000710 0.033430 
#    y 0.000710 1.821000 0.002600 
#    z 0.033430 0.002600 1.794760 
# 
# From -- ./inp_files/189540.got.cif
#   From: 2010.06.25/outbox.cif.g09.slc.cpg/sg2_95_cif.got.tgz:189540.got - 2010.06.27 13:26:56.
