data_PCOD8044817
_publ_section_title
;
Structure prediction by ZEFSAII (Michael W. Deem and Ramdas Pophale) SiO2 
 PCOD8044817
Probable space group: P -1
;
_chemical_formula_sum "Si O2"
_cell_formula_units_Z 14
_cell_length_a 8.099644
_cell_length_b 14.016188
_cell_length_c 14.658291
_cell_angle_alpha 31.018458
_cell_angle_beta 105.560367
_cell_angle_gamma 124.262470
_cell_volume 612.537888
_symmetry_space_group_name_H-M "P -1"
_symmetry_group_IT_number 2
_symmetry_cell_setting 'triclinic'
loop_
_space_group_symop_operation_xyz
x,y,z
-x,-y,-z
loop_
_atom_site_type_symbol
_atom_site_label
_atom_site_fract_x
_atom_site_fract_y
_atom_site_fract_z
Si Si1 0.313167 0.088323 0.732140
Si Si2 0.214799 0.050798 0.445087
Si Si3 0.533599 0.412670 0.919129
Si Si4 0.250757 0.766940 0.826396
Si Si5 0.846100 0.655516 0.594222
Si Si6 0.017547 0.018687 0.094558
Si Si7 0.172854 0.510780 0.454662
O O1 0.287315 0.261598 0.531795
O O2 0.572336 0.256416 0.667739
O O3 0.261395 0.882123 0.827939
O O4 0.138074 0.936672 0.916608
O O5 0.416131 0.351394 0.218878
O O6 0.308601 0.946548 0.604216
O O7 0.000000 0.000000 0.500000
O O8 0.114598 0.902360 0.455540
O O9 0.711940 0.495259 0.796348
O O10 0.565234 0.269801 0.114657
O O11 0.277979 0.229046 0.992486
O O12 0.000000 0.500000 0.000000
O O13 0.847453 0.483285 0.663719
O O14 0.892712 0.747851 0.333387
O O15 0.000000 0.000000 0.000000
O O16 0.000000 0.500000 0.500000
#
# Coordination Sequence:
#
# PCOD8044817 Si02
#       7
#     2   2   2   2   2   2   2
#     4  11  22  41  67  91 132 177 213 273 334 384
#     4  10  19  38  68  96 134 173 213 270 330 386
#     4  11  21  39  69 101 132 172 220 269 325 393
#     4  12  21  38  69 102 129 170 225 268 326 391
#     4  10  19  40  67  89 129 179 210 261 340 379
#     4  11  24  42  64  96 132 175 226 265 326 398
#     4  11  24  42  64  95 130 168 221 278 326 387
#
# _framework density 22.855729
#
# number of rings (size 3 to 8) (size 9 to 14) (size 15 to 20)
#    0.000    1.143    5.714    4.286    0.000    1.143 
#    0.000   10.714    0.000    8.571    0.000    0.000 
#    0.000    0.000    0.000    0.000    0.000    0.000 
#
# Total GULP energy -173519.849830 kJ/mol
# GULP energy per Si atom -12394.274988 kJ/mol
# Density = 2.280371 g / cm^3
# Si number density = 22.855729 Si / 1000 Ang^3
#
#
#
# Elastic Constant Matrix: (Units=GPa)
#
#
# Indices 1 2 3 4 5 6 
#
# 1 98.2395 78.6284 42.5966 -12.9110 1.1381 11.8496
# 2 78.6284 196.2715 37.6227 -34.3741 -1.5325 7.0165
# 3 42.5966 37.6227 62.2214 -11.1523 14.4418 8.6361
# 4 -12.9110 -34.3741 -11.1523 43.2731 8.2712 2.2074
# 5 1.1381 -1.5325 14.4418 8.2712 34.2272 -3.2539
# 6 11.8496 7.0165 8.6361 2.2074 -3.2539 40.2565
#
#
#
# Elastic Compliance Matrix: (Units=1/GPa)
#
#
# Indices 1 2 3 4 5 6 
#
# 1 0.019655 -0.006124 -0.010880 -0.002486 0.004081 -0.001918
# 2 -0.006124 0.008387 0.000194 0.005024 -0.000720 -0.000034
# 3 -0.010880 0.000194 0.028499 0.007116 -0.013797 -0.004450
# 4 -0.002486 0.005024 0.007116 0.030401 -0.010439 -0.004181
# 5 0.004081 -0.000720 -0.013797 -0.010439 0.037918 0.005521
# 6 -0.001918 -0.000034 -0.004450 -0.004181 0.005521 0.027042
#
#
# Mechanical properties :
#
#
# Convention : Reuss Voigt Hill
#
# Bulk Modulus (GPa) = 43.62932 74.93644 59.28288
# Shear Modulus (GPa) = 25.88525 36.74369 31.31447
#
# Velocity S-wave (km/s) = 3.36899 4.01388 3.70549
# Velocity P-wave (km/s) = 5.85354 7.37154 6.65596
#
# Compressibility (1/GPa) = 0.02292037
#
# Stress axis : x y z
#
# Youngs Moduli (GPa) = 50.87717 119.23876 35.08953
#
# Poissons Ratio (x) = 0.73016 0.38177
# Poissons Ratio (y) = 0.31155 -0.00679
# Poissons Ratio (z) = 0.55354 -0.02308
#
# Static dielectric constant tensor:
#      x y z
#    x 3.662330 0.280030 0.323170 
#    y 0.280030 4.473290 -0.079410 
#    z 0.323170 -0.079410 4.296770 
# 
# 
# High freq. dielectric constant tensor:
#      x y z
#    x 1.886520 -0.005670 0.002320 
#    y -0.005670 1.929630 -0.010860 
#    z 0.002320 -0.010860 1.896070 
# 
# From -- ./inp_files/505113.got.cif
#   From: 2010.06.25/outbox.cif.g09.slc.cpg/sg2_253_cif.got.tgz:505113.got - 2010.06.27 13:26:56.
