data_PCOD8044557
_publ_section_title
;
Structure prediction by ZEFSAII (Michael W. Deem and Ramdas Pophale) SiO2 
 PCOD8044557
Probable space group: P -1
;
_chemical_formula_sum "Si O2"
_cell_formula_units_Z 16
_cell_length_a 15.279264
_cell_length_b 9.064981
_cell_length_c 11.835635
_cell_angle_alpha 72.773521
_cell_angle_beta 55.428272
_cell_angle_gamma 37.878613
_cell_volume 790.577260
_symmetry_space_group_name_H-M "P -1"
_symmetry_group_IT_number 2
_symmetry_cell_setting 'triclinic'
loop_
_space_group_symop_operation_xyz
x,y,z
-x,-y,-z
loop_
_atom_site_type_symbol
_atom_site_label
_atom_site_fract_x
_atom_site_fract_y
_atom_site_fract_z
Si Si1 0.588894 0.734750 0.496254
Si Si2 0.771833 0.388987 0.638830
Si Si3 0.352314 0.373070 0.096462
Si Si4 0.949437 0.220917 0.938185
Si Si5 0.617343 0.014640 0.800202
Si Si6 0.308714 0.452587 0.772727
Si Si7 0.290747 0.831348 0.661579
Si Si8 0.169673 0.977056 0.462663
O O1 0.710116 0.589006 0.550059
O O2 0.713478 0.576880 0.332343
O O3 0.450769 0.754891 0.593130
O O4 0.500000 0.000000 0.500000
O O5 0.641890 0.544911 0.806213
O O6 0.761834 0.236342 0.620253
O O7 0.964794 0.206080 0.580986
O O8 0.196623 0.630340 0.083788
O O9 0.313205 0.236860 0.173765
O O10 0.533400 0.181610 0.939136
O O11 0.861459 0.412818 0.064638
O O12 0.121457 0.099994 0.786171
O O13 0.000000 0.000000 0.000000
O O14 0.476280 0.179686 0.766076
O O15 0.783990 0.919606 0.660461
O O16 0.328761 0.615640 0.728042
O O17 0.265890 0.854598 0.539747
#
# Coordination Sequence:
#
# PCOD8044557 Si02
#       8
#     2   2   2   2   2   2   2   2
#     4  12  24  37  58  91 123 154 194 246 296 343
#     4  11  24  38  57  91 127 148 189 260 293 333
#     4  10  21  39  58  87 126 148 196 246 294 349
#     4   9  20  36  65  89 109 155 203 242 283 350
#     4  10  21  37  61  87 114 165 195 235 294 357
#     4  10  19  38  63  86 115 156 202 238 286 352
#     4  11  20  40  63  87 113 158 210 233 283 366
#     4  11  22  38  62  88 117 157 200 242 294 347
#
# _framework density 20.238377
#
# number of rings (size 3 to 8) (size 9 to 14) (size 15 to 20)
#    0.000    1.500    3.750    1.875    0.000    2.000 
#    0.000    1.875    0.000    0.000    0.000    0.000 
#    0.000    0.000    0.000    0.000    0.000    0.000 
#
# Total GULP energy -198362.469308 kJ/mol
# GULP energy per Si atom -12397.654332 kJ/mol
# Density = 2.019231 g / cm^3
# Si number density = 20.238377 Si / 1000 Ang^3
#
#
#
# Elastic Constant Matrix: (Units=GPa)
#
#
# Indices 1 2 3 4 5 6 
#
# 1 38.4858 21.1696 28.4165 0.6588 9.8516 -1.6770
# 2 21.1696 97.7769 10.3898 -10.4069 10.4189 -0.6681
# 3 28.4165 10.3898 130.7946 5.8263 22.9673 3.4194
# 4 0.6588 -10.4069 5.8263 33.8042 0.4478 3.7258
# 5 9.8516 10.4189 22.9673 0.4478 32.7818 -5.5347
# 6 -1.6770 -0.6681 3.4194 3.7258 -5.5347 21.1921
#
#
#
# Elastic Compliance Matrix: (Units=1/GPa)
#
#
# Indices 1 2 3 4 5 6 
#
# 1 0.035660 -0.006849 -0.006609 -0.001966 -0.003352 0.003143
# 2 -0.006849 0.012333 0.000870 0.004009 -0.002819 -0.001735
# 3 -0.006609 0.000870 0.010204 -0.000890 -0.006028 -0.003560
# 4 -0.001966 0.004009 -0.000890 0.031671 -0.001478 -0.005840
# 5 -0.003352 -0.002819 -0.006028 -0.001478 0.038497 0.010933
# 6 0.003143 -0.001735 -0.003560 -0.005840 0.010933 0.051838
#
#
# Mechanical properties :
#
#
# Convention : Reuss Voigt Hill
#
# Bulk Modulus (GPa) = 30.28515 43.00103 36.64309
# Shear Modulus (GPa) = 23.10691 31.36104 27.23397
#
# Velocity S-wave (km/s) = 3.38263 3.94074 3.67230
# Velocity P-wave (km/s) = 5.50027 6.48069 6.01050
#
# Compressibility (1/GPa) = 0.03301948
#
# Stress axis : x y z
#
# Youngs Moduli (GPa) = 28.04289 81.08353 98.00450
#
# Poissons Ratio (x) = 0.55534 0.64775
# Poissons Ratio (y) = 0.19207 -0.08527
# Poissons Ratio (z) = 0.18535 -0.07055
#
# Static dielectric constant tensor:
#      x y z
#    x 3.443660 -0.098080 0.191580 
#    y -0.098080 3.833300 0.124920 
#    z 0.191580 0.124920 4.416130 
# 
# 
# High freq. dielectric constant tensor:
#      x y z
#    x 1.744970 -0.008840 0.016090 
#    y -0.008840 1.804690 0.000790 
#    z 0.016090 0.000790 1.815860 
# 
# From -- ./inp_files/207718.got.cif
#   From: 2010.06.25/outbox.cif.g09.slc.cpg/sg2_104_cif.got.tgz:207718.got - 2010.06.27 13:26:56.
