data_PCOD8044420
_publ_section_title
;
Structure prediction by ZEFSAII (Michael W. Deem and Ramdas Pophale) SiO2 
 PCOD8044420
Probable space group: P -1
;
_chemical_formula_sum "Si O2"
_cell_formula_units_Z 16
_cell_length_a 11.139755
_cell_length_b 13.470444
_cell_length_c 10.876785
_cell_angle_alpha 133.511152
_cell_angle_beta 70.408089
_cell_angle_gamma 136.144048
_cell_volume 776.803263
_symmetry_space_group_name_H-M "P -1"
_symmetry_group_IT_number 2
_symmetry_cell_setting 'triclinic'
loop_
_space_group_symop_operation_xyz
x,y,z
-x,-y,-z
loop_
_atom_site_type_symbol
_atom_site_label
_atom_site_fract_x
_atom_site_fract_y
_atom_site_fract_z
Si Si1 0.698211 0.252709 0.435869
Si Si2 0.991678 0.597884 0.198004
Si Si3 0.512769 0.677963 0.338579
Si Si4 0.069266 0.634968 0.761000
Si Si5 0.718083 0.058437 0.449824
Si Si6 0.845704 0.780793 0.419531
Si Si7 0.977382 0.872013 0.716188
Si Si8 0.862492 0.733731 0.908217
O O1 0.558361 0.271804 0.488238
O O2 0.744061 0.222312 0.262323
O O3 0.603732 0.074423 0.415125
O O4 0.889042 0.450646 0.593647
O O5 0.198096 0.800545 0.339066
O O6 0.889711 0.434371 0.200123
O O7 0.880051 0.651184 0.252276
O O8 0.000000 0.500000 0.000000
O O9 0.648449 0.672811 0.346060
O O10 0.340818 0.469925 0.157670
O O11 0.606834 0.837833 0.334354
O O12 0.022636 0.754724 0.918967
O O13 0.891157 0.152202 0.384133
O O14 0.843080 0.791710 0.577916
O O15 0.000000 0.000000 0.500000
O O16 0.863768 0.748190 0.771440
O O17 0.103685 0.100141 0.891673
#
# Coordination Sequence:
#
# PCOD8044420 Si02
#       8
#     2   2   2   2   2   2   2   2
#     4   9  18  34  58  87 116 148 204 253 307 352
#     4  10  22  37  64  87 117 168 214 240 301 384
#     4  11  22  36  62  96 121 161 209 254 311 362
#     4   9  18  34  60  85 116 155 203 258 299 356
#     4  10  19  38  60  90 120 159 200 262 306 364
#     4  11  23  42  62  86 128 171 198 248 319 378
#     4  10  21  40  65  85 126 165 208 245 318 374
#     4  10  22  38  64  96 117 162 210 264 299 365
#
# _framework density 20.597235999999999
#
# number of rings (size 3 to 8) (size 9 to 14) (size 15 to 20)
#    0.000    2.000    3.750    0.375    7.000    1.000 
#    0.000    1.250    0.000    1.500    0.000    0.000 
#    0.000    0.000    0.000    0.000    0.000    0.000 
#
# Total GULP energy -198329.923619 kJ/mol
# GULP energy per Si atom -12395.620226 kJ/mol
# Density = 2.055036 g / cm^3
# Si number density = 20.597236 Si / 1000 Ang^3
#
#
#
# Elastic Constant Matrix: (Units=GPa)
#
#
# Indices 1 2 3 4 5 6 
#
# 1 140.1656 32.5828 39.0238 -1.2039 -28.0508 -5.9143
# 2 32.5828 81.8484 33.8211 6.0433 -1.7744 -12.0598
# 3 39.0238 33.8211 101.0679 -2.7889 -14.1416 -3.6927
# 4 -1.2039 6.0433 -2.7889 24.1151 -1.3644 -5.7015
# 5 -28.0508 -1.7744 -14.1416 -1.3644 16.6560 3.5075
# 6 -5.9143 -12.0598 -3.6927 -5.7015 3.5075 31.2393
#
#
#
# Elastic Compliance Matrix: (Units=1/GPa)
#
#
# Indices 1 2 3 4 5 6 
#
# 1 0.012429 -0.004778 -0.000283 0.002632 0.020685 -0.001367
# 2 -0.004778 0.017358 -0.005641 -0.004604 -0.012564 0.005700
# 3 -0.000283 -0.005641 0.013458 0.003273 0.010884 -0.001265
# 4 0.002632 -0.004604 0.003273 0.045141 0.009087 0.006326
# 5 0.020685 -0.012564 0.010884 0.009087 0.105595 -0.009845
# 6 -0.001367 0.005700 -0.001265 0.006326 -0.009845 0.036063
#
#
# Mechanical properties :
#
#
# Convention : Reuss Voigt Hill
#
# Bulk Modulus (GPa) = 45.78431 59.32637 52.55534
# Shear Modulus (GPa) = 19.32538 28.91237 24.11888
#
# Velocity S-wave (km/s) = 3.06641 3.75067 3.42567
# Velocity P-wave (km/s) = 5.90032 6.90089 6.42013
#
# Compressibility (1/GPa) = 0.02184154
#
# Stress axis : x y z
#
# Youngs Moduli (GPa) = 80.46018 57.61031 74.30503
#
# Poissons Ratio (x) = 0.27527 0.02102
# Poissons Ratio (y) = 0.38445 0.41912
# Poissons Ratio (z) = 0.02276 0.32495
#
# Static dielectric constant tensor:
#      x y z
#    x 3.885340 -0.188870 -0.335510 
#    y -0.188870 3.788720 -0.052020 
#    z -0.335510 -0.052020 3.625610 
# 
# 
# High freq. dielectric constant tensor:
#      x y z
#    x 1.802460 -0.015860 -0.032950 
#    y -0.015860 1.807500 -0.004190 
#    z -0.032950 -0.004190 1.785390 
# 
# From -- ./inp_files/434300.got.cif
#   From: 2010.06.25/outbox.cif.g09.slc.cpg/sg2_218_cif.got.tgz:434300.got - 2010.06.27 13:26:56.
