data_PCOD8044893
_publ_section_title
;
Structure prediction by ZEFSAII (Michael W. Deem and Ramdas Pophale) SiO2 
 PCOD8044893
Probable space group: P 2
;
_chemical_formula_sum "Si O2"
_cell_formula_units_Z 14
_cell_length_a 22.718624
_cell_length_b 5.192526
_cell_length_c 13.612757
_cell_angle_alpha 90.000000
_cell_angle_beta 28.396945
_cell_angle_gamma 90.000000
_cell_volume 763.709016
_symmetry_space_group_name_H-M "P 2"
_symmetry_group_IT_number 3
_symmetry_cell_setting 'monoclinic'
loop_
_space_group_symop_operation_xyz
x,y,z
-x,y,-z
loop_
_atom_site_type_symbol
_atom_site_label
_atom_site_fract_x
_atom_site_fract_y
_atom_site_fract_z
Si Si1 0.510223 0.258220 0.100551
Si Si2 0.721722 0.537561 0.582858
Si Si3 0.932155 0.825122 0.497558
Si Si4 0.895592 0.274029 0.069636
Si Si5 0.650919 0.747171 0.886773
Si Si6 0.852256 0.770994 0.211908
Si Si7 0.952427 0.329376 0.345302
O O1 0.373754 0.352250 0.337097
O O2 0.500000 0.274205 0.000000
O O3 0.606830 0.474746 0.996800
O O4 0.556839 0.973189 0.061756
O O5 0.654711 0.724437 0.761391
O O6 0.794716 0.732018 0.404120
O O7 0.815555 0.343714 0.499760
O O8 0.786075 0.800198 0.731056
O O9 0.982789 0.605289 0.349450
O O10 0.000000 0.791240 0.500000
O O11 0.959634 0.106618 0.414978
O O12 0.950005 0.254036 0.881373
O O13 0.813900 0.533354 0.198121
O O14 0.000000 0.311791 0.000000
O O15 0.806163 0.033541 0.227290
O O16 0.000000 0.810068 0.000000
#
# Coordination Sequence:
#
# PCOD8044893 Si02
#       7
#     2   2   2   2   2   2   2
#     4  10  19  32  46  72 101 138 181 206 248 325
#     4  10  20  32  53  76 110 155 171 207 268 330
#     4  11  23  37  55  74 100 139 194 234 272 314
#     4  10  19  30  46  72 110 141 168 204 254 330
#     4  10  21  33  48  70 101 137 179 224 255 304
#     4  10  19  30  45  72 110 143 173 202 247 314
#     4  11  21  34  52  76 108 149 172 215 280 311
#
# _framework density 18.331589000000001
#
# number of rings (size 3 to 8) (size 9 to 14) (size 15 to 20)
#    0.000    1.714    2.857    5.143    6.000    4.571 
#    0.000    0.000    0.000    0.000    0.000    0.000 
#    0.000   17.143    0.000    0.000    0.000    0.000 
#
# Total GULP energy -173475.810803 kJ/mol
# GULP energy per Si atom -12391.129343 kJ/mol
# Density = 1.828987 g / cm^3
# Si number density = 18.331589 Si / 1000 Ang^3
#
#
#
# Elastic Constant Matrix: (Units=GPa)
#
#
# Indices 1 2 3 4 5 6 
#
# 1 60.9780 21.0217 24.7175 0.0000 -1.8134 0.0000
# 2 21.0217 135.0906 19.3105 0.0000 0.1835 0.0000
# 3 24.7175 19.3105 56.9846 0.0000 6.7301 0.0000
# 4 0.0000 0.0000 0.0000 52.2516 0.0000 21.9678
# 5 -1.8134 0.1835 6.7301 0.0000 14.3542 0.0000
# 6 0.0000 0.0000 0.0000 21.9678 0.0000 27.2912
#
#
#
# Elastic Compliance Matrix: (Units=1/GPa)
#
#
# Indices 1 2 3 4 5 6 
#
# 1 0.021054 -0.001956 -0.009301 0.000000 0.007046 0.000000
# 2 -0.001956 0.007981 -0.001921 0.000000 0.000552 0.000000
# 3 -0.009301 -0.001921 0.023681 0.000000 -0.012254 0.000000
# 4 0.000000 0.000000 0.000000 0.028928 0.000000 -0.023285
# 5 0.007046 0.000552 -0.012254 0.000000 0.076294 0.000000
# 6 0.000000 0.000000 0.000000 -0.023285 0.000000 0.055385
#
#
# Mechanical properties :
#
#
# Convention : Reuss Voigt Hill
#
# Bulk Modulus (GPa) = 37.93864 42.57253 40.25558
# Shear Modulus (GPa) = 20.12346 31.31296 25.71821
#
# Velocity S-wave (km/s) = 3.31682 4.13745 3.74965
# Velocity P-wave (km/s) = 5.95056 6.78960 6.38388
#
# Compressibility (1/GPa) = 0.02635835
#
# Stress axis : x y z
#
# Youngs Moduli (GPa) = 47.49781 125.30222 42.22730
#
# Poissons Ratio (x) = 0.24511 0.39277
# Poissons Ratio (y) = 0.09291 0.08112
# Poissons Ratio (z) = 0.44180 0.24072
#
# Static dielectric constant tensor:
#      x y z
#    x 2.846890 0.000000 -0.048030 
#    y 0.000000 4.494100 0.000000 
#    z -0.048030 0.000000 3.427460 
# 
# 
# High freq. dielectric constant tensor:
#      x y z
#    x 1.632950 0.000000 0.002990 
#    y 0.000000 1.746070 0.000000 
#    z 0.002990 0.000000 1.697990 
# 
# From -- ./inp_files/12596.got.cif
#   From: 2010.03.12/outbox.cif.g09.slc.cpg/sg3_7_cif.got.tgz:12596.got - 2010.03.31 09:20:49.
