data_PCOD8044001
_publ_section_title
;
Structure prediction by ZEFSAII (Michael W. Deem and Ramdas Pophale) SiO2 
 PCOD8044001
Probable space group: P -1
;
_chemical_formula_sum "Si O2"
_cell_formula_units_Z 14
_cell_length_a 24.593295
_cell_length_b 8.953910
_cell_length_c 16.071441
_cell_angle_alpha 35.135026
_cell_angle_beta 161.349641
_cell_angle_gamma 143.483719
_cell_volume 643.287111
_symmetry_space_group_name_H-M "P -1"
_symmetry_group_IT_number 2
_symmetry_cell_setting 'triclinic'
loop_
_space_group_symop_operation_xyz
x,y,z
-x,-y,-z
loop_
_atom_site_type_symbol
_atom_site_label
_atom_site_fract_x
_atom_site_fract_y
_atom_site_fract_z
Si Si1 0.395765 0.905555 0.152874
Si Si2 0.103887 0.419363 0.964407
Si Si3 0.320123 0.134333 0.287466
Si Si4 0.551182 0.321023 0.841864
Si Si5 0.147320 0.224767 0.581425
Si Si6 0.022066 0.771396 0.957437
Si Si7 0.767189 0.935841 0.399579
O O1 0.538546 0.965904 0.403313
O O2 0.482195 0.809612 0.238331
O O3 0.245620 0.676218 0.069318
O O4 0.320575 0.178768 0.902788
O O5 0.923766 0.500900 0.630992
O O6 0.169508 0.231587 0.078144
O O7 0.071998 0.265215 0.073977
O O8 0.407570 0.364714 0.248495
O O9 0.224629 0.890805 0.205784
O O10 0.386397 0.252331 0.691775
O O11 0.713596 0.213693 0.168878
O O12 0.180374 0.217365 0.534647
O O13 0.000000 0.000000 0.500000
O O14 0.930493 0.981110 0.677235
O O15 0.000000 0.500000 0.000000
#
# Coordination Sequence:
#
# PCOD8044001 Si02
#       7
#     2   2   2   2   2   2   2
#     4   9  18  36  63  91 120 157 203 248 303 363
#     4  10  19  38  63  89 121 159 202 245 304 364
#     4  11  22  38  63  94 119 160 210 251 294 363
#     4   9  19  36  64  91 121 158 201 253 302 359
#     4   9  18  34  63  89 119 161 197 241 305 365
#     4  12  24  38  60  87 128 162 201 253 309 355
#     4  10  19  37  62  88 124 162 195 243 314 363
#
# _framework density 21.763221999999999
#
# number of rings (size 3 to 8) (size 9 to 14) (size 15 to 20)
#    0.000    2.000    1.429    4.714    0.000    0.571 
#    0.000    3.571    6.286    0.000    0.000    0.000 
#    0.000    0.000    0.000    0.000    0.000    0.000 
#
# Total GULP energy -173558.985868 kJ/mol
# GULP energy per Si atom -12397.070419 kJ/mol
# Density = 2.171369 g / cm^3
# Si number density = 21.763222 Si / 1000 Ang^3
#
#
#
# Elastic Constant Matrix: (Units=GPa)
#
#
# Indices 1 2 3 4 5 6 
#
# 1 81.3904 28.8940 37.9799 1.7115 -3.4562 28.8890
# 2 28.8940 69.1702 57.4920 13.1510 -16.5556 -3.1790
# 3 37.9799 57.4920 174.0880 -3.3420 -23.5562 -1.8329
# 4 1.7115 13.1510 -3.3420 28.2356 1.8121 -1.8159
# 5 -3.4562 -16.5556 -23.5562 1.8121 36.7457 -6.1719
# 6 28.8890 -3.1790 -1.8329 -1.8159 -6.1719 22.7513
#
#
#
# Elastic Compliance Matrix: (Units=1/GPa)
#
#
# Indices 1 2 3 4 5 6 
#
# 1 0.047355 -0.024206 -0.005988 0.004641 -0.022218 -0.069652
# 2 -0.024206 0.037531 -0.004387 -0.015218 0.019227 0.039628
# 3 -0.005988 -0.004387 0.009323 0.003802 0.004820 0.009353
# 4 0.004641 -0.015218 0.003802 0.042730 -0.007138 -0.006240
# 5 -0.022218 0.019227 0.004820 -0.007138 0.044412 0.042765
# 6 -0.069652 0.039628 0.009353 -0.006240 0.042765 0.149790
#
#
# Mechanical properties :
#
#
# Convention : Reuss Voigt Hill
#
# Bulk Modulus (GPa) = 39.92336 63.70894 51.81615
# Shear Modulus (GPa) = 12.23536 30.89870 21.56703
#
# Velocity S-wave (km/s) = 2.37366 3.77207 3.15141
# Velocity P-wave (km/s) = 5.08887 6.95043 6.09119
#
# Compressibility (1/GPa) = 0.02504799
#
# Stress axis : x y z
#
# Youngs Moduli (GPa) = 21.11699 26.64450 107.26064
#
# Poissons Ratio (x) = 0.64495 0.64228
# Poissons Ratio (y) = 0.51115 0.47055
# Poissons Ratio (z) = 0.12645 0.11689
#
# Static dielectric constant tensor:
#      x y z
#    x 4.032830 0.257900 -0.016280 
#    y 0.257900 3.611560 -0.329500 
#    z -0.016280 -0.329500 4.492210 
# 
# 
# High freq. dielectric constant tensor:
#      x y z
#    x 1.860780 0.026070 0.002090 
#    y 0.026070 1.814600 -0.022370 
#    z 0.002090 -0.022370 1.873860 
# 
# From -- ./inp_files/174810.got.cif
#   From: 2010.06.25/outbox.cif.g09.slc.cpg/sg2_88_cif.got.tgz:174810.got - 2010.06.27 13:26:56.
