data_PCOD8044100
_publ_section_title
;
Structure prediction by ZEFSAII (Michael W. Deem and Ramdas Pophale) SiO2 
 PCOD8044100
Probable space group: P -1
;
_chemical_formula_sum "Si O2"
_cell_formula_units_Z 14
_cell_length_a 10.795447
_cell_length_b 13.871770
_cell_length_c 13.211490
_cell_angle_alpha 33.923678
_cell_angle_beta 116.066071
_cell_angle_gamma 139.738954
_cell_volume 601.807784
_symmetry_space_group_name_H-M "P -1"
_symmetry_group_IT_number 2
_symmetry_cell_setting 'triclinic'
loop_
_space_group_symop_operation_xyz
x,y,z
-x,-y,-z
loop_
_atom_site_type_symbol
_atom_site_label
_atom_site_fract_x
_atom_site_fract_y
_atom_site_fract_z
Si Si1 0.090755 0.298952 0.377878
Si Si2 0.893491 0.802088 0.229805
Si Si3 0.162370 0.295022 0.173410
Si Si4 0.976104 0.382072 0.873460
Si Si5 0.642403 0.877857 0.866042
Si Si6 0.803813 0.386551 0.459750
Si Si7 0.599755 0.811574 0.147958
O O1 0.112758 0.300402 0.265256
O O2 0.982279 0.377723 0.291823
O O3 0.333282 0.529410 0.321638
O O4 0.933053 0.990696 0.635349
O O5 0.726440 0.481630 0.409284
O O6 0.736871 0.773920 0.264327
O O7 0.115384 0.950917 0.241221
O O8 0.000000 0.000000 0.000000
O O9 0.434891 0.561122 0.021935
O O10 0.052019 0.331333 0.033575
O O11 0.116111 0.473774 0.743663
O O12 0.708658 0.078998 0.017300
O O13 0.608641 0.046477 0.675032
O O14 0.643260 0.876887 0.988092
O O15 0.000000 0.500000 0.500000
#
# Coordination Sequence:
#
# PCOD8044100 Si02
#       7
#     2   2   2   2   2   2   2
#     4  10  24  47  64  89 131 175 213 265 320 370
#     4   9  16  35  62  93 123 162 206 259 316 378
#     4  10  24  45  64  91 131 174 216 255 323 388
#     4  12  22  40  66 100 127 162 220 267 312 386
#     4   9  19  40  63  92 127 169 203 260 325 377
#     4  10  19  37  63  95 129 162 204 265 329 368
#     4  10  20  40  67  93 125 165 217 263 316 375
#
# _framework density 23.263241000000001
#
# number of rings (size 3 to 8) (size 9 to 14) (size 15 to 20)
#    0.000    2.000    4.286    0.857    0.000    3.429 
#   15.429    2.857    0.000    0.000    0.000    0.000 
#    0.000    0.000    0.000    0.000    0.000    0.000 
#
# Total GULP energy -173503.613913 kJ/mol
# GULP energy per Si atom -12393.115279 kJ/mol
# Density = 2.321029 g / cm^3
# Si number density = 23.263241 Si / 1000 Ang^3
#
#
#
# Elastic Constant Matrix: (Units=GPa)
#
#
# Indices 1 2 3 4 5 6 
#
# 1 63.7951 20.3271 38.1006 -13.7256 27.8651 6.6268
# 2 20.3271 97.7132 57.1447 -16.5415 5.0600 13.0228
# 3 38.1006 57.1447 151.5633 -29.4319 32.6310 13.5765
# 4 -13.7256 -16.5415 -29.4319 40.0600 -1.3816 -0.3828
# 5 27.8651 5.0600 32.6310 -1.3816 35.1632 -4.0195
# 6 6.6268 13.0228 13.5765 -0.3828 -4.0195 26.9815
#
#
#
# Elastic Compliance Matrix: (Units=1/GPa)
#
#
# Indices 1 2 3 4 5 6 
#
# 1 0.029945 -0.003034 0.002009 0.009485 -0.026002 -0.010640
# 2 -0.003034 0.014202 -0.005170 0.001168 0.004888 -0.002763
# 3 0.002009 -0.005170 0.012939 0.007541 -0.013289 -0.006382
# 4 0.009485 0.001168 0.007541 0.033662 -0.014313 -0.008343
# 5 -0.026002 0.004888 -0.013289 -0.014313 0.062374 0.019802
# 6 -0.010640 -0.002763 -0.006382 -0.008343 0.019802 0.047052
#
#
# Mechanical properties :
#
#
# Convention : Reuss Voigt Hill
#
# Bulk Modulus (GPa) = 22.37318 60.46848 41.42083
# Shear Modulus (GPa) = 21.98176 33.60755 27.79465
#
# Velocity S-wave (km/s) = 3.07728 3.80500 3.46032
# Velocity P-wave (km/s) = 4.71852 6.73451 5.81455
#
# Compressibility (1/GPa) = 0.04469637
#
# Stress axis : x y z
#
# Youngs Moduli (GPa) = 33.39419 70.41490 77.28615
#
# Poissons Ratio (x) = 0.21366 -0.15530
# Poissons Ratio (y) = 0.10133 0.39955
# Poissons Ratio (z) = -0.06710 0.36403
#
# Static dielectric constant tensor:
#      x y z
#    x 4.324520 0.160470 0.333240 
#    y 0.160470 4.272560 -0.295120 
#    z 0.333240 -0.295120 4.755640 
# 
# 
# High freq. dielectric constant tensor:
#      x y z
#    x 1.894360 -0.010250 0.019400 
#    y -0.010250 1.912250 -0.002630 
#    z 0.019400 -0.002630 1.936000 
# 
# From -- ./inp_files/522164.got.cif
#   From: 2010.06.25/outbox.cif.g09.slc.cpg/sg2_262_cif.got.tgz:522164.got - 2010.06.27 13:26:56.
