data_PCOD8044407
_publ_section_title
;
Structure prediction by ZEFSAII (Michael W. Deem and Ramdas Pophale) SiO2 
 PCOD8044407
Probable space group: P -1
;
_chemical_formula_sum "Si O2"
_cell_formula_units_Z 16
_cell_length_a 17.560891
_cell_length_b 12.882161
_cell_length_c 8.337238
_cell_angle_alpha 123.023448
_cell_angle_beta 86.300768
_cell_angle_gamma 46.932680
_cell_volume 810.168957
_symmetry_space_group_name_H-M "P -1"
_symmetry_group_IT_number 2
_symmetry_cell_setting 'triclinic'
loop_
_space_group_symop_operation_xyz
x,y,z
-x,-y,-z
loop_
_atom_site_type_symbol
_atom_site_label
_atom_site_fract_x
_atom_site_fract_y
_atom_site_fract_z
Si Si1 0.451758 0.894474 0.536394
Si Si2 0.803627 0.847068 0.400385
Si Si3 0.717172 0.401932 0.599510
Si Si4 0.339567 0.309497 0.926949
Si Si5 0.435291 0.657736 0.987226
Si Si6 0.677857 0.411704 0.244532
Si Si7 0.923961 0.417506 0.029712
Si Si8 0.975959 0.098390 0.912650
O O1 0.548445 0.758334 0.244780
O O2 0.537089 0.696866 0.488988
O O3 0.293026 0.052990 0.658785
O O4 0.431111 0.059550 0.750699
O O5 0.931868 0.760542 0.250811
O O6 0.698744 0.060885 0.723183
O O7 0.868284 0.628486 0.283539
O O8 0.722884 0.365390 0.381703
O O9 0.704220 0.562738 0.793141
O O10 0.579714 0.520186 0.784571
O O11 0.880266 0.130537 0.411211
O O12 0.198128 0.473846 0.976983
O O13 0.500000 0.500000 0.000000
O O14 0.368961 0.659230 0.862984
O O15 0.823962 0.251245 0.988357
O O16 0.956427 0.276936 0.055132
O O17 0.000000 0.000000 0.000000
#
# Coordination Sequence:
#
# PCOD8044407 Si02
#       8
#     2   2   2   2   2   2   2   2
#     4  10  19  38  60  88 117 151 196 249 294 352
#     4  10  21  37  62  93 120 150 198 249 298 350
#     4  11  24  39  56  86 118 157 199 244 298 354
#     4  10  20  36  63  87 115 152 203 244 292 355
#     4  12  22  38  62  89 119 155 199 249 295 356
#     4  11  23  39  58  84 123 159 193 246 301 349
#     4  10  21  38  63  90 119 156 196 249 299 348
#     4  10  23  40  59  84 120 160 198 244 296 356
#
# _framework density 19.748967
#
# number of rings (size 3 to 8) (size 9 to 14) (size 15 to 20)
#    0.000    1.500    3.750    1.125    1.750    1.000 
#    0.000    1.250    0.000    3.000    0.000    0.000 
#    0.000    0.000    0.000    0.000    0.000    0.000 
#
# Total GULP energy -198225.974790 kJ/mol
# GULP energy per Si atom -12389.123424 kJ/mol
# Density = 1.970402 g / cm^3
# Si number density = 19.748967 Si / 1000 Ang^3
#
#
#
# Elastic Constant Matrix: (Units=GPa)
#
#
# Indices 1 2 3 4 5 6 
#
# 1 104.1630 38.0005 60.8893 7.8262 1.2317 9.4747
# 2 38.0005 67.7972 40.6809 15.7083 8.8200 12.8509
# 3 60.8893 40.6809 141.8263 19.4324 1.7239 5.3615
# 4 7.8262 15.7083 19.4324 28.2848 -7.7045 5.7984
# 5 1.2317 8.8200 1.7239 -7.7045 41.7910 -0.7223
# 6 9.4747 12.8509 5.3615 5.7984 -0.7223 27.9425
#
#
#
# Elastic Compliance Matrix: (Units=1/GPa)
#
#
# Indices 1 2 3 4 5 6 
#
# 1 0.014534 -0.005781 -0.005001 0.003469 0.001603 -0.001988
# 2 -0.005781 0.024187 -0.002682 -0.010500 -0.006874 -0.006648
# 3 -0.005001 -0.002682 0.010581 -0.004952 -0.000603 0.001911
# 4 0.003469 -0.010500 -0.004952 0.047654 0.011017 -0.005001
# 5 0.001603 -0.006874 -0.000603 0.011017 0.027408 0.001156
# 6 -0.001988 -0.006648 0.001911 -0.005001 0.001156 0.040220
#
#
# Mechanical properties :
#
#
# Convention : Reuss Voigt Hill
#
# Bulk Modulus (GPa) = 44.69730 65.88085 55.28908
# Shear Modulus (GPa) = 25.12934 31.21806 28.17370
#
# Velocity S-wave (km/s) = 3.57100 3.98017 3.78112
# Velocity P-wave (km/s) = 6.29957 7.38606 6.86434
#
# Compressibility (1/GPa) = 0.02237271
#
# Stress axis : x y z
#
# Youngs Moduli (GPa) = 68.80355 41.34530 94.50902
#
# Poissons Ratio (x) = 0.23901 0.47267
# Poissons Ratio (y) = 0.39775 0.25349
# Poissons Ratio (z) = 0.34411 0.11090
#
# Static dielectric constant tensor:
#      x y z
#    x 3.718710 -0.078270 0.039020 
#    y -0.078270 3.329190 0.528280 
#    z 0.039020 0.528280 3.693160 
# 
# 
# High freq. dielectric constant tensor:
#      x y z
#    x 1.788470 0.000540 -0.014740 
#    y 0.000540 1.740110 0.034050 
#    z -0.014740 0.034050 1.779010 
# 
# From -- ./inp_files/306452.got.cif
#   From: 2010.06.25/outbox.cif.g09.slc.cpg/sg2_154_cif.got.tgz:306452.got - 2010.06.27 13:26:56.
