data_PCOD8044818
_publ_section_title
;
Structure prediction by ZEFSAII (Michael W. Deem and Ramdas Pophale) SiO2 
 PCOD8044818
Probable space group: P -1
;
_chemical_formula_sum "Si O2"
_cell_formula_units_Z 12
_cell_length_a 9.159175
_cell_length_b 10.633389
_cell_length_c 8.020172
_cell_angle_alpha 125.082113
_cell_angle_beta 110.259052
_cell_angle_gamma 102.786416
_cell_volume 501.792190
_symmetry_space_group_name_H-M "P -1"
_symmetry_group_IT_number 2
_symmetry_cell_setting 'triclinic'
loop_
_space_group_symop_operation_xyz
x,y,z
-x,-y,-z
loop_
_atom_site_type_symbol
_atom_site_label
_atom_site_fract_x
_atom_site_fract_y
_atom_site_fract_z
Si Si1 0.583037 0.881218 0.918937
Si Si2 0.422306 0.590245 0.153105
Si Si3 0.239053 0.159243 0.324265
Si Si4 0.046567 0.477228 0.815872
Si Si5 0.933872 0.067486 0.377903
Si Si6 0.732994 0.515956 0.625916
O O1 0.727279 0.964148 0.881996
O O2 0.422619 0.671581 0.667523
O O3 0.500000 0.000000 0.000000
O O4 0.713043 0.919400 0.160184
O O5 0.604933 0.782451 0.425918
O O6 0.315362 0.476117 0.192855
O O7 0.500000 0.500000 0.000000
O O8 0.273197 0.606312 0.992832
O O9 0.271256 0.331151 0.361815
O O10 0.035541 0.054133 0.242751
O O11 0.980879 0.270388 0.584612
O O12 0.933869 0.538228 0.702782
O O13 0.000000 0.500000 0.000000
O O14 0.000000 0.000000 0.500000
#
# Coordination Sequence:
#
# PCOD8044818 Si02
#       6
#     2   2   2   2   2   2
#     4  11  23  46  66 100 138 169 217 277 338 391
#     4  10  19  38  68  97 124 166 224 264 316 381
#     4  11  25  44  69  99 127 185 221 268 330 397
#     4  10  22  42  67  99 131 171 221 272 325 390
#     4  12  27  45  67  95 138 178 218 274 339 390
#     4  10  23  43  71  94 135 173 225 268 322 401
#
# _framework density 23.914282
#
# number of rings (size 3 to 8) (size 9 to 14) (size 15 to 20)
#    0.000    1.333    3.333    2.500    7.000    0.667 
#    0.000    0.833    3.667    0.000    0.000    0.000 
#    0.000    0.000    0.000    0.000    0.000    0.000 
#
# Total GULP energy -148662.537621 kJ/mol
# GULP energy per Si atom -12388.544802 kJ/mol
# Density = 2.385985 g / cm^3
# Si number density = 23.914282 Si / 1000 Ang^3
#
#
#
# Elastic Constant Matrix: (Units=GPa)
#
#
# Indices 1 2 3 4 5 6 
#
# 1 192.0912 43.6600 69.9381 -11.9038 8.2969 -31.3865
# 2 43.6600 60.3663 25.8026 -8.0023 -1.6481 -9.7095
# 3 69.9381 25.8026 124.2110 -21.2555 26.0401 -26.8986
# 4 -11.9038 -8.0023 -21.2555 22.5619 -11.2159 5.8832
# 5 8.2969 -1.6481 26.0401 -11.2159 70.5897 -11.1626
# 6 -31.3865 -9.7095 -26.8986 5.8832 -11.1626 32.9551
#
#
#
# Elastic Compliance Matrix: (Units=1/GPa)
#
#
# Indices 1 2 3 4 5 6 
#
# 1 0.007741 -0.003755 -0.002931 -0.000801 0.000625 0.004228
# 2 -0.003755 0.020891 -0.001669 0.004782 0.002496 0.001209
# 3 -0.002931 -0.001669 0.012959 0.007507 -0.002473 0.005116
# 4 -0.000801 0.004782 0.007507 0.056027 0.006158 -0.001143
# 5 0.000625 0.002496 -0.002473 0.006158 0.016651 0.003853
# 6 0.004228 0.001209 0.005116 -0.001143 0.003853 0.040413
#
#
# Mechanical properties :
#
#
# Convention : Reuss Voigt Hill
#
# Bulk Modulus (GPa) = 40.19018 72.82998 56.51008
# Shear Modulus (GPa) = 27.82667 41.03919 34.43293
#
# Velocity S-wave (km/s) = 3.41486 4.14707 3.79865
# Velocity P-wave (km/s) = 5.69129 7.31106 6.55143
#
# Compressibility (1/GPa) = 0.02488170
#
# Stress axis : x y z
#
# Youngs Moduli (GPa) = 129.18887 47.86794 77.16815
#
# Poissons Ratio (x) = 0.17973 0.22617
# Poissons Ratio (y) = 0.48506 0.12877
# Poissons Ratio (z) = 0.37863 0.07988
#
# Static dielectric constant tensor:
#      x y z
#    x 4.821820 -0.142890 -0.827090 
#    y -0.142890 4.496110 2.660320 
#    z -0.827090 2.660320 18.351920 
# 
# 
# High freq. dielectric constant tensor:
#      x y z
#    x 1.984830 -0.013110 0.008370 
#    y -0.013110 1.892900 -0.027880 
#    z 0.008370 -0.027880 1.975710 
# 
# From -- ./inp_files/183006.got.cif
#   From: 2010.06.25/outbox.cif.g09.slc.cpg/sg2_92_cif.got.tgz:183006.got - 2010.06.27 13:26:56.
