data_PCOD8044299
_publ_section_title
;
Structure prediction by ZEFSAII (Michael W. Deem and Ramdas Pophale) SiO2 
 PCOD8044299
Probable space group: P -1
;
_chemical_formula_sum "Si O2"
_cell_formula_units_Z 16
_cell_length_a 8.956567
_cell_length_b 21.240704
_cell_length_c 10.807670
_cell_angle_alpha 43.325897
_cell_angle_beta 126.793159
_cell_angle_gamma 149.936761
_cell_volume 703.919799
_symmetry_space_group_name_H-M "P -1"
_symmetry_group_IT_number 2
_symmetry_cell_setting 'triclinic'
loop_
_space_group_symop_operation_xyz
x,y,z
-x,-y,-z
loop_
_atom_site_type_symbol
_atom_site_label
_atom_site_fract_x
_atom_site_fract_y
_atom_site_fract_z
Si Si1 0.083795 0.384032 0.106110
Si Si2 0.022439 0.075331 0.284553
Si Si3 0.205676 0.071338 0.877989
Si Si4 0.447587 0.360348 0.615610
Si Si5 0.688050 0.518933 0.258362
Si Si6 0.659767 0.362548 0.269446
Si Si7 0.947748 0.633503 0.608293
Si Si8 0.225794 0.826485 0.962840
O O1 0.423560 0.479260 0.129663
O O2 0.944792 0.331592 0.247373
O O3 0.869267 0.235074 0.135222
O O4 0.091806 0.488589 0.902296
O O5 0.348098 0.245809 0.209156
O O6 0.783890 0.066824 0.181481
O O7 0.000000 0.000000 0.500000
O O8 0.983907 0.006915 0.232189
O O9 0.407818 0.239844 0.735757
O O10 0.429918 0.071274 0.993389
O O11 0.000000 0.000000 0.000000
O O12 0.646758 0.487351 0.427937
O O13 0.645073 0.454712 0.700522
O O14 0.126401 0.288671 0.572689
O O15 0.653419 0.405674 0.339395
O O16 0.004958 0.689907 0.145399
O O17 0.780655 0.304132 0.427275
#
# Coordination Sequence:
#
# PCOD8044299 Si02
#       8
#     2   2   2   2   2   2   2   2
#     4  10  19  37  69  99 126 158 214 291 333 390
#     4  12  27  45  69  97 137 186 230 275 320 417
#     4  12  30  46  67  95 144 192 226 270 327 419
#     4  10  23  44  61 100 137 172 222 274 353 391
#     4  10  19  39  73  99 129 163 218 302 333 396
#     4  11  20  37  63  97 123 164 223 267 340 383
#     4  10  23  35  67  96 130 165 207 292 338 394
#     4  11  23  46  72  98 131 177 233 278 346 391
#
# _framework density 22.729861
#
# number of rings (size 3 to 8) (size 9 to 14) (size 15 to 20)
#    0.000    1.250    2.500    3.750    5.250    5.000 
#    0.000    1.250    0.000    0.000    0.000    0.000 
#    0.000    0.000    0.000    0.000    0.000    0.000 
#
# Total GULP energy -198343.495371 kJ/mol
# GULP energy per Si atom -12396.468461 kJ/mol
# Density = 2.267813 g / cm^3
# Si number density = 22.729861 Si / 1000 Ang^3
#
#
#
# Elastic Constant Matrix: (Units=GPa)
#
#
# Indices 1 2 3 4 5 6 
#
# 1 122.5292 24.1313 44.2194 10.2444 18.1795 1.8854
# 2 24.1313 65.3502 20.6869 2.6053 -10.3051 -13.9688
# 3 44.2194 20.6869 82.5586 3.9975 4.9598 -6.1698
# 4 10.2444 2.6053 3.9975 25.4439 -3.6765 5.8983
# 5 18.1795 -10.3051 4.9598 -3.6765 36.5284 10.0304
# 6 1.8854 -13.9688 -6.1698 5.8983 10.0304 47.3709
#
#
#
# Elastic Compliance Matrix: (Units=1/GPa)
#
#
# Indices 1 2 3 4 5 6 
#
# 1 0.012095 -0.003862 -0.004891 -0.004642 -0.006849 -0.000229
# 2 -0.003862 0.019599 -0.002939 0.000025 0.006720 0.004124
# 3 -0.004891 -0.002939 0.015695 -0.000741 -0.001064 0.001690
# 4 -0.004642 0.000025 -0.000741 0.044259 0.008876 -0.007295
# 5 -0.006849 0.006720 -0.001064 0.008876 0.035505 -0.006508
# 6 -0.000229 0.004124 0.001690 -0.007295 -0.006508 0.024842
#
#
# Mechanical properties :
#
#
# Convention : Reuss Voigt Hill
#
# Bulk Modulus (GPa) = 41.65940 49.83480 45.74710
# Shear Modulus (GPa) = 27.26569 33.96200 30.61385
#
# Velocity S-wave (km/s) = 3.46722 3.86963 3.67393
# Velocity P-wave (km/s) = 5.86486 6.47594 6.17796
#
# Compressibility (1/GPa) = 0.02400419
#
# Stress axis : x y z
#
# Youngs Moduli (GPa) = 82.67888 51.02341 63.71401
#
# Poissons Ratio (x) = 0.19704 0.31165
# Poissons Ratio (y) = 0.31928 0.18727
# Poissons Ratio (z) = 0.40442 0.14997
#
# Static dielectric constant tensor:
#      x y z
#    x 4.254610 -0.134060 0.222330 
#    y -0.134060 3.976290 0.227080 
#    z 0.222330 0.227080 3.891580 
# 
# 
# High freq. dielectric constant tensor:
#      x y z
#    x 1.911120 -0.014380 0.017500 
#    y -0.014380 1.890280 0.020180 
#    z 0.017500 0.020180 1.878000 
# 
# From -- ./inp_files/405441.got.cif
#   From: 2010.06.25/outbox.cif.g09.slc.cpg/sg2_203_cif.got.tgz:405441.got - 2010.06.27 13:26:56.
