data_PCOD8044309
_publ_section_title
;
Structure prediction by ZEFSAII (Michael W. Deem and Ramdas Pophale) SiO2 
 PCOD8044309
Probable space group: P -1
;
_chemical_formula_sum "Si O2"
_cell_formula_units_Z 14
_cell_length_a 14.328133
_cell_length_b 14.303121
_cell_length_c 9.433805
_cell_angle_alpha 70.997362
_cell_angle_beta 48.938264
_cell_angle_gamma 31.149930
_cell_volume 599.543761
_symmetry_space_group_name_H-M "P -1"
_symmetry_group_IT_number 2
_symmetry_cell_setting 'triclinic'
loop_
_space_group_symop_operation_xyz
x,y,z
-x,-y,-z
loop_
_atom_site_type_symbol
_atom_site_label
_atom_site_fract_x
_atom_site_fract_y
_atom_site_fract_z
Si Si1 0.270067 0.241394 0.194768
Si Si2 0.023875 0.723814 0.637156
Si Si3 0.701958 0.750140 0.523778
Si Si4 0.682643 0.466048 0.843514
Si Si5 0.128114 0.160392 0.769300
Si Si6 0.343204 0.513875 0.696940
Si Si7 0.410908 0.803889 0.174347
O O1 0.412070 0.134050 0.262925
O O2 0.261128 0.142577 0.164551
O O3 0.930665 0.499043 0.434088
O O4 0.377904 0.255393 0.987617
O O5 0.252661 0.545135 0.373382
O O6 0.192299 0.571761 0.684662
O O7 0.907548 0.921422 0.661997
O O8 0.840602 0.743150 0.306644
O O9 0.438668 0.893322 0.626133
O O10 0.995618 0.221081 0.721497
O O11 0.500000 0.500000 0.000000
O O12 0.504454 0.676562 0.003467
O O13 0.903444 0.282680 0.047256
O O14 0.500000 0.500000 0.500000
O O15 0.568561 0.277766 0.664304
#
# Coordination Sequence:
#
# PCOD8044309 Si02
#       7
#     2   2   2   2   2   2   2
#     4  11  20  41  67 103 139 182 227 287 360 421
#     4  12  25  42  71 105 134 188 237 281 357 421
#     4  10  19  37  72  99 142 174 227 297 349 418
#     4  11  23  44  71  98 136 188 238 279 342 423
#     4  10  20  41  66 103 134 185 227 289 357 407
#     4  11  25  45  65  97 144 187 234 289 345 418
#     4  11  25  47  68 102 145 180 229 299 353 408
#
# _framework density 23.351089999999999
#
# number of rings (size 3 to 8) (size 9 to 14) (size 15 to 20)
#    0.000    1.143    4.286    3.857    0.000    4.000 
#    0.000    1.429    0.000   11.143    0.000    0.000 
#    0.000    0.000    0.000    0.000    0.000    0.000 
#
# Total GULP energy -173560.586336 kJ/mol
# GULP energy per Si atom -12397.184738 kJ/mol
# Density = 2.329794 g / cm^3
# Si number density = 23.351090 Si / 1000 Ang^3
#
#
#
# Elastic Constant Matrix: (Units=GPa)
#
#
# Indices 1 2 3 4 5 6 
#
# 1 79.9832 19.3232 9.4890 8.8034 -6.4511 11.1059
# 2 19.3232 100.1284 19.5722 -0.5740 12.8015 5.1444
# 3 9.4890 19.5722 78.6604 -24.5066 -7.7692 13.1517
# 4 8.8034 -0.5740 -24.5066 34.4686 -0.6122 -6.3855
# 5 -6.4511 12.8015 -7.7692 -0.6122 47.9838 -6.3130
# 6 11.1059 5.1444 13.1517 -6.3855 -6.3130 39.4858
#
#
#
# Elastic Compliance Matrix: (Units=1/GPa)
#
#
# Indices 1 2 3 4 5 6 
#
# 1 0.014690 -0.002451 -0.002254 -0.006064 0.001690 -0.003772
# 2 -0.002451 0.011691 -0.003492 -0.001852 -0.004120 -0.000629
# 3 -0.002254 -0.003492 0.018817 0.013508 0.003528 -0.002430
# 4 -0.006064 -0.001852 0.013508 0.041032 0.002990 0.004561
# 5 0.001690 -0.004120 0.003528 0.002990 0.023181 0.003076
# 6 -0.003772 -0.000629 -0.002430 0.004561 0.003076 0.028507
#
#
# Mechanical properties :
#
#
# Convention : Reuss Voigt Hill
#
# Bulk Modulus (GPa) = 34.71760 39.50454 37.11107
# Shear Modulus (GPa) = 30.50387 38.41347 34.45867
#
# Velocity S-wave (km/s) = 3.61822 4.06031 3.84562
# Velocity P-wave (km/s) = 5.68817 6.23986 5.97039
#
# Compressibility (1/GPa) = 0.02880384
#
# Stress axis : x y z
#
# Youngs Moduli (GPa) = 68.07476 85.53330 53.14374
#
# Poissons Ratio (x) = 0.20968 0.11976
# Poissons Ratio (y) = 0.16688 0.18558
# Poissons Ratio (z) = 0.15341 0.29868
#
# Static dielectric constant tensor:
#      x y z
#    x 4.257710 -0.088680 0.011200 
#    y -0.088680 4.467370 0.119980 
#    z 0.011200 0.119980 4.334090 
# 
# 
# High freq. dielectric constant tensor:
#      x y z
#    x 1.914930 -0.007930 -0.009440 
#    y -0.007930 1.921770 -0.002830 
#    z -0.009440 -0.002830 1.933560 
# 
# From -- ./inp_files/262513.got.cif
#   From: 2010.06.25/outbox.cif.g09.slc.cpg/sg2_132_cif.got.tgz:262513.got - 2010.06.27 13:26:56.
