data_PCOD8044948
_publ_section_title
;
Structure prediction by ZEFSAII (Michael W. Deem and Ramdas Pophale) SiO2 
 PCOD8044948
Probable space group: P 2
;
_chemical_formula_sum "Si O2"
_cell_formula_units_Z 12
_cell_length_a 18.200933
_cell_length_b 7.122510
_cell_length_c 9.358893
_cell_angle_alpha 90.000000
_cell_angle_beta 151.959417
_cell_angle_gamma 90.000000
_cell_volume 570.346177
_symmetry_space_group_name_H-M "P 2"
_symmetry_group_IT_number 3
_symmetry_cell_setting 'monoclinic'
loop_
_space_group_symop_operation_xyz
x,y,z
-x,y,-z
loop_
_atom_site_type_symbol
_atom_site_label
_atom_site_fract_x
_atom_site_fract_y
_atom_site_fract_z
Si Si1 0.155837 0.115120 0.324651
Si Si2 0.598112 0.435459 0.304533
Si Si3 0.895732 0.147821 0.446761
Si Si4 0.380258 0.313259 0.177498
Si Si5 0.852222 0.720506 0.828934
Si Si6 0.912617 0.529524 0.218598
O O1 0.304954 0.247059 0.563816
O O2 0.126537 0.044116 0.438830
O O3 0.178795 0.938363 0.258752
O O4 0.000000 0.221725 0.000000
O O5 0.483943 0.418171 0.240557
O O6 0.703694 0.610216 0.521480
O O7 0.500000 0.493697 0.000000
O O8 0.000000 0.048918 0.500000
O O9 0.974271 0.350182 0.621214
O O10 0.722511 0.158208 0.080845
O O11 0.500000 0.224333 0.500000
O O12 0.262693 0.459936 0.049987
O O13 0.893816 0.685836 0.065598
O O14 0.000000 0.640207 0.000000
O O15 0.000000 0.634011 0.500000
#
# Coordination Sequence:
#
# PCOD8044948 Si02
#       6
#     2   2   2   2   2   2
#     4  11  24  41  63  94 130 170 216 260 313 383
#     4  12  23  39  70  93 133 170 206 267 326 378
#     4   9  19  37  65  96 125 168 213 259 319 382
#     4  10  19  35  65  99 119 167 216 254 324 384
#     4  11  24  41  64  93 128 170 218 262 311 383
#     4   9  19  37  67  93 125 167 217 258 317 382
#
# _framework density 21.039852
#
# number of rings (size 3 to 8) (size 9 to 14) (size 15 to 20)
#    0.000    2.000    3.333    2.500    4.667    0.667 
#    0.000    3.333    3.667    0.000    0.000    0.000 
#    0.000    0.000    0.000    0.000    0.000    0.000 
#
# Total GULP energy -148674.343184 kJ/mol
# GULP energy per Si atom -12389.528599 kJ/mol
# Density = 2.099196 g / cm^3
# Si number density = 21.039852 Si / 1000 Ang^3
#
#
#
# Elastic Constant Matrix: (Units=GPa)
#
#
# Indices 1 2 3 4 5 6 
#
# 1 85.9552 20.6863 47.6162 0.0000 -11.8691 0.0000
# 2 20.6863 46.7673 23.6635 0.0000 -7.6910 0.0000
# 3 47.6162 23.6635 174.1063 0.0000 -14.2178 0.0000
# 4 0.0000 0.0000 0.0000 305.7731 0.0000 -88.2280
# 5 -11.8691 -7.6910 -14.2178 0.0000 52.0670 0.0000
# 6 0.0000 0.0000 0.0000 -88.2280 0.0000 54.8367
#
#
#
# Elastic Compliance Matrix: (Units=1/GPa)
#
#
# Indices 1 2 3 4 5 6 
#
# 1 0.014804 -0.004594 -0.003277 0.000000 0.001801 0.000000
# 2 -0.004594 0.024736 -0.001936 0.000000 0.002078 0.000000
# 3 -0.003277 -0.001936 0.006974 0.000000 0.000871 0.000000
# 4 0.000000 0.000000 0.000000 0.006104 0.000000 0.009821
# 5 0.001801 0.002078 0.000871 0.000000 0.020162 0.000000
# 6 0.000000 0.000000 0.000000 0.009821 0.000000 0.034038
#
#
# Mechanical properties :
#
#
# Convention : Reuss Voigt Hill
#
# Bulk Modulus (GPa) = 37.17476 54.52898 45.85187
# Shear Modulus (GPa) = 36.92847 96.85954 66.89401
#
# Velocity S-wave (km/s) = 4.19402 6.79236 5.64473
# Velocity P-wave (km/s) = 6.41562 9.35351 8.02023
#
# Compressibility (1/GPa) = 0.02689997
#
# Stress axis : x y z
#
# Youngs Moduli (GPa) = 67.55087 40.42753 143.38607
#
# Poissons Ratio (x) = 0.18571 0.46991
# Poissons Ratio (y) = 0.31030 0.27758
# Poissons Ratio (z) = 0.22138 0.07826
#
# Static dielectric constant tensor:
#      x y z
#    x 2.913700 0.000000 1.446090 
#    y 0.000000 3.200050 0.000000 
#    z 1.446090 0.000000 2.111610 
# 
# 
# High freq. dielectric constant tensor:
#      x y z
#    x 1.842220 0.000000 -0.007130 
#    y 0.000000 1.773090 0.000000 
#    z -0.007130 0.000000 1.852380 
# 
# From -- ./inp_files/9099.got.cif
#   From: 2010.03.12/outbox.cif.g09.slc.cpg/sg3_5_cif.got.tgz:9099.got - 2010.03.31 09:20:49.
