data_PCOD8044647
_publ_section_title
;
Structure prediction by ZEFSAII (Michael W. Deem and Ramdas Pophale) SiO2 
 PCOD8044647
Probable space group: P -1
;
_chemical_formula_sum "Si O2"
_cell_formula_units_Z 16
_cell_length_a 11.680059
_cell_length_b 15.359517
_cell_length_c 6.118350
_cell_angle_alpha 48.577911
_cell_angle_beta 92.852699
_cell_angle_gamma 60.968909
_cell_volume 593.481988
_symmetry_space_group_name_H-M "P -1"
_symmetry_group_IT_number 2
_symmetry_cell_setting 'triclinic'
loop_
_space_group_symop_operation_xyz
x,y,z
-x,-y,-z
loop_
_atom_site_type_symbol
_atom_site_label
_atom_site_fract_x
_atom_site_fract_y
_atom_site_fract_z
Si Si1 0.949739 0.050334 0.163463
Si Si2 0.937760 0.425189 0.015354
Si Si3 0.318938 0.363523 0.815295
Si Si4 0.231083 0.166128 0.183584
Si Si5 0.381628 0.425789 0.189981
Si Si6 0.346489 0.853396 0.893207
Si Si7 0.964140 0.298285 0.673494
Si Si8 0.293164 0.754542 0.609080
O O1 0.788919 0.086109 0.042635
O O2 0.000000 0.000000 0.500000
O O3 0.105490 0.903897 0.267036
O O4 0.898712 0.219427 0.861880
O O5 0.060574 0.293538 0.072659
O O6 0.930007 0.335321 0.353727
O O7 0.000000 0.500000 0.000000
O O8 0.747112 0.562750 0.693910
O O9 0.139839 0.534785 0.467772
O O10 0.323198 0.221496 0.080277
O O11 0.368575 0.386786 0.008666
O O12 0.465398 0.298531 0.770015
O O13 0.339780 0.995400 0.595537
O O14 0.156429 0.177976 0.923424
O O15 0.574321 0.286214 0.484356
O O16 0.327888 0.596287 0.918322
O O17 0.304802 0.810563 0.745987
#
# Coordination Sequence:
#
# PCOD8044647 Si02
#       8
#     2   2   2   2   2   2   2   2
#     4  10  19  38  64  92 123 170 217 262 322 388
#     4  11  23  40  64  98 132 167 219 263 320 390
#     4  10  22  38  60  99 130 167 221 266 323 384
#     4  12  21  42  71  91 135 176 212 267 326 386
#     4   9  18  34  58  90 126 166 208 265 317 371
#     4  10  21  37  65  95 129 174 213 264 335 382
#     4  11  23  41  68  99 126 174 220 268 318 391
#     4   9  17  34  60  89 124 168 211 258 321 378
#
# _framework density 26.959541999999999
#
# number of rings (size 3 to 8) (size 9 to 14) (size 15 to 20)
#    0.000    1.750    5.000    1.500    1.750    0.500 
#    0.000    5.625    2.750    3.750    0.000    0.000 
#    0.000    0.000    0.000    0.000    0.000    0.000 
#
# Total GULP energy -198240.647841 kJ/mol
# GULP energy per Si atom -12390.040490 kJ/mol
# Density = 2.689818 g / cm^3
# Si number density = 26.959542 Si / 1000 Ang^3
#
#
#
# Elastic Constant Matrix: (Units=GPa)
#
#
# Indices 1 2 3 4 5 6 
#
# 1 434.5533 -67.1370 82.7899 82.9132 102.0257 112.7295
# 2 -67.1370 122.0655 -8.5526 -65.7402 -33.3339 -78.3374
# 3 82.7899 -8.5526 113.9947 -9.3669 40.4663 18.2596
# 4 82.9132 -65.7402 -9.3669 77.0318 43.7741 57.2062
# 5 102.0257 -33.3339 40.4663 43.7741 105.0411 35.8634
# 6 112.7295 -78.3374 18.2596 57.2062 35.8634 130.2320
#
#
#
# Elastic Compliance Matrix: (Units=1/GPa)
#
#
# Indices 1 2 3 4 5 6 
#
# 1 0.004157 -0.001842 -0.002756 -0.004122 -0.001088 -0.002209
# 2 -0.001842 0.019262 0.003730 0.015201 -0.002110 0.006562
# 3 -0.002756 0.003730 0.014589 0.012468 -0.006588 -0.001080
# 4 -0.004122 0.015201 0.012468 0.041738 -0.011979 -0.004072
# 5 -0.001088 -0.002110 -0.006588 -0.011979 0.017039 0.001166
# 6 -0.002209 0.006562 -0.001080 -0.004072 0.001166 0.015157
#
#
# Mechanical properties :
#
#
# Convention : Reuss Voigt Hill
#
# Bulk Modulus (GPa) = 27.56835 76.09047 51.82941
# Shear Modulus (GPa) = 39.75542 106.69519 73.22530
#
# Velocity S-wave (km/s) = 3.84426 6.29777 5.21729
# Velocity P-wave (km/s) = 5.47289 9.00932 7.45387
#
# Compressibility (1/GPa) = 0.03627348
#
# Stress axis : x y z
#
# Youngs Moduli (GPa) = 240.57313 51.91524 68.54297
#
# Poissons Ratio (x) = 0.09562 0.18887
# Poissons Ratio (y) = 0.44308 -0.25566
# Poissons Ratio (z) = 0.66290 -0.19364
#
# Static dielectric constant tensor:
#      x y z
#    x 5.885300 -1.423410 0.631710 
#    y -1.423410 8.187450 -0.530190 
#    z 0.631710 -0.530190 5.305790 
# 
# 
# High freq. dielectric constant tensor:
#      x y z
#    x 2.108910 -0.010410 0.033010 
#    y -0.010410 2.104850 0.017490 
#    z 0.033010 0.017490 2.104520 
# 
# From -- ./inp_files/277342.got.cif
#   From: 2010.06.25/outbox.cif.g09.slc.cpg/sg2_139_cif.got.tgz:277342.got - 2010.06.27 13:26:56.
