data_PCOD8044490
_publ_section_title
;
Structure prediction by ZEFSAII (Michael W. Deem and Ramdas Pophale) SiO2 
 PCOD8044490
Probable space group: P -1
;
_chemical_formula_sum "Si O2"
_cell_formula_units_Z 16
_cell_length_a 10.134984
_cell_length_b 12.438010
_cell_length_c 17.975169
_cell_angle_alpha 37.266978
_cell_angle_beta 143.680906
_cell_angle_gamma 119.063422
_cell_volume 732.368351
_symmetry_space_group_name_H-M "P -1"
_symmetry_group_IT_number 2
_symmetry_cell_setting 'triclinic'
loop_
_space_group_symop_operation_xyz
x,y,z
-x,-y,-z
loop_
_atom_site_type_symbol
_atom_site_label
_atom_site_fract_x
_atom_site_fract_y
_atom_site_fract_z
Si Si1 0.199200 0.944849 0.815048
Si Si2 0.414064 0.331311 0.031792
Si Si3 0.310371 0.892351 0.581713
Si Si4 0.452127 0.973542 0.165962
Si Si5 0.018122 0.552732 0.120172
Si Si6 0.622630 0.478753 0.917169
Si Si7 0.974929 0.035646 0.114597
Si Si8 0.512680 0.816263 0.441183
O O1 0.105008 0.021911 0.811817
O O2 0.344600 0.068907 0.783850
O O3 0.365141 0.704224 0.025727
O O4 0.978512 0.990157 0.631120
O O5 0.522874 0.467163 0.963069
O O6 0.142107 0.444047 0.882023
O O7 0.632591 0.186132 0.264860
O O8 0.361657 0.203361 0.015110
O O9 0.434623 0.704394 0.683737
O O10 0.428785 0.048562 0.546513
O O11 0.559832 0.849311 0.358120
O O12 0.229750 0.929553 0.059741
O O13 0.307805 0.411879 0.336294
O O14 0.982527 0.769816 0.964602
O O15 0.895505 0.472269 0.044573
O O16 0.229494 0.855628 0.303194
#
# Coordination Sequence:
#
# PCOD8044490 Si02
#       8
#     2   2   2   2   2   2   2   2
#     4  11  25  39  67  89 124 169 200 251 304 373
#     4   9  20  37  65  94 126 154 199 269 303 351
#     4  10  19  38  61  97 121 152 205 249 314 355
#     4  10  23  44  66  87 120 167 213 253 295 356
#     4  11  21  38  63  96 122 161 200 254 315 360
#     4  10  20  38  60  96 130 154 195 261 310 367
#     4  12  25  45  57  90 133 166 203 246 304 369
#     4  11  23  39  68  93 120 159 205 261 306 360
#
# _framework density 21.846928999999999
#
# number of rings (size 3 to 8) (size 9 to 14) (size 15 to 20)
#    0.000    1.500    5.000    2.250    3.500    4.000 
#    0.000    0.000    0.000    3.750    0.000    0.000 
#    0.000    0.000    0.000    0.000    0.000    0.000 
#
# Total GULP energy -198234.616398 kJ/mol
# GULP energy per Si atom -12389.663525 kJ/mol
# Density = 2.179720 g / cm^3
# Si number density = 21.846929 Si / 1000 Ang^3
#
#
#
# Elastic Constant Matrix: (Units=GPa)
#
#
# Indices 1 2 3 4 5 6 
#
# 1 97.7587 1.1954 17.9801 -8.0501 11.3377 7.2733
# 2 1.1954 37.0918 -2.2600 2.9997 1.3764 10.4739
# 3 17.9801 -2.2600 67.5168 -8.2658 22.6958 1.0300
# 4 -8.0501 2.9997 -8.2658 22.8212 0.8764 5.7864
# 5 11.3377 1.3764 22.6958 0.8764 17.7620 7.8195
# 6 7.2733 10.4739 1.0300 5.7864 7.8195 20.9543
#
#
#
# Elastic Compliance Matrix: (Units=1/GPa)
#
#
# Indices 1 2 3 4 5 6 
#
# 1 0.011630 0.000397 -0.000648 0.004929 -0.005289 -0.003591
# 2 0.000397 0.031868 -0.001018 0.000024 0.006738 -0.018538
# 3 -0.000648 -0.001018 0.031461 0.009577 -0.046257 0.013804
# 4 0.004929 0.000024 0.009577 0.052544 -0.012713 -0.011959
# 5 -0.005289 0.006738 -0.046257 -0.012713 0.140018 -0.047998
# 6 -0.003591 -0.018538 0.013804 -0.011959 -0.047998 0.078771
#
#
# Mechanical properties :
#
#
# Convention : Reuss Voigt Hill
#
# Bulk Modulus (GPa) = 13.80803 26.24425 20.02614
# Shear Modulus (GPa) = 13.40596 24.67096 19.03846
#
# Velocity S-wave (km/s) = 2.47985 3.36410 2.95523
# Velocity P-wave (km/s) = 3.81229 5.20849 4.56410
#
# Compressibility (1/GPa) = 0.07242165
#
# Stress axis : x y z
#
# Youngs Moduli (GPa) = 85.98430 31.37944 31.78575
#
# Poissons Ratio (x) = -0.01247 0.02058
# Poissons Ratio (y) = -0.03417 0.03237
# Poissons Ratio (z) = 0.05568 0.03195
#
# Static dielectric constant tensor:
#      x y z
#    x 3.952880 0.099480 0.159230 
#    y 0.099480 3.948870 -0.143260 
#    z 0.159230 -0.143260 3.701400 
# 
# 
# High freq. dielectric constant tensor:
#      x y z
#    x 1.856360 0.006850 0.011670 
#    y 0.006850 1.854170 -0.009830 
#    z 0.011670 -0.009830 1.836830 
# 
# From -- ./inp_files/595479.got.cif
#   From: 2010.06.25/outbox.cif.g09.slc.cpg/sg2_298_cif.got.tgz:595479.got - 2010.06.27 13:26:56.
