data_PCOD8044486
_publ_section_title
;
Structure prediction by ZEFSAII (Michael W. Deem and Ramdas Pophale) SiO2 
 PCOD8044486
Probable space group: P -1
;
_chemical_formula_sum "Si O2"
_cell_formula_units_Z 14
_cell_length_a 14.996649
_cell_length_b 22.633465
_cell_length_c 8.097013
_cell_angle_alpha 147.622357
_cell_angle_beta 128.238228
_cell_angle_gamma 28.917624
_cell_volume 630.186062
_symmetry_space_group_name_H-M "P -1"
_symmetry_group_IT_number 2
_symmetry_cell_setting 'triclinic'
loop_
_space_group_symop_operation_xyz
x,y,z
-x,-y,-z
loop_
_atom_site_type_symbol
_atom_site_label
_atom_site_fract_x
_atom_site_fract_y
_atom_site_fract_z
Si Si1 0.806791 0.987616 0.355708
Si Si2 0.952398 0.615822 0.375310
Si Si3 0.188393 0.636591 0.743084
Si Si4 0.041179 0.945176 0.105486
Si Si5 0.272261 0.194263 0.124623
Si Si6 0.603835 0.230399 0.387186
Si Si7 0.470834 0.940408 0.177149
O O1 0.816463 0.070370 0.704902
O O2 0.610257 0.174996 0.450925
O O3 0.796861 0.874717 0.158618
O O4 0.020017 0.825563 0.117406
O O5 0.898241 0.606775 0.475508
O O6 0.143785 0.544725 0.432929
O O7 0.739298 0.857312 0.682568
O O8 0.000000 0.500000 0.000000
O O9 0.410131 0.469062 0.693318
O O10 0.172082 0.725341 0.768642
O O11 0.813724 0.126619 0.355378
O O12 0.000000 0.000000 0.000000
O O13 0.311453 0.228808 0.078998
O O14 0.500000 0.000000 0.000000
O O15 0.568800 0.154559 0.042284
O O16 0.500000 0.000000 0.500000
#
# Coordination Sequence:
#
# PCOD8044486 Si02
#       7
#     2   2   2   2   2   2   2
#     4  10  21  41  67  88 126 167 210 269 317 385
#     4  10  19  38  61  93 134 168 208 271 319 381
#     4  10  21  41  64  92 125 165 216 260 321 389
#     4  11  25  42  63  90 127 166 214 271 322 378
#     4   9  18  38  63  90 128 165 213 257 319 388
#     4  11  21  41  65  91 124 169 213 261 327 385
#     4  11  21  36  66  94 128 177 212 263 327 381
#
# _framework density 22.215661000000001
#
# number of rings (size 3 to 8) (size 9 to 14) (size 15 to 20)
#    0.000    1.714    5.714    2.571    2.000    2.857 
#    0.000    7.857    0.000    0.000    0.000    0.000 
#    0.000    0.000    0.000    0.000    0.000    0.000 
#
# Total GULP energy -173435.547499 kJ/mol
# GULP energy per Si atom -12388.253393 kJ/mol
# Density = 2.216510 g / cm^3
# Si number density = 22.215661 Si / 1000 Ang^3
#
#
#
# Elastic Constant Matrix: (Units=GPa)
#
#
# Indices 1 2 3 4 5 6 
#
# 1 86.9963 15.3720 33.6277 -9.6724 -0.1132 -1.5228
# 2 15.3720 99.2705 30.2160 1.5877 2.5075 -8.2045
# 3 33.6277 30.2160 80.6292 -14.7538 -7.8871 -1.8325
# 4 -9.6724 1.5877 -14.7538 51.0535 -2.5919 0.7879
# 5 -0.1132 2.5075 -7.8871 -2.5919 27.0584 -2.8481
# 6 -1.5228 -8.2045 -1.8325 0.7879 -2.8481 32.5167
#
#
#
# Elastic Compliance Matrix: (Units=1/GPa)
#
#
# Indices 1 2 3 4 5 6 
#
# 1 0.013829 -0.000417 -0.005576 0.000948 -0.001430 0.000080
# 2 -0.000417 0.011916 -0.004841 -0.002012 -0.002441 0.002549
# 3 -0.005576 -0.004841 0.017980 0.004601 0.006102 -0.000046
# 4 0.000948 -0.002012 0.004601 0.021345 0.003533 -0.000412
# 5 -0.001430 -0.002441 0.006102 0.003533 0.039615 0.003045
# 6 0.000080 0.002549 -0.000046 -0.000412 0.003045 0.031674
#
#
# Mechanical properties :
#
#
# Convention : Reuss Voigt Hill
#
# Bulk Modulus (GPa) = 45.33563 47.25860 46.29711
# Shear Modulus (GPa) = 30.23389 34.63775 32.43582
#
# Velocity S-wave (km/s) = 3.69308 3.95290 3.82520
# Velocity P-wave (km/s) = 6.21582 6.49252 6.35567
#
# Compressibility (1/GPa) = 0.02205771
#
# Stress axis : x y z
#
# Youngs Moduli (GPa) = 72.31398 83.92107 55.61818
#
# Poissons Ratio (x) = 0.03496 0.31012
# Poissons Ratio (y) = 0.03012 0.26924
# Poissons Ratio (z) = 0.40322 0.40624
#
# Static dielectric constant tensor:
#      x y z
#    x 5.202970 0.415040 0.155160 
#    y 0.415040 4.701850 0.093140 
#    z 0.155160 0.093140 3.807310 
# 
# 
# High freq. dielectric constant tensor:
#      x y z
#    x 1.862290 -0.009010 0.012100 
#    y -0.009010 1.891480 0.001680 
#    z 0.012100 0.001680 1.852000 
# 
# From -- ./inp_files/320243.got.cif
#   From: 2010.06.25/outbox.cif.g09.slc.cpg/sg2_161_cif.got.tgz:320243.got - 2010.06.27 13:26:56.
