data_PCOD8044038
_publ_section_title
;
Structure prediction by ZEFSAII (Michael W. Deem and Ramdas Pophale) SiO2 
 PCOD8044038
Probable space group: P -1
;
_chemical_formula_sum "Si O2"
_cell_formula_units_Z 16
_cell_length_a 9.642909
_cell_length_b 18.004869
_cell_length_c 9.801214
_cell_angle_alpha 43.938120
_cell_angle_beta 136.441673
_cell_angle_gamma 116.040188
_cell_volume 801.354588
_symmetry_space_group_name_H-M "P -1"
_symmetry_group_IT_number 2
_symmetry_cell_setting 'triclinic'
loop_
_space_group_symop_operation_xyz
x,y,z
-x,-y,-z
loop_
_atom_site_type_symbol
_atom_site_label
_atom_site_fract_x
_atom_site_fract_y
_atom_site_fract_z
Si Si1 0.454417 0.166663 0.486416
Si Si2 0.323584 0.773600 0.688038
Si Si3 0.116896 0.181502 0.646818
Si Si4 0.675785 0.168821 0.905676
Si Si5 0.362484 0.363404 0.526883
Si Si6 0.525896 0.072048 0.184688
Si Si7 0.966392 0.772380 0.768719
Si Si8 0.708560 0.404949 0.903174
O O1 0.528457 0.232917 0.326969
O O2 0.637458 0.133431 0.771026
O O3 0.251439 0.241433 0.304097
O O4 0.405764 0.050898 0.550107
O O5 0.400980 0.841803 0.775848
O O6 0.092017 0.824580 0.413256
O O7 0.302440 0.652720 0.882406
O O8 0.182726 0.301330 0.532783
O O9 0.082325 0.151109 0.502275
O O10 0.281856 0.097421 0.957481
O O11 0.525894 0.284152 0.658587
O O12 0.619217 0.082563 0.087769
O O13 0.911614 0.175736 0.094519
O O14 0.482319 0.403318 0.685690
O O15 0.261703 0.469777 0.226918
O O16 0.105310 0.658931 0.971413
#
# Coordination Sequence:
#
# PCOD8044038 Si02
#       8
#     2   2   2   2   2   2   2   2
#     4  12  25  36  57  85 123 154 184 240 296 324
#     4  11  23  39  55  89 119 148 194 235 283 349
#     4  10  19  37  63  83 112 146 199 234 275 342
#     4  10  20  39  57  89 112 145 201 241 271 342
#     4   9  16  35  69  85 107 147 198 235 276 332
#     4  11  21  40  60  81 115 157 197 234 277 339
#     4  10  20  36  58  85 115 147 193 237 276 341
#     4   9  18  37  64  88 110 148 193 236 278 343
#
# _framework density 19.966193000000001
#
# number of rings (size 3 to 8) (size 9 to 14) (size 15 to 20)
#    0.000    1.750    7.500    0.750    0.000    5.000 
#    0.000    0.625    0.000    2.250    0.000    0.000 
#    0.000    0.000    0.000    0.000    0.000    0.000 
#
# Total GULP energy -198246.744757 kJ/mol
# GULP energy per Si atom -12390.421547 kJ/mol
# Density = 1.992075 g / cm^3
# Si number density = 19.966193 Si / 1000 Ang^3
#
#
#
# Elastic Constant Matrix: (Units=GPa)
#
#
# Indices 1 2 3 4 5 6 
#
# 1 125.8471 19.3678 44.0221 -3.5892 -1.9372 11.4744
# 2 19.3678 46.8961 22.9742 -0.1449 5.8970 12.2677
# 3 44.0221 22.9742 73.8514 -2.1767 11.8989 14.7924
# 4 -3.5892 -0.1449 -2.1767 40.9899 9.6133 1.8140
# 5 -1.9372 5.8970 11.8989 9.6133 27.8606 6.5480
# 6 11.4744 12.2677 14.7924 1.8140 6.5480 12.0158
#
#
#
# Elastic Compliance Matrix: (Units=1/GPa)
#
#
# Indices 1 2 3 4 5 6 
#
# 1 0.010618 -0.000921 -0.005912 -0.000268 0.004579 -0.004376
# 2 -0.000921 0.030234 -0.003794 0.000738 0.001008 -0.025979
# 3 -0.005912 -0.003794 0.022374 0.002878 -0.006673 -0.014824
# 4 -0.000268 0.000738 0.002878 0.027015 -0.010113 -0.002609
# 5 0.004579 0.001008 -0.006673 -0.010113 0.047386 -0.021483
# 6 -0.004376 -0.025979 -0.014824 -0.002609 -0.021483 0.144278
#
#
# Mechanical properties :
#
#
# Convention : Reuss Voigt Hill
#
# Bulk Modulus (GPa) = 23.82453 46.59144 35.20798
# Shear Modulus (GPa) = 15.76548 26.85528 21.31038
#
# Velocity S-wave (km/s) = 2.81305 3.67145 3.27054
# Velocity P-wave (km/s) = 4.74440 6.43106 5.65101
#
# Compressibility (1/GPa) = 0.04197354
#
# Stress axis : x y z
#
# Youngs Moduli (GPa) = 94.18261 33.07541 44.69487
#
# Poissons Ratio (x) = 0.03045 0.26422
# Poissons Ratio (y) = 0.08671 0.16955
# Poissons Ratio (z) = 0.55678 0.12547
#
# Static dielectric constant tensor:
#      x y z
#    x 3.387150 0.218650 0.205290 
#    y 0.218650 3.721060 0.164060 
#    z 0.205290 0.164060 3.819970 
# 
# 
# High freq. dielectric constant tensor:
#      x y z
#    x 1.745960 0.021090 0.019820 
#    y 0.021090 1.769940 0.013940 
#    z 0.019820 0.013940 1.782650 
# 
# From -- ./inp_files/214598.got.cif
#   From: 2010.06.25/outbox.cif.g09.slc.cpg/sg2_108_cif.got.tgz:214598.got - 2010.06.27 13:26:56.
