data_PCOD8044539
_publ_section_title
;
Structure prediction by ZEFSAII (Michael W. Deem and Ramdas Pophale) SiO2 
 PCOD8044539
Probable space group: P -1
;
_chemical_formula_sum "Si O2"
_cell_formula_units_Z 16
_cell_length_a 14.709266
_cell_length_b 7.570896
_cell_length_c 9.183145
_cell_angle_alpha 60.803053
_cell_angle_beta 56.278681
_cell_angle_gamma 92.237901
_cell_volume 671.510691
_symmetry_space_group_name_H-M "P -1"
_symmetry_group_IT_number 2
_symmetry_cell_setting 'triclinic'
loop_
_space_group_symop_operation_xyz
x,y,z
-x,-y,-z
loop_
_atom_site_type_symbol
_atom_site_label
_atom_site_fract_x
_atom_site_fract_y
_atom_site_fract_z
Si Si1 0.959568 0.240235 0.679710
Si Si2 0.279930 0.814879 0.447584
Si Si3 0.316893 0.962287 0.060271
Si Si4 0.513411 0.110778 0.288212
Si Si5 0.931627 0.189062 0.054500
Si Si6 0.159631 0.105806 0.505226
Si Si7 0.160245 0.462994 0.917208
Si Si8 0.666430 0.614156 0.986406
O O1 0.000000 0.500000 0.500000
O O2 0.041853 0.148179 0.551475
O O3 0.982244 0.193217 0.847176
O O4 0.819359 0.092548 0.838853
O O5 0.242942 0.580703 0.655301
O O6 0.387624 0.014143 0.355501
O O7 0.166258 0.885682 0.511828
O O8 0.317051 0.792328 0.257230
O O9 0.380596 0.210707 0.975190
O O10 0.387361 0.940143 0.867039
O O11 0.555175 0.374055 0.167723
O O12 0.500000 0.000000 0.500000
O O13 0.867487 0.355226 0.042564
O O14 0.838524 0.944858 0.300589
O O15 0.039889 0.260998 0.047958
O O16 0.275678 0.317984 0.254144
O O17 0.230644 0.375365 0.997962
#
# Coordination Sequence:
#
# PCOD8044539 Si02
#       8
#     2   2   2   2   2   2   2   2
#     4  12  23  40  66 102 143 185 227 279 346 416
#     4  10  23  44  68  99 136 181 232 285 346 406
#     4  11  26  43  71 103 139 179 235 283 343 419
#     4  12  25  48  75  96 138 183 235 298 345 404
#     4  10  21  35  60  94 139 182 226 275 336 413
#     4  10  23  39  63  96 138 176 220 278 340 413
#     4  10  19  38  62  93 133 182 223 276 345 405
#     4  11  24  44  68 102 133 183 232 285 350 409
#
# _framework density 23.826872000000002
#
# number of rings (size 3 to 8) (size 9 to 14) (size 15 to 20)
#    0.000    1.250    1.250    4.500    1.750    9.000 
#    0.000    1.250    0.000    0.000    0.000    0.000 
#    0.000    0.000    0.000    0.000    0.000    0.000 
#
# Total GULP energy -198286.276691 kJ/mol
# GULP energy per Si atom -12392.892293 kJ/mol
# Density = 2.377264 g / cm^3
# Si number density = 23.826872 Si / 1000 Ang^3
#
#
#
# Elastic Constant Matrix: (Units=GPa)
#
#
# Indices 1 2 3 4 5 6 
#
# 1 70.6071 6.8605 19.8519 7.6514 6.7924 4.4119
# 2 6.8605 80.1150 41.4792 6.2937 -5.4172 -2.4715
# 3 19.8519 41.4792 158.5720 3.4893 23.0237 4.2064
# 4 7.6514 6.2937 3.4893 40.6005 0.8003 0.2935
# 5 6.7924 -5.4172 23.0237 0.8003 39.7360 1.6569
# 6 4.4119 -2.4715 4.2064 0.2935 1.6569 27.9877
#
#
#
# Elastic Compliance Matrix: (Units=1/GPa)
#
#
# Indices 1 2 3 4 5 6 
#
# 1 0.015188 -0.000557 -0.001392 -0.002607 -0.001725 -0.002105
# 2 -0.000557 0.015513 -0.004706 -0.002006 0.004898 0.001896
# 3 -0.001392 -0.004706 0.008502 0.000374 -0.005289 -0.001165
# 4 -0.002607 -0.002006 0.000374 0.025412 -0.000554 -0.000056
# 5 -0.001725 0.004898 -0.005289 -0.000554 0.029214 -0.000224
# 6 -0.002105 0.001896 -0.001165 -0.000056 -0.000224 0.036418
#
#
# Mechanical properties :
#
#
# Convention : Reuss Voigt Hill
#
# Bulk Modulus (GPa) = 38.61756 49.51972 44.06864
# Shear Modulus (GPa) = 32.85423 37.73835 35.29629
#
# Velocity S-wave (km/s) = 3.71735 3.98409 3.85303
# Velocity P-wave (km/s) = 5.88792 6.48014 6.19112
#
# Compressibility (1/GPa) = 0.02589495
#
# Stress axis : x y z
#
# Youngs Moduli (GPa) = 65.83974 64.46102 117.61930
#
# Poissons Ratio (x) = 0.03588 0.16375
# Poissons Ratio (y) = 0.03665 0.55347
# Poissons Ratio (z) = 0.09166 0.30333
#
# Static dielectric constant tensor:
#      x y z
#    x 4.229470 -0.071950 0.214790 
#    y -0.071950 4.135850 0.087850 
#    z 0.214790 0.087850 4.726630 
# 
# 
# High freq. dielectric constant tensor:
#      x y z
#    x 1.938420 -0.013060 0.017930 
#    y -0.013060 1.922900 0.001760 
#    z 0.017930 0.001760 1.968210 
# 
# From -- ./inp_files/297608.got.cif
#   From: 2010.06.25/outbox.cif.g09.slc.cpg/sg2_149_cif.got.tgz:297608.got - 2010.06.27 13:26:56.
