data_PCOD8044113
_publ_section_title
;
Structure prediction by ZEFSAII (Michael W. Deem and Ramdas Pophale) SiO2 
 PCOD8044113
Probable space group: P -1
;
_chemical_formula_sum "Si O2"
_cell_formula_units_Z 16
_cell_length_a 8.969098
_cell_length_b 24.002335
_cell_length_c 9.450767
_cell_angle_alpha 33.113558
_cell_angle_beta 116.746286
_cell_angle_gamma 132.329568
_cell_volume 788.290826
_symmetry_space_group_name_H-M "P -1"
_symmetry_group_IT_number 2
_symmetry_cell_setting 'triclinic'
loop_
_space_group_symop_operation_xyz
x,y,z
-x,-y,-z
loop_
_atom_site_type_symbol
_atom_site_label
_atom_site_fract_x
_atom_site_fract_y
_atom_site_fract_z
Si Si1 0.662609 0.387481 0.050848
Si Si2 0.279917 0.204362 0.454092
Si Si3 0.446870 0.793685 0.865812
Si Si4 0.397000 0.136270 0.919204
Si Si5 0.129451 0.845997 0.541774
Si Si6 0.306659 0.876997 0.095301
Si Si7 0.209680 0.022917 0.578885
Si Si8 0.981569 0.332256 0.375775
O O1 0.471665 0.342360 0.175880
O O2 0.600706 0.321486 0.009207
O O3 0.813827 0.361119 0.242097
O O4 0.787917 0.539835 0.758707
O O5 0.309364 0.113362 0.567341
O O6 0.052530 0.172909 0.395796
O O7 0.278926 0.174724 0.685289
O O8 0.516073 0.778467 0.082085
O O9 0.273313 0.819467 0.747426
O O10 0.647974 0.924903 0.609513
O O11 0.260713 0.984009 0.223142
O O12 0.602123 0.187214 0.807071
O O13 0.003131 0.726086 0.636535
O O14 0.104622 0.777977 0.312399
O O15 0.500000 0.000000 0.000000
O O16 0.194217 0.900938 0.874932
O O17 0.000000 0.000000 0.500000
#
# Coordination Sequence:
#
# PCOD8044113 Si02
#       8
#     2   2   2   2   2   2   2   2
#     4   9  20  40  60  82 113 160 204 233 283 345
#     4  11  22  36  58  88 118 153 195 242 285 343
#     4  10  22  38  57  85 121 156 188 238 292 350
#     4  12  21  35  60  90 123 146 190 245 291 346
#     4  11  21  34  59  89 117 150 192 241 297 340
#     4  12  19  37  62  91 116 152 195 237 292 350
#     4  11  22  37  58  87 123 155 190 236 295 353
#     4  10  19  37  64  83 113 158 200 239 283 347
#
# _framework density 20.297076000000001
#
# number of rings (size 3 to 8) (size 9 to 14) (size 15 to 20)
#    0.000    1.250    5.000    2.250    1.750    1.500 
#    0.000    0.625    0.000    6.750    0.000    0.000 
#    0.000    0.000    0.000    0.000    0.000    0.000 
#
# Total GULP energy -198221.575029 kJ/mol
# GULP energy per Si atom -12388.848439 kJ/mol
# Density = 2.025088 g / cm^3
# Si number density = 20.297076 Si / 1000 Ang^3
#
#
#
# Elastic Constant Matrix: (Units=GPa)
#
#
# Indices 1 2 3 4 5 6 
#
# 1 99.1599 14.4006 15.2154 6.4817 -10.4745 8.3008
# 2 14.4006 86.3235 39.8288 9.2570 -11.9408 -0.7084
# 3 15.2154 39.8288 57.2235 -0.0477 -17.2771 6.4689
# 4 6.4817 9.2570 -0.0477 37.0167 4.2987 -5.0364
# 5 -10.4745 -11.9408 -17.2771 4.2987 30.1950 4.3959
# 6 8.3008 -0.7084 6.4689 -5.0364 4.3959 30.5503
#
#
#
# Elastic Compliance Matrix: (Units=1/GPa)
#
#
# Indices 1 2 3 4 5 6 
#
# 1 0.011263 -0.000641 -0.000852 -0.002833 0.004146 -0.003958
# 2 -0.000641 0.017979 -0.012705 -0.004017 -0.000196 0.002647
# 3 -0.000852 -0.012705 0.031774 0.000548 0.014053 -0.008723
# 4 -0.002833 -0.004017 0.000548 0.030295 -0.007537 0.006639
# 5 0.004146 -0.000196 0.014053 -0.007537 0.045321 -0.011870
# 6 -0.003958 0.002647 -0.008723 0.006639 -0.011870 0.038519
#
#
# Mechanical properties :
#
#
# Convention : Reuss Voigt Hill
#
# Bulk Modulus (GPa) = 30.65553 42.39960 36.52757
# Shear Modulus (GPa) = 23.31885 31.10320 27.21103
#
# Velocity S-wave (km/s) = 3.39319 3.91883 3.66544
# Velocity P-wave (km/s) = 5.52158 6.43515 5.99579
#
# Compressibility (1/GPa) = 0.03262054
#
# Stress axis : x y z
#
# Youngs Moduli (GPa) = 88.78633 55.62189 31.47238
#
# Poissons Ratio (x) = 0.03566 0.02680
# Poissons Ratio (y) = 0.05693 0.39984
# Poissons Ratio (z) = 0.07562 0.70665
#
# Static dielectric constant tensor:
#      x y z
#    x 3.737850 -0.078470 -0.080590 
#    y -0.078470 3.796070 -0.022150 
#    z -0.080590 -0.022150 3.590370 
# 
# 
# High freq. dielectric constant tensor:
#      x y z
#    x 1.801860 -0.002870 -0.007660 
#    y -0.002870 1.784820 0.010830 
#    z -0.007660 0.010830 1.764720 
# 
# From -- ./inp_files/178201.got.cif
#   From: 2010.06.25/outbox.cif.g09.slc.cpg/sg2_90_cif.got.tgz:178201.got - 2010.06.27 13:26:56.
