data_PCOD8044361
_publ_section_title
;
Structure prediction by ZEFSAII (Michael W. Deem and Ramdas Pophale) SiO2 
 PCOD8044361
Probable space group: P -1
;
_chemical_formula_sum "Si O2"
_cell_formula_units_Z 14
_cell_length_a 10.140216
_cell_length_b 9.463067
_cell_length_c 10.755151
_cell_angle_alpha 138.443803
_cell_angle_beta 113.118892
_cell_angle_gamma 74.903414
_cell_volume 628.684978
_symmetry_space_group_name_H-M "P -1"
_symmetry_group_IT_number 2
_symmetry_cell_setting 'triclinic'
loop_
_space_group_symop_operation_xyz
x,y,z
-x,-y,-z
loop_
_atom_site_type_symbol
_atom_site_label
_atom_site_fract_x
_atom_site_fract_y
_atom_site_fract_z
Si Si1 0.548029 0.591424 0.711773
Si Si2 0.974478 0.105037 0.733862
Si Si3 0.189263 0.223120 0.378628
Si Si4 0.842795 0.855383 0.956914
Si Si5 0.507230 0.140225 0.473511
Si Si6 0.207369 0.864865 0.533022
Si Si7 0.752022 0.300295 0.305813
O O1 0.500000 0.500000 0.500000
O O2 0.564410 0.388888 0.677312
O O3 0.418888 0.732694 0.804822
O O4 0.693487 0.733251 0.854566
O O5 0.033095 0.231420 0.962163
O O6 0.114582 0.056214 0.672640
O O7 0.886826 0.890471 0.607212
O O8 0.866108 0.227831 0.684466
O O9 0.348309 0.139245 0.355745
O O10 0.190568 0.472588 0.578365
O O11 0.106911 0.173308 0.185226
O O12 0.832765 0.108113 0.147993
O O13 0.500000 0.000000 0.500000
O O14 0.628462 0.040107 0.365114
O O15 0.213567 0.683472 0.521684
#
# Coordination Sequence:
#
# PCOD8044361 Si02
#       7
#     2   2   2   2   2   2   2
#     4  11  19  37  63  90 119 160 208 258 304 363
#     4  10  23  36  61  88 134 164 198 249 308 373
#     4  11  21  41  64  95 121 161 208 254 304 362
#     4  11  21  37  63  92 125 160 206 253 304 366
#     4  11  20  36  67  87 116 163 208 254 307 356
#     4  10  19  38  58  91 119 168 199 241 311 357
#     4  10  21  37  67  91 122 161 207 257 298 359
#
# _framework density 22.268705000000001
#
# number of rings (size 3 to 8) (size 9 to 14) (size 15 to 20)
#    0.000    1.429    5.714    0.857    0.000    3.429 
#    0.000    4.286    9.429    5.143    0.000    0.000 
#    0.000    0.000    0.000    0.000    0.000    0.000 
#
# Total GULP energy -173447.374221 kJ/mol
# GULP energy per Si atom -12389.098159 kJ/mol
# Density = 2.221802 g / cm^3
# Si number density = 22.268705 Si / 1000 Ang^3
#
#
#
# Elastic Constant Matrix: (Units=GPa)
#
#
# Indices 1 2 3 4 5 6 
#
# 1 99.0296 18.5124 14.4388 4.3665 5.7745 2.1626
# 2 18.5124 109.2388 29.8712 0.6694 10.0510 6.4723
# 3 14.4388 29.8712 76.6281 -4.1230 11.9287 -1.5316
# 4 4.3665 0.6694 -4.1230 27.3450 -0.4757 5.9367
# 5 5.7745 10.0510 11.9287 -0.4757 25.0127 -3.4245
# 6 2.1626 6.4723 -1.5316 5.9367 -3.4245 29.4997
#
#
#
# Elastic Compliance Matrix: (Units=1/GPa)
#
#
# Indices 1 2 3 4 5 6 
#
# 1 0.010711 -0.001268 -0.001416 -0.001836 -0.001373 -0.000370
# 2 -0.001268 0.010764 -0.003595 -0.000051 -0.002697 -0.002758
# 3 -0.001416 -0.003595 0.015735 0.002467 -0.005609 0.000562
# 4 -0.001836 -0.000051 0.002467 0.038884 -0.001043 -0.007672
# 5 -0.001373 -0.002697 -0.005609 -0.001043 0.044832 0.005815
# 6 -0.000370 -0.002758 0.000562 -0.007672 0.005815 0.036779
#
#
# Mechanical properties :
#
#
# Convention : Reuss Voigt Hill
#
# Bulk Modulus (GPa) = 40.56642 45.61570 43.09106
# Shear Modulus (GPa) = 28.01415 31.17642 29.59529
#
# Velocity S-wave (km/s) = 3.55069 3.74573 3.64951
# Velocity P-wave (km/s) = 5.92167 6.26387 6.09517
#
# Compressibility (1/GPa) = 0.02465093
#
# Stress axis : x y z
#
# Youngs Moduli (GPa) = 93.36456 92.90103 63.55061
#
# Poissons Ratio (x) = 0.11783 0.09000
# Poissons Ratio (y) = 0.11841 0.22848
# Poissons Ratio (z) = 0.13222 0.33400
#
# Static dielectric constant tensor:
#      x y z
#    x 4.378160 -0.171890 0.323090 
#    y -0.171890 4.476920 -0.192970 
#    z 0.323090 -0.192970 3.811730 
# 
# 
# High freq. dielectric constant tensor:
#      x y z
#    x 1.897740 -0.005420 0.021080 
#    y -0.005420 1.885660 -0.009490 
#    z 0.021080 -0.009490 1.825060 
# 
# From -- ./inp_files/390139.got.cif
#   From: 2010.06.25/outbox.cif.g09.slc.cpg/sg2_196_cif.got.tgz:390139.got - 2010.06.27 13:26:56.
