data_PCOD8044258
_publ_section_title
;
Structure prediction by ZEFSAII (Michael W. Deem and Ramdas Pophale) SiO2 
 PCOD8044258
Probable space group: P -1
;
_chemical_formula_sum "Si O2"
_cell_formula_units_Z 16
_cell_length_a 9.787960
_cell_length_b 11.663043
_cell_length_c 27.244477
_cell_angle_alpha 21.025244
_cell_angle_beta 44.867608
_cell_angle_gamma 46.635650
_cell_volume 783.332207
_symmetry_space_group_name_H-M "P -1"
_symmetry_group_IT_number 2
_symmetry_cell_setting 'triclinic'
loop_
_space_group_symop_operation_xyz
x,y,z
-x,-y,-z
loop_
_atom_site_type_symbol
_atom_site_label
_atom_site_fract_x
_atom_site_fract_y
_atom_site_fract_z
Si Si1 0.540385 0.525232 0.060367
Si Si2 0.977007 0.219160 0.734089
Si Si3 0.505364 0.143086 0.494716
Si Si4 0.828687 0.735383 0.788520
Si Si5 0.283324 0.807264 0.766166
Si Si6 0.675933 0.145623 0.753628
Si Si7 0.058946 0.046507 0.521254
Si Si8 0.982380 0.355989 0.982448
O O1 0.379000 0.377762 0.127884
O O2 0.539365 0.398558 0.167531
O O3 0.757542 0.417084 0.030125
O O4 0.514949 0.912471 0.906144
O O5 0.820367 0.180817 0.747500
O O6 0.965129 0.582624 0.607755
O O7 0.191294 0.106359 0.703107
O O8 0.938241 0.007253 0.877527
O O9 0.432202 0.514575 0.368551
O O10 0.500000 0.000000 0.500000
O O11 0.368304 0.935212 0.643996
O O12 0.722649 0.109286 0.471501
O O13 0.976526 0.441074 0.891557
O O14 0.794426 0.009545 0.729623
O O15 0.927577 0.863229 0.664581
O O16 0.110326 0.589183 0.886440
O O17 0.000000 0.000000 0.500000
#
# Coordination Sequence:
#
# PCOD8044258 Si02
#       8
#     2   2   2   2   2   2   2   2
#     4  10  20  39  64 102 126 154 203 271 323 363
#     4  11  21  41  70  96 123 164 210 267 313 371
#     4  12  26  40  61  93 131 169 212 259 307 371
#     4  11  23  41  70  94 127 167 209 259 315 378
#     4  11  20  39  67  96 126 159 211 263 313 375
#     4  11  21  41  69  99 123 158 216 265 314 368
#     4  12  28  47  59  89 137 176 207 255 316 374
#     4  10  19  37  67 103 123 151 211 271 316 364
#
# _framework density 20.425561999999999
#
# number of rings (size 3 to 8) (size 9 to 14) (size 15 to 20)
#    0.000    1.000    5.000    4.500    0.000    4.000 
#    0.000   11.875    0.000    0.000    0.000    0.000 
#    0.000    0.000    0.000    0.000    0.000    0.000 
#
# Total GULP energy -198324.643303 kJ/mol
# GULP energy per Si atom -12395.290206 kJ/mol
# Density = 2.037907 g / cm^3
# Si number density = 20.425562 Si / 1000 Ang^3
#
#
#
# Elastic Constant Matrix: (Units=GPa)
#
#
# Indices 1 2 3 4 5 6 
#
# 1 142.5491 28.4760 38.8328 26.0289 8.0915 13.5331
# 2 28.4760 60.6449 44.6029 31.7799 7.9299 8.7086
# 3 38.8328 44.6029 129.3929 39.1649 17.2318 13.6145
# 4 26.0289 31.7799 39.1649 -12.5379 4.5332 2.1932
# 5 8.0915 7.9299 17.2318 4.5332 39.2752 4.2302
# 6 13.5331 8.7086 13.6145 2.1932 4.2302 29.8176
#
#
#
# Elastic Compliance Matrix: (Units=1/GPa)
#
#
# Indices 1 2 3 4 5 6 
#
# 1 0.007930 -0.003374 -0.001661 0.002276 -0.000273 -0.001984
# 2 -0.003374 0.018474 -0.008838 0.011933 -0.000466 -0.000640
# 3 -0.001661 -0.008838 0.010275 0.004998 -0.002816 -0.001325
# 4 0.002276 0.011933 0.004998 -0.030343 -0.001093 -0.004413
# 5 -0.000273 -0.000466 -0.002816 -0.001093 0.027214 -0.002235
# 6 -0.001984 -0.000640 -0.001325 -0.004413 -0.002235 0.035871
#
#
# Mechanical properties :
#
#
# Convention : Reuss Voigt Hill
#
# Bulk Modulus (GPa) = 111.94765 61.82337 86.88551
# Shear Modulus (GPa) = 49.92834 26.02269 37.97551
#
# Velocity S-wave (km/s) = 4.94946 3.57322 4.31654
# Velocity P-wave (km/s) = 9.35892 6.88166 8.21422
#
# Compressibility (1/GPa) = 0.00893275
#
# Stress axis : x y z
#
# Youngs Moduli (GPa) = 126.10702 54.13152 97.32506
#
# Poissons Ratio (x) = 0.18266 0.16161
# Poissons Ratio (y) = 0.42554 0.86013
# Poissons Ratio (z) = 0.20941 0.47840
#
# Static dielectric constant tensor:
#      x y z
#    x 3.855070 -0.114310 0.465560 
#    y -0.114310 3.368150 0.047020 
#    z 0.465560 0.047020 4.347800 
# 
# 
# High freq. dielectric constant tensor:
#      x y z
#    x 1.816990 -0.000590 0.016460 
#    y -0.000590 1.765550 0.005800 
#    z 0.016460 0.005800 1.820460 
# 
# From -- ./inp_files/227522.got.cif
#   From: 2010.06.25/outbox.cif.g09.slc.cpg/sg2_114_cif.got.tgz:227522.got - 2010.06.27 13:26:56.
