data_PCOD8044730
_publ_section_title
;
Structure prediction by ZEFSAII (Michael W. Deem and Ramdas Pophale) SiO2 
 PCOD8044730
Probable space group: P -1
;
_chemical_formula_sum "Si O2"
_cell_formula_units_Z 12
_cell_length_a 11.619984
_cell_length_b 8.135670
_cell_length_c 9.909236
_cell_angle_alpha 99.857305
_cell_angle_beta 142.256785
_cell_angle_gamma 68.179405
_cell_volume 519.778201
_symmetry_space_group_name_H-M "P -1"
_symmetry_group_IT_number 2
_symmetry_cell_setting 'triclinic'
loop_
_space_group_symop_operation_xyz
x,y,z
-x,-y,-z
loop_
_atom_site_type_symbol
_atom_site_label
_atom_site_fract_x
_atom_site_fract_y
_atom_site_fract_z
Si Si1 0.883083 0.473793 0.018183
Si Si2 0.210921 0.442072 0.530591
Si Si3 0.574143 0.331937 0.645377
Si Si4 0.502872 0.165761 0.307805
Si Si5 0.804251 0.181118 0.363442
Si Si6 0.494806 0.135820 0.895461
O O1 0.034608 0.416795 0.277227
O O2 0.801267 0.311485 0.899715
O O3 0.694361 0.661663 0.897873
O O4 0.000000 0.500000 0.000000
O O5 0.425642 0.376819 0.641148
O O6 0.133957 0.647459 0.539171
O O7 0.272982 0.303325 0.696275
O O8 0.500000 0.500000 0.500000
O O9 0.566492 0.166104 0.524567
O O10 0.691791 0.159891 0.391249
O O11 0.456230 0.984993 0.214024
O O12 0.665286 0.213179 0.103720
O O13 0.000000 0.000000 0.500000
O O14 0.500000 0.000000 0.000000
#
# Coordination Sequence:
#
# PCOD8044730 Si02
#       6
#     2   2   2   2   2   2
#     4  11  19  37  70 101 130 172 213 277 352 398
#     4  12  22  42  71 100 133 183 222 273 349 399
#     4  10  19  38  66 101 132 168 220 276 342 401
#     4  10  20  43  65  96 143 164 225 283 330 405
#     4  11  22  43  68  96 134 181 224 280 335 399
#     4  10  25  44  63  95 137 184 230 281 317 399
#
# _framework density 23.086773000000001
#
# number of rings (size 3 to 8) (size 9 to 14) (size 15 to 20)
#    0.000    1.333    6.667    1.500    0.000    0.667 
#    6.000    7.500    0.000    0.000    0.000    0.000 
#    0.000    0.000    0.000    0.000    0.000    0.000 
#
# Total GULP energy -148731.106543 kJ/mol
# GULP energy per Si atom -12394.258879 kJ/mol
# Density = 2.303423 g / cm^3
# Si number density = 23.086773 Si / 1000 Ang^3
#
#
#
# Elastic Constant Matrix: (Units=GPa)
#
#
# Indices 1 2 3 4 5 6 
#
# 1 74.8183 23.4968 26.5168 -8.4796 10.2653 -17.1034
# 2 23.4968 120.8217 74.5419 12.2510 -15.5556 -22.7985
# 3 26.5168 74.5419 216.6026 19.4247 -1.7928 -4.0068
# 4 -8.4796 12.2510 19.4247 58.7444 -4.0621 -2.7206
# 5 10.2653 -15.5556 -1.7928 -4.0621 30.5578 -3.5528
# 6 -17.1034 -22.7985 -4.0068 -2.7206 -3.5528 27.8421
#
#
#
# Elastic Compliance Matrix: (Units=1/GPa)
#
#
# Indices 1 2 3 4 5 6 
#
# 1 0.017710 -0.001744 -0.001766 0.003538 -0.005442 0.008848
# 2 -0.001744 0.014835 -0.004542 -0.000679 0.009120 0.011520
# 3 -0.001766 -0.004542 0.006459 -0.001787 -0.002079 -0.004315
# 4 0.003538 -0.000679 -0.001787 0.018503 0.001207 0.003322
# 5 -0.005442 0.009120 -0.002079 0.001207 0.040290 0.009085
# 6 0.008848 0.011520 -0.004315 0.003322 0.009085 0.051648
#
#
# Mechanical properties :
#
#
# Convention : Reuss Voigt Hill
#
# Bulk Modulus (GPa) = 43.67057 73.48375 58.57716
# Shear Modulus (GPa) = 28.87078 42.60799 35.73939
#
# Velocity S-wave (km/s) = 3.54012 4.30066 3.93879
# Velocity P-wave (km/s) = 5.97218 7.52059 6.79066
#
# Compressibility (1/GPa) = 0.02289871
#
# Stress axis : x y z
#
# Youngs Moduli (GPa) = 56.46620 67.40713 154.81133
#
# Poissons Ratio (x) = 0.11756 0.27347
# Poissons Ratio (y) = 0.09847 0.70321
# Poissons Ratio (z) = 0.09975 0.30619
#
# Static dielectric constant tensor:
#      x y z
#    x 5.139140 -0.155160 0.586410 
#    y -0.155160 5.055670 0.612400 
#    z 0.586410 0.612400 6.248310 
# 
# 
# High freq. dielectric constant tensor:
#      x y z
#    x 1.895250 -0.010240 -0.004360 
#    y -0.010240 1.912330 0.022520 
#    z -0.004360 0.022520 1.925840 
# 
# From -- ./inp_files/444953.got.cif
#   From: 2010.06.25/outbox.cif.g09.slc.cpg/sg2_223_cif.got.tgz:444953.got - 2010.06.27 13:26:56.
