data_PCOD8044112
_publ_section_title
;
Structure prediction by ZEFSAII (Michael W. Deem and Ramdas Pophale) SiO2 
 PCOD8044112
Probable space group: P -1
;
_chemical_formula_sum "Si O2"
_cell_formula_units_Z 16
_cell_length_a 21.061238
_cell_length_b 21.216203
_cell_length_c 9.661421
_cell_angle_alpha 54.102441
_cell_angle_beta 135.942252
_cell_angle_gamma 160.162434
_cell_volume 942.365970
_symmetry_space_group_name_H-M "P -1"
_symmetry_group_IT_number 2
_symmetry_cell_setting 'triclinic'
loop_
_space_group_symop_operation_xyz
x,y,z
-x,-y,-z
loop_
_atom_site_type_symbol
_atom_site_label
_atom_site_fract_x
_atom_site_fract_y
_atom_site_fract_z
Si Si1 0.689873 0.445268 0.657563
Si Si2 0.375933 0.483894 0.306651
Si Si3 0.643657 0.279394 0.010993
Si Si4 0.844236 0.075743 0.960005
Si Si5 0.898951 0.412200 0.802344
Si Si6 0.435369 0.707236 0.625871
Si Si7 0.477646 0.693797 0.001265
Si Si8 0.777335 0.148148 0.974647
O O1 0.616305 0.464285 0.602537
O O2 0.594380 0.291960 0.779957
O O3 0.567209 0.351231 0.435868
O O4 0.972087 0.665338 0.795274
O O5 0.500000 0.500000 0.500000
O O6 0.506019 0.633116 0.196677
O O7 0.114605 0.267635 0.115621
O O8 0.431723 0.052483 0.001271
O O9 0.682274 0.371877 0.075961
O O10 0.887162 0.424412 0.183744
O O11 0.697910 0.949875 0.749547
O O12 0.742518 0.936293 0.096216
O O13 0.800461 0.127639 0.885361
O O14 0.747424 0.366951 0.582481
O O15 0.733903 0.205522 0.806240
O O16 0.000000 0.500000 0.000000
O O17 0.366273 0.602242 0.789643
#
# Coordination Sequence:
#
# PCOD8044112 Si02
#       8
#     2   2   2   2   2   2   2   2
#     4   9  18  36  55  73 112 137 165 221 268 303
#     4  10  19  37  64  81  94 136 179 207 257 341
#     4   9  17  34  52  73 101 145 189 209 243 312
#     4   8  19  36  53  76 109 133 170 215 273 302
#     4  11  20  32  48  79 111 139 186 223 243 285
#     4  10  19  38  49  74 115 144 159 227 274 281
#     4   8  19  36  53  76 109 133 170 215 273 302
#     4   9  17  34  52  73 101 145 189 209 243 312
#
# _framework density 16.978542999999998
#
# number of rings (size 3 to 8) (size 9 to 14) (size 15 to 20)
#    0.750    2.000    2.500    0.750    0.000    2.000 
#    4.500    1.250    0.000    0.000    0.000    0.000 
#    0.000    0.000    0.000    0.000    0.000    0.000 
#
# Total GULP energy -198233.782700 kJ/mol
# GULP energy per Si atom -12389.611419 kJ/mol
# Density = 1.693990 g / cm^3
# Si number density = 16.978543 Si / 1000 Ang^3
#
#
#
# Elastic Constant Matrix: (Units=GPa)
#
#
# Indices 1 2 3 4 5 6 
#
# 1 75.8998 28.3174 42.6258 -5.4275 -7.0183 -14.1379
# 2 28.3174 96.8013 20.9041 -6.6734 0.2734 -5.4923
# 3 42.6258 20.9041 72.7472 -6.1280 -17.3526 -19.7891
# 4 -5.4275 -6.6734 -6.1280 27.9065 -6.3249 -1.8595
# 5 -7.0183 0.2734 -17.3526 -6.3249 35.3742 -3.2550
# 6 -14.1379 -5.4923 -19.7891 -1.8595 -3.2550 19.6166
#
#
#
# Elastic Compliance Matrix: (Units=1/GPa)
#
#
# Indices 1 2 3 4 5 6 
#
# 1 0.021047 -0.003657 -0.010129 0.001222 -0.000177 0.004013
# 2 -0.003657 0.011828 -0.001958 0.001205 -0.001697 -0.001467
# 3 -0.010129 -0.001958 0.034537 0.011758 0.019940 0.031415
# 4 0.001222 0.001205 0.011758 0.043812 0.015660 0.019831
# 5 -0.000177 -0.001697 0.019940 0.015660 0.043424 0.028203
# 6 0.004013 -0.001467 0.031415 0.019831 0.028203 0.091710
#
#
# Mechanical properties :
#
#
# Convention : Reuss Voigt Hill
#
# Bulk Modulus (GPa) = 27.83777 47.68253 37.76015
# Shear Modulus (GPa) = 17.25209 26.81954 22.03581
#
# Velocity S-wave (km/s) = 3.19111 3.97875 3.60649
# Velocity P-wave (km/s) = 5.47805 7.01799 6.29528
#
# Compressibility (1/GPa) = 0.03592242
#
# Stress axis : x y z
#
# Youngs Moduli (GPa) = 47.51351 84.54695 28.95476
#
# Poissons Ratio (x) = 0.30919 0.29328
# Poissons Ratio (y) = 0.17376 0.05670
# Poissons Ratio (z) = 0.48126 0.16557
#
# Static dielectric constant tensor:
#      x y z
#    x 3.156650 0.004570 -0.140540 
#    y 0.004570 3.346060 0.053400 
#    z -0.140540 0.053400 3.176230 
# 
# 
# High freq. dielectric constant tensor:
#      x y z
#    x 1.647560 -0.001790 -0.011580 
#    y -0.001790 1.656840 0.000280 
#    z -0.011580 0.000280 1.625230 
# 
# From -- ./inp_files/349515.got.cif
#   From: 2010.06.25/outbox.cif.g09.slc.cpg/sg2_175_cif.got.tgz:349515.got - 2010.06.27 13:26:56.
