data_PCOD8044877
_publ_section_title
;
Structure prediction by ZEFSAII (Michael W. Deem and Ramdas Pophale) SiO2 
 PCOD8044877
Probable space group: P 2
;
_chemical_formula_sum "Si O2"
_cell_formula_units_Z 14
_cell_length_a 6.652147
_cell_length_b 8.219314
_cell_length_c 19.643515
_cell_angle_alpha 90.000000
_cell_angle_beta 136.991867
_cell_angle_gamma 90.000000
_cell_volume 732.598528
_symmetry_space_group_name_H-M "P 2"
_symmetry_group_IT_number 3
_symmetry_cell_setting 'monoclinic'
loop_
_space_group_symop_operation_xyz
x,y,z
-x,y,-z
loop_
_atom_site_type_symbol
_atom_site_label
_atom_site_fract_x
_atom_site_fract_y
_atom_site_fract_z
Si Si1 0.341736 0.026450 0.826772
Si Si2 0.863420 0.522492 0.395156
Si Si3 0.000000 0.954369 0.000000
Si Si4 0.763193 0.618533 0.711291
Si Si5 0.817228 0.804107 0.092004
Si Si6 0.500000 0.093569 0.500000
Si Si7 0.066252 0.828801 0.365609
Si Si8 0.048723 0.306834 0.321366
O O1 0.191367 0.198543 0.776131
O O2 0.695686 0.055737 0.915041
O O3 0.230494 0.963768 0.872629
O O4 0.238814 0.897797 0.742392
O O5 0.528128 0.571141 0.321317
O O6 0.000000 0.469747 0.500000
O O7 0.022590 0.682096 0.406254
O O8 0.912370 0.365620 0.359495
O O9 0.025216 0.845079 0.939476
O O10 0.727291 0.762097 0.645718
O O11 0.899141 0.461487 0.710973
O O12 0.989672 0.668601 0.824928
O O13 0.500000 0.723356 0.000000
O O14 0.363139 0.211096 0.407794
O O15 0.226835 0.971895 0.448919
#
# Coordination Sequence:
#
# PCOD8044877 Si02
#       8
#     2   2   1   2   2   1   2   2
#     4   9  19  36  56  80 108 141 178 218 267 319
#     4  11  21  34  54  81 108 142 183 221 264 313
#     4  10  18  34  60  84 106 130 176 232 268 308
#     4  10  20  37  56  77 110 144 175 220 269 313
#     4   9  19  36  60  82 102 137 181 223 267 316
#     4  10  18  36  56  74 108 144 174 222 264 296
#     4   9  19  35  56  79 104 139 186 225 259 311
#     4  10  22  37  53  78 113 146 177 214 265 327
#
# _framework density 19.110057999999999
#
# number of rings (size 3 to 8) (size 9 to 14) (size 15 to 20)
#    0.000    2.286    0.000    2.571    0.000    4.571 
#    0.000   19.286    0.000    2.571    0.000    0.000 
#    0.000    0.000    0.000    0.000    0.000    0.000 
#
# Total GULP energy -173484.258342 kJ/mol
# GULP energy per Si atom -12391.732739 kJ/mol
# Density = 1.906656 g / cm^3
# Si number density = 19.110058 Si / 1000 Ang^3
#
#
#
# Elastic Constant Matrix: (Units=GPa)
#
#
# Indices 1 2 3 4 5 6 
#
# 1 100.3543 35.2026 57.6635 0.0000 -2.7499 0.0000
# 2 35.2026 92.8748 61.4072 0.0000 -1.1692 0.0000
# 3 57.6635 61.4072 152.3530 0.0000 9.3063 0.0000
# 4 0.0000 0.0000 0.0000 47.5366 0.0000 -6.7804
# 5 -2.7499 -1.1692 9.3063 0.0000 29.3770 0.0000
# 6 0.0000 0.0000 0.0000 -6.7804 0.0000 14.3294
#
#
#
# Elastic Compliance Matrix: (Units=1/GPa)
#
#
# Indices 1 2 3 4 5 6 
#
# 1 0.013262 -0.002146 -0.004308 0.000000 0.002521 0.000000
# 2 -0.002146 0.015210 -0.005448 0.000000 0.002130 0.000000
# 3 -0.004308 -0.005448 0.010634 0.000000 -0.003989 0.000000
# 4 0.000000 0.000000 0.000000 0.022559 0.000000 0.010675
# 5 0.002521 0.002130 -0.003989 0.000000 0.035625 0.000000
# 6 0.000000 0.000000 0.000000 0.010675 0.000000 0.074838
#
#
# Mechanical properties :
#
#
# Convention : Reuss Voigt Hill
#
# Bulk Modulus (GPa) = 65.35957 72.68097 69.02027
# Shear Modulus (GPa) = 24.87148 31.00253 27.93700
#
# Velocity S-wave (km/s) = 3.61153 4.03217 3.82763
# Velocity P-wave (km/s) = 7.18796 7.73261 7.46525
#
# Compressibility (1/GPa) = 0.01529998
#
# Stress axis : x y z
#
# Youngs Moduli (GPa) = 75.40145 65.74703 94.03822
#
# Poissons Ratio (x) = 0.14112 0.40516
# Poissons Ratio (y) = 0.16185 0.51234
# Poissons Ratio (z) = 0.32486 0.35820
#
# Static dielectric constant tensor:
#      x y z
#    x 3.566560 0.000000 0.013070 
#    y 0.000000 3.471160 0.000000 
#    z 0.013070 0.000000 3.722130 
# 
# 
# High freq. dielectric constant tensor:
#      x y z
#    x 1.730920 0.000000 -0.000320 
#    y 0.000000 1.734470 0.000000 
#    z -0.000320 0.000000 1.760550 
# 
# From -- ./inp_files/3028.got.cif
#   From: 2010.03.12/outbox.cif.g09.slc.cpg/sg3_2_cif.got.tgz:3028.got - 2010.03.31 09:20:49.
