data_PCOD8044850
_publ_section_title
;
Structure prediction by ZEFSAII (Michael W. Deem and Ramdas Pophale) SiO2 
 PCOD8044850
Probable space group: P 2
;
_chemical_formula_sum "Si O2"
_cell_formula_units_Z 12
_cell_length_a 8.736099
_cell_length_b 8.848103
_cell_length_c 11.930110
_cell_angle_alpha 90.000000
_cell_angle_beta 138.697240
_cell_angle_gamma 90.000000
_cell_volume 608.668757
_symmetry_space_group_name_H-M "P 2"
_symmetry_group_IT_number 3
_symmetry_cell_setting 'monoclinic'
loop_
_space_group_symop_operation_xyz
x,y,z
-x,y,-z
loop_
_atom_site_type_symbol
_atom_site_label
_atom_site_fract_x
_atom_site_fract_y
_atom_site_fract_z
Si Si1 0.990323 0.021720 0.332588
Si Si2 0.664344 0.526971 0.332062
Si Si3 0.190611 0.037191 0.010788
Si Si4 0.668195 0.354904 0.985226
Si Si5 0.350466 0.881615 0.677728
Si Si6 0.992779 0.375694 0.654135
O O1 0.987315 0.198343 0.361563
O O2 0.243842 0.958364 0.506929
O O3 0.791529 0.936831 0.292575
O O4 0.939100 0.987476 0.174554
O O5 0.408887 0.476166 0.150652
O O6 0.678031 0.704067 0.354091
O O7 0.735206 0.442423 0.488340
O O8 0.838849 0.470231 0.333070
O O9 0.330108 0.192169 0.071622
O O10 0.378492 0.915175 0.155471
O O11 0.000000 0.058310 0.000000
O O12 0.500000 0.344773 0.000000
O O13 0.925134 0.401322 0.171858
#
# Coordination Sequence:
#
# PCOD8044850 Si02
#       6
#     2   2   2   2   2   2
#     4  10  20  36  61  84 108 141 184 231 268 318
#     4  10  18  29  52  83 111 133 167 224 279 322
#     4  11  23  38  56  78 110 150 188 224 266 322
#     4   9  18  34  56  79 104 137 179 227 268 315
#     4  11  21  34  57  87 113 141 178 226 278 324
#     4   9  16  29  50  79 106 132 170 220 269 311
#
# _framework density 19.715157000000001
#
# number of rings (size 3 to 8) (size 9 to 14) (size 15 to 20)
#    0.000    2.000    0.000    8.500    0.000    6.000 
#    0.000    0.833    0.000    4.000    0.000    0.000 
#    0.000    0.000    0.000    0.000    0.000    0.000 
#
# Total GULP energy -148716.302240 kJ/mol
# GULP energy per Si atom -12393.025187 kJ/mol
# Density = 1.967028 g / cm^3
# Si number density = 19.715157 Si / 1000 Ang^3
#
#
#
# Elastic Constant Matrix: (Units=GPa)
#
#
# Indices 1 2 3 4 5 6 
#
# 1 40.1242 7.1359 28.3978 0.0000 -2.1586 0.0000
# 2 7.1359 114.9661 71.0029 0.0000 2.6251 0.0000
# 3 28.3978 71.0029 190.2614 0.0000 -8.5626 0.0000
# 4 0.0000 0.0000 0.0000 26.2328 0.0000 4.7079
# 5 -2.1586 2.6251 -8.5626 0.0000 12.5899 0.0000
# 6 0.0000 0.0000 0.0000 4.7079 0.0000 -0.9004
#
#
#
# Elastic Compliance Matrix: (Units=1/GPa)
#
#
# Indices 1 2 3 4 5 6 
#
# 1 0.028000 0.000994 -0.004481 0.000000 0.001546 0.000000
# 2 0.000994 0.011705 -0.004764 0.000000 -0.005510 0.000000
# 3 -0.004481 -0.004764 0.007956 0.000000 0.005636 0.000000
# 4 0.000000 0.000000 0.000000 0.019666 0.000000 0.102830
# 5 0.001546 -0.005510 0.005636 0.000000 0.084676 0.000000
# 6 0.000000 0.000000 0.000000 0.102830 0.000000 -0.572978
#
#
# Mechanical properties :
#
#
# Convention : Reuss Voigt Hill
#
# Bulk Modulus (GPa) = 32.09322 62.04720 47.07021
# Shear Modulus (GPa) = -12.68758 23.50548 5.40895
#
# Velocity S-wave (km/s) = -2.53957 3.45665 1.65816
# Velocity P-wave (km/s) = 2.77751 6.88995 5.25290
#
# Compressibility (1/GPa) = 0.03115923
#
# Stress axis : x y z
#
# Youngs Moduli (GPa) = 35.71413 85.43468 125.68567
#
# Poissons Ratio (x) = -0.08491 0.56314
# Poissons Ratio (y) = -0.03550 0.59882
# Poissons Ratio (z) = 0.16002 0.40705
#
# Static dielectric constant tensor:
#      x y z
#    x 2.970490 0.000000 -0.028010 
#    y 0.000000 3.543640 0.000000 
#    z -0.028010 0.000000 5.151050 
# 
# 
# High freq. dielectric constant tensor:
#      x y z
#    x 1.698260 0.000000 -0.004340 
#    y 0.000000 1.768650 0.000000 
#    z -0.004340 0.000000 1.807570 
# 
# From -- ./inp_files/5400.got.cif
#   From: 2010.03.12/outbox.cif.g09.slc.cpg/sg3_3_cif.got.tgz:5400.got - 2010.03.31 09:20:49.
