data_PCOD8044101
_publ_section_title
;
Structure prediction by ZEFSAII (Michael W. Deem and Ramdas Pophale) SiO2 
 PCOD8044101
Probable space group: P -1
;
_chemical_formula_sum "Si O2"
_cell_formula_units_Z 16
_cell_length_a 21.382696
_cell_length_b 12.173835
_cell_length_c 14.387584
_cell_angle_alpha 45.514033
_cell_angle_beta 27.093893
_cell_angle_gamma 28.227252
_cell_volume 743.452665
_symmetry_space_group_name_H-M "P -1"
_symmetry_group_IT_number 2
_symmetry_cell_setting 'triclinic'
loop_
_space_group_symop_operation_xyz
x,y,z
-x,-y,-z
loop_
_atom_site_type_symbol
_atom_site_label
_atom_site_fract_x
_atom_site_fract_y
_atom_site_fract_z
Si Si1 0.239812 0.673487 0.469331
Si Si2 0.486370 0.749550 0.902221
Si Si3 0.816481 0.644199 0.787399
Si Si4 0.708903 0.836658 0.614289
Si Si5 0.178399 0.762213 0.693463
Si Si6 0.896272 0.876707 0.663701
Si Si7 0.563442 0.660995 0.257842
Si Si8 0.313124 0.712922 0.994043
O O1 0.188188 0.648025 0.654529
O O2 0.506235 0.451657 0.230723
O O3 0.131894 0.666152 0.534142
O O4 0.115996 0.950693 0.477127
O O5 0.627704 0.778897 0.683848
O O6 0.359523 0.819926 0.933709
O O7 0.662519 0.460674 0.871478
O O8 0.307141 0.945311 0.101707
O O9 0.683597 0.804925 0.774251
O O10 0.884894 0.739481 0.693735
O O11 0.035588 0.352674 0.639376
O O12 0.661148 0.667690 0.037558
O O13 0.551240 0.125221 0.640898
O O14 0.368083 0.721807 0.446015
O O15 0.234506 0.609611 0.799294
O O16 0.934675 0.055119 0.859588
#
# Coordination Sequence:
#
# PCOD8044101 Si02
#       8
#     2   2   2   2   2   2   2   2
#     4  10  21  36  65  93 124 162 207 255 311 370
#     4  10  20  37  63  98 126 153 200 265 311 369
#     4  11  24  40  64  93 127 162 204 264 319 360
#     4  11  24  39  66  95 125 159 206 259 321 369
#     4  11  25  43  63  87 126 173 213 251 306 374
#     4  10  19  37  63  96 127 157 201 263 316 365
#     4  11  26  44  61  89 128 168 214 256 300 378
#     4  10  22  38  62  94 128 159 204 257 312 360
#
# _framework density 21.521208000000001
#
# number of rings (size 3 to 8) (size 9 to 14) (size 15 to 20)
#    0.000    1.500    2.500    1.875   10.500    1.000 
#    0.000    5.000    0.000    3.000    0.000    0.000 
#    0.000    0.000    0.000    0.000    0.000    0.000 
#
# Total GULP energy -198399.411747 kJ/mol
# GULP energy per Si atom -12399.963234 kJ/mol
# Density = 2.147222 g / cm^3
# Si number density = 21.521208 Si / 1000 Ang^3
#
#
#
# Elastic Constant Matrix: (Units=GPa)
#
#
# Indices 1 2 3 4 5 6 
#
# 1 78.3341 31.4537 24.0501 5.9055 -6.9464 4.8317
# 2 31.4537 84.0742 43.5813 22.3549 -11.6086 0.2513
# 3 24.0501 43.5813 78.6254 17.4834 -6.3891 -8.4506
# 4 5.9055 22.3549 17.4834 32.0130 0.3479 -11.8414
# 5 -6.9464 -11.6086 -6.3891 0.3479 28.0566 5.9564
# 6 4.8317 0.2513 -8.4506 -11.8414 5.9564 28.2673
#
#
#
# Elastic Compliance Matrix: (Units=1/GPa)
#
#
# Indices 1 2 3 4 5 6 
#
# 1 0.015723 -0.004091 -0.002766 -0.000040 0.002421 -0.004005
# 2 -0.004091 0.022963 -0.008642 -0.014337 0.008811 -0.009951
# 3 -0.002766 -0.008642 0.019300 -0.001849 -0.001068 0.005770
# 4 -0.000040 -0.014337 -0.001849 0.051093 -0.011988 0.023511
# 5 0.002421 0.008811 -0.001068 -0.011988 0.042952 -0.014884
# 6 -0.004005 -0.009951 0.005770 0.023511 -0.014884 0.050860
#
#
# Mechanical properties :
#
#
# Convention : Reuss Voigt Hill
#
# Bulk Modulus (GPa) = 37.05650 48.80042 42.92846
# Shear Modulus (GPa) = 20.58577 27.13063 23.85820
#
# Velocity S-wave (km/s) = 3.09614 3.55441 3.33316
# Velocity P-wave (km/s) = 5.48064 6.29046 5.89946
#
# Compressibility (1/GPa) = 0.02698582
#
# Stress axis : x y z
#
# Youngs Moduli (GPa) = 63.60249 43.54779 51.81448
#
# Poissons Ratio (x) = 0.17816 0.14334
# Poissons Ratio (y) = 0.26021 0.44780
# Poissons Ratio (z) = 0.17595 0.37636
#
# Static dielectric constant tensor:
#      x y z
#    x 3.846950 0.178330 -0.120960 
#    y 0.178330 3.721220 0.188080 
#    z -0.120960 0.188080 3.895770 
# 
# 
# High freq. dielectric constant tensor:
#      x y z
#    x 1.846160 0.016890 -0.006470 
#    y 0.016890 1.813710 0.028410 
#    z -0.006470 0.028410 1.854410 
# 
# From -- ./inp_files/519333.got.cif
#   From: 2010.06.25/outbox.cif.g09.slc.cpg/sg2_260_cif.got.tgz:519333.got - 2010.06.27 13:26:56.
