data_PCOD8044467
_publ_section_title
;
Structure prediction by ZEFSAII (Michael W. Deem and Ramdas Pophale) SiO2 
 PCOD8044467
Probable space group: P -1
;
_chemical_formula_sum "Si O2"
_cell_formula_units_Z 16
_cell_length_a 5.324896
_cell_length_b 8.066951
_cell_length_c 18.107686
_cell_angle_alpha 73.636732
_cell_angle_beta 89.716174
_cell_angle_gamma 89.735003
_cell_volume 746.308407
_symmetry_space_group_name_H-M "P -1"
_symmetry_group_IT_number 2
_symmetry_cell_setting 'triclinic'
loop_
_space_group_symop_operation_xyz
x,y,z
-x,-y,-z
loop_
_atom_site_type_symbol
_atom_site_label
_atom_site_fract_x
_atom_site_fract_y
_atom_site_fract_z
Si Si1 0.750740 0.973610 0.957926
Si Si2 0.259387 0.160448 0.728230
Si Si3 0.257659 0.468903 0.807599
Si Si4 0.241399 0.862668 0.214343
Si Si5 0.256737 0.151895 0.408884
Si Si6 0.241882 0.064048 0.582812
Si Si7 0.250779 0.407150 0.985321
Si Si8 0.241755 0.458527 0.262083
O O1 0.750334 0.115198 0.875974
O O2 0.750808 0.778965 0.952069
O O3 0.500000 0.000000 0.000000
O O4 0.000000 0.000000 0.000000
O O5 0.263018 0.327285 0.759954
O O6 0.512549 0.050951 0.759903
O O7 0.252868 0.196292 0.635760
O O8 0.011126 0.049466 0.763551
O O9 0.252746 0.384771 0.899311
O O10 0.510689 0.581611 0.783045
O O11 0.006405 0.583464 0.781338
O O12 0.237156 0.659481 0.260814
O O13 0.248522 0.177075 0.494309
O O14 0.244311 0.341635 0.349765
O O15 0.517934 0.062155 0.397156
O O16 0.016639 0.042061 0.397570
O O17 0.500000 0.500000 0.000000
O O18 0.000000 0.500000 0.000000
#
# Coordination Sequence:
#
# PCOD8044467 Si02
#       8
#     2   2   2   2   2   2   2   2
#     4  12  23  43  71  92 125 180 217 267 332 393
#     4  10  20  39  61  88 120 163 207 261 302 373
#     4  10  21  40  63  84 126 160 205 263 311 378
#     4  10  21  37  60  89 121 152 216 257 306 375
#     4  10  21  38  60  91 128 169 198 258 319 376
#     4  10  21  39  60  89 129 164 211 249 311 393
#     4  12  26  46  66  97 134 171 220 277 337 389
#     4  10  19  38  61  90 119 165 202 258 316 365
#
# _framework density 21.438859999999998
#
# number of rings (size 3 to 8) (size 9 to 14) (size 15 to 20)
#    0.000    1.500    0.000    6.750    0.000    0.000 
#   13.500    5.000    0.000    0.000    0.000    0.000 
#    0.000    0.000    0.000    0.000    0.000    0.000 
#
# Total GULP energy -198281.655508 kJ/mol
# GULP energy per Si atom -12392.603469 kJ/mol
# Density = 2.139006 g / cm^3
# Si number density = 21.438860 Si / 1000 Ang^3
#
#
#
# Elastic Constant Matrix: (Units=GPa)
#
#
# Indices 1 2 3 4 5 6 
#
# 1 226.9207 21.1065 44.3573 1.5413 13.5655 8.5055
# 2 21.1065 74.5621 44.2732 -3.7915 7.6185 4.3271
# 3 44.3573 44.2732 163.1881 0.3325 11.8077 7.7311
# 4 1.5413 -3.7915 0.3325 34.2553 0.6654 1.3388
# 5 13.5655 7.6185 11.8077 0.6654 26.7312 -3.5395
# 6 8.5055 4.3271 7.7311 1.3388 -3.5395 12.9362
#
#
#
# Elastic Compliance Matrix: (Units=1/GPa)
#
#
# Indices 1 2 3 4 5 6 
#
# 1 0.004882 -0.000432 -0.000887 -0.000088 -0.002381 -0.003178
# 2 -0.000432 0.016560 -0.003947 0.002113 -0.003343 -0.004030
# 3 -0.000887 -0.003947 0.007764 -0.000298 -0.002288 -0.003332
# 4 -0.000088 0.002113 -0.000298 0.029623 -0.001693 -0.004000
# 5 -0.002381 -0.003343 -0.002288 -0.001693 0.042732 0.015919
# 6 -0.003178 -0.004030 -0.003332 -0.004000 0.015919 0.087501
#
#
# Mechanical properties :
#
#
# Convention : Reuss Voigt Hill
#
# Bulk Modulus (GPa) = 53.54812 76.01610 64.78211
# Shear Modulus (GPa) = 24.29325 38.44679 31.37002
#
# Velocity S-wave (km/s) = 3.36987 4.23936 3.82937
# Velocity P-wave (km/s) = 6.33819 7.71343 7.05938
#
# Compressibility (1/GPa) = 0.01867479
#
# Stress axis : x y z
#
# Youngs Moduli (GPa) = 204.81450 60.38477 128.80340
#
# Poissons Ratio (x) = 0.02610 0.11422
# Poissons Ratio (y) = 0.08853 0.50837
# Poissons Ratio (z) = 0.18163 0.23833
#
# Static dielectric constant tensor:
#      x y z
#    x 5.779080 0.008650 -0.002800 
#    y 0.008650 3.431890 -0.071580 
#    z -0.002800 -0.071580 4.032630 
# 
# 
# High freq. dielectric constant tensor:
#      x y z
#    x 1.891210 0.000180 0.000760 
#    y 0.000180 1.794040 0.002860 
#    z 0.000760 0.002860 1.844230 
# 
# From -- ./inp_files/480319.got.cif
#   From: 2010.06.25/outbox.cif.g09.slc.cpg/sg2_241_cif.got.tgz:480319.got - 2010.06.27 13:26:56.
