data_PCOD8044078
_publ_section_title
;
Structure prediction by ZEFSAII (Michael W. Deem and Ramdas Pophale) SiO2 
 PCOD8044078
Probable space group: P -1
;
_chemical_formula_sum "Si O2"
_cell_formula_units_Z 16
_cell_length_a 11.525633
_cell_length_b 13.917167
_cell_length_c 14.134024
_cell_angle_alpha 148.621202
_cell_angle_beta 140.846239
_cell_angle_gamma 48.789541
_cell_volume 745.332742
_symmetry_space_group_name_H-M "P -1"
_symmetry_group_IT_number 2
_symmetry_cell_setting 'triclinic'
loop_
_space_group_symop_operation_xyz
x,y,z
-x,-y,-z
loop_
_atom_site_type_symbol
_atom_site_label
_atom_site_fract_x
_atom_site_fract_y
_atom_site_fract_z
Si Si1 0.397270 0.764862 0.383970
Si Si2 0.818654 0.336276 0.179548
Si Si3 0.804103 0.505428 0.831626
Si Si4 0.687095 0.467754 0.533358
Si Si5 0.445055 0.149494 0.807615
Si Si6 0.316113 0.511144 0.952925
Si Si7 0.469719 0.171595 0.057811
Si Si8 0.782850 0.653512 0.568778
O O1 0.337444 0.632506 0.321279
O O2 0.618563 0.772325 0.522355
O O3 0.345689 0.978043 0.547288
O O4 0.310788 0.687837 0.167695
O O5 0.840670 0.464565 0.205610
O O6 0.773827 0.456345 0.344189
O O7 0.020432 0.245902 0.242420
O O8 0.653673 0.188949 0.935463
O O9 0.837166 0.438258 0.687095
O O10 0.717629 0.711216 0.945518
O O11 0.000000 0.500000 0.000000
O O12 0.500000 0.500000 0.500000
O O13 0.651942 0.294546 0.296413
O O14 0.751322 0.633587 0.645113
O O15 0.308445 0.323133 0.851905
O O16 0.463450 0.098439 0.885855
O O17 0.500000 0.500000 0.000000
O O18 0.500000 0.000000 0.000000
#
# Coordination Sequence:
#
# PCOD8044078 Si02
#       8
#     2   2   2   2   2   2   2   2
#     4  12  22  41  67  90 129 170 214 262 334 393
#     4  10  22  39  65  93 129 171 217 266 320 377
#     4  11  24  42  66  95 132 171 217 277 336 389
#     4  10  19  37  63  91 118 173 214 256 335 390
#     4  11  22  40  68  95 127 171 218 264 328 389
#     4  10  20  41  62  90 126 173 204 265 322 376
#     4  11  21  40  67  95 130 172 219 269 330 399
#     4  11  20  39  64  93 126 168 215 262 319 387
#
# _framework density 21.466922
#
# number of rings (size 3 to 8) (size 9 to 14) (size 15 to 20)
#    0.000    1.250    7.500    0.750    3.500    2.500 
#    0.000    3.750    0.000    0.000    0.000    0.000 
#    0.000    0.000    0.000    0.000    0.000    0.000 
#
# Total GULP energy -198237.074182 kJ/mol
# GULP energy per Si atom -12389.817136 kJ/mol
# Density = 2.141806 g / cm^3
# Si number density = 21.466922 Si / 1000 Ang^3
#
#
#
# Elastic Constant Matrix: (Units=GPa)
#
#
# Indices 1 2 3 4 5 6 
#
# 1 68.5271 28.2184 29.9637 -2.0907 -19.3718 17.6608
# 2 28.2184 107.3101 41.5006 -8.8231 -0.7445 4.8811
# 3 29.9637 41.5006 98.6188 4.2925 -20.7789 -3.4418
# 4 -2.0907 -8.8231 4.2925 38.6379 4.0848 -1.0129
# 5 -19.3718 -0.7445 -20.7789 4.0848 33.7030 -11.0820
# 6 17.6608 4.8811 -3.4418 -1.0129 -11.0820 33.1460
#
#
#
# Elastic Compliance Matrix: (Units=1/GPa)
#
#
# Indices 1 2 3 4 5 6 
#
# 1 0.022386 -0.003917 -0.003922 -0.000267 0.007332 -0.009315
# 2 -0.003917 0.013130 -0.006115 0.004148 -0.007135 -0.002740
# 3 -0.003922 -0.006115 0.016754 -0.004437 0.011222 0.008346
# 4 -0.000267 0.004148 -0.004437 0.027982 -0.006981 -0.002408
# 5 0.007332 -0.007135 0.011222 -0.006981 0.045914 0.013447
# 6 -0.009315 -0.002740 0.008346 -0.002408 0.013447 0.040825
#
#
# Mechanical properties :
#
#
# Convention : Reuss Voigt Hill
#
# Bulk Modulus (GPa) = 41.04754 52.64682 46.84718
# Shear Modulus (GPa) = 24.62836 32.74892 28.68864
#
# Velocity S-wave (km/s) = 3.39081 3.91007 3.65966
# Velocity P-wave (km/s) = 5.87307 6.70543 6.30300
#
# Compressibility (1/GPa) = 0.02436199
#
# Stress axis : x y z
#
# Youngs Moduli (GPa) = 44.67132 76.16258 59.68857
#
# Poissons Ratio (x) = 0.29835 0.23408
# Poissons Ratio (y) = 0.17499 0.36497
# Poissons Ratio (z) = 0.17519 0.46570
#
# Static dielectric constant tensor:
#      x y z
#    x 3.997060 0.291090 -0.278650 
#    y 0.291090 4.256370 -0.430100 
#    z -0.278650 -0.430100 4.050050 
# 
# 
# High freq. dielectric constant tensor:
#      x y z
#    x 1.842270 0.017800 -0.017550 
#    y 0.017800 1.826970 -0.021790 
#    z -0.017550 -0.021790 1.830040 
# 
# From -- ./inp_files/521969.got.cif
#   From: 2010.06.25/outbox.cif.g09.slc.cpg/sg2_261_cif.got.tgz:521969.got - 2010.06.27 13:26:56.
