data_PCOD8044976
_publ_section_title
;
Structure prediction by ZEFSAII (Michael W. Deem and Ramdas Pophale) SiO2 
 PCOD8044976
Probable space group: P 2
;
_chemical_formula_sum "Si O2"
_cell_formula_units_Z 16
_cell_length_a 9.384100
_cell_length_b 9.053153
_cell_length_c 11.870553
_cell_angle_alpha 90.000000
_cell_angle_beta 49.837986
_cell_angle_gamma 90.000000
_cell_volume 770.697570
_symmetry_space_group_name_H-M "P 2"
_symmetry_group_IT_number 3
_symmetry_cell_setting 'monoclinic'
loop_
_space_group_symop_operation_xyz
x,y,z
-x,y,-z
loop_
_atom_site_type_symbol
_atom_site_label
_atom_site_fract_x
_atom_site_fract_y
_atom_site_fract_z
Si Si1 0.561009 0.954660 0.225196
Si Si2 0.099676 0.833319 0.056655
Si Si3 0.421396 0.287619 0.857427
Si Si4 0.171787 0.862118 0.492131
Si Si5 0.313486 0.366584 0.667974
Si Si6 0.690491 0.425900 0.870098
Si Si7 0.954283 0.603180 0.301354
Si Si8 0.185003 0.042065 0.709229
O O1 0.361258 0.875805 0.324753
O O2 0.564281 0.115864 0.171619
O O3 0.643458 0.966109 0.310097
O O4 0.683393 0.852967 0.080237
O O5 0.070297 0.721693 0.172050
O O6 0.006237 0.993027 0.131994
O O7 0.000000 0.761449 0.000000
O O8 0.361254 0.376860 0.775927
O O9 0.631065 0.331320 0.790295
O O10 0.275205 0.324579 0.034322
O O11 0.154117 0.693566 0.546481
O O12 0.000000 0.902965 0.500000
O O13 0.187103 0.983803 0.581540
O O14 0.500000 0.363998 0.500000
O O15 0.191776 0.508848 0.696366
O O16 0.196831 0.218654 0.701441
O O17 0.878401 0.504966 0.734538
O O18 0.500000 0.522089 0.000000
#
# Coordination Sequence:
#
# PCOD8044976 Si02
#       8
#     2   2   2   2   2   2   2   2
#     4  10  19  41  70  92 123 160 220 271 315 372
#     4   9  21  36  62  95 119 164 207 266 317 366
#     4   8  20  41  67  98 121 165 213 275 329 358
#     4  11  25  43  61  90 132 175 211 252 325 395
#     4  11  23  38  67  97 126 167 219 271 323 386
#     4   8  21  41  63  92 134 160 212 270 327 381
#     4  11  25  41  58  93 131 174 206 258 320 394
#     4   9  20  42  66  91 124 154 222 267 317 366
#
# _framework density 20.760414000000001
#
# number of rings (size 3 to 8) (size 9 to 14) (size 15 to 20)
#    0.750    1.500    0.000    1.875    3.500    6.000 
#    6.750    0.625    0.000    0.000    0.000    0.000 
#    0.000    0.000    0.000    0.000    0.000    0.000 
#
# Total GULP energy -198243.996006 kJ/mol
# GULP energy per Si atom -12390.249750 kJ/mol
# Density = 2.071316 g / cm^3
# Si number density = 20.760414 Si / 1000 Ang^3
#
#
#
# Elastic Constant Matrix: (Units=GPa)
#
#
# Indices 1 2 3 4 5 6 
#
# 1 125.9623 54.4771 54.8736 0.0000 -0.9934 0.0000
# 2 54.4771 95.9896 46.0045 0.0000 0.1633 0.0000
# 3 54.8736 46.0045 80.8776 0.0000 -18.4741 0.0000
# 4 0.0000 0.0000 0.0000 21.7549 0.0000 -5.2017
# 5 -0.9934 0.1633 -18.4741 0.0000 36.8437 0.0000
# 6 0.0000 0.0000 0.0000 -5.2017 0.0000 25.3297
#
#
#
# Elastic Compliance Matrix: (Units=1/GPa)
#
#
# Indices 1 2 3 4 5 6 
#
# 1 0.012671 -0.003723 -0.007225 0.000000 -0.003264 0.000000
# 2 -0.003723 0.016170 -0.007579 0.000000 -0.003972 0.000000
# 3 -0.007225 -0.007579 0.024327 0.000000 0.012037 0.000000
# 4 0.000000 0.000000 0.000000 0.048340 0.000000 0.009927
# 5 -0.003264 -0.003972 0.012037 0.000000 0.033107 0.000000
# 6 0.000000 0.000000 0.000000 0.009927 0.000000 0.041518
#
#
# Mechanical properties :
#
#
# Convention : Reuss Voigt Hill
#
# Bulk Modulus (GPa) = 62.05925 68.17111 65.11518
# Shear Modulus (GPa) = 22.87733 26.61727 24.74730
#
# Velocity S-wave (km/s) = 3.32319 3.58455 3.45634
# Velocity P-wave (km/s) = 6.68452 7.07392 6.88197
#
# Compressibility (1/GPa) = 0.01611363
#
# Stress axis : x y z
#
# Youngs Moduli (GPa) = 78.92306 61.84362 41.10689
#
# Poissons Ratio (x) = 0.23023 0.29699
# Poissons Ratio (y) = 0.29382 0.31156
# Poissons Ratio (z) = 0.57020 0.46873
#
# Static dielectric constant tensor:
#      x y z
#    x 3.844640 0.000000 0.026040 
#    y 0.000000 3.614030 0.000000 
#    z 0.026040 0.000000 3.814630 
# 
# 
# High freq. dielectric constant tensor:
#      x y z
#    x 1.813680 0.000000 0.001780 
#    y 0.000000 1.797410 0.000000 
#    z 0.001780 0.000000 1.812140 
# 
# From -- ./inp_files/10724.got.cif
#   From: 2010.03.12/outbox.cif.g09.slc.cpg/sg3_6_cif.got.tgz:10724.got - 2010.03.31 09:20:49.
