data_PCOD8044339
_publ_section_title
;
Structure prediction by ZEFSAII (Michael W. Deem and Ramdas Pophale) SiO2 
 PCOD8044339
Probable space group: P -1
;
_chemical_formula_sum "Si O2"
_cell_formula_units_Z 16
_cell_length_a 9.928911
_cell_length_b 15.793587
_cell_length_c 9.366534
_cell_angle_alpha 102.611657
_cell_angle_beta 113.070095
_cell_angle_gamma 36.862273
_cell_volume 798.510052
_symmetry_space_group_name_H-M "P -1"
_symmetry_group_IT_number 2
_symmetry_cell_setting 'triclinic'
loop_
_space_group_symop_operation_xyz
x,y,z
-x,-y,-z
loop_
_atom_site_type_symbol
_atom_site_label
_atom_site_fract_x
_atom_site_fract_y
_atom_site_fract_z
Si Si1 0.498690 0.284436 0.494743
Si Si2 0.144994 0.004393 0.980431
Si Si3 0.805537 0.035362 0.345897
Si Si4 0.577194 0.755470 0.250218
Si Si5 0.802430 0.325101 0.918636
Si Si6 0.067450 0.600850 0.485480
Si Si7 0.282501 0.493312 0.832054
Si Si8 0.870647 0.265448 0.614197
O O1 0.546498 0.187200 0.359348
O O2 0.553547 0.220098 0.651860
O O3 0.223127 0.447123 0.429960
O O4 0.666155 0.288454 0.535921
O O5 0.399112 0.895291 0.128270
O O6 0.185611 0.953618 0.816164
O O7 0.000000 0.000000 0.000000
O O8 0.999551 0.162389 0.992614
O O9 0.000000 0.000000 0.500000
O O10 0.867103 0.905336 0.354239
O O11 0.673864 0.627498 0.151882
O O12 0.792028 0.718820 0.368322
O O13 0.533828 0.415041 0.854550
O O14 0.855499 0.325110 0.777730
O O15 0.830182 0.401180 0.044615
O O16 0.087226 0.590386 0.660026
O O17 0.165889 0.648045 0.493870
#
# Coordination Sequence:
#
# PCOD8044339 Si02
#       8
#     2   2   2   2   2   2   2   2
#     4  10  19  38  60  85 116 157 198 240 284 343
#     4  11  20  38  61  87 117 153 198 242 288 344
#     4   9  20  35  59  87 115 149 196 246 285 335
#     4  11  22  41  59  86 120 158 193 238 296 352
#     4  10  20  35  60  87 113 147 196 249 283 334
#     4  11  23  37  60  87 122 155 192 240 298 348
#     4  10  20  37  58  87 116 150 194 239 290 342
#     4  10  19  38  57  89 115 149 198 242 287 341
#
# _framework density 20.037320000000001
#
# number of rings (size 3 to 8) (size 9 to 14) (size 15 to 20)
#    0.000    1.750    3.750    3.375    0.000    4.000 
#    0.000   10.000    0.000    0.000    0.000    0.000 
#    0.000    0.000    0.000    0.000    0.000    0.000 
#
# Total GULP energy -198339.219097 kJ/mol
# GULP energy per Si atom -12396.201194 kJ/mol
# Density = 1.999171 g / cm^3
# Si number density = 20.037320 Si / 1000 Ang^3
#
#
#
# Elastic Constant Matrix: (Units=GPa)
#
#
# Indices 1 2 3 4 5 6 
#
# 1 36.9334 7.9190 12.0494 -0.1860 1.9645 1.4768
# 2 7.9190 99.8849 58.4210 16.1388 -0.5240 0.7760
# 3 12.0494 58.4210 88.3839 1.0759 7.2477 -7.1097
# 4 -0.1860 16.1388 1.0759 48.7880 -1.8940 1.6576
# 5 1.9645 -0.5240 7.2477 -1.8940 26.1879 -7.9066
# 6 1.4768 0.7760 -7.1097 1.6576 -7.9066 20.4857
#
#
#
# Elastic Compliance Matrix: (Units=1/GPa)
#
#
# Indices 1 2 3 4 5 6 
#
# 1 0.028710 0.000165 -0.004193 0.000208 -0.002316 -0.004442
# 2 0.000165 0.018248 -0.012503 -0.005545 0.002292 -0.003709
# 3 -0.004193 -0.012503 0.020916 0.003303 -0.003554 0.006396
# 4 0.000208 -0.005545 0.003303 0.022287 0.000489 -0.000273
# 5 -0.002316 0.002292 -0.003554 0.000489 0.044216 0.015873
# 6 -0.004442 -0.003709 0.006396 -0.000273 0.015873 0.057643
#
#
# Mechanical properties :
#
#
# Convention : Reuss Voigt Hill
#
# Bulk Modulus (GPa) = 28.72576 42.44233 35.58405
# Shear Modulus (GPa) = 21.12487 28.87984 25.00236
#
# Velocity S-wave (km/s) = 3.25048 3.80057 3.53624
# Velocity P-wave (km/s) = 5.33430 6.36292 5.87118
#
# Compressibility (1/GPa) = 0.03481195
#
# Stress axis : x y z
#
# Youngs Moduli (GPa) = 34.83083 54.80014 47.80992
#
# Poissons Ratio (x) = -0.00904 0.20047
# Poissons Ratio (y) = -0.00575 0.59778
# Poissons Ratio (z) = 0.14605 0.68518
#
# Static dielectric constant tensor:
#      x y z
#    x 3.303430 0.034490 -0.143490 
#    y 0.034490 4.522120 0.112110 
#    z -0.143490 0.112110 3.773460 
# 
# 
# High freq. dielectric constant tensor:
#      x y z
#    x 1.750260 0.004770 -0.006110 
#    y 0.004770 1.796670 0.001850 
#    z -0.006110 0.001850 1.776420 
# 
# From -- ./inp_files/207881.got.cif
#   From: 2010.06.25/outbox.cif.g09.slc.cpg/sg2_104_cif.got.tgz:207881.got - 2010.06.27 13:26:56.
