data_PCOD8044484
_publ_section_title
;
Structure prediction by ZEFSAII (Michael W. Deem and Ramdas Pophale) SiO2 
 PCOD8044484
Probable space group: P -1
;
_chemical_formula_sum "Si O2"
_cell_formula_units_Z 14
_cell_length_a 8.648581
_cell_length_b 14.611995
_cell_length_c 9.408935
_cell_angle_alpha 107.195635
_cell_angle_beta 114.271148
_cell_angle_gamma 35.527177
_cell_volume 628.163598
_symmetry_space_group_name_H-M "P -1"
_symmetry_group_IT_number 2
_symmetry_cell_setting 'triclinic'
loop_
_space_group_symop_operation_xyz
x,y,z
-x,-y,-z
loop_
_atom_site_type_symbol
_atom_site_label
_atom_site_fract_x
_atom_site_fract_y
_atom_site_fract_z
Si Si1 0.183136 0.656373 0.898711
Si Si2 0.118794 0.381173 0.364256
Si Si3 0.272850 0.864235 0.442531
Si Si4 0.665376 0.656544 0.859665
Si Si5 0.076501 0.856034 0.724996
Si Si6 0.011445 0.330877 0.895664
Si Si7 0.773704 0.318730 0.563408
O O1 0.119178 0.788329 0.863281
O O2 0.082322 0.620728 0.731194
O O3 0.500000 0.500000 0.000000
O O4 0.988733 0.741624 0.004439
O O5 0.443528 0.207727 0.438042
O O6 0.127404 0.431949 0.239442
O O7 0.000000 0.500000 0.500000
O O8 0.329276 0.724569 0.396920
O O9 0.000000 0.000000 0.500000
O O10 0.186499 0.952406 0.298157
O O11 0.345494 0.799810 0.758875
O O12 0.739455 0.522323 0.900698
O O13 0.715218 0.723933 0.015911
O O14 0.054933 0.785875 0.560678
O O15 0.994252 0.282539 0.719364
O O16 0.500000 0.500000 0.500000
#
# Coordination Sequence:
#
# PCOD8044484 Si02
#       7
#     2   2   2   2   2   2   2
#     4  11  23  38  61  99 134 167 215 275 330 376
#     4  11  24  38  67 100 129 163 227 277 314 382
#     4  10  22  42  66  94 134 172 214 267 336 385
#     4  10  19  38  61  93 127 170 209 261 334 377
#     4  11  22  40  68  90 132 177 211 265 336 386
#     4  10  21  35  61  91 131 163 220 269 313 381
#     4  11  19  36  68  93 116 164 236 255 303 385
#
# _framework density 22.287188
#
# number of rings (size 3 to 8) (size 9 to 14) (size 15 to 20)
#    0.000    1.429    5.714    0.000    6.000    0.571 
#    0.000    1.429    0.000    0.000    0.000    0.000 
#    0.000    0.000    0.000    0.000    0.000    0.000 
#
# Total GULP energy -173443.845858 kJ/mol
# GULP energy per Si atom -12388.846133 kJ/mol
# Density = 2.223646 g / cm^3
# Si number density = 22.287188 Si / 1000 Ang^3
#
#
#
# Elastic Constant Matrix: (Units=GPa)
#
#
# Indices 1 2 3 4 5 6 
#
# 1 88.9241 42.0317 50.7742 -16.4361 13.7971 12.6286
# 2 42.0317 95.5717 41.2988 -32.2827 1.4207 14.3639
# 3 50.7742 41.2988 137.7330 -11.5139 26.6002 7.1039
# 4 -16.4361 -32.2827 -11.5139 35.2822 9.6393 -6.3530
# 5 13.7971 1.4207 26.6002 9.6393 48.9037 -14.2176
# 6 12.6286 14.3639 7.1039 -6.3530 -14.2176 36.1049
#
#
#
# Elastic Compliance Matrix: (Units=1/GPa)
#
#
# Indices 1 2 3 4 5 6 
#
# 1 0.017419 -0.003963 -0.003689 0.003735 -0.005013 -0.005107
# 2 -0.003963 0.018682 -0.002329 0.014366 -0.002122 -0.003896
# 3 -0.003689 -0.002329 0.010482 0.000682 -0.005248 -0.001792
# 4 0.003735 0.014366 0.000682 0.046052 -0.012020 -0.003786
# 5 -0.005013 -0.002122 -0.005248 -0.012020 0.031156 0.013784
# 6 -0.005107 -0.003896 -0.001792 -0.003786 0.013784 0.036148
#
#
# Mechanical properties :
#
#
# Convention : Reuss Voigt Hill
#
# Bulk Modulus (GPa) = 37.56498 65.60425 51.58461
# Shear Modulus (GPa) = 26.48662 36.59978 31.54320
#
# Velocity S-wave (km/s) = 3.45109 4.05679 3.76614
# Velocity P-wave (km/s) = 5.72465 7.17239 6.48902
#
# Compressibility (1/GPa) = 0.02662054
#
# Stress axis : x y z
#
# Youngs Moduli (GPa) = 57.41019 53.52619 95.40283
#
# Poissons Ratio (x) = 0.21211 0.35195
# Poissons Ratio (y) = 0.22750 0.22222
# Poissons Ratio (z) = 0.21179 0.12468
#
# Static dielectric constant tensor:
#      x y z
#    x 4.232340 0.417860 0.099550 
#    y 0.417860 3.960920 -0.486830 
#    z 0.099550 -0.486830 4.281590 
# 
# 
# High freq. dielectric constant tensor:
#      x y z
#    x 1.877790 0.019230 0.009140 
#    y 0.019230 1.836780 -0.035630 
#    z 0.009140 -0.035630 1.888070 
# 
# From -- ./inp_files/202622.got.cif
#   From: 2010.06.25/outbox.cif.g09.slc.cpg/sg2_102_cif.got.tgz:202622.got - 2010.06.27 13:26:56.
