data_PCOD8044617
_publ_section_title
;
Structure prediction by ZEFSAII (Michael W. Deem and Ramdas Pophale) SiO2 
 PCOD8044617
Probable space group: P -1
;
_chemical_formula_sum "Si O2"
_cell_formula_units_Z 14
_cell_length_a 7.853089
_cell_length_b 15.035622
_cell_length_c 8.977830
_cell_angle_alpha 95.797571
_cell_angle_beta 52.784073
_cell_angle_gamma 113.578335
_cell_volume 759.161108
_symmetry_space_group_name_H-M "P -1"
_symmetry_group_IT_number 2
_symmetry_cell_setting 'triclinic'
loop_
_space_group_symop_operation_xyz
x,y,z
-x,-y,-z
loop_
_atom_site_type_symbol
_atom_site_label
_atom_site_fract_x
_atom_site_fract_y
_atom_site_fract_z
Si Si1 0.927392 0.388560 0.563618
Si Si2 0.311894 0.390998 0.548790
Si Si3 0.413090 0.887037 0.981807
Si Si4 0.806763 0.890340 0.566335
Si Si5 0.784219 0.710362 0.704026
Si Si6 0.856136 0.801709 0.227120
Si Si7 0.443597 0.241888 0.897745
O O1 0.648219 0.329009 0.714428
O O2 0.000000 0.500000 0.500000
O O3 0.054833 0.389867 0.654191
O O4 0.017058 0.331128 0.383965
O O5 0.500000 0.500000 0.500000
O O6 0.391941 0.353562 0.347748
O O7 0.277283 0.316010 0.689789
O O8 0.553683 0.877938 0.760468
O O9 0.463648 0.831342 0.085634
O O10 0.137420 0.838658 0.079892
O O11 0.500000 0.000000 0.000000
O O12 0.902245 0.823618 0.601839
O O13 0.783516 0.861169 0.400166
O O14 0.000000 0.000000 0.500000
O O15 0.646447 0.701012 0.927322
O O16 0.765327 0.820325 0.118161
#
# Coordination Sequence:
#
# PCOD8044617 Si02
#       7
#     2   2   2   2   2   2   2
#     4  10  20  37  62  85 124 160 195 251 305 344
#     4   9  18  39  61  84 121 159 197 247 301 352
#     4  11  22  40  63  87 126 161 200 254 303 354
#     4  10  19  38  64  86 119 166 197 249 312 348
#     4   8  21  37  59  86 126 150 203 250 295 357
#     4  11  22  39  62  91 122 157 206 250 298 370
#     4  11  22  40  63  89 122 158 204 251 300 361
#
# _framework density 18.441409
#
# number of rings (size 3 to 8) (size 9 to 14) (size 15 to 20)
#    0.857    1.143    2.857    0.857    0.000    2.286 
#    0.000    2.857    0.000    0.000    0.000    0.000 
#    0.000    0.000    0.000    0.000    0.000    0.000 
#
# Total GULP energy -173500.351299 kJ/mol
# GULP energy per Si atom -12392.882236 kJ/mol
# Density = 1.839944 g / cm^3
# Si number density = 18.441409 Si / 1000 Ang^3
#
#
#
# Elastic Constant Matrix: (Units=GPa)
#
#
# Indices 1 2 3 4 5 6 
#
# 1 116.1231 45.0936 52.9373 2.1992 -4.5597 8.3131
# 2 45.0936 144.8844 60.0465 -5.3490 -11.5843 -2.5802
# 3 52.9373 60.0465 121.5971 13.4192 -18.3786 0.1885
# 4 2.1992 -5.3490 13.4192 28.4266 1.0205 -5.3260
# 5 -4.5597 -11.5843 -18.3786 1.0205 21.6215 -0.1710
# 6 8.3131 -2.5802 0.1885 -5.3260 -0.1710 30.2407
#
#
#
# Elastic Compliance Matrix: (Units=1/GPa)
#
#
# Indices 1 2 3 4 5 6 
#
# 1 0.011542 -0.001997 -0.004437 0.000300 -0.002447 -0.003277
# 2 -0.001997 0.009522 -0.004164 0.004280 0.000956 0.002146
# 3 -0.004437 -0.004164 0.014505 -0.007729 0.009523 -0.000533
# 4 0.000300 0.004280 -0.007729 0.041245 -0.006101 0.007560
# 5 -0.002447 0.000956 0.009523 -0.006101 0.054629 -0.000071
# 6 -0.003277 0.002146 -0.000533 0.007560 -0.000071 0.035486
#
#
# Mechanical properties :
#
#
# Convention : Reuss Voigt Hill
#
# Bulk Modulus (GPa) = 69.56835 77.63994 73.60414
# Shear Modulus (GPa) = 25.91807 31.02621 28.47214
#
# Velocity S-wave (km/s) = 3.75297 4.10618 3.93354
# Velocity P-wave (km/s) = 7.52234 8.04197 7.78649
#
# Compressibility (1/GPa) = 0.01437435
#
# Stress axis : x y z
#
# Youngs Moduli (GPa) = 86.63768 105.02158 68.94190
#
# Poissons Ratio (x) = 0.20968 0.30589
# Poissons Ratio (y) = 0.17297 0.28707
# Poissons Ratio (z) = 0.38440 0.43731
#
# Static dielectric constant tensor:
#      x y z
#    x 4.147580 0.090840 -1.242010 
#    y 0.090840 3.491370 -0.215880 
#    z -1.242010 -0.215880 5.138050 
# 
# 
# High freq. dielectric constant tensor:
#      x y z
#    x 1.699270 -0.009190 -0.004230 
#    y -0.009190 1.725150 -0.001110 
#    z -0.004230 -0.001110 1.711160 
# 
# From -- ./inp_files/197098.got.cif
#   From: 2010.06.25/outbox.cif.g09.slc.cpg/sg2_99_cif.got.tgz:197098.got - 2010.06.27 13:26:56.
