data_PCOD8044509
_publ_section_title
;
Structure prediction by ZEFSAII (Michael W. Deem and Ramdas Pophale) SiO2 
 PCOD8044509
Probable space group: P -1
;
_chemical_formula_sum "Si O2"
_cell_formula_units_Z 16
_cell_length_a 10.954404
_cell_length_b 12.963639
_cell_length_c 13.343963
_cell_angle_alpha 68.937285
_cell_angle_beta 63.513971
_cell_angle_gamma 123.864730
_cell_volume 810.202273
_symmetry_space_group_name_H-M "P -1"
_symmetry_group_IT_number 2
_symmetry_cell_setting 'triclinic'
loop_
_space_group_symop_operation_xyz
x,y,z
-x,-y,-z
loop_
_atom_site_type_symbol
_atom_site_label
_atom_site_fract_x
_atom_site_fract_y
_atom_site_fract_z
Si Si1 0.426423 0.804279 0.037458
Si Si2 0.393293 0.760454 0.430114
Si Si3 0.007020 0.541142 0.822697
Si Si4 0.835170 0.761035 0.072155
Si Si5 0.936369 0.058117 0.865011
Si Si6 0.920550 0.267985 0.083475
Si Si7 0.310502 0.477627 0.466548
Si Si8 0.198962 0.761177 0.321058
O O1 0.244741 0.598953 0.105964
O O2 0.221955 0.725355 0.213521
O O3 0.648812 0.896868 0.987985
O O4 0.563076 0.984631 0.846765
O O5 0.427434 0.652184 0.438705
O O6 0.214680 0.681686 0.430418
O O7 0.260728 0.690710 0.609888
O O8 0.670852 0.016490 0.240040
O O9 0.075568 0.691111 0.816942
O O10 0.927127 0.377437 0.971227
O O11 0.540170 0.589231 0.274118
O O12 0.042423 0.895816 0.041873
O O13 0.826073 0.636108 0.063490
O O14 0.946026 0.931915 0.895339
O O15 0.185245 0.287250 0.638661
O O16 0.083729 0.374140 0.516092
#
# Coordination Sequence:
#
# PCOD8044509 Si02
#       8
#     2   2   2   2   2   2   2   2
#     4  10  19  38  62  88 123 153 189 251 303 346
#     4  12  21  37  64  93 118 149 200 252 297 350
#     4  11  24  41  64  85 119 159 200 248 296 336
#     4  11  22  38  59  83 125 160 190 236 290 364
#     4  10  22  37  58  90 122 150 191 244 302 351
#     4  11  25  43  58  88 118 162 204 242 284 352
#     4  11  22  34  59  93 120 153 185 241 305 355
#     4  10  20  33  60  96 123 145 190 251 306 348
#
# _framework density 19.748156000000002
#
# number of rings (size 3 to 8) (size 9 to 14) (size 15 to 20)
#    0.000    1.250    2.500    4.875    3.500    1.000 
#    0.000    0.625    0.000    1.500    0.000    0.000 
#    0.000    0.000    0.000    0.000    0.000    0.000 
#
# Total GULP energy -198377.423493 kJ/mol
# GULP energy per Si atom -12398.588968 kJ/mol
# Density = 1.970321 g / cm^3
# Si number density = 19.748156 Si / 1000 Ang^3
#
#
#
# Elastic Constant Matrix: (Units=GPa)
#
#
# Indices 1 2 3 4 5 6 
#
# 1 87.3000 41.2201 42.1420 -0.9902 -2.9315 -2.5187
# 2 41.2201 92.7525 48.8279 6.1344 -13.2934 -15.1649
# 3 42.1420 48.8279 107.4453 -1.4337 -8.4962 -4.1257
# 4 -0.9902 6.1344 -1.4337 28.9492 -7.9098 -0.4864
# 5 -2.9315 -13.2934 -8.4962 -7.9098 29.6121 0.7126
# 6 -2.5187 -15.1649 -4.1257 -0.4864 0.7126 24.0519
#
#
#
# Elastic Compliance Matrix: (Units=1/GPa)
#
#
# Indices 1 2 3 4 5 6 
#
# 1 0.015924 -0.005806 -0.003833 0.001054 -0.001786 -0.002576
# 2 -0.005806 0.018880 -0.005532 -0.002853 0.005308 0.010132
# 3 -0.003833 -0.005532 0.013417 0.002113 0.001590 -0.001592
# 4 0.001054 -0.002853 0.002113 0.037889 0.009571 -0.000843
# 5 -0.001786 0.005308 0.001590 0.009571 0.038929 0.002472
# 6 -0.002576 0.010132 -0.001592 -0.000843 0.002472 0.047332
#
#
# Mechanical properties :
#
#
# Convention : Reuss Voigt Hill
#
# Bulk Modulus (GPa) = 55.93210 61.31976 58.62593
# Shear Modulus (GPa) = 23.96091 26.87649 25.41870
#
# Velocity S-wave (km/s) = 3.48706 3.69312 3.59157
# Velocity P-wave (km/s) = 6.67810 7.02167 6.85204
#
# Compressibility (1/GPa) = 0.01787882
#
# Stress axis : x y z
#
# Youngs Moduli (GPa) = 62.79757 52.96716 74.53048
#
# Poissons Ratio (x) = 0.30751 0.28571
# Poissons Ratio (y) = 0.36459 0.41230
# Poissons Ratio (z) = 0.24073 0.29301
#
# Static dielectric constant tensor:
#      x y z
#    x 3.652800 -0.090990 0.116050 
#    y -0.090990 3.496780 -0.155960 
#    z 0.116050 -0.155960 3.745820 
# 
# 
# High freq. dielectric constant tensor:
#      x y z
#    x 1.771630 -0.000470 0.004040 
#    y -0.000470 1.738730 -0.019450 
#    z 0.004040 -0.019450 1.789990 
# 
# From -- ./inp_files/428112.got.cif
#   From: 2010.06.25/outbox.cif.g09.slc.cpg/sg2_215_cif.got.tgz:428112.got - 2010.06.27 13:26:56.
