data_PCOD8044355
_publ_section_title
;
Structure prediction by ZEFSAII (Michael W. Deem and Ramdas Pophale) SiO2 
 PCOD8044355
Probable space group: P -1
;
_chemical_formula_sum "Si O2"
_cell_formula_units_Z 16
_cell_length_a 10.077570
_cell_length_b 9.218383
_cell_length_c 12.283596
_cell_angle_alpha 95.179455
_cell_angle_beta 81.039388
_cell_angle_gamma 133.656909
_cell_volume 815.280644
_symmetry_space_group_name_H-M "P -1"
_symmetry_group_IT_number 2
_symmetry_cell_setting 'triclinic'
loop_
_space_group_symop_operation_xyz
x,y,z
-x,-y,-z
loop_
_atom_site_type_symbol
_atom_site_label
_atom_site_fract_x
_atom_site_fract_y
_atom_site_fract_z
Si Si1 0.534546 0.513866 0.215287
Si Si2 0.430846 0.701777 0.645017
Si Si3 0.792640 0.935455 0.113090
Si Si4 0.337743 0.958648 0.681828
Si Si5 0.006781 0.216393 0.430099
Si Si6 0.630424 0.379769 0.595352
Si Si7 0.145160 0.996599 0.354543
Si Si8 0.821198 0.895011 0.868677
O O1 0.629286 0.445014 0.256221
O O2 0.686421 0.703914 0.133064
O O3 0.482576 0.581627 0.324875
O O4 0.355611 0.335277 0.156059
O O5 0.330234 0.780675 0.681393
O O6 0.375211 0.590802 0.529923
O O7 0.649511 0.881919 0.625052
O O8 0.697112 0.998011 0.192066
O O9 0.778616 0.955505 0.987100
O O10 0.006194 0.084042 0.131654
O O11 0.186632 0.903855 0.612487
O O12 0.540361 0.157131 0.623362
O O13 0.150460 0.450575 0.392308
O O14 0.982456 0.196825 0.563995
O O15 0.095601 0.129817 0.378927
O O16 0.128899 0.952055 0.223941
#
# Coordination Sequence:
#
# PCOD8044355 Si02
#       8
#     2   2   2   2   2   2   2   2
#     4  10  21  36  57  87 112 146 197 234 274 341
#     4  11  22  37  56  86 126 147 185 239 288 338
#     4  10  21  36  65  81 108 157 190 234 286 334
#     4  11  23  40  54  88 123 149 186 237 290 338
#     4  11  21  36  59  83 119 151 189 232 283 338
#     4  11  21  35  60  82 115 159 188 222 284 348
#     4  10  21  36  58  86 118 146 187 247 272 333
#     4  10  19  38  58  88 111 140 203 240 271 330
#
# _framework density 19.625143999999999
#
# number of rings (size 3 to 8) (size 9 to 14) (size 15 to 20)
#    0.000    1.500    5.000    1.125    1.750    0.500 
#    0.000    2.500    0.000    3.000    0.000    0.000 
#    0.000    0.000    0.000    0.000    0.000    0.000 
#
# Total GULP energy -198334.316212 kJ/mol
# GULP energy per Si atom -12395.894763 kJ/mol
# Density = 1.958048 g / cm^3
# Si number density = 19.625144 Si / 1000 Ang^3
#
#
#
# Elastic Constant Matrix: (Units=GPa)
#
#
# Indices 1 2 3 4 5 6 
#
# 1 74.5487 33.9771 24.6872 1.3370 2.6557 -9.6328
# 2 33.9771 91.6834 33.3480 -5.9414 7.2946 -2.9138
# 3 24.6872 33.3480 141.3190 -1.3515 -4.6352 5.9951
# 4 1.3370 -5.9414 -1.3515 28.0705 4.7099 1.7797
# 5 2.6557 7.2946 -4.6352 4.7099 15.3450 -5.6080
# 6 -9.6328 -2.9138 5.9951 1.7797 -5.6080 25.7946
#
#
#
# Elastic Compliance Matrix: (Units=1/GPa)
#
#
# Indices 1 2 3 4 5 6 
#
# 1 0.017695 -0.006068 -0.001901 -0.003153 0.002847 0.007201
# 2 -0.006068 0.015126 -0.002669 0.005079 -0.009354 -0.002321
# 3 -0.001901 -0.002669 0.008238 -0.000524 0.003466 -0.002136
# 4 -0.003153 0.005079 -0.000524 0.040091 -0.016859 -0.006913
# 5 0.002847 -0.009354 0.003466 -0.016859 0.081991 0.018190
# 6 0.007201 -0.002321 -0.002136 -0.006913 0.018190 0.046123
#
#
# Mechanical properties :
#
#
# Convention : Reuss Voigt Hill
#
# Bulk Modulus (GPa) = 50.55246 54.61953 52.58600
# Shear Modulus (GPa) = 21.08499 28.21127 24.64813
#
# Velocity S-wave (km/s) = 3.28134 3.79556 3.54778
# Velocity P-wave (km/s) = 6.33808 6.86296 6.60573
#
# Compressibility (1/GPa) = 0.01978143
#
# Stress axis : x y z
#
# Youngs Moduli (GPa) = 56.51325 66.11000 121.39532
#
# Poissons Ratio (x) = 0.40115 0.23083
# Poissons Ratio (y) = 0.34292 0.32403
# Poissons Ratio (z) = 0.10746 0.17646
#
# Static dielectric constant tensor:
#      x y z
#    x 3.348090 0.178550 -0.018460 
#    y 0.178550 3.722360 -0.103860 
#    z -0.018460 -0.103860 3.822870 
# 
# 
# High freq. dielectric constant tensor:
#      x y z
#    x 1.741300 0.024640 -0.000820 
#    y 0.024640 1.758760 -0.002430 
#    z -0.000820 -0.002430 1.771070 
# 
# From -- ./inp_files/207893.got.cif
#   From: 2010.06.25/outbox.cif.g09.slc.cpg/sg2_104_cif.got.tgz:207893.got - 2010.06.27 13:26:56.
