data_PCOD8044788
_publ_section_title
;
Structure prediction by ZEFSAII (Michael W. Deem and Ramdas Pophale) SiO2 
 PCOD8044788
Probable space group: P -1
;
_chemical_formula_sum "Si O2"
_cell_formula_units_Z 16
_cell_length_a 16.077049
_cell_length_b 9.612141
_cell_length_c 9.962320
_cell_angle_alpha 44.961072
_cell_angle_beta 88.619728
_cell_angle_gamma 62.006464
_cell_volume 835.369117
_symmetry_space_group_name_H-M "P -1"
_symmetry_group_IT_number 2
_symmetry_cell_setting 'triclinic'
loop_
_space_group_symop_operation_xyz
x,y,z
-x,-y,-z
loop_
_atom_site_type_symbol
_atom_site_label
_atom_site_fract_x
_atom_site_fract_y
_atom_site_fract_z
Si Si1 0.726344 0.274120 0.654942
Si Si2 0.696349 0.743897 0.411274
Si Si3 0.822487 0.565469 0.802550
Si Si4 0.698429 0.134435 0.472287
Si Si5 0.519766 0.170718 0.305456
Si Si6 0.281350 0.644175 0.924506
Si Si7 0.044964 0.114523 0.002289
Si Si8 0.781581 0.970710 0.107132
O O1 0.668814 0.573333 0.466737
O O2 0.678288 0.239592 0.551127
O O3 0.857273 0.105229 0.753561
O O4 0.700555 0.180478 0.852195
O O5 0.772469 0.594830 0.639004
O O6 0.755887 0.783279 0.268596
O O7 0.586817 0.021900 0.269027
O O8 0.952138 0.355186 0.931391
O O9 0.791807 0.827126 0.677914
O O10 0.776444 0.477368 0.970565
O O11 0.586109 0.216396 0.367123
O O12 0.736620 0.259023 0.293594
O O13 0.500000 0.000000 0.500000
O O14 0.408988 0.442481 0.085698
O O15 0.227947 0.888583 0.853745
O O16 0.094822 0.197876 0.837592
O O17 0.000000 0.000000 0.000000
#
# Coordination Sequence:
#
# PCOD8044788 Si02
#       8
#     2   2   2   2   2   2   2   2
#     4  10  23  43  57  91 130 151 198 261 301 342
#     4  11  20  38  63  88 120 158 207 241 295 365
#     4  11  20  39  64  90 121 156 208 247 288 363
#     4  11  25  39  63  91 125 156 198 257 306 343
#     4  11  21  39  67  89 116 164 201 245 296 363
#     4  12  20  40  66  90 117 160 210 239 294 368
#     4  10  19  38  67  86 119 164 200 245 297 358
#     4  10  21  37  65  88 115 163 202 242 296 359
#
# _framework density 19.153210999999999
#
# number of rings (size 3 to 8) (size 9 to 14) (size 15 to 20)
#    0.750    0.500    8.750    0.375    0.000    2.000 
#    2.250    3.750    0.000    0.000    0.000    0.000 
#    0.000    0.000    0.000    0.000    0.000    0.000 
#
# Total GULP energy -198381.487746 kJ/mol
# GULP energy per Si atom -12398.842984 kJ/mol
# Density = 1.910962 g / cm^3
# Si number density = 19.153211 Si / 1000 Ang^3
#
#
#
# Elastic Constant Matrix: (Units=GPa)
#
#
# Indices 1 2 3 4 5 6 
#
# 1 82.7876 29.0353 27.6076 0.4201 -20.3908 -11.3400
# 2 29.0353 66.4770 7.6671 5.4142 1.9710 15.6814
# 3 27.6076 7.6671 62.6194 7.5380 -29.6633 6.8974
# 4 0.4201 5.4142 7.5380 29.9255 -10.9670 -0.3592
# 5 -20.3908 1.9710 -29.6633 -10.9670 41.3068 -3.6230
# 6 -11.3400 15.6814 6.8974 -0.3592 -3.6230 34.1843
#
#
#
# Elastic Compliance Matrix: (Units=1/GPa)
#
#
# Indices 1 2 3 4 5 6 
#
# 1 0.025301 -0.015754 -0.006309 0.008957 0.012697 0.018333
# 2 -0.015754 0.027626 0.000820 -0.009929 -0.012855 -0.019531
# 3 -0.006309 0.000820 0.026642 -0.001320 0.015079 -0.006260
# 4 0.008957 -0.009929 -0.001320 0.041324 0.015788 0.009900
# 5 0.012697 -0.012855 0.015079 0.015788 0.047184 0.012233
# 6 0.018333 -0.019531 -0.006260 0.009900 0.012233 0.046958
#
#
# Mechanical properties :
#
#
# Convention : Reuss Voigt Hill
#
# Bulk Modulus (GPa) = 26.96570 37.83379 32.39974
# Shear Modulus (GPa) = 18.52667 30.92159 24.72413
#
# Velocity S-wave (km/s) = 3.11350 4.02236 3.59675
# Velocity P-wave (km/s) = 5.19949 6.43185 5.84822
#
# Compressibility (1/GPa) = 0.03708415
#
# Stress axis : x y z
#
# Youngs Moduli (GPa) = 39.52408 36.19769 37.53451
#
# Poissons Ratio (x) = 0.57025 0.23680
# Poissons Ratio (y) = 0.62265 -0.03077
# Poissons Ratio (z) = 0.24935 -0.02968
#
# Static dielectric constant tensor:
#      x y z
#    x 3.509080 -0.278460 -0.153850 
#    y -0.278460 3.496850 -0.177880 
#    z -0.153850 -0.177880 3.560420 
# 
# 
# High freq. dielectric constant tensor:
#      x y z
#    x 1.734200 -0.013070 -0.020220 
#    y -0.013070 1.736780 -0.012120 
#    z -0.020220 -0.012120 1.737450 
# 
# From -- ./inp_files/327116.got.cif
#   From: 2010.06.25/outbox.cif.g09.slc.cpg/sg2_164_cif.got.tgz:327116.got - 2010.06.27 13:26:56.
