data_PCOD8044222
_publ_section_title
;
Structure prediction by ZEFSAII (Michael W. Deem and Ramdas Pophale) SiO2 
 PCOD8044222
Probable space group: P -1
;
_chemical_formula_sum "Si O2"
_cell_formula_units_Z 16
_cell_length_a 7.971620
_cell_length_b 7.918175
_cell_length_c 11.774595
_cell_angle_alpha 98.378859
_cell_angle_beta 100.893765
_cell_angle_gamma 77.497806
_cell_volume 708.250668
_symmetry_space_group_name_H-M "P -1"
_symmetry_group_IT_number 2
_symmetry_cell_setting 'triclinic'
loop_
_space_group_symop_operation_xyz
x,y,z
-x,-y,-z
loop_
_atom_site_type_symbol
_atom_site_label
_atom_site_fract_x
_atom_site_fract_y
_atom_site_fract_z
Si Si1 0.592545 0.325829 0.556932
Si Si2 0.278794 0.560818 0.055637
Si Si3 0.567928 0.178626 0.774764
Si Si4 0.708756 0.900262 0.094925
Si Si5 0.949943 0.573143 0.152698
Si Si6 0.903444 0.492330 0.603139
Si Si7 0.496282 0.760435 0.872657
Si Si8 0.386486 0.188801 0.346175
O O1 0.500000 0.500000 0.500000
O O2 0.532813 0.317123 0.679992
O O3 0.796988 0.333461 0.577587
O O4 0.535193 0.168894 0.462452
O O5 0.308225 0.753479 0.108223
O O6 0.469532 0.425910 0.076420
O O7 0.144539 0.501048 0.123422
O O8 0.189902 0.541724 0.920641
O O9 0.395460 0.156668 0.815562
O O10 0.660296 0.996597 0.711038
O O11 0.897324 0.776393 0.123679
O O12 0.694978 0.111400 0.123318
O O13 0.633416 0.867107 0.958008
O O14 0.950125 0.551302 0.285309
O O15 0.787523 0.683405 0.624016
O O16 0.000000 0.500000 0.500000
O O17 0.536139 0.725237 0.743038
#
# Coordination Sequence:
#
# PCOD8044222 Si02
#       8
#     2   2   2   2   2   2   2   2
#     4  10  21  39  61  84 114 162 206 248 301 357
#     4  10  19  37  66  83 122 167 202 242 315 369
#     4  11  21  39  62  91 121 161 209 249 298 370
#     4   9  21  33  64  90 123 155 203 258 297 359
#     4  10  20  37  61  91 120 159 201 253 311 357
#     4  11  23  42  63  85 122 159 205 259 309 362
#     4   9  17  39  58  88 123 160 198 244 304 357
#     4  10  21  39  64  87 120 165 206 250 299 365
#
# _framework density 22.590869999999999
#
# number of rings (size 3 to 8) (size 9 to 14) (size 15 to 20)
#    0.000    2.000    2.500    1.125    3.500    2.000 
#    2.250    3.750    0.000    0.000    0.000    0.000 
#    0.000    0.000    0.000    0.000    0.000    0.000 
#
# Total GULP energy -198212.307254 kJ/mol
# GULP energy per Si atom -12388.269203 kJ/mol
# Density = 2.253945 g / cm^3
# Si number density = 22.590870 Si / 1000 Ang^3
#
#
#
# Elastic Constant Matrix: (Units=GPa)
#
#
# Indices 1 2 3 4 5 6 
#
# 1 37.2722 28.7106 30.2047 6.3729 9.6218 2.6801
# 2 28.7106 110.8447 35.7889 23.5781 21.1559 -5.2755
# 3 30.2047 35.7889 144.8906 2.5935 10.8873 -2.1555
# 4 6.3729 23.5781 2.5935 37.6305 5.6629 -2.1937
# 5 9.6218 21.1559 10.8873 5.6629 35.3175 1.6815
# 6 2.6801 -5.2755 -2.1555 -2.1937 1.6815 30.0584
#
#
#
# Elastic Compliance Matrix: (Units=1/GPa)
#
#
# Indices 1 2 3 4 5 6 
#
# 1 0.039020 -0.007372 -0.006073 -0.001281 -0.003895 -0.005084
# 2 -0.007372 0.013805 -0.001345 -0.006400 -0.004953 0.002794
# 3 -0.006073 -0.001345 0.008524 0.001411 -0.000443 0.001045
# 4 -0.001281 -0.006400 0.001411 0.030981 -0.001288 0.001425
# 5 -0.003895 -0.004953 -0.000443 -0.001288 0.032804 -0.002483
# 6 -0.005084 0.002794 0.001045 0.001425 -0.002483 0.034530
#
#
# Mechanical properties :
#
#
# Convention : Reuss Voigt Hill
#
# Bulk Modulus (GPa) = 31.47795 53.60175 42.53985
# Shear Modulus (GPa) = 25.02074 33.82149 29.42112
#
# Velocity S-wave (km/s) = 3.33161 3.87348 3.61272
# Velocity P-wave (km/s) = 5.36318 6.61693 6.02277
#
# Compressibility (1/GPa) = 0.03176827
#
# Stress axis : x y z
#
# Youngs Moduli (GPa) = 25.62780 72.43677 117.32075
#
# Poissons Ratio (x) = 0.53401 0.71254
# Poissons Ratio (y) = 0.18893 0.15777
# Poissons Ratio (z) = 0.15565 0.09741
#
# Static dielectric constant tensor:
#      x y z
#    x 3.784710 -0.087490 0.137260 
#    y -0.087490 4.312570 0.250910 
#    z 0.137260 0.250910 4.546190 
# 
# 
# High freq. dielectric constant tensor:
#      x y z
#    x 1.848780 -0.004790 -0.010430 
#    y -0.004790 1.886520 0.003810 
#    z -0.010430 0.003810 1.913850 
# 
# From -- ./inp_files/379646.got.cif
#   From: 2010.06.25/outbox.cif.g09.slc.cpg/sg2_190_cif.got.tgz:379646.got - 2010.06.27 13:26:56.
