data_PCOD8044824
_publ_section_title
;
Structure prediction by ZEFSAII (Michael W. Deem and Ramdas Pophale) SiO2 
 PCOD8044824
Probable space group: P -1
;
_chemical_formula_sum "Si O2"
_cell_formula_units_Z 16
_cell_length_a 11.694727
_cell_length_b 14.087493
_cell_length_c 9.386264
_cell_angle_alpha 150.429641
_cell_angle_beta 95.363098
_cell_angle_gamma 95.079993
_cell_volume 712.949387
_symmetry_space_group_name_H-M "P -1"
_symmetry_group_IT_number 2
_symmetry_cell_setting 'triclinic'
loop_
_space_group_symop_operation_xyz
x,y,z
-x,-y,-z
loop_
_atom_site_type_symbol
_atom_site_label
_atom_site_fract_x
_atom_site_fract_y
_atom_site_fract_z
Si Si1 0.344885 0.495093 0.736786
Si Si2 0.639722 0.920595 0.676459
Si Si3 0.370191 0.681129 0.273809
Si Si4 0.006736 0.235864 0.680933
Si Si5 0.284648 0.636312 0.633993
Si Si6 0.615489 0.616489 0.891005
Si Si7 0.186977 0.018340 0.482732
Si Si8 0.150458 0.650920 0.377545
O O1 0.332018 0.258972 0.463994
O O2 0.256029 0.516010 0.625383
O O3 0.481223 0.628466 0.869494
O O4 0.314879 0.614740 0.023415
O O5 0.505000 0.848976 0.500310
O O6 0.733513 0.012313 0.678000
O O7 0.651498 0.117239 0.031424
O O8 0.383469 0.474834 0.070404
O O9 0.285392 0.768389 0.477647
O O10 0.948857 0.238676 0.519276
O O11 0.076548 0.077080 0.478154
O O12 0.889347 0.187332 0.710198
O O13 0.108108 0.445796 0.011401
O O14 0.368916 0.537635 0.427208
O O15 0.160310 0.603067 0.483680
O O16 0.726646 0.833312 0.192033
#
# Coordination Sequence:
#
# PCOD8044824 Si02
#       8
#     2   2   2   2   2   2   2   2
#     4  11  21  38  66  94 137 171 194 265 329 378
#     4  11  23  41  65 101 132 161 211 265 323 388
#     4  10  19  38  69  91 127 168 207 261 319 378
#     4  10  22  39  72  84 118 174 231 254 301 371
#     4  11  25  38  61  99 137 163 208 259 331 380
#     4  10  19  40  63  93 133 166 208 261 315 386
#     4  11  20  41  69  94 117 167 228 259 304 383
#     4  10  22  44  61  93 127 166 217 266 308 376
#
# _framework density 22.441984999999999
#
# number of rings (size 3 to 8) (size 9 to 14) (size 15 to 20)
#    0.000    1.500    5.000    1.125    1.750    7.000 
#    0.000    1.250    0.000    0.000    0.000    0.000 
#    0.000    0.000    0.000    0.000    0.000    0.000 
#
# Total GULP energy -198223.349130 kJ/mol
# GULP energy per Si atom -12388.959321 kJ/mol
# Density = 2.239091 g / cm^3
# Si number density = 22.441985 Si / 1000 Ang^3
#
#
#
# Elastic Constant Matrix: (Units=GPa)
#
#
# Indices 1 2 3 4 5 6 
#
# 1 59.3755 25.9130 21.5999 -8.8796 15.1702 5.2973
# 2 25.9130 102.4104 31.4355 -24.8822 10.4555 -16.6696
# 3 21.5999 31.4355 72.7318 -18.2119 -2.6769 -2.2214
# 4 -8.8796 -24.8822 -18.2119 36.1694 -2.3572 8.9576
# 5 15.1702 10.4555 -2.6769 -2.3572 18.5300 -2.8270
# 6 5.2973 -16.6696 -2.2214 8.9576 -2.8270 44.0424
#
#
#
# Elastic Compliance Matrix: (Units=1/GPa)
#
#
# Indices 1 2 3 4 5 6 
#
# 1 0.027511 -0.003147 -0.007625 0.000884 -0.022732 -0.006524
# 2 -0.003147 0.014297 -0.003837 0.005807 -0.004678 0.004115
# 3 -0.007625 -0.003837 0.019661 0.006179 0.012029 -0.000028
# 4 0.000884 0.005807 0.006179 0.036238 0.000752 -0.004919
# 5 -0.022732 -0.004678 0.012029 0.000752 0.078030 0.006426
# 6 -0.006524 0.004115 -0.000028 -0.004919 0.006426 0.026459
#
#
# Mechanical properties :
#
#
# Convention : Reuss Voigt Hill
#
# Bulk Modulus (GPa) = 31.00629 43.60163 37.30396
# Shear Modulus (GPa) = 20.64708 30.11961 25.38334
#
# Velocity S-wave (km/s) = 3.03647 3.66746 3.36678
# Velocity P-wave (km/s) = 5.11271 6.11592 5.63667
#
# Compressibility (1/GPa) = 0.03225153
#
# Stress axis : x y z
#
# Youngs Moduli (GPa) = 36.34882 69.94415 50.86187
#
# Poissons Ratio (x) = 0.22012 0.38780
# Poissons Ratio (y) = 0.11439 0.19517
# Poissons Ratio (z) = 0.27714 0.26839
#
# Static dielectric constant tensor:
#      x y z
#    x 4.164310 -0.238600 0.205250 
#    y -0.238600 4.255960 -0.031390 
#    z 0.205250 -0.031390 3.833670 
# 
# 
# High freq. dielectric constant tensor:
#      x y z
#    x 1.880880 -0.013170 0.006230 
#    y -0.013170 1.883360 0.000150 
#    z 0.006230 0.000150 1.859270 
# 
# From -- ./inp_files/245065.got.cif
#   From: 2010.06.25/outbox.cif.g09.slc.cpg/sg2_123_cif.got.tgz:245065.got - 2010.06.27 13:26:56.
