data_PCOD8044366
_publ_section_title
;
Structure prediction by ZEFSAII (Michael W. Deem and Ramdas Pophale) SiO2 
 PCOD8044366
Probable space group: P -1
;
_chemical_formula_sum "Si O2"
_cell_formula_units_Z 16
_cell_length_a 17.792865
_cell_length_b 6.838545
_cell_length_c 9.127528
_cell_angle_alpha 53.802096
_cell_angle_beta 73.763808
_cell_angle_gamma 56.769960
_cell_volume 748.090937
_symmetry_space_group_name_H-M "P -1"
_symmetry_group_IT_number 2
_symmetry_cell_setting 'triclinic'
loop_
_space_group_symop_operation_xyz
x,y,z
-x,-y,-z
loop_
_atom_site_type_symbol
_atom_site_label
_atom_site_fract_x
_atom_site_fract_y
_atom_site_fract_z
Si Si1 0.772791 0.865582 0.749101
Si Si2 0.643699 0.304849 0.119180
Si Si3 0.587512 0.915902 0.855369
Si Si4 0.596329 0.903842 0.180545
Si Si5 0.105434 0.580338 0.333111
Si Si6 0.101509 0.132339 0.730434
Si Si7 0.743607 0.288338 0.343067
Si Si8 0.811487 0.056551 0.933752
O O1 0.680318 0.866361 0.757322
O O2 0.856321 0.584987 0.766475
O O3 0.793340 0.871814 0.907026
O O4 0.764680 0.135433 0.554189
O O5 0.680462 0.223280 0.300757
O O6 0.594503 0.126737 0.196905
O O7 0.580231 0.634657 0.996875
O O8 0.719423 0.244226 0.984392
O O9 0.493994 0.125350 0.726916
O O10 0.585274 0.032268 0.967505
O O11 0.692076 0.617156 0.262788
O O12 0.125421 0.361944 0.550420
O O13 0.999899 0.788113 0.282138
O O14 0.154330 0.760963 0.256066
O O15 0.163427 0.831169 0.749736
O O16 0.115494 0.127567 0.900179
#
# Coordination Sequence:
#
# PCOD8044366 Si02
#       8
#     2   2   2   2   2   2   2   2
#     4  11  22  38  58  88 120 152 199 244 296 348
#     4  10  19  38  59  85 113 157 198 236 300 356
#     4  10  20  36  59  87 117 151 195 250 289 352
#     4  10  20  37  60  84 116 155 198 242 299 349
#     4  10  21  42  60  89 125 153 194 253 291 350
#     4   9  21  41  64  85 124 158 195 243 301 351
#     4   9  22  38  57  85 118 155 192 249 294 354
#     4  11  21  36  62  90 115 160 197 239 298 359
#
# _framework density 21.387775999999999
#
# number of rings (size 3 to 8) (size 9 to 14) (size 15 to 20)
#    0.000    2.000    2.500    0.750    0.000    4.000 
#    0.000    8.750    0.000    0.000    0.000    0.000 
#    0.000    0.000    0.000    0.000    0.000    0.000 
#
# Total GULP energy -198240.402047 kJ/mol
# GULP energy per Si atom -12390.025128 kJ/mol
# Density = 2.133910 g / cm^3
# Si number density = 21.387776 Si / 1000 Ang^3
#
#
#
# Elastic Constant Matrix: (Units=GPa)
#
#
# Indices 1 2 3 4 5 6 
#
# 1 74.0487 23.2621 13.2376 -5.5663 -0.7645 -2.9992
# 2 23.2621 84.2030 17.4162 -1.0521 10.9376 1.9211
# 3 13.2376 17.4162 55.1746 6.2275 4.2572 5.3263
# 4 -5.5663 -1.0521 6.2275 22.0113 -0.1742 5.2500
# 5 -0.7645 10.9376 4.2572 -0.1742 22.6662 -3.4381
# 6 -2.9992 1.9211 5.3263 5.2500 -3.4381 36.6694
#
#
#
# Elastic Compliance Matrix: (Units=1/GPa)
#
#
# Indices 1 2 3 4 5 6 
#
# 1 0.015841 -0.004098 -0.003435 0.004403 0.003449 0.001702
# 2 -0.004098 0.014563 -0.003044 0.000803 -0.006802 -0.001409
# 3 -0.003435 -0.003044 0.021114 -0.006402 -0.003050 -0.002558
# 4 0.004403 0.000803 -0.006402 0.049790 0.000461 -0.005837
# 5 0.003449 -0.006802 -0.003050 0.000461 0.048944 0.005604
# 6 0.001702 -0.001409 -0.002558 -0.005837 0.005604 0.029216
#
#
# Mechanical properties :
#
#
# Convention : Reuss Voigt Hill
#
# Bulk Modulus (GPa) = 32.93112 35.69534 34.31323
# Shear Modulus (GPa) = 23.72551 26.90339 25.31445
#
# Velocity S-wave (km/s) = 3.33423 3.55052 3.44407
# Velocity P-wave (km/s) = 5.50031 5.79086 5.64745
#
# Compressibility (1/GPa) = 0.03036641
#
# Stress axis : x y z
#
# Youngs Moduli (GPa) = 63.12539 68.66551 47.36217
#
# Poissons Ratio (x) = 0.28138 0.16267
# Poissons Ratio (y) = 0.25868 0.14416
# Poissons Ratio (z) = 0.21681 0.20900
#
# Static dielectric constant tensor:
#      x y z
#    x 3.916940 -0.227880 0.052720 
#    y -0.227880 3.887300 0.006250 
#    z 0.052720 0.006250 3.664490 
# 
# 
# High freq. dielectric constant tensor:
#      x y z
#    x 1.839690 -0.015650 0.005930 
#    y -0.015650 1.839300 0.002890 
#    z 0.005930 0.002890 1.815370 
# 
# From -- ./inp_files/51978.got.cif
#   From: 2010.06.25/outbox.cif.g09.slc.cpg/sg2_26_cif.got.tgz:51978.got - 2010.06.27 13:26:56.
