data_PCOD8044062
_publ_section_title
;
Structure prediction by ZEFSAII (Michael W. Deem and Ramdas Pophale) SiO2 
 PCOD8044062
Probable space group: P -1
;
_chemical_formula_sum "Si O2"
_cell_formula_units_Z 14
_cell_length_a 23.550126
_cell_length_b 11.334334
_cell_length_c 8.896166
_cell_angle_alpha 121.203837
_cell_angle_beta 39.156876
_cell_angle_gamma 148.729008
_cell_volume 698.405488
_symmetry_space_group_name_H-M "P -1"
_symmetry_group_IT_number 2
_symmetry_cell_setting 'triclinic'
loop_
_space_group_symop_operation_xyz
x,y,z
-x,-y,-z
loop_
_atom_site_type_symbol
_atom_site_label
_atom_site_fract_x
_atom_site_fract_y
_atom_site_fract_z
Si Si1 0.958407 0.951855 0.795796
Si Si2 0.174242 0.713677 0.702764
Si Si3 0.968306 0.736339 0.388658
Si Si4 0.543994 0.901704 0.378241
Si Si5 0.810870 0.155887 0.799530
Si Si6 0.804976 0.669058 0.211559
Si Si7 0.959691 0.290175 0.282263
O O1 0.914632 0.776001 0.651673
O O2 0.969688 0.111428 0.790749
O O3 0.815617 0.764293 0.093513
O O4 0.133682 0.156248 0.659645
O O5 0.168559 0.820872 0.653859
O O6 0.184455 0.566901 0.525696
O O7 0.327358 0.940885 0.645233
O O8 0.000000 0.500000 0.000000
O O9 0.122732 0.847464 0.200559
O O10 0.382308 0.611567 0.565221
O O11 0.500000 0.000000 0.500000
O O12 0.619386 0.934426 0.090814
O O13 0.842299 0.115193 0.553070
O O14 0.899669 0.417300 0.779113
O O15 0.938836 0.716205 0.970716
#
# Coordination Sequence:
#
# PCOD8044062 Si02
#       7
#     2   2   2   2   2   2   2
#     4  10  22  38  62  82 122 169 202 237 282 368
#     4  11  20  36  64  92 116 155 192 251 308 356
#     4  10  19  38  61  88 113 161 208 233 285 367
#     4  12  22  37  60  97 125 145 193 263 307 343
#     4  10  20  35  62  87 119 154 194 249 302 353
#     4  11  22  39  62  91 119 157 206 245 298 346
#     4  10  19  37  63  88 116 157 200 241 301 367
#
# _framework density 20.045663000000001
#
# number of rings (size 3 to 8) (size 9 to 14) (size 15 to 20)
#    0.000    1.429    5.714    1.714    0.000    0.000 
#    0.000    7.143    0.000    0.000    0.000    0.000 
#    0.000    0.000    0.000    0.000    0.000    0.000 
#
# Total GULP energy -173465.152896 kJ/mol
# GULP energy per Si atom -12390.368064 kJ/mol
# Density = 2.000004 g / cm^3
# Si number density = 20.045663 Si / 1000 Ang^3
#
#
#
# Elastic Constant Matrix: (Units=GPa)
#
#
# Indices 1 2 3 4 5 6 
#
# 1 104.9986 25.5302 47.6350 -11.4947 24.8654 1.3219
# 2 25.5302 74.5911 41.3425 -14.6180 8.2688 13.9105
# 3 47.6350 41.3425 121.2003 -21.5091 16.7277 11.2991
# 4 -11.4947 -14.6180 -21.5091 36.1035 -2.7575 0.1762
# 5 24.8654 8.2688 16.7277 -2.7575 30.8479 0.9080
# 6 1.3219 13.9105 11.2991 0.1762 0.9080 30.3540
#
#
#
# Elastic Compliance Matrix: (Units=1/GPa)
#
#
# Indices 1 2 3 4 5 6 
#
# 1 0.013715 -0.001961 -0.003575 0.000778 -0.008577 0.001884
# 2 -0.001961 0.018547 -0.004035 0.004469 -0.000600 -0.006920
# 3 -0.003575 -0.004035 0.012372 0.004438 -0.002273 -0.002559
# 4 0.000778 0.004469 0.004438 0.032325 -0.001228 -0.003885
# 5 -0.008577 -0.000600 -0.002273 -0.001228 0.040606 0.000287
# 6 0.001884 -0.006920 -0.002559 -0.003885 0.000287 0.037000
#
#
# Mechanical properties :
#
#
# Convention : Reuss Voigt Hill
#
# Bulk Modulus (GPa) = 39.22708 58.86727 49.04718
# Shear Modulus (GPa) = 27.44167 31.87989 29.66078
#
# Velocity S-wave (km/s) = 3.70396 3.99226 3.85081
# Velocity P-wave (km/s) = 6.15660 7.11907 6.65526
#
# Compressibility (1/GPa) = 0.02549259
#
# Stress axis : x y z
#
# Youngs Moduli (GPa) = 72.91051 53.91784 80.82634
#
# Poissons Ratio (x) = 0.10571 0.28899
# Poissons Ratio (y) = 0.14295 0.32611
# Poissons Ratio (z) = 0.26069 0.21755
#
# Static dielectric constant tensor:
#      x y z
#    x 4.045020 0.022480 0.212510 
#    y 0.022480 4.087070 0.294820 
#    z 0.212510 0.294820 3.707330 
# 
# 
# High freq. dielectric constant tensor:
#      x y z
#    x 1.795320 -0.010880 0.022170 
#    y -0.010880 1.777950 0.024360 
#    z 0.022170 0.024360 1.759160 
# 
# From -- ./inp_files/172404.got.cif
#   From: 2010.06.25/outbox.cif.g09.slc.cpg/sg2_87_cif.got.tgz:172404.got - 2010.06.27 13:26:56.
