data_PCOD8044072
_publ_section_title
;
Structure prediction by ZEFSAII (Michael W. Deem and Ramdas Pophale) SiO2 
 PCOD8044072
Probable space group: P -1
;
_chemical_formula_sum "Si O2"
_cell_formula_units_Z 16
_cell_length_a 7.852737
_cell_length_b 9.448770
_cell_length_c 12.254293
_cell_angle_alpha 120.617841
_cell_angle_beta 105.606655
_cell_angle_gamma 85.369338
_cell_volume 751.898703
_symmetry_space_group_name_H-M "P -1"
_symmetry_group_IT_number 2
_symmetry_cell_setting 'triclinic'
loop_
_space_group_symop_operation_xyz
x,y,z
-x,-y,-z
loop_
_atom_site_type_symbol
_atom_site_label
_atom_site_fract_x
_atom_site_fract_y
_atom_site_fract_z
Si Si1 0.688876 0.447558 0.646968
Si Si2 0.064316 0.968623 0.749057
Si Si3 0.408619 0.575418 0.789013
Si Si4 0.173549 0.556741 0.938653
Si Si5 0.650920 0.882459 0.006610
Si Si6 0.837244 0.360159 0.420718
Si Si7 0.882747 0.284095 0.800432
Si Si8 0.087731 0.226945 0.149769
O O1 0.497026 0.443324 0.672643
O O2 0.687731 0.388034 0.497696
O O3 0.806634 0.324792 0.685694
O O4 0.772237 0.632819 0.725865
O O5 0.088889 0.818920 0.609522
O O6 0.000619 0.876039 0.810028
O O7 0.254746 0.070436 0.842991
O O8 0.916872 0.090197 0.731738
O O9 0.319401 0.501999 0.855545
O O10 0.258694 0.653998 0.719749
O O11 0.564228 0.697668 0.913500
O O12 0.070442 0.387081 0.891330
O O13 0.053480 0.688866 0.915664
O O14 0.245735 0.654182 0.099614
O O15 0.808692 0.902879 0.953730
O O16 0.500000 0.000000 0.000000
O O17 0.000000 0.500000 0.500000
#
# Coordination Sequence:
#
# PCOD8044072 Si02
#       8
#     2   2   2   2   2   2   2   2
#     4  10  23  42  60  92 129 168 212 254 310 373
#     4  12  22  38  65  98 124 164 211 262 308 374
#     4  11  23  39  67  95 123 165 210 270 315 366
#     4  10  19  40  62  89 128 164 207 248 318 389
#     4  11  21  34  57 101 132 149 195 277 336 350
#     4  12  22  42  69  89 119 174 224 256 297 371
#     4  10  23  38  62  94 128 167 206 254 315 391
#     4  10  19  37  63  89 122 161 213 259 299 378
#
# _framework density 21.279461000000001
#
# number of rings (size 3 to 8) (size 9 to 14) (size 15 to 20)
#    0.000    1.250    5.000    1.500    3.500    1.000 
#    0.000    0.000    0.000    1.500    0.000    0.000 
#    0.000    0.000    0.000    0.000    0.000    0.000 
#
# Total GULP energy -198258.913921 kJ/mol
# GULP energy per Si atom -12391.182120 kJ/mol
# Density = 2.123103 g / cm^3
# Si number density = 21.279461 Si / 1000 Ang^3
#
#
#
# Elastic Constant Matrix: (Units=GPa)
#
#
# Indices 1 2 3 4 5 6 
#
# 1 85.0189 14.9748 30.3923 7.0656 -25.0327 7.3997
# 2 14.9748 86.1035 25.4963 12.6480 -11.2354 -3.7931
# 3 30.3923 25.4963 90.3135 5.6172 -22.3600 8.0774
# 4 7.0656 12.6480 5.6172 26.7577 -2.8365 -11.9833
# 5 -25.0327 -11.2354 -22.3600 -2.8365 45.2204 -4.1440
# 6 7.3997 -3.7931 8.0774 -11.9833 -4.1440 24.6268
#
#
#
# Elastic Compliance Matrix: (Units=1/GPa)
#
#
# Indices 1 2 3 4 5 6 
#
# 1 0.015569 -0.000577 -0.002737 -0.004920 0.006337 -0.005197
# 2 -0.000577 0.013585 -0.003102 -0.005000 0.001306 0.001070
# 3 -0.002737 -0.003102 0.014540 -0.002645 0.004280 -0.004991
# 4 -0.004920 -0.005000 -0.002645 0.054244 0.000703 0.028089
# 5 0.006337 0.001306 0.004280 0.000703 0.028290 0.001996
# 6 -0.005197 0.001070 -0.004991 0.028089 0.001996 0.057973
#
#
# Mechanical properties :
#
#
# Convention : Reuss Voigt Hill
#
# Bulk Modulus (GPa) = 32.40173 44.79583 38.59878
# Shear Modulus (GPa) = 24.11724 32.02583 28.07154
#
# Velocity S-wave (km/s) = 3.37019 3.88366 3.63600
# Velocity P-wave (km/s) = 5.51399 6.41929 5.98378
#
# Compressibility (1/GPa) = 0.03086255
#
# Stress axis : x y z
#
# Youngs Moduli (GPa) = 64.22991 73.61082 68.77588
#
# Poissons Ratio (x) = 0.04245 0.18822
# Poissons Ratio (y) = 0.03704 0.21337
# Poissons Ratio (z) = 0.17578 0.22836
#
# Static dielectric constant tensor:
#      x y z
#    x 4.031770 0.043890 -0.250490 
#    y 0.043890 4.172950 0.506810 
#    z -0.250490 0.506810 4.288520 
# 
# 
# High freq. dielectric constant tensor:
#      x y z
#    x 1.831570 -0.006620 -0.022200 
#    y -0.006620 1.818550 0.002210 
#    z -0.022200 0.002210 1.827320 
# 
# From -- ./inp_files/380400.got.cif
#   From: 2010.06.25/outbox.cif.g09.slc.cpg/sg2_191_cif.got.tgz:380400.got - 2010.06.27 13:26:56.
