data_PCOD8044252
_publ_section_title
;
Structure prediction by ZEFSAII (Michael W. Deem and Ramdas Pophale) SiO2 
 PCOD8044252
Probable space group: P -1
;
_chemical_formula_sum "Si O2"
_cell_formula_units_Z 16
_cell_length_a 9.384319
_cell_length_b 9.260891
_cell_length_c 12.406794
_cell_angle_alpha 108.909983
_cell_angle_beta 48.001605
_cell_angle_gamma 99.325244
_cell_volume 755.753610
_symmetry_space_group_name_H-M "P -1"
_symmetry_group_IT_number 2
_symmetry_cell_setting 'triclinic'
loop_
_space_group_symop_operation_xyz
x,y,z
-x,-y,-z
loop_
_atom_site_type_symbol
_atom_site_label
_atom_site_fract_x
_atom_site_fract_y
_atom_site_fract_z
Si Si1 0.921128 0.674963 0.779818
Si Si2 0.859766 0.717251 0.054811
Si Si3 0.350768 0.315191 0.260215
Si Si4 0.230112 0.627167 0.982406
Si Si5 0.807773 0.914668 0.557513
Si Si6 0.497586 0.109070 0.629646
Si Si7 0.773955 0.348578 0.552458
Si Si8 0.068302 0.665740 0.292798
O O1 0.709083 0.680858 0.834787
O O2 0.998281 0.503158 0.730824
O O3 0.065862 0.730218 0.628953
O O4 0.911298 0.769304 0.919125
O O5 0.758003 0.557594 0.066655
O O6 0.717826 0.854024 0.208325
O O7 0.052770 0.700968 0.021747
O O8 0.579099 0.316538 0.154479
O O9 0.274853 0.163765 0.313699
O O10 0.248737 0.467580 0.406345
O O11 0.214288 0.694783 0.128214
O O12 0.874930 0.779730 0.406315
O O13 0.634942 0.027104 0.629658
O O14 0.000000 0.000000 0.500000
O O15 0.579415 0.272415 0.600948
O O16 0.500000 0.000000 0.500000
O O17 0.832456 0.307661 0.635948
#
# Coordination Sequence:
#
# PCOD8044252 Si02
#       8
#     2   2   2   2   2   2   2   2
#     4  10  20  37  70  96 126 158 219 276 317 365
#     4  10  23  43  60  94 133 174 210 269 325 374
#     4  11  21  39  67 103 123 167 223 264 313 381
#     4  10  22  39  67  95 127 166 226 270 307 372
#     4  12  23  41  65  96 136 166 209 263 322 391
#     4  12  26  43  63  91 134 178 209 256 337 393
#     4  11  20  41  67  98 126 165 223 268 312 384
#     4  10  19  37  66  96 128 163 208 269 320 369
#
# _framework density 21.170921
#
# number of rings (size 3 to 8) (size 9 to 14) (size 15 to 20)
#    0.000    1.250    5.000    1.500    1.750    2.500 
#    0.000    7.500    0.000    0.000    0.000    0.000 
#    0.000    0.000    0.000    0.000    0.000    0.000 
#
# Total GULP energy -198333.331246 kJ/mol
# GULP energy per Si atom -12395.833203 kJ/mol
# Density = 2.112274 g / cm^3
# Si number density = 21.170921 Si / 1000 Ang^3
#
#
#
# Elastic Constant Matrix: (Units=GPa)
#
#
# Indices 1 2 3 4 5 6 
#
# 1 103.1374 41.9981 76.6757 -3.5938 -2.1686 -8.3642
# 2 41.9981 77.9894 35.9078 -5.0862 -1.9941 -9.8826
# 3 76.6757 35.9078 169.2208 1.5916 4.2359 -6.0468
# 4 -3.5938 -5.0862 1.5916 34.7390 -1.8470 -9.9415
# 5 -2.1686 -1.9941 4.2359 -1.8470 40.5410 5.3580
# 6 -8.3642 -9.8826 -6.0468 -9.9415 5.3580 23.8356
#
#
#
# Elastic Compliance Matrix: (Units=1/GPa)
#
#
# Indices 1 2 3 4 5 6 
#
# 1 0.017197 -0.005769 -0.006521 0.002033 0.001067 0.002596
# 2 -0.005769 0.017425 -0.000882 0.003883 -0.000056 0.006608
# 3 -0.006521 -0.000882 0.009074 -0.001482 -0.001319 -0.000674
# 4 0.002033 0.003883 -0.001482 0.034284 -0.000135 0.016277
# 5 0.001067 -0.000056 -0.001319 -0.000135 0.025619 -0.005798
# 6 0.002596 0.006608 -0.000674 0.016277 -0.005798 0.053526
#
#
# Mechanical properties :
#
#
# Convention : Reuss Voigt Hill
#
# Bulk Modulus (GPa) = 57.63538 73.27897 65.45718
# Shear Modulus (GPa) = 26.41974 32.87418 29.64696
#
# Velocity S-wave (km/s) = 3.53643 3.94483 3.74620
# Velocity P-wave (km/s) = 6.63009 7.44561 7.04965
#
# Compressibility (1/GPa) = 0.01735045
#
# Stress axis : x y z
#
# Youngs Moduli (GPa) = 58.15040 57.39040 110.20292
#
# Poissons Ratio (x) = 0.33111 0.71862
# Poissons Ratio (y) = 0.33550 0.09722
# Poissons Ratio (z) = 0.37919 0.05063
#
# Static dielectric constant tensor:
#      x y z
#    x 3.749970 -0.136370 -0.012760 
#    y -0.136370 3.819500 0.148790 
#    z -0.012760 0.148790 4.004550 
# 
# 
# High freq. dielectric constant tensor:
#      x y z
#    x 1.816500 -0.008250 -0.002820 
#    y -0.008250 1.815520 0.002710 
#    z -0.002820 0.002710 1.837490 
# 
# From -- ./inp_files/205076.got.cif
#   From: 2010.06.25/outbox.cif.g09.slc.cpg/sg2_103_cif.got.tgz:205076.got - 2010.06.27 13:26:56.
