data_PCOD8044961
_publ_section_title
;
Structure prediction by ZEFSAII (Michael W. Deem and Ramdas Pophale) SiO2 
 PCOD8044961
Probable space group: P 2
;
_chemical_formula_sum "Si O2"
_cell_formula_units_Z 16
_cell_length_a 16.638755
_cell_length_b 9.051848
_cell_length_c 5.185396
_cell_angle_alpha 90.000000
_cell_angle_beta 60.123970
_cell_angle_gamma 90.000000
_cell_volume 677.191982
_symmetry_space_group_name_H-M "P 2"
_symmetry_group_IT_number 3
_symmetry_cell_setting 'monoclinic'
loop_
_space_group_symop_operation_xyz
x,y,z
-x,y,-z
loop_
_atom_site_type_symbol
_atom_site_label
_atom_site_fract_x
_atom_site_fract_y
_atom_site_fract_z
Si Si1 0.393687 0.291160 0.214822
Si Si2 0.260675 0.557253 0.497830
Si Si3 0.130250 0.714318 0.335940
Si Si4 0.738219 0.853752 0.265438
Si Si5 0.895088 0.973112 0.309955
Si Si6 0.079290 0.466574 0.073330
Si Si7 0.892121 0.146503 0.824460
Si Si8 0.674824 0.134746 0.179161
O O1 0.339532 0.445140 0.284386
O O2 0.383247 0.223644 0.515778
O O3 0.500000 0.328774 0.000000
O O4 0.357731 0.178075 0.054155
O O5 0.216730 0.625141 0.313348
O O6 0.304570 0.694657 0.590603
O O7 0.181676 0.473897 0.786552
O O8 0.070551 0.810876 0.641812
O O9 0.172888 0.832304 0.065824
O O10 0.065425 0.592000 0.310971
O O11 0.784036 0.941909 0.438050
O O12 0.660769 0.957884 0.253298
O O13 0.937362 0.033233 0.968141
O O14 0.913703 0.096251 0.499171
O O15 0.062275 0.306469 0.221462
O O16 0.000000 0.503772 0.000000
O O17 0.783302 0.165281 0.046708
#
# Coordination Sequence:
#
# PCOD8044961 Si02
#       8
#     2   2   2   2   2   2   2   2
#     4  12  26  43  68 102 139 174 225 278 339 405
#     4  10  23  41  69  99 130 186 222 277 341 403
#     4  10  20  39  67  98 129 177 227 269 342 398
#     4   9  20  37  68  99 125 172 227 270 332 403
#     4  10  19  37  65  95 130 165 227 269 330 396
#     4  11  25  42  64  99 139 176 232 284 336 400
#     4  11  21  38  69  97 125 176 217 277 330 394
#     4  11  21  41  70  97 130 177 222 280 332 401
#
# _framework density 23.626975999999999
#
# number of rings (size 3 to 8) (size 9 to 14) (size 15 to 20)
#    0.000    1.500    3.750    2.625    5.250    0.500 
#    0.000    1.250   11.000    0.000    0.000    0.000 
#    0.000    0.000    0.000    0.000    0.000    0.000 
#
# Total GULP energy -198335.825516 kJ/mol
# GULP energy per Si atom -12395.989095 kJ/mol
# Density = 2.357320 g / cm^3
# Si number density = 23.626976 Si / 1000 Ang^3
#
#
#
# Elastic Constant Matrix: (Units=GPa)
#
#
# Indices 1 2 3 4 5 6 
#
# 1 83.0181 65.2707 48.6138 0.0000 8.8210 0.0000
# 2 65.2707 184.2407 55.9478 0.0000 13.3782 0.0000
# 3 48.6138 55.9478 122.2127 0.0000 7.2679 0.0000
# 4 0.0000 0.0000 0.0000 1.9138 0.0000 16.7353
# 5 8.8210 13.3782 7.2679 0.0000 36.1607 0.0000
# 6 0.0000 0.0000 0.0000 16.7353 0.0000 22.8439
#
#
#
# Elastic Compliance Matrix: (Units=1/GPa)
#
#
# Indices 1 2 3 4 5 6 
#
# 1 0.019334 -0.005131 -0.005237 0.000000 -0.001765 0.000000
# 2 -0.005131 0.007780 -0.001441 0.000000 -0.001337 0.000000
# 3 -0.005237 -0.001441 0.010948 0.000000 -0.000390 0.000000
# 4 0.000000 0.000000 0.000000 -0.096652 0.000000 0.070807
# 5 -0.001765 -0.001337 -0.000390 0.000000 0.028658 0.000000
# 6 0.000000 0.000000 0.000000 0.070807 0.000000 -0.008097
#
#
# Mechanical properties :
#
#
# Convention : Reuss Voigt Hill
#
# Bulk Modulus (GPa) = 69.22947 81.01514 75.12230
# Shear Modulus (GPa) = -521.03467 26.82629 -247.10419
#
# Velocity S-wave (km/s) = -14.86621 3.37324 -10.23781
# Velocity P-wave (km/s) = 16.28826 7.03814 10.38682
#
# Compressibility (1/GPa) = 0.01444472
#
# Stress axis : x y z
#
# Youngs Moduli (GPa) = 51.72315 128.53241 91.33719
#
# Poissons Ratio (x) = 0.65949 0.47830
# Poissons Ratio (y) = 0.26539 0.13163
# Poissons Ratio (z) = 0.27086 0.18524
#
# Static dielectric constant tensor:
#      x y z
#    x 4.133430 0.000000 0.342260 
#    y 0.000000 4.573270 0.000000 
#    z 0.342260 0.000000 4.486190 
# 
# 
# High freq. dielectric constant tensor:
#      x y z
#    x 1.910040 0.000000 0.031080 
#    y 0.000000 1.956290 0.000000 
#    z 0.031080 0.000000 1.937280 
# 
# From -- ./inp_files/3702.got.cif
#   From: 2010.03.12/outbox.cif.g09.slc.cpg/sg3_2_cif.got.tgz:3702.got - 2010.03.31 09:20:49.
