data_PCOD8044548
_publ_section_title
;
Structure prediction by ZEFSAII (Michael W. Deem and Ramdas Pophale) SiO2 
 PCOD8044548
Probable space group: P -1
;
_chemical_formula_sum "Si O2"
_cell_formula_units_Z 16
_cell_length_a 9.061400
_cell_length_b 27.232472
_cell_length_c 13.189044
_cell_angle_alpha 151.095234
_cell_angle_beta 146.374228
_cell_angle_gamma 48.826219
_cell_volume 840.295243
_symmetry_space_group_name_H-M "P -1"
_symmetry_group_IT_number 2
_symmetry_cell_setting 'triclinic'
loop_
_space_group_symop_operation_xyz
x,y,z
-x,-y,-z
loop_
_atom_site_type_symbol
_atom_site_label
_atom_site_fract_x
_atom_site_fract_y
_atom_site_fract_z
Si Si1 0.270621 0.108226 0.505982
Si Si2 0.641757 0.687850 0.182656
Si Si3 0.545834 0.527594 0.416148
Si Si4 0.518751 0.338292 0.561966
Si Si5 0.866126 0.698741 0.538152
Si Si6 0.795931 0.195298 0.350988
Si Si7 0.340438 0.890974 0.093242
Si Si8 0.063375 0.500171 0.243498
O O1 0.447441 0.210868 0.729721
O O2 0.386808 0.108930 0.687088
O O3 0.951102 0.113021 0.340259
O O4 0.289183 0.006118 0.270253
O O5 0.623409 0.680936 0.281895
O O6 0.967482 0.702043 0.367467
O O7 0.454352 0.582404 0.836052
O O8 0.596983 0.619142 0.527916
O O9 0.255254 0.520046 0.290337
O O10 0.796175 0.555639 0.690460
O O11 0.268523 0.304894 0.435832
O O12 0.610538 0.233044 0.396261
O O13 0.765793 0.426831 0.912684
O O14 0.033511 0.610772 0.467616
O O15 0.073242 0.813376 0.850719
O O16 0.611013 0.141557 0.052525
#
# Coordination Sequence:
#
# PCOD8044548 Si02
#       8
#     2   2   2   2   2   2   2   2
#     4   9  19  36  66  85 101 134 190 232 274 310
#     4   9  18  35  56  81 105 138 185 228 263 317
#     4  11  21  36  60  81 106 145 192 228 267 307
#     4  12  23  38  50  82 118 153 175 221 272 327
#     4  11  23  35  55  80 118 146 180 220 279 327
#     4   9  20  34  58  79 110 138 185 222 266 320
#     4  10  19  38  63  84 106 136 182 236 272 323
#     4  11  22  37  57  80 109 147 192 227 261 319
#
# _framework density 19.040927
#
# number of rings (size 3 to 8) (size 9 to 14) (size 15 to 20)
#    0.750    1.000    2.500    3.375    0.000    2.500 
#    2.250    0.625    0.000    1.500    0.000    0.000 
#    0.000    0.000    0.000    0.000    0.000    0.000 
#
# Total GULP energy -198371.898756 kJ/mol
# GULP energy per Si atom -12398.243672 kJ/mol
# Density = 1.899759 g / cm^3
# Si number density = 19.040927 Si / 1000 Ang^3
#
#
#
# Elastic Constant Matrix: (Units=GPa)
#
#
# Indices 1 2 3 4 5 6 
#
# 1 82.0159 34.1238 22.2085 6.7354 -15.4517 9.0474
# 2 34.1238 116.4718 25.0902 4.6752 -14.0849 3.3338
# 3 22.2085 25.0902 58.3337 0.8065 -18.0609 0.2700
# 4 6.7354 4.6752 0.8065 30.2902 -1.1901 -8.6124
# 5 -15.4517 -14.0849 -18.0609 -1.1901 20.5046 -1.9211
# 6 9.0474 3.3338 0.2700 -8.6124 -1.9211 11.6011
#
#
#
# Elastic Compliance Matrix: (Units=1/GPa)
#
#
# Indices 1 2 3 4 5 6 
#
# 1 0.018361 -0.002962 -0.003512 -0.008595 0.006458 -0.018698
# 2 -0.002962 0.010374 -0.002540 -0.001056 0.002503 -0.000981
# 3 -0.003512 -0.002540 0.025359 0.003747 0.018988 0.008805
# 4 -0.008595 -0.001056 0.003747 0.047150 0.002807 0.042387
# 5 0.006458 0.002503 0.018988 0.002807 0.072990 0.007973
# 6 -0.018698 -0.000981 0.008805 0.042387 0.007973 0.133645
#
#
# Mechanical properties :
#
#
# Convention : Reuss Voigt Hill
#
# Bulk Modulus (GPa) = 27.72655 46.62958 37.17806
# Shear Modulus (GPa) = 14.79603 24.17245 19.48424
#
# Velocity S-wave (km/s) = 2.79061 3.56687 3.20235
# Velocity P-wave (km/s) = 4.99765 6.44249 5.76551
#
# Compressibility (1/GPa) = 0.03606652
#
# Stress axis : x y z
#
# Youngs Moduli (GPa) = 54.46322 96.39577 39.43450
#
# Poissons Ratio (x) = 0.28550 0.13848
# Poissons Ratio (y) = 0.16131 0.10017
# Poissons Ratio (z) = 0.19125 0.24486
#
# Static dielectric constant tensor:
#      x y z
#    x 3.143400 0.085570 -0.240000 
#    y 0.085570 3.561420 -0.056090 
#    z -0.240000 -0.056090 3.419140 
# 
# 
# High freq. dielectric constant tensor:
#      x y z
#    x 1.700990 0.005010 -0.026660 
#    y 0.005010 1.752560 -0.006270 
#    z -0.026660 -0.006270 1.737390 
# 
# From -- ./inp_files/407235.got.cif
#   From: 2010.06.25/outbox.cif.g09.slc.cpg/sg2_204_cif.got.tgz:407235.got - 2010.06.27 13:26:56.
