data_PCOD8044624
_publ_section_title
;
Structure prediction by ZEFSAII (Michael W. Deem and Ramdas Pophale) SiO2 
 PCOD8044624
Probable space group: P -1
;
_chemical_formula_sum "Si O2"
_cell_formula_units_Z 16
_cell_length_a 9.946816
_cell_length_b 15.880120
_cell_length_c 10.983072
_cell_angle_alpha 33.939347
_cell_angle_beta 120.872666
_cell_angle_gamma 128.771640
_cell_volume 755.079455
_symmetry_space_group_name_H-M "P -1"
_symmetry_group_IT_number 2
_symmetry_cell_setting 'triclinic'
loop_
_space_group_symop_operation_xyz
x,y,z
-x,-y,-z
loop_
_atom_site_type_symbol
_atom_site_label
_atom_site_fract_x
_atom_site_fract_y
_atom_site_fract_z
Si Si1 0.646428 0.934567 0.150163
Si Si2 0.152039 0.880959 0.747518
Si Si3 0.069504 0.569407 0.584672
Si Si4 0.765926 0.789741 0.715172
Si Si5 0.934521 0.123248 0.880131
Si Si6 0.132102 0.547591 0.117737
Si Si7 0.265751 0.377033 0.863682
Si Si8 0.593694 0.600108 0.628641
O O1 0.775188 0.012487 0.226895
O O2 0.577085 0.733127 0.365897
O O3 0.754655 0.003202 0.997948
O O4 0.500000 0.000000 0.000000
O O5 0.946575 0.776214 0.792661
O O6 0.198131 0.015380 0.498923
O O7 0.233157 0.748930 0.916974
O O8 0.111100 0.764413 0.373597
O O9 0.240153 0.535332 0.718382
O O10 0.000000 0.500000 0.500000
O O11 0.947195 0.488858 0.739730
O O12 0.633423 0.685380 0.675966
O O13 0.676470 0.710378 0.896168
O O14 0.080761 0.242862 0.894789
O O15 0.000000 0.000000 0.000000
O O16 0.262878 0.461120 0.273436
O O17 0.000000 0.500000 0.000000
O O18 0.408899 0.440704 0.746673
#
# Coordination Sequence:
#
# PCOD8044624 Si02
#       8
#     2   2   2   2   2   2   2   2
#     4  11  23  43  64  89 123 172 219 262 314 393
#     4  10  20  37  64  91 120 166 218 261 315 385
#     4  10  21  39  62  87 124 174 219 255 316 388
#     4  10  19  38  64  89 121 168 217 257 316 391
#     4  11  23  39  60  88 123 167 210 262 321 377
#     4  12  22  39  63 100 131 167 210 275 329 378
#     4  11  21  41  61  91 126 171 210 266 315 393
#     4  11  24  37  64  99 129 160 215 272 327 377
#
# _framework density 21.189823000000001
#
# number of rings (size 3 to 8) (size 9 to 14) (size 15 to 20)
#    0.000    1.250    3.750    2.625    0.000    3.000 
#    0.000    4.375    0.000    0.000    0.000    0.000 
#    0.000    0.000    0.000    0.000    0.000    0.000 
#
# Total GULP energy -198277.911376 kJ/mol
# GULP energy per Si atom -12392.369461 kJ/mol
# Density = 2.114159 g / cm^3
# Si number density = 21.189823 Si / 1000 Ang^3
#
#
#
# Elastic Constant Matrix: (Units=GPa)
#
#
# Indices 1 2 3 4 5 6 
#
# 1 141.7734 17.8931 80.6710 -5.6959 6.8860 5.0579
# 2 17.8931 21.9692 22.7947 -1.3142 -11.5804 -0.6544
# 3 80.6710 22.7947 192.6628 -9.9424 10.4119 -5.0111
# 4 -5.6959 -1.3142 -9.9424 28.1535 -2.6262 1.8577
# 5 6.8860 -11.5804 10.4119 -2.6262 43.5601 -6.3234
# 6 5.0579 -0.6544 -5.0111 1.8577 -6.3234 30.6511
#
#
#
# Elastic Compliance Matrix: (Units=1/GPa)
#
#
# Indices 1 2 3 4 5 6 
#
# 1 0.010009 -0.006227 -0.003353 0.000480 -0.002835 -0.002947
# 2 -0.006227 0.069145 -0.006535 0.001312 0.021859 0.005865
# 3 -0.003353 -0.006535 0.007616 0.001379 -0.002800 0.000998
# 4 0.000480 0.001312 0.001379 0.036451 0.001902 -0.001642
# 5 -0.002835 0.021859 -0.002800 0.001902 0.030980 0.006753
# 6 -0.002947 0.005865 0.000998 -0.001642 0.006753 0.034893
#
#
# Mechanical properties :
#
#
# Convention : Reuss Voigt Hill
#
# Bulk Modulus (GPa) = 18.33454 66.56921 42.45188
# Shear Modulus (GPa) = 20.87651 36.14273 28.50962
#
# Velocity S-wave (km/s) = 3.14222 4.13445 3.67200
# Velocity P-wave (km/s) = 4.67290 7.36719 6.16893
#
# Compressibility (1/GPa) = 0.05454186
#
# Stress axis : x y z
#
# Youngs Moduli (GPa) = 99.90582 14.46231 131.30324
#
# Poissons Ratio (x) = 0.09005 0.44027
# Poissons Ratio (y) = 0.62208 0.85802
# Poissons Ratio (z) = 0.33499 0.09451
#
# Static dielectric constant tensor:
#      x y z
#    x 7.605540 -4.532360 3.668240 
#    y -4.532360 8.836120 -4.016610 
#    z 3.668240 -4.016610 7.556900 
# 
# 
# High freq. dielectric constant tensor:
#      x y z
#    x 1.815410 0.001390 0.008720 
#    y 0.001390 1.805200 -0.001850 
#    z 0.008720 -0.001850 1.864580 
# 
# From -- ./inp_files/225748.got.cif
#   From: 2010.06.25/outbox.cif.g09.slc.cpg/sg2_113_cif.got.tgz:225748.got - 2010.06.27 13:26:56.
