data_PCOD8044503
_publ_section_title
;
Structure prediction by ZEFSAII (Michael W. Deem and Ramdas Pophale) SiO2 
 PCOD8044503
Probable space group: P -1
;
_chemical_formula_sum "Si O2"
_cell_formula_units_Z 16
_cell_length_a 9.786234
_cell_length_b 11.289311
_cell_length_c 15.922967
_cell_angle_alpha 102.390363
_cell_angle_beta 149.477880
_cell_angle_gamma 68.060889
_cell_volume 806.954763
_symmetry_space_group_name_H-M "P -1"
_symmetry_group_IT_number 2
_symmetry_cell_setting 'triclinic'
loop_
_space_group_symop_operation_xyz
x,y,z
-x,-y,-z
loop_
_atom_site_type_symbol
_atom_site_label
_atom_site_fract_x
_atom_site_fract_y
_atom_site_fract_z
Si Si1 0.245778 0.552799 0.938417
Si Si2 0.805156 0.621262 0.971795
Si Si3 0.252458 0.798763 0.069454
Si Si4 0.332677 0.801737 0.631832
Si Si5 0.679381 0.919970 0.334494
Si Si6 0.201168 0.779523 0.231152
Si Si7 0.616134 0.735712 0.588683
Si Si8 0.716698 0.976844 0.715528
O O1 0.922300 0.613529 0.737364
O O2 0.500000 0.500000 0.000000
O O3 0.274161 0.430482 0.992428
O O4 0.321624 0.660990 0.043421
O O5 0.518354 0.690300 0.776578
O O6 0.000000 0.500000 0.000000
O O7 0.941833 0.727380 0.087072
O O8 0.469632 0.866473 0.162283
O O9 0.318388 0.763656 0.196464
O O10 0.922135 0.896011 0.889584
O O11 0.441330 0.760209 0.587797
O O12 0.002223 0.815494 0.471801
O O13 0.357295 0.936570 0.695121
O O14 0.587722 0.932851 0.387020
O O15 0.439199 0.699815 0.414993
O O16 0.129349 0.935257 0.237305
O O17 0.667489 0.870142 0.611448
#
# Coordination Sequence:
#
# PCOD8044503 Si02
#       8
#     2   2   2   2   2   2   2   2
#     4  11  25  43  59  84 121 160 203 254 298 353
#     4  12  22  42  62  83 119 168 209 236 294 368
#     4  10  19  38  62  86 119 163 204 242 301 366
#     4  10  20  38  62  88 124 157 196 254 302 356
#     4   9  18  33  62  94 114 148 202 251 300 348
#     4  11  20  34  64  91 110 158 205 240 300 364
#     4  10  21  38  59  88 123 155 196 256 305 351
#     4   9  18  36  63  89 121 155 197 249 306 364
#
# _framework density 19.827629999999999
#
# number of rings (size 3 to 8) (size 9 to 14) (size 15 to 20)
#    0.000    1.750    2.500    4.125    0.000    3.500 
#    2.250    5.000    0.000   18.000    0.000    0.000 
#    0.000    0.000    0.000    0.000    0.000    0.000 
#
# Total GULP energy -198256.717363 kJ/mol
# GULP energy per Si atom -12391.044835 kJ/mol
# Density = 1.978250 g / cm^3
# Si number density = 19.827630 Si / 1000 Ang^3
#
#
#
# Elastic Constant Matrix: (Units=GPa)
#
#
# Indices 1 2 3 4 5 6 
#
# 1 102.4996 36.3589 52.1890 -10.1279 11.0282 3.3042
# 2 36.3589 62.9749 32.7167 -4.1728 6.4013 7.3194
# 3 52.1890 32.7167 107.0406 -2.3764 4.6266 -17.2330
# 4 -10.1279 -4.1728 -2.3764 36.8470 -1.3105 5.5582
# 5 11.0282 6.4013 4.6266 -1.3105 35.1793 0.3198
# 6 3.3042 7.3194 -17.2330 5.5582 0.3198 23.0085
#
#
#
# Elastic Compliance Matrix: (Units=1/GPa)
#
#
# Indices 1 2 3 4 5 6 
#
# 1 0.016060 -0.003694 -0.007754 0.004593 -0.003099 -0.008005
# 2 -0.003694 0.023879 -0.007503 0.003160 -0.001960 -0.013422
# 3 -0.007754 -0.007503 0.018201 -0.004516 0.001069 0.018209
# 4 0.004593 0.003160 -0.004516 0.030328 -0.000179 -0.012371
# 5 -0.003099 -0.001960 0.001069 -0.000179 0.029593 0.001501
# 6 -0.008005 -0.013422 0.018209 -0.012371 0.001501 0.065487
#
#
# Mechanical properties :
#
#
# Convention : Reuss Voigt Hill
#
# Bulk Modulus (GPa) = 49.41413 57.22715 53.32064
# Shear Modulus (GPa) = 21.91084 29.09033 25.50059
#
# Velocity S-wave (km/s) = 3.32786 3.83451 3.59013
# Velocity P-wave (km/s) = 6.30414 6.96632 6.64348
#
# Compressibility (1/GPa) = 0.02023713
#
# Stress axis : x y z
#
# Youngs Moduli (GPa) = 62.26697 41.87787 54.94103
#
# Poissons Ratio (x) = 0.15470 0.42601
# Poissons Ratio (y) = 0.23002 0.41224
# Poissons Ratio (z) = 0.48282 0.31423
#
# Static dielectric constant tensor:
#      x y z
#    x 3.468300 0.133720 0.013970 
#    y 0.133720 3.444540 0.106470 
#    z 0.013970 0.106470 3.777460 
# 
# 
# High freq. dielectric constant tensor:
#      x y z
#    x 1.750700 0.015700 -0.001270 
#    y 0.015700 1.779060 0.009730 
#    z -0.001270 0.009730 1.776570 
# 
# From -- ./inp_files/466487.got.cif
#   From: 2010.06.25/outbox.cif.g09.slc.cpg/sg2_234_cif.got.tgz:466487.got - 2010.06.27 13:26:56.
