data_PCOD8044071
_publ_section_title
;
Structure prediction by ZEFSAII (Michael W. Deem and Ramdas Pophale) SiO2 
 PCOD8044071
Probable space group: P -1
;
_chemical_formula_sum "Si O2"
_cell_formula_units_Z 16
_cell_length_a 15.000337
_cell_length_b 10.206886
_cell_length_c 14.516412
_cell_angle_alpha 74.992988
_cell_angle_beta 32.590319
_cell_angle_gamma 99.084301
_cell_volume 799.047651
_symmetry_space_group_name_H-M "P -1"
_symmetry_group_IT_number 2
_symmetry_cell_setting 'triclinic'
loop_
_space_group_symop_operation_xyz
x,y,z
-x,-y,-z
loop_
_atom_site_type_symbol
_atom_site_label
_atom_site_fract_x
_atom_site_fract_y
_atom_site_fract_z
Si Si1 0.986860 0.634991 0.436387
Si Si2 0.327334 0.976144 0.501510
Si Si3 0.218134 0.603001 0.683893
Si Si4 0.488396 0.018991 0.158110
Si Si5 0.604124 0.346107 0.673521
Si Si6 0.028530 0.858686 0.515550
Si Si7 0.305124 0.620060 0.805688
Si Si8 0.180048 0.287179 0.078847
O O1 0.911399 0.707522 0.560573
O O2 0.000000 0.500000 0.500000
O O3 0.793726 0.528725 0.542691
O O4 0.243101 0.817836 0.138002
O O5 0.463817 0.147550 0.426256
O O6 0.319612 0.815386 0.567936
O O7 0.471773 0.077059 0.262117
O O8 0.058355 0.875044 0.744749
O O9 0.327226 0.587433 0.504992
O O10 0.289090 0.565587 0.722256
O O11 0.932065 0.436541 0.949911
O O12 0.389537 0.808571 0.284169
O O13 0.313170 0.995929 0.245591
O O14 0.340384 0.248031 0.939786
O O15 0.896480 0.729563 0.746361
O O16 0.000000 0.000000 0.500000
O O17 0.331103 0.503833 0.869154
#
# Coordination Sequence:
#
# PCOD8044071 Si02
#       8
#     2   2   2   2   2   2   2   2
#     4  12  25  38  66  90 115 164 209 244 305 368
#     4   9  19  37  62  84 120 158 199 241 307 363
#     4   9  20  37  62  92 117 159 195 255 302 354
#     4  10  22  40  59  85 120 157 197 259 295 356
#     4  11  23  42  59  87 127 155 206 249 307 363
#     4  11  24  42  62  87 125 160 203 255 307 356
#     4  10  19  37  63  89 121 152 207 247 300 365
#     4  10  24  38  57  87 123 160 196 256 302 354
#
# _framework density 20.023837
#
# number of rings (size 3 to 8) (size 9 to 14) (size 15 to 20)
#    0.000    1.750    1.250    3.000    3.500    4.000 
#    0.000    0.625    0.000    0.000    0.000    0.000 
#    0.000    0.000    0.000    0.000    0.000    0.000 
#
# Total GULP energy -198462.523559 kJ/mol
# GULP energy per Si atom -12403.907722 kJ/mol
# Density = 1.997826 g / cm^3
# Si number density = 20.023837 Si / 1000 Ang^3
#
#
#
# Elastic Constant Matrix: (Units=GPa)
#
#
# Indices 1 2 3 4 5 6 
#
# 1 96.3488 45.4241 34.6762 -0.4987 1.8062 4.4765
# 2 45.4241 96.2558 33.2784 1.2470 -10.2121 7.2966
# 3 34.6762 33.2784 94.7284 2.5806 -2.7221 12.8078
# 4 -0.4987 1.2470 2.5806 32.3054 -2.7982 -0.7388
# 5 1.8062 -10.2121 -2.7221 -2.7982 28.0376 -0.5007
# 6 4.4765 7.2966 12.8078 -0.7388 -0.5007 29.7381
#
#
#
# Elastic Compliance Matrix: (Units=1/GPa)
#
#
# Indices 1 2 3 4 5 6 
#
# 1 0.014503 -0.006102 -0.003373 0.000449 -0.003427 0.000720
# 2 -0.006102 0.014879 -0.002630 -0.000014 0.005529 -0.001507
# 3 -0.003373 -0.002630 0.013382 -0.001094 0.000367 -0.004631
# 4 0.000449 -0.000014 -0.001094 0.031338 0.003010 0.001236
# 5 -0.003427 0.005529 0.000367 0.003010 0.038232 -0.000280
# 6 0.000720 -0.001507 -0.004631 0.001236 -0.000280 0.035909
#
#
# Mechanical properties :
#
#
# Convention : Reuss Voigt Hill
#
# Bulk Modulus (GPa) = 53.90128 57.12115 55.51121
# Shear Modulus (GPa) = 27.98962 29.61317 28.80139
#
# Velocity S-wave (km/s) = 3.74279 3.84981 3.79668
# Velocity P-wave (km/s) = 6.75685 6.95341 6.85583
#
# Compressibility (1/GPa) = 0.01855244
#
# Stress axis : x y z
#
# Youngs Moduli (GPa) = 68.95205 67.20975 74.72753
#
# Poissons Ratio (x) = 0.41009 0.25209
# Poissons Ratio (y) = 0.42072 0.19657
# Poissons Ratio (z) = 0.23260 0.17679
#
# Static dielectric constant tensor:
#      x y z
#    x 3.723170 0.114450 0.047030 
#    y 0.114450 3.466970 0.038790 
#    z 0.047030 0.038790 3.634690 
# 
# 
# High freq. dielectric constant tensor:
#      x y z
#    x 1.789780 0.006500 0.006730 
#    y 0.006500 1.766000 -0.001750 
#    z 0.006730 -0.001750 1.784040 
# 
# From -- ./inp_files/52085.got.cif
#   From: 2010.06.25/outbox.cif.g09.slc.cpg/sg2_27_cif.got.tgz:52085.got - 2010.06.27 13:26:56.
