data_PCOD8044908
_publ_section_title
;
Structure prediction by ZEFSAII (Michael W. Deem and Ramdas Pophale) SiO2 
 PCOD8044908
Probable space group: P 2
;
_chemical_formula_sum "Si O2"
_cell_formula_units_Z 16
_cell_length_a 8.805324
_cell_length_b 9.375013
_cell_length_c 20.490653
_cell_angle_alpha 90.000000
_cell_angle_beta 149.255472
_cell_angle_gamma 90.000000
_cell_volume 864.715441
_symmetry_space_group_name_H-M "P 2"
_symmetry_group_IT_number 3
_symmetry_cell_setting 'monoclinic'
loop_
_space_group_symop_operation_xyz
x,y,z
-x,y,-z
loop_
_atom_site_type_symbol
_atom_site_label
_atom_site_fract_x
_atom_site_fract_y
_atom_site_fract_z
Si Si1 0.823144 0.370440 0.000000
Si Si2 0.343303 0.563927 0.761186
Si Si3 0.668588 0.548073 0.499999
Si Si4 0.139524 0.869319 0.228549
Si Si5 0.225365 0.869308 0.771474
Si Si6 0.701431 0.563932 0.761185
Si Si7 0.679501 0.063829 0.000010
Si Si8 0.333989 0.886328 0.499989
O O1 0.523143 0.455973 0.873565
O O2 0.734150 0.223735 0.999999
O O3 0.000000 0.336088 0.000000
O O4 0.028872 0.455986 0.126429
O O5 0.351054 0.714471 0.801054
O O6 0.495752 0.583727 0.747879
O O7 0.013146 0.500272 0.628115
O O8 0.500000 0.478730 0.500000
O O9 0.500692 0.500278 0.371885
O O10 0.653434 0.716557 0.500002
O O11 0.146876 0.714487 0.198957
O O12 0.479088 0.928106 0.366231
O O13 0.966091 0.855362 0.233044
O O14 0.989082 0.980544 0.123946
O O15 0.014217 0.928098 0.633797
O O16 0.493369 0.980515 0.876090
O O17 0.500000 0.061253 0.000000
O O18 0.500000 0.957549 0.500000
#
# Coordination Sequence:
#
# PCOD8044908 Si02
#       8
#     2   2   2   2   2   2   2   2
#     4  10  23  38  50  70 106 144 177 214 256 302
#     4  10  19  33  54  79 104 136 174 211 254 309
#     4   9  17  31  52  79 106 132 164 212 264 305
#     4   9  17  31  51  76 101 128 165 212 258 302
#     4   9  17  31  51  76 101 128 165 212 258 302
#     4  10  19  33  54  79 104 136 174 211 254 309
#     4  10  21  34  50  72 100 136 177 214 254 302
#     4   7  12  25  46  69  96 122 148 192 250 297
#
# _framework density 18.503198000000001
#
# number of rings (size 3 to 8) (size 9 to 14) (size 15 to 20)
#    0.000    2.750    0.000    3.375    0.000    3.000 
#    0.000    1.250    0.000    1.500    0.000    0.000 
#    0.000    0.000    0.000    0.000    0.000    0.000 
#
# Total GULP energy -198279.382507 kJ/mol
# GULP energy per Si atom -12392.461407 kJ/mol
# Density = 1.846108 g / cm^3
# Si number density = 18.503198 Si / 1000 Ang^3
#
#
#
# Elastic Constant Matrix: (Units=GPa)
#
#
# Indices 1 2 3 4 5 6 
#
# 1 49.0766 22.3554 37.5854 0.0000 -0.3231 0.0000
# 2 22.3554 80.6669 68.9526 0.0000 -0.4132 0.0000
# 3 37.5854 68.9526 195.3361 0.0000 -0.9703 0.0000
# 4 0.0000 0.0000 0.0000 4.9527 0.0000 0.1546
# 5 -0.3231 -0.4132 -0.9703 0.0000 24.0112 0.0000
# 6 0.0000 0.0000 0.0000 0.1546 0.0000 22.3573
#
#
#
# Elastic Compliance Matrix: (Units=1/GPa)
#
#
# Indices 1 2 3 4 5 6 
#
# 1 0.024766 -0.003996 -0.003354 0.000000 0.000129 0.000000
# 2 -0.003996 0.018398 -0.005725 0.000000 0.000032 0.000000
# 3 -0.003354 -0.005725 0.007787 0.000000 0.000171 0.000000
# 4 0.000000 0.000000 0.000000 0.201956 0.000000 -0.001397
# 5 0.000129 0.000032 0.000171 0.000000 0.041656 0.000000
# 6 0.000000 0.000000 0.000000 -0.001397 0.000000 0.044738
#
#
# Mechanical properties :
#
#
# Convention : Reuss Voigt Hill
#
# Bulk Modulus (GPa) = 40.32223 64.76292 52.54257
# Shear Modulus (GPa) = 13.37905 23.34330 18.36118
#
# Velocity S-wave (km/s) = 2.69191 3.55573 3.15354
# Velocity P-wave (km/s) = 5.61259 7.20656 6.45894
#
# Compressibility (1/GPa) = 0.02480022
#
# Stress axis : x y z
#
# Youngs Moduli (GPa) = 40.37769 54.35317 128.42404
#
# Poissons Ratio (x) = 0.21718 0.43077
# Poissons Ratio (y) = 0.16134 0.73529
# Poissons Ratio (z) = 0.13544 0.31120
#
# Static dielectric constant tensor:
#      x y z
#    x 3.277020 0.000000 -0.007340 
#    y 0.000000 3.024820 0.000000 
#    z -0.007340 0.000000 4.106880 
# 
# 
# High freq. dielectric constant tensor:
#      x y z
#    x 1.702020 0.000000 -0.000410 
#    y 0.000000 1.678170 0.000000 
#    z -0.000410 0.000000 1.748070 
# 
# From -- ./inp_files/15798.got.cif
#   From: 2010.03.12/outbox.cif.g09.slc.cpg/sg3_8_cif.got.tgz:15798.got - 2010.03.31 09:20:49.
