data_PCOD8044274
_publ_section_title
;
Structure prediction by ZEFSAII (Michael W. Deem and Ramdas Pophale) SiO2 
 PCOD8044274
Probable space group: P -1
;
_chemical_formula_sum "Si O2"
_cell_formula_units_Z 14
_cell_length_a 11.774917
_cell_length_b 17.998072
_cell_length_c 12.858510
_cell_angle_alpha 28.274311
_cell_angle_beta 41.343330
_cell_angle_gamma 30.518215
_cell_volume 655.147974
_symmetry_space_group_name_H-M "P -1"
_symmetry_group_IT_number 2
_symmetry_cell_setting 'triclinic'
loop_
_space_group_symop_operation_xyz
x,y,z
-x,-y,-z
loop_
_atom_site_type_symbol
_atom_site_label
_atom_site_fract_x
_atom_site_fract_y
_atom_site_fract_z
Si Si1 0.095787 0.269819 0.192141
Si Si2 0.543835 0.951798 0.150023
Si Si3 0.176758 0.069176 0.603297
Si Si4 0.810779 0.331649 0.130385
Si Si5 0.003910 0.149143 0.001641
Si Si6 0.645441 0.586021 0.631629
Si Si7 0.313766 0.279575 0.351059
O O1 0.108737 0.166704 0.416189
O O2 0.943915 0.245634 0.253214
O O3 0.337058 0.130867 0.141711
O O4 0.000000 0.500000 0.000000
O O5 0.610931 0.726341 0.386830
O O6 0.741814 0.946604 0.061354
O O7 0.500000 0.000000 0.000000
O O8 0.155955 0.220834 0.514180
O O9 0.435175 0.873598 0.673199
O O10 0.022459 0.015587 0.814383
O O11 0.571408 0.392322 0.230358
O O12 0.927473 0.188203 0.126623
O O13 0.800499 0.521307 0.884142
O O14 0.857548 0.345949 0.782956
O O15 0.685785 0.687178 0.569662
#
# Coordination Sequence:
#
# PCOD8044274 Si02
#       7
#     2   2   2   2   2   2   2
#     4  12  25  43  66  96 136 179 217 266 326 393
#     4  12  26  43  64  97 138 174 215 269 336 386
#     4  11  21  38  68  97 128 171 218 268 324 388
#     4  11  20  39  69  97 128 168 225 265 318 389
#     4  11  22  41  66 100 130 165 221 278 325 384
#     4  11  22  42  69 100 125 174 222 272 320 393
#     4  10  19  37  67  96 128 162 224 268 313 380
#
# _framework density 21.369219000000001
#
# number of rings (size 3 to 8) (size 9 to 14) (size 15 to 20)
#    0.000    0.857    7.143    1.286    2.000    1.143 
#    0.000    1.429    6.286    0.000    0.000    0.000 
#    0.000    0.000    0.000    0.000    0.000    0.000 
#
# Total GULP energy -173501.543268 kJ/mol
# GULP energy per Si atom -12392.967376 kJ/mol
# Density = 2.132058 g / cm^3
# Si number density = 21.369219 Si / 1000 Ang^3
#
#
#
# Elastic Constant Matrix: (Units=GPa)
#
#
# Indices 1 2 3 4 5 6 
#
# 1 127.9797 44.4754 22.0456 1.7844 -29.0182 -10.7631
# 2 44.4754 76.5301 24.2595 1.1776 -17.7228 -22.3166
# 3 22.0456 24.2595 263.0501 -65.8789 53.5893 -6.8987
# 4 1.7844 1.1776 -65.8789 36.4201 -23.5257 1.3930
# 5 -29.0182 -17.7228 53.5893 -23.5257 80.4082 -6.1301
# 6 -10.7631 -22.3166 -6.8987 1.3930 -6.1301 23.4637
#
#
#
# Elastic Compliance Matrix: (Units=1/GPa)
#
#
# Indices 1 2 3 4 5 6 
#
# 1 0.010531 -0.004563 -0.001257 -0.000350 0.003613 0.001086
# 2 -0.004563 0.025259 -0.003677 -0.003547 0.007080 0.022910
# 3 -0.001257 -0.003677 0.007983 0.012739 -0.003109 -0.003295
# 4 -0.000350 -0.003547 0.012739 0.054928 0.006571 -0.001333
# 5 0.003613 0.007080 -0.003109 0.006571 0.020239 0.012375
# 6 0.001086 0.022910 -0.003295 -0.001333 0.012375 0.067250
#
#
# Mechanical properties :
#
#
# Convention : Reuss Voigt Hill
#
# Bulk Modulus (GPa) = 40.35545 72.12454 56.24000
# Shear Modulus (GPa) = 23.42527 53.17704 38.30116
#
# Velocity S-wave (km/s) = 3.31451 4.99389 4.23821
# Velocity P-wave (km/s) = 5.79429 8.19004 7.09403
#
# Compressibility (1/GPa) = 0.02477980
#
# Stress axis : x y z
#
# Youngs Moduli (GPa) = 94.95341 39.58983 125.26124
#
# Poissons Ratio (x) = 0.18065 0.15745
# Poissons Ratio (y) = 0.43328 0.46057
# Poissons Ratio (z) = 0.11936 0.14557
#
# Static dielectric constant tensor:
#      x y z
#    x 4.034920 -0.137160 -0.235130 
#    y -0.137160 3.749710 -0.407560 
#    z -0.235130 -0.407560 3.901690 
# 
# 
# High freq. dielectric constant tensor:
#      x y z
#    x 1.854030 -0.012700 -0.002170 
#    y -0.012700 1.814490 -0.012980 
#    z -0.002170 -0.012980 1.852170 
# 
# From -- ./inp_files/153736.got.cif
#   From: 2010.06.25/outbox.cif.g09.slc.cpg/sg2_77_cif.got.tgz:153736.got - 2010.06.27 13:26:56.
