data_PCOD8044770
_publ_section_title
;
Structure prediction by ZEFSAII (Michael W. Deem and Ramdas Pophale) SiO2 
 PCOD8044770
Probable space group: P -1
;
_chemical_formula_sum "Si O2"
_cell_formula_units_Z 14
_cell_length_a 13.673522
_cell_length_b 9.060935
_cell_length_c 9.871000
_cell_angle_alpha 124.621828
_cell_angle_beta 99.552720
_cell_angle_gamma 44.376103
_cell_volume 639.643341
_symmetry_space_group_name_H-M "P -1"
_symmetry_group_IT_number 2
_symmetry_cell_setting 'triclinic'
loop_
_space_group_symop_operation_xyz
x,y,z
-x,-y,-z
loop_
_atom_site_type_symbol
_atom_site_label
_atom_site_fract_x
_atom_site_fract_y
_atom_site_fract_z
Si Si1 0.973814 0.782033 0.272389
Si Si2 0.164467 0.201149 0.000623
Si Si3 0.401771 0.005872 0.578630
Si Si4 0.701357 0.230370 0.634746
Si Si5 0.907082 0.363001 0.179032
Si Si6 0.487511 0.840524 0.823947
Si Si7 0.096959 0.913466 0.183582
O O1 0.127567 0.456290 0.173492
O O2 0.025626 0.893411 0.275169
O O3 0.868760 0.968545 0.472480
O O4 0.878281 0.776782 0.153662
O O5 0.072558 0.192230 0.068928
O O6 0.347221 0.921899 0.900243
O O7 0.222097 0.306592 0.680201
O O8 0.500000 0.000000 0.500000
O O9 0.410966 0.786229 0.415448
O O10 0.461149 0.934665 0.709934
O O11 0.630081 0.507387 0.694813
O O12 0.749022 0.198081 0.785837
O O13 0.845539 0.281863 0.033665
O O14 0.954084 0.239629 0.277302
O O15 0.500000 0.000000 0.000000
#
# Coordination Sequence:
#
# PCOD8044770 Si02
#       7
#     2   2   2   2   2   2   2
#     4  10  19  38  66  95 127 169 227 275 324 401
#     4  10  19  40  69  90 129 179 224 266 331 400
#     4  12  27  45  67 100 142 177 223 287 347 392
#     4  12  24  42  67 101 136 174 228 280 337 399
#     4  10  22  45  65  93 135 177 223 274 338 406
#     4  12  26  45  70 100 139 183 228 276 340 411
#     4  10  23  38  68  98 129 174 224 279 333 403
#
# _framework density 21.887195999999999
#
# number of rings (size 3 to 8) (size 9 to 14) (size 15 to 20)
#    0.000    1.143    2.857    4.286    2.000    4.000 
#    0.000    2.143    0.000    0.000    0.000    0.000 
#    0.000    0.000    0.000    0.000    0.000    0.000 
#
# Total GULP energy -173511.413673 kJ/mol
# GULP energy per Si atom -12393.672405 kJ/mol
# Density = 2.183738 g / cm^3
# Si number density = 21.887196 Si / 1000 Ang^3
#
#
#
# Elastic Constant Matrix: (Units=GPa)
#
#
# Indices 1 2 3 4 5 6 
#
# 1 94.8724 32.1946 50.0511 -17.5692 15.5539 2.2670
# 2 32.1946 124.4203 47.7986 -3.9492 19.8310 7.3283
# 3 50.0511 47.7986 81.8968 -2.5164 13.3588 0.4674
# 4 -17.5692 -3.9492 -2.5164 32.0850 -5.3322 3.7185
# 5 15.5539 19.8310 13.3588 -5.3322 36.1096 5.1378
# 6 2.2670 7.3283 0.4674 3.7185 5.1378 31.0517
#
#
#
# Elastic Compliance Matrix: (Units=1/GPa)
#
#
# Indices 1 2 3 4 5 6 
#
# 1 0.018111 0.000106 -0.010453 0.008926 -0.002410 -0.001860
# 2 0.000106 0.010958 -0.005855 0.000593 -0.003526 -0.001993
# 3 -0.010453 -0.005855 0.022103 -0.005296 -0.001627 0.002716
# 4 0.008926 0.000593 -0.005296 0.037068 0.004092 -0.005828
# 5 -0.002410 -0.003526 -0.001627 0.004092 0.032564 -0.004845
# 6 -0.001860 -0.001993 0.002716 -0.005828 -0.004845 0.034269
#
#
# Mechanical properties :
#
#
# Convention : Reuss Voigt Hill
#
# Bulk Modulus (GPa) = 53.28123 62.36422 57.82272
# Shear Modulus (GPa) = 25.80867 31.25894 28.53381
#
# Velocity S-wave (km/s) = 3.43763 3.78323 3.61456
# Velocity P-wave (km/s) = 6.33662 6.90211 6.62540
#
# Compressibility (1/GPa) = 0.01876834
#
# Stress axis : x y z
#
# Youngs Moduli (GPa) = 55.21380 91.26158 45.24193
#
# Poissons Ratio (x) = -0.00969 0.47290
# Poissons Ratio (y) = -0.00586 0.26491
# Poissons Ratio (z) = 0.57714 0.53437
#
# Static dielectric constant tensor:
#      x y z
#    x 3.969280 -0.070360 0.245620 
#    y -0.070360 4.016210 0.027730 
#    z 0.245620 0.027730 4.076510 
# 
# 
# High freq. dielectric constant tensor:
#      x y z
#    x 1.860610 0.003560 0.014930 
#    y 0.003560 1.859660 0.005280 
#    z 0.014930 0.005280 1.854950 
# 
# From -- ./inp_files/299525.got.cif
#   From: 2010.06.25/outbox.cif.g09.slc.cpg/sg2_150_cif.got.tgz:299525.got - 2010.06.27 13:26:56.
