data_PCOD8044118
_publ_section_title
;
Structure prediction by ZEFSAII (Michael W. Deem and Ramdas Pophale) SiO2 
 PCOD8044118
Probable space group: P -1
;
_chemical_formula_sum "Si O2"
_cell_formula_units_Z 16
_cell_length_a 14.246296
_cell_length_b 8.671145
_cell_length_c 14.145155
_cell_angle_alpha 62.115304
_cell_angle_beta 31.845786
_cell_angle_gamma 62.271944
_cell_volume 806.221110
_symmetry_space_group_name_H-M "P -1"
_symmetry_group_IT_number 2
_symmetry_cell_setting 'triclinic'
loop_
_space_group_symop_operation_xyz
x,y,z
-x,-y,-z
loop_
_atom_site_type_symbol
_atom_site_label
_atom_site_fract_x
_atom_site_fract_y
_atom_site_fract_z
Si Si1 0.894381 0.254925 0.920690
Si Si2 0.572420 0.052412 0.203486
Si Si3 0.763254 0.688024 0.090055
Si Si4 0.593680 0.930641 0.846273
Si Si5 0.105056 0.903796 0.525490
Si Si6 0.142870 0.692149 0.847184
Si Si7 0.194703 0.024950 0.610406
Si Si8 0.840362 0.654557 0.824558
O O1 0.856690 0.447537 0.850475
O O2 0.069587 0.154848 0.748879
O O3 0.719930 0.157572 0.091088
O O4 0.936419 0.266432 0.991979
O O5 0.545747 0.118176 0.098727
O O6 0.382815 0.096873 0.408253
O O7 0.640774 0.842118 0.207402
O O8 0.724570 0.495168 0.213449
O O9 0.729626 0.709041 0.000100
O O10 0.973818 0.691660 0.923679
O O11 0.735226 0.756275 0.797479
O O12 0.685259 0.094951 0.678123
O O13 0.500000 0.000000 0.000000
O O14 0.040802 0.712426 0.643891
O O15 0.077778 0.005133 0.620959
O O16 0.000000 0.000000 0.500000
O O17 0.251087 0.840579 0.670452
#
# Coordination Sequence:
#
# PCOD8044118 Si02
#       8
#     2   2   2   2   2   2   2   2
#     4  11  24  40  59  86 130 163 188 238 303 359
#     4  11  23  39  61  89 121 158 197 242 304 350
#     4  10  19  37  64  87 115 153 204 254 286 343
#     4  10  20  36  63  89 111 150 202 248 295 346
#     4   9  19  36  61  86 108 150 205 241 289 340
#     4  10  21  38  63  88 115 161 205 238 298 344
#     4  11  22  40  60  88 123 156 200 243 292 359
#     4  10  19  39  62  88 117 156 196 247 298 344
#
# _framework density 19.845670999999999
#
# number of rings (size 3 to 8) (size 9 to 14) (size 15 to 20)
#    0.000    1.750    3.750    0.375    1.750    1.500 
#    2.250    5.625    0.000    0.000    0.000    0.000 
#    0.000    0.000    0.000    0.000    0.000    0.000 
#
# Total GULP energy -198293.344756 kJ/mol
# GULP energy per Si atom -12393.334047 kJ/mol
# Density = 1.980050 g / cm^3
# Si number density = 19.845671 Si / 1000 Ang^3
#
#
#
# Elastic Constant Matrix: (Units=GPa)
#
#
# Indices 1 2 3 4 5 6 
#
# 1 66.9270 34.1628 14.9493 3.4480 7.8747 -3.3827
# 2 34.1628 119.4126 48.6465 -12.7659 -2.3575 7.2391
# 3 14.9493 48.6465 82.5383 -3.2245 1.9928 6.1467
# 4 3.4480 -12.7659 -3.2245 18.6158 -2.7615 3.4612
# 5 7.8747 -2.3575 1.9928 -2.7615 26.9981 -2.3530
# 6 -3.3827 7.2391 6.1467 3.4612 -2.3530 26.3981
#
#
#
# Elastic Compliance Matrix: (Units=1/GPa)
#
#
# Indices 1 2 3 4 5 6 
#
# 1 0.020483 -0.007549 0.000076 -0.011057 -0.007293 0.005477
# 2 -0.007549 0.014947 -0.006742 0.012061 0.004833 -0.004647
# 3 0.000076 -0.006742 0.016196 -0.001804 -0.002154 -0.001868
# 4 -0.011057 0.012061 -0.001804 0.067522 0.010251 -0.012244
# 5 -0.007293 0.004833 -0.002154 0.010251 0.040843 0.000538
# 6 0.005477 -0.004647 -0.001868 -0.012244 0.000538 0.041946
#
#
# Mechanical properties :
#
#
# Convention : Reuss Voigt Hill
#
# Bulk Modulus (GPa) = 43.11136 51.59945 47.35541
# Shear Modulus (GPa) = 20.99976 25.81036 23.40506
#
# Velocity S-wave (km/s) = 3.25646 3.61023 3.43790
# Velocity P-wave (km/s) = 5.99248 6.59054 6.29861
#
# Compressibility (1/GPa) = 0.02319574
#
# Stress axis : x y z
#
# Youngs Moduli (GPa) = 48.82195 66.90336 61.74388
#
# Poissons Ratio (x) = 0.50504 -0.00466
# Poissons Ratio (y) = 0.36854 0.41625
# Poissons Ratio (z) = -0.00369 0.45104
#
# Static dielectric constant tensor:
#      x y z
#    x 3.969310 -0.149770 0.033130 
#    y -0.149770 3.660480 -0.289010 
#    z 0.033130 -0.289010 3.676910 
# 
# 
# High freq. dielectric constant tensor:
#      x y z
#    x 1.785900 -0.006370 0.009830 
#    y -0.006370 1.757500 -0.014400 
#    z 0.009830 -0.014400 1.765750 
# 
# From -- ./inp_files/200275.got.cif
#   From: 2010.06.25/outbox.cif.g09.slc.cpg/sg2_101_cif.got.tgz:200275.got - 2010.06.27 13:26:56.
