data_PCOD8044052
_publ_section_title
;
Structure prediction by ZEFSAII (Michael W. Deem and Ramdas Pophale) SiO2 
 PCOD8044052
Probable space group: P -1
;
_chemical_formula_sum "Si O2"
_cell_formula_units_Z 12
_cell_length_a 9.958459
_cell_length_b 16.323396
_cell_length_c 8.878795
_cell_angle_alpha 65.107163
_cell_angle_beta 131.969019
_cell_angle_gamma 144.689879
_cell_volume 593.532373
_symmetry_space_group_name_H-M "P -1"
_symmetry_group_IT_number 2
_symmetry_cell_setting 'triclinic'
loop_
_space_group_symop_operation_xyz
x,y,z
-x,-y,-z
loop_
_atom_site_type_symbol
_atom_site_label
_atom_site_fract_x
_atom_site_fract_y
_atom_site_fract_z
Si Si1 0.679382 0.914653 0.837390
Si Si2 0.927692 0.770650 0.593755
Si Si3 0.413450 0.092618 0.566126
Si Si4 0.247055 0.900579 0.012995
Si Si5 0.390498 0.672003 0.285457
Si Si6 0.154268 0.659799 0.818656
O O1 0.588256 0.918024 0.605924
O O2 0.412459 0.743387 0.824021
O O3 0.704612 0.995093 0.927641
O O4 0.000000 0.000000 0.000000
O O5 0.593572 0.668845 0.379600
O O6 0.944686 0.781423 0.782430
O O7 0.012103 0.703321 0.655759
O O8 0.138587 0.927543 0.551709
O O9 0.413665 0.195902 0.546005
O O10 0.723255 0.174247 0.797684
O O11 0.500000 0.000000 0.000000
O O12 0.098422 0.514601 0.264707
O O13 0.296455 0.702754 0.057486
#
# Coordination Sequence:
#
# PCOD8044052 Si02
#       6
#     2   2   2   2   2   2
#     4  12  23  38  62  94 124 161 201 253 311 364
#     4  11  20  40  66  90 120 162 209 253 298 359
#     4  11  21  37  63  89 126 157 203 254 308 355
#     4  10  19  37  63  86 118 156 205 251 291 348
#     4  11  23  39  63  92 121 166 206 250 303 363
#     4  11  23  41  60  90 129 160 205 253 301 366
#
# _framework density 20.217936999999999
#
# number of rings (size 3 to 8) (size 9 to 14) (size 15 to 20)
#    0.000    1.000    5.000    4.500    0.000    0.667 
#    0.000    0.000    0.000    2.000    0.000    0.000 
#    0.000    0.000    0.000    0.000    0.000    0.000 
#
# Total GULP energy -148701.258354 kJ/mol
# GULP energy per Si atom -12391.771530 kJ/mol
# Density = 2.017192 g / cm^3
# Si number density = 20.217937 Si / 1000 Ang^3
#
#
#
# Elastic Constant Matrix: (Units=GPa)
#
#
# Indices 1 2 3 4 5 6 
#
# 1 106.0366 46.8209 41.9717 -7.9021 2.2415 9.6826
# 2 46.8209 110.8157 44.8880 -6.9032 4.0791 18.6857
# 3 41.9717 44.8880 83.6456 -10.9194 -0.8177 11.1973
# 4 -7.9021 -6.9032 -10.9194 19.9382 0.6026 1.0499
# 5 2.2415 4.0791 -0.8177 0.6026 42.7601 0.1325
# 6 9.6826 18.6857 11.1973 1.0499 0.1325 30.1993
#
#
#
# Elastic Compliance Matrix: (Units=1/GPa)
#
#
# Indices 1 2 3 4 5 6 
#
# 1 0.012846 -0.003498 -0.004316 0.001551 -0.000443 -0.000406
# 2 -0.003498 0.013389 -0.004565 0.001075 -0.001179 -0.005503
# 3 -0.004316 -0.004565 0.017786 0.006560 0.000917 -0.002619
# 4 0.001551 0.001075 0.006560 0.055049 -0.000817 -0.005505
# 5 -0.000443 -0.001179 0.000917 -0.000817 0.023550 0.000457
# 6 -0.000406 -0.005503 -0.002619 -0.005505 0.000457 0.037809
#
#
# Mechanical properties :
#
#
# Convention : Reuss Voigt Hill
#
# Bulk Modulus (GPa) = 51.90992 63.09545 57.50269
# Shear Modulus (GPa) = 26.09509 29.70069 27.89789
#
# Velocity S-wave (km/s) = 3.59652 3.83695 3.71867
# Velocity P-wave (km/s) = 6.55572 7.13477 6.85137
#
# Compressibility (1/GPa) = 0.01926414
#
# Stress axis : x y z
#
# Youngs Moduli (GPa) = 77.84783 74.68797 56.22246
#
# Poissons Ratio (x) = 0.26123 0.24266
# Poissons Ratio (y) = 0.27229 0.25664
# Poissons Ratio (z) = 0.33600 0.34093
#
# Static dielectric constant tensor:
#      x y z
#    x 3.277620 -0.027800 0.215590 
#    y -0.027800 3.622250 -0.008170 
#    z 0.215590 -0.008170 4.334040 
# 
# 
# High freq. dielectric constant tensor:
#      x y z
#    x 1.774200 -0.005240 0.008040 
#    y -0.005240 1.776840 -0.008380 
#    z 0.008040 -0.008380 1.804090 
# 
# From -- ./inp_files/184605.got.cif
#   From: 2010.06.25/outbox.cif.g09.slc.cpg/sg2_93_cif.got.tgz:184605.got - 2010.06.27 13:26:56.
