data_PCOD8044696
_publ_section_title
;
Structure prediction by ZEFSAII (Michael W. Deem and Ramdas Pophale) SiO2 
 PCOD8044696
Probable space group: P -1
;
_chemical_formula_sum "Si O2"
_cell_formula_units_Z 14
_cell_length_a 8.271603
_cell_length_b 7.860607
_cell_length_c 16.439080
_cell_angle_alpha 55.768137
_cell_angle_beta 54.948672
_cell_angle_gamma 50.702546
_cell_volume 642.939725
_symmetry_space_group_name_H-M "P -1"
_symmetry_group_IT_number 2
_symmetry_cell_setting 'triclinic'
loop_
_space_group_symop_operation_xyz
x,y,z
-x,-y,-z
loop_
_atom_site_type_symbol
_atom_site_label
_atom_site_fract_x
_atom_site_fract_y
_atom_site_fract_z
Si Si1 0.213021 0.982542 0.398157
Si Si2 0.286602 0.530510 0.005408
Si Si3 0.006602 0.333047 0.220851
Si Si4 0.513273 0.787867 0.679974
Si Si5 0.488029 0.435106 0.673872
Si Si6 0.069123 0.915399 0.841212
Si Si7 0.609256 0.324106 0.840961
O O1 0.337506 0.078814 0.398301
O O2 0.152290 0.124391 0.294451
O O3 0.369518 0.711327 0.404818
O O4 0.000000 0.000000 0.500000
O O5 0.141820 0.786395 0.941309
O O6 0.398475 0.342238 0.949997
O O7 0.500000 0.500000 0.000000
O O8 0.131996 0.483514 0.125064
O O9 0.769474 0.491954 0.288892
O O10 0.969623 0.247933 0.167395
O O11 0.517382 0.668654 0.621915
O O12 0.261983 0.967680 0.731900
O O13 0.602679 0.578248 0.776390
O O14 0.572489 0.265778 0.774498
O O15 0.844379 0.148296 0.857948
#
# Coordination Sequence:
#
# PCOD8044696 Si02
#       7
#     2   2   2   2   2   2   2
#     4  12  25  42  66  94 120 163 217 264 314 367
#     4  11  23  35  58  98 131 163 208 253 302 377
#     4  11  21  40  63  88 131 164 207 262 304 370
#     4   8  20  40  61  91 128 153 205 261 306 365
#     4   9  22  42  64  90 126 167 202 256 317 367
#     4  10  19  38  65  89 124 172 202 244 315 377
#     4   9  19  39  63  89 127 166 200 243 312 369
#
# _framework density 21.774979999999999
#
# number of rings (size 3 to 8) (size 9 to 14) (size 15 to 20)
#    0.857    1.143    2.857    2.143    0.000    5.714 
#    0.000    2.857    0.000    0.000    0.000    0.000 
#    0.000    0.000    0.000    0.000    0.000    0.000 
#
# Total GULP energy -173458.390416 kJ/mol
# GULP energy per Si atom -12389.885030 kJ/mol
# Density = 2.172542 g / cm^3
# Si number density = 21.774980 Si / 1000 Ang^3
#
#
#
# Elastic Constant Matrix: (Units=GPa)
#
#
# Indices 1 2 3 4 5 6 
#
# 1 91.5399 25.2259 13.0217 4.3348 -29.9558 3.3477
# 2 25.2259 96.6953 19.5311 28.3074 -16.6441 -14.8903
# 3 13.0217 19.5311 51.5229 17.7781 -28.2601 16.0114
# 4 4.3348 28.3074 17.7781 31.3278 -9.8412 0.7756
# 5 -29.9558 -16.6441 -28.2601 -9.8412 35.8982 0.2901
# 6 3.3477 -14.8903 16.0114 0.7756 0.2901 37.2577
#
#
#
# Elastic Compliance Matrix: (Units=1/GPa)
#
#
# Indices 1 2 3 4 5 6 
#
# 1 0.018594 -0.005664 0.012008 0.003287 0.023320 -0.009345
# 2 -0.005664 0.017938 -0.007708 -0.013281 -0.006210 0.011315
# 3 0.012008 -0.007708 0.061575 -0.012636 0.051705 -0.030761
# 4 0.003287 -0.013281 -0.012636 0.050853 0.000589 -0.001236
# 5 0.023320 -0.006210 0.051705 0.000589 0.085525 -0.027475
# 6 -0.009345 0.011315 -0.030761 -0.001236 -0.027475 0.045661
#
#
# Mechanical properties :
#
#
# Convention : Reuss Voigt Hill
#
# Bulk Modulus (GPa) = 10.48426 39.47951 24.98188
# Shear Modulus (GPa) = 15.88986 33.02869 24.45927
#
# Velocity S-wave (km/s) = 2.70428 3.89886 3.35516
# Velocity P-wave (km/s) = 3.81787 6.19985 5.14851
#
# Compressibility (1/GPa) = 0.09538110
#
# Stress axis : x y z
#
# Youngs Moduli (GPa) = 53.78023 55.74784 16.24027
#
# Poissons Ratio (x) = 0.31574 -0.19502
# Poissons Ratio (y) = 0.30459 0.12518
# Poissons Ratio (z) = -0.64581 0.42970
#
# Static dielectric constant tensor:
#      x y z
#    x 3.992930 -0.304900 0.011780 
#    y -0.304900 3.888010 0.292340 
#    z 0.011780 0.292340 3.811820 
# 
# 
# High freq. dielectric constant tensor:
#      x y z
#    x 1.857980 -0.020850 0.003740 
#    y -0.020850 1.844500 0.018510 
#    z 0.003740 0.018510 1.833070 
# 
# From -- ./inp_files/492225.got.cif
#   From: 2010.06.25/outbox.cif.g09.slc.cpg/sg2_247_cif.got.tgz:492225.got - 2010.06.27 13:26:56.
