data_PCOD8044086
_publ_section_title
;
Structure prediction by ZEFSAII (Michael W. Deem and Ramdas Pophale) SiO2 
 PCOD8044086
Probable space group: P -1
;
_chemical_formula_sum "Si O2"
_cell_formula_units_Z 14
_cell_length_a 9.125777
_cell_length_b 12.660055
_cell_length_c 9.620595
_cell_angle_alpha 60.562424
_cell_angle_beta 47.360578
_cell_angle_gamma 61.153013
_cell_volume 692.410346
_symmetry_space_group_name_H-M "P -1"
_symmetry_group_IT_number 2
_symmetry_cell_setting 'triclinic'
loop_
_space_group_symop_operation_xyz
x,y,z
-x,-y,-z
loop_
_atom_site_type_symbol
_atom_site_label
_atom_site_fract_x
_atom_site_fract_y
_atom_site_fract_z
Si Si1 0.244363 0.795295 0.204312
Si Si2 0.759893 0.225988 0.272394
Si Si3 0.968584 0.605353 0.065985
Si Si4 0.469985 0.987064 0.865294
Si Si5 0.123462 0.040637 0.520772
Si Si6 0.693660 0.386489 0.961410
Si Si7 0.533101 0.743796 0.315882
O O1 0.244424 0.675451 0.188053
O O2 0.415002 0.756979 0.237510
O O3 0.017529 0.843261 0.382875
O O4 0.301142 0.906279 0.002984
O O5 0.613975 0.289621 0.450586
O O6 0.808556 0.076203 0.342148
O O7 0.648332 0.280036 0.164724
O O8 0.972930 0.271963 0.118870
O O9 0.734768 0.633897 0.247403
O O10 0.116964 0.561256 0.132294
O O11 0.000000 0.500000 0.000000
O O12 0.679425 0.918886 0.695255
O O13 0.401149 0.128933 0.761847
O O14 0.500000 0.000000 0.000000
O O15 0.000000 0.000000 0.500000
O O16 0.500000 0.500000 0.000000
#
# Coordination Sequence:
#
# PCOD8044086 Si02
#       7
#     2   2   2   2   2   2   2
#     4  11  21  36  65  91 128 160 195 256 303 355
#     4   9  22  39  63  85 127 154 201 253 294 371
#     4  10  22  40  64  83 116 159 214 251 299 356
#     4   9  18  31  58  89 124 156 190 238 297 371
#     4  11  18  36  60 100 125 155 201 243 304 370
#     4  10  24  46  59  85 126 162 205 259 308 346
#     4  10  19  37  63  92 115 159 205 242 300 367
#
# _framework density 20.219225000000002
#
# number of rings (size 3 to 8) (size 9 to 14) (size 15 to 20)
#    0.857    1.143    4.286    1.714    2.000    1.143 
#    2.571    2.143    0.000    0.000    0.000    0.000 
#    0.000    0.000    0.000    0.000    0.000    0.000 
#
# Total GULP energy -173501.273852 kJ/mol
# GULP energy per Si atom -12392.948132 kJ/mol
# Density = 2.017321 g / cm^3
# Si number density = 20.219225 Si / 1000 Ang^3
#
#
#
# Elastic Constant Matrix: (Units=GPa)
#
#
# Indices 1 2 3 4 5 6 
#
# 1 89.3696 50.4817 28.6295 23.1383 3.4572 -13.8615
# 2 50.4817 104.0559 31.5453 44.3187 2.9735 -6.6782
# 3 28.6295 31.5453 93.0909 26.9050 -5.6794 -5.7052
# 4 23.1383 44.3187 26.9050 42.0173 -7.4801 0.6084
# 5 3.4572 2.9735 -5.6794 -7.4801 28.8084 0.7805
# 6 -13.8615 -6.6782 -5.7052 0.6084 0.7805 36.9347
#
#
#
# Elastic Compliance Matrix: (Units=1/GPa)
#
#
# Indices 1 2 3 4 5 6 
#
# 1 0.016811 -0.006458 -0.002430 -0.001373 -0.002318 0.004838
# 2 -0.006458 0.021954 0.000346 -0.021091 -0.006956 0.002094
# 3 -0.002430 0.000346 0.013731 -0.007673 0.000933 0.001378
# 4 -0.001373 -0.021091 -0.007673 0.054513 0.015166 -0.006732
# 5 -0.002318 -0.006956 0.000933 0.015166 0.039913 -0.003077
# 6 0.004838 0.002094 0.001378 -0.006732 -0.003077 0.029658
#
#
# Mechanical properties :
#
#
# Convention : Reuss Voigt Hill
#
# Bulk Modulus (GPa) = 28.23774 56.42548 42.33161
# Shear Modulus (GPa) = 24.33473 33.27606 28.80539
#
# Velocity S-wave (km/s) = 3.47298 4.06120 3.77855
# Velocity P-wave (km/s) = 5.48436 7.06814 6.32601
#
# Compressibility (1/GPa) = 0.03541360
#
# Stress axis : x y z
#
# Youngs Moduli (GPa) = 59.48458 45.54962 72.82591
#
# Poissons Ratio (x) = 0.29414 0.17696
# Poissons Ratio (y) = 0.38413 -0.02520
# Poissons Ratio (z) = 0.14455 -0.01576
#
# Static dielectric constant tensor:
#      x y z
#    x 3.446590 -0.081370 -0.123620 
#    y -0.081370 3.661100 0.058410 
#    z -0.123620 0.058410 3.931500 
# 
# 
# High freq. dielectric constant tensor:
#      x y z
#    x 1.764470 -0.009080 -0.002840 
#    y -0.009080 1.776500 0.016210 
#    z -0.002840 0.016210 1.793650 
# 
# From -- ./inp_files/175721.got.cif
#   From: 2010.06.25/outbox.cif.g09.slc.cpg/sg2_88_cif.got.tgz:175721.got - 2010.06.27 13:26:56.
