data_PCOD8044972
_publ_section_title
;
Structure prediction by ZEFSAII (Michael W. Deem and Ramdas Pophale) SiO2 
 PCOD8044972
Probable space group: P 2
;
_chemical_formula_sum "Si O2"
_cell_formula_units_Z 15
_cell_length_a 6.295875
_cell_length_b 7.721397
_cell_length_c 18.091570
_cell_angle_alpha 90.000000
_cell_angle_beta 49.684318
_cell_angle_gamma 90.000000
_cell_volume 670.599328
_symmetry_space_group_name_H-M "P 2"
_symmetry_group_IT_number 3
_symmetry_cell_setting 'monoclinic'
loop_
_space_group_symop_operation_xyz
x,y,z
-x,y,-z
loop_
_atom_site_type_symbol
_atom_site_label
_atom_site_fract_x
_atom_site_fract_y
_atom_site_fract_z
Si Si1 0.788175 0.646010 0.898097
Si Si2 0.026557 0.296139 0.870599
Si Si3 0.717074 0.898020 0.387567
Si Si4 0.167543 0.606942 0.280996
Si Si5 0.368657 0.795786 0.754670
Si Si6 0.464294 0.080179 0.849486
Si Si7 0.956919 0.255298 0.295163
Si Si8 0.500000 0.068138 0.000000
O O1 0.731913 0.592821 0.826515
O O2 0.915155 0.487037 0.916352
O O3 0.033898 0.789453 0.844398
O O4 0.500000 0.717562 0.000000
O O5 0.216200 0.218255 0.892902
O O6 0.179657 0.295045 0.755092
O O7 0.759423 0.181333 0.921064
O O8 0.500000 0.854797 0.500000
O O9 0.574125 0.848261 0.342257
O O10 0.987934 0.778611 0.338141
O O11 0.787479 0.103381 0.374659
O O12 0.451115 0.621390 0.267013
O O13 0.981062 0.433703 0.338565
O O14 0.487651 0.941968 0.780256
O O15 0.731568 0.197186 0.787304
O O16 0.437468 0.974247 0.934533
#
# Coordination Sequence:
#
# PCOD8044972 Si02
#       8
#     2   2   2   2   2   2   2   1
#     4  10  22  41  62  94 133 177 230 277 322 394
#     4  10  19  39  62  88 125 174 221 271 329 386
#     4  11  24  45  74 100 131 169 226 288 349 413
#     4  10  23  44  66  98 139 177 218 280 340 405
#     4  11  23  44  66  93 136 183 222 279 347 400
#     4  11  21  39  63  89 130 179 223 272 332 391
#     4  10  21  41  69  94 132 170 218 277 334 403
#     4  10  22  34  56  92 126 170 228 270 304 388
#
# _framework density 22.368051000000001
#
# number of rings (size 3 to 8) (size 9 to 14) (size 15 to 20)
#    0.000    1.600    3.333    1.200    0.000    1.600 
#    9.600    0.000    2.933    0.800    0.000    0.000 
#    0.000    0.000    0.000    0.000    0.000    0.000 
#
# Total GULP energy -185837.693722 kJ/mol
# GULP energy per Si atom -12389.179581 kJ/mol
# Density = 2.231714 g / cm^3
# Si number density = 22.368051 Si / 1000 Ang^3
#
#
#
# Elastic Constant Matrix: (Units=GPa)
#
#
# Indices 1 2 3 4 5 6 
#
# 1 124.0353 36.9644 51.6549 0.0000 11.1581 0.0000
# 2 36.9644 93.2393 28.8768 0.0000 9.5317 0.0000
# 3 51.6549 28.8768 112.1933 0.0000 9.8495 0.0000
# 4 0.0000 0.0000 0.0000 24.3538 0.0000 -5.8400
# 5 11.1581 9.5317 9.8495 0.0000 23.0019 0.0000
# 6 0.0000 0.0000 0.0000 -5.8400 0.0000 39.1165
#
#
#
# Elastic Compliance Matrix: (Units=1/GPa)
#
#
# Indices 1 2 3 4 5 6 
#
# 1 0.010787 -0.002784 -0.004044 0.000000 -0.002348 0.000000
# 2 -0.002784 0.012681 -0.001703 0.000000 -0.003175 0.000000
# 3 -0.004044 -0.001703 0.011408 0.000000 -0.002218 0.000000
# 4 0.000000 0.000000 0.000000 0.042586 0.000000 0.006358
# 5 -0.002348 -0.003175 -0.002218 0.000000 0.046879 0.000000
# 6 0.000000 0.000000 0.000000 0.006358 0.000000 0.026514
#
#
# Mechanical properties :
#
#
# Convention : Reuss Voigt Hill
#
# Bulk Modulus (GPa) = 56.13677 62.71780 59.42729
# Shear Modulus (GPa) = 28.75954 31.42588 30.09271
#
# Velocity S-wave (km/s) = 3.58961 3.75233 3.67187
# Velocity P-wave (km/s) = 6.50629 6.84640 6.67851
#
# Compressibility (1/GPa) = 0.01781364
#
# Stress axis : x y z
#
# Youngs Moduli (GPa) = 92.70255 78.85839 87.65705
#
# Poissons Ratio (x) = 0.21955 0.35447
# Poissons Ratio (y) = 0.25810 0.14931
# Poissons Ratio (z) = 0.37487 0.13432
#
# Static dielectric constant tensor:
#      x y z
#    x 4.493680 0.000000 0.120330 
#    y 0.000000 4.196420 0.000000 
#    z 0.120330 0.000000 3.680750 
# 
# 
# High freq. dielectric constant tensor:
#      x y z
#    x 1.893710 0.000000 0.000870 
#    y 0.000000 1.889330 0.000000 
#    z 0.000870 0.000000 1.840220 
# 
# From -- ./inp_files/14680.got.cif
#   From: 2010.03.12/outbox.cif.g09.slc.cpg/sg3_8_cif.got.tgz:14680.got - 2010.03.31 09:20:49.
