data_PCOD8044778
_publ_section_title
;
Structure prediction by ZEFSAII (Michael W. Deem and Ramdas Pophale) SiO2 
 PCOD8044778
Probable space group: P -1
;
_chemical_formula_sum "Si O2"
_cell_formula_units_Z 16
_cell_length_a 5.179364
_cell_length_b 8.484970
_cell_length_c 19.203778
_cell_angle_alpha 76.071360
_cell_angle_beta 92.406010
_cell_angle_gamma 62.582237
_cell_volume 715.588089
_symmetry_space_group_name_H-M "P -1"
_symmetry_group_IT_number 2
_symmetry_cell_setting 'triclinic'
loop_
_space_group_symop_operation_xyz
x,y,z
-x,-y,-z
loop_
_atom_site_type_symbol
_atom_site_label
_atom_site_fract_x
_atom_site_fract_y
_atom_site_fract_z
Si Si1 0.852720 0.424458 0.951395
Si Si2 0.272452 0.323117 0.596302
Si Si3 0.734260 0.233801 0.091195
Si Si4 0.723948 0.017717 0.804941
Si Si5 0.649729 0.900997 0.083448
Si Si6 0.147893 0.094651 0.711755
Si Si7 0.133866 0.968153 0.403357
Si Si8 0.973798 0.274548 0.468310
O O1 0.563645 0.599129 0.896414
O O2 0.076101 0.303522 0.905734
O O3 0.761406 0.290274 0.006601
O O4 0.000000 0.500000 0.000000
O O5 0.069739 0.297123 0.655946
O O6 0.593773 0.148561 0.633018
O O7 0.200199 0.299277 0.517952
O O8 0.263316 0.520544 0.583529
O O9 0.738196 0.037568 0.110370
O O10 0.016711 0.191387 0.148033
O O11 0.573441 0.126717 0.864153
O O12 0.473436 0.998648 0.760057
O O13 0.883911 0.121329 0.757815
O O14 0.500000 0.000000 0.000000
O O15 0.151603 0.973594 0.656183
O O16 0.178832 0.825733 0.481781
O O17 0.134665 0.148919 0.415796
#
# Coordination Sequence:
#
# PCOD8044778 Si02
#       8
#     2   2   2   2   2   2   2   2
#     4  11  23  40  66 109 131 161 215 289 351 408
#     4  10  19  38  66  97 142 173 224 281 337 390
#     4  11  23  40  71  97 138 167 218 281 345 419
#     4  12  24  44  72  94 132 190 232 272 350 416
#     4  12  23  41  73 101 130 173 222 285 352 403
#     4  11  24  42  70  92 134 194 229 270 337 415
#     4  10  19  38  67  98 139 173 227 280 335 392
#     4   9  20  34  66 111 126 176 223 284 336 391
#
# _framework density 22.359231000000001
#
# number of rings (size 3 to 8) (size 9 to 14) (size 15 to 20)
#    0.000    1.250    5.000    1.125    0.000    0.000 
#    0.000    0.000   13.750    0.000    0.000    0.000 
#    0.000    0.000    0.000    0.000    0.000    0.000 
#
# Total GULP energy -198211.589619 kJ/mol
# GULP energy per Si atom -12388.224351 kJ/mol
# Density = 2.230834 g / cm^3
# Si number density = 22.359231 Si / 1000 Ang^3
#
#
#
# Elastic Constant Matrix: (Units=GPa)
#
#
# Indices 1 2 3 4 5 6 
#
# 1 121.2062 67.1884 56.6519 0.9725 -1.2184 -19.1672
# 2 67.1884 170.8952 60.8137 5.4015 -0.9469 -18.0950
# 3 56.6519 60.8137 122.8256 1.2634 -1.3527 -10.9604
# 4 0.9725 5.4015 1.2634 7.0492 -8.3079 -0.8418
# 5 -1.2184 -0.9469 -1.3527 -8.3079 42.8775 -3.0031
# 6 -19.1672 -18.0950 -10.9604 -0.8418 -3.0031 38.0784
#
#
#
# Elastic Compliance Matrix: (Units=1/GPa)
#
#
# Indices 1 2 3 4 5 6 
#
# 1 0.012391 -0.003209 -0.003811 0.003088 0.001023 0.003764
# 2 -0.003209 0.008347 -0.002472 -0.006753 -0.001195 0.001396
# 3 -0.003811 -0.002472 0.011133 0.000880 0.000370 0.000160
# 4 0.003088 -0.006753 0.000880 0.191253 0.037428 0.005779
# 5 0.001023 -0.001195 0.000370 0.037428 0.030821 0.003312
# 6 0.003764 0.001396 0.000160 0.005779 0.003312 0.029255
#
#
# Mechanical properties :
#
#
# Convention : Reuss Voigt Hill
#
# Bulk Modulus (GPa) = 77.59519 87.13721 82.36620
# Shear Modulus (GPa) = 16.31426 32.95254 24.63340
#
# Velocity S-wave (km/s) = 2.70412 3.84315 3.32280
# Velocity P-wave (km/s) = 6.67300 7.66480 7.18603
#
# Compressibility (1/GPa) = 0.01288740
#
# Stress axis : x y z
#
# Youngs Moduli (GPa) = 80.70184 119.79675 89.82497
#
# Poissons Ratio (x) = 0.38441 0.34234
# Poissons Ratio (y) = 0.25896 0.22205
# Poissons Ratio (z) = 0.30757 0.29615
#
# Static dielectric constant tensor:
#      x y z
#    x 4.272580 -0.096790 -0.060160 
#    y -0.096790 4.003560 -0.037560 
#    z -0.060160 -0.037560 4.267680 
# 
# 
# High freq. dielectric constant tensor:
#      x y z
#    x 1.890900 -0.000250 -0.001530 
#    y -0.000250 1.844950 -0.007940 
#    z -0.001530 -0.007940 1.879580 
# 
# From -- ./inp_files/581950.got.cif
#   From: 2010.06.25/outbox.cif.g09.slc.cpg/sg2_291_cif.got.tgz:581950.got - 2010.06.27 13:26:56.
