data_PCOD8044515
_publ_section_title
;
Structure prediction by ZEFSAII (Michael W. Deem and Ramdas Pophale) SiO2 
 PCOD8044515
Probable space group: P -1
;
_chemical_formula_sum "Si O2"
_cell_formula_units_Z 16
_cell_length_a 8.165327
_cell_length_b 8.550785
_cell_length_c 26.240341
_cell_angle_alpha 65.133408
_cell_angle_beta 31.912745
_cell_angle_gamma 51.114446
_cell_volume 725.222021
_symmetry_space_group_name_H-M "P -1"
_symmetry_group_IT_number 2
_symmetry_cell_setting 'triclinic'
loop_
_space_group_symop_operation_xyz
x,y,z
-x,-y,-z
loop_
_atom_site_type_symbol
_atom_site_label
_atom_site_fract_x
_atom_site_fract_y
_atom_site_fract_z
Si Si1 0.958650 0.553247 0.638347
Si Si2 0.216654 0.607696 0.804276
Si Si3 0.134149 0.158834 0.043579
Si Si4 0.805215 0.895639 0.359426
Si Si5 0.648035 0.019138 0.840111
Si Si6 0.482046 0.100376 0.218440
Si Si7 0.001286 0.193501 0.492142
Si Si8 0.339065 0.783195 0.321762
O O1 0.579477 0.613888 0.702267
O O2 0.856840 0.669972 0.703925
O O3 0.136374 0.634445 0.540068
O O4 0.222314 0.304126 0.612417
O O5 0.323270 0.394407 0.778735
O O6 0.100207 0.621143 0.893142
O O7 0.874574 0.805603 0.840205
O O8 0.882745 0.065619 0.120487
O O9 0.500000 0.000000 0.000000
O O10 0.258479 0.181190 0.951158
O O11 0.937203 0.903387 0.381115
O O12 0.413697 0.105555 0.418437
O O13 0.128290 0.871572 0.240136
O O14 0.575561 0.950095 0.815687
O O15 0.462433 0.938731 0.282513
O O16 0.707550 0.307185 0.600907
O O17 0.000000 0.000000 0.500000
#
# Coordination Sequence:
#
# PCOD8044515 Si02
#       8
#     2   2   2   2   2   2   2   2
#     4  10  21  41  59  86 124 160 199 247 292 357
#     4   9  19  38  61  87 118 159 200 245 298 360
#     4   9  19  36  63  86 118 161 200 241 301 363
#     4  10  23  40  61  88 122 159 204 245 298 354
#     4  10  19  38  62  89 118 159 196 251 304 349
#     4  10  20  38  57  88 127 149 199 255 292 352
#     4  12  23  39  62  89 121 164 201 244 301 353
#     4  10  22  40  60  87 124 156 198 253 297 350
#
# _framework density 22.06221
#
# number of rings (size 3 to 8) (size 9 to 14) (size 15 to 20)
#    0.000    2.000    2.500    0.750    0.000    3.500 
#    4.500   13.750    0.000    0.000    0.000    0.000 
#    0.000    0.000    0.000    0.000    0.000    0.000 
#
# Total GULP energy -198261.764941 kJ/mol
# GULP energy per Si atom -12391.360309 kJ/mol
# Density = 2.201200 g / cm^3
# Si number density = 22.062210 Si / 1000 Ang^3
#
#
#
# Elastic Constant Matrix: (Units=GPa)
#
#
# Indices 1 2 3 4 5 6 
#
# 1 50.2714 17.2961 27.7776 -0.9237 17.1132 9.6971
# 2 17.2961 82.8951 21.0510 -6.5059 7.8266 13.2986
# 3 27.7776 21.0510 106.1633 -6.1311 24.8656 11.9597
# 4 -0.9237 -6.5059 -6.1311 29.0664 4.1363 1.5272
# 5 17.1132 7.8266 24.8656 4.1363 33.3250 -0.1165
# 6 9.6971 13.2986 11.9597 1.5272 -0.1165 33.4280
#
#
#
# Elastic Compliance Matrix: (Units=1/GPa)
#
#
# Indices 1 2 3 4 5 6 
#
# 1 0.027681 -0.002821 -0.003296 0.001467 -0.011296 -0.005835
# 2 -0.002821 0.014040 -0.000978 0.003307 -0.001546 -0.004574
# 3 -0.003296 -0.000978 0.013031 0.003789 -0.008284 -0.003519
# 4 0.001467 0.003307 0.003789 0.037530 -0.009032 -0.004843
# 5 -0.011296 -0.001546 -0.008284 -0.009032 0.043499 0.007420
# 6 -0.005835 -0.004574 -0.003519 -0.004843 0.007420 0.034933
#
#
# Mechanical properties :
#
#
# Convention : Reuss Voigt Hill
#
# Bulk Modulus (GPa) = 24.65258 41.28660 32.96959
# Shear Modulus (GPa) = 25.19850 30.71088 27.95469
#
# Velocity S-wave (km/s) = 3.38325 3.73502 3.56348
# Velocity P-wave (km/s) = 5.14395 6.11186 5.64867
#
# Compressibility (1/GPa) = 0.04056371
#
# Stress axis : x y z
#
# Youngs Moduli (GPa) = 36.12522 71.22753 76.73941
#
# Poissons Ratio (x) = 0.20094 0.25291
# Poissons Ratio (y) = 0.10191 0.07501
# Poissons Ratio (z) = 0.11906 0.06963
#
# Static dielectric constant tensor:
#      x y z
#    x 4.075230 0.203500 0.200480 
#    y 0.203500 3.946010 -0.078040 
#    z 0.200480 -0.078040 4.736390 
# 
# 
# High freq. dielectric constant tensor:
#      x y z
#    x 1.866060 0.011850 0.011250 
#    y 0.011850 1.846830 -0.001050 
#    z 0.011250 -0.001050 1.877270 
# 
# From -- ./inp_files/203582.got.cif
#   From: 2010.06.25/outbox.cif.g09.slc.cpg/sg2_102_cif.got.tgz:203582.got - 2010.06.27 13:26:56.
