data_PCOD8044212
_publ_section_title
;
Structure prediction by ZEFSAII (Michael W. Deem and Ramdas Pophale) SiO2 
 PCOD8044212
Probable space group: P -1
;
_chemical_formula_sum "Si O2"
_cell_formula_units_Z 12
_cell_length_a 11.693535
_cell_length_b 7.331505
_cell_length_c 13.709151
_cell_angle_alpha 91.222975
_cell_angle_beta 140.893371
_cell_angle_gamma 61.020807
_cell_volume 496.869846
_symmetry_space_group_name_H-M "P -1"
_symmetry_group_IT_number 2
_symmetry_cell_setting 'triclinic'
loop_
_space_group_symop_operation_xyz
x,y,z
-x,-y,-z
loop_
_atom_site_type_symbol
_atom_site_label
_atom_site_fract_x
_atom_site_fract_y
_atom_site_fract_z
Si Si1 0.260138 0.347336 0.067622
Si Si2 0.831333 0.158953 0.986015
Si Si3 0.832059 0.863484 0.451489
Si Si4 0.763662 0.207477 0.580042
Si Si5 0.742419 0.529399 0.423220
Si Si6 0.680764 0.716274 0.671999
O O1 0.282954 0.246619 0.191366
O O2 0.546339 0.080190 0.204088
O O3 0.255359 0.568076 0.068044
O O4 0.992101 0.469995 0.836060
O O5 0.565734 0.230869 0.815247
O O6 0.999277 0.976805 0.188551
O O7 0.000000 0.000000 0.000000
O O8 0.865774 0.638355 0.520436
O O9 0.076610 0.718571 0.537461
O O10 0.833176 0.012242 0.538456
O O11 0.742776 0.427279 0.526711
O O12 0.472132 0.365292 0.436092
O O13 0.500000 0.000000 0.500000
#
# Coordination Sequence:
#
# PCOD8044212 Si02
#       6
#     2   2   2   2   2   2
#     4  10  22  42  67  99 137 181 223 285 343 409
#     4  12  27  44  67 107 142 178 237 290 342 412
#     4  10  24  49  74  98 141 185 230 289 352 405
#     4  11  24  46  72 101 136 192 225 281 354 415
#     4  11  25  49  70 105 141 177 236 296 336 415
#     4  10  19  37  65  97 131 176 223 266 345 405
#
# _framework density 24.151194
#
# number of rings (size 3 to 8) (size 9 to 14) (size 15 to 20)
#    0.000    1.333    5.000    0.500    7.000    1.333 
#    9.000    1.667    0.000    0.000    0.000    0.000 
#    0.000    0.000    0.000    0.000    0.000    0.000 
#
# Total GULP energy -148787.486376 kJ/mol
# GULP energy per Si atom -12398.957198 kJ/mol
# Density = 2.409622 g / cm^3
# Si number density = 24.151194 Si / 1000 Ang^3
#
#
#
# Elastic Constant Matrix: (Units=GPa)
#
#
# Indices 1 2 3 4 5 6 
#
# 1 108.2832 12.7660 69.1959 -8.7719 12.5731 15.2454
# 2 12.7660 41.0946 14.2350 -9.1262 0.8272 16.5595
# 3 69.1959 14.2350 187.0409 -25.0236 1.6183 -10.9104
# 4 -8.7719 -9.1262 -25.0236 29.2910 0.1432 5.3401
# 5 12.5731 0.8272 1.6183 0.1432 48.6814 -16.9665
# 6 15.2454 16.5595 -10.9104 5.3401 -16.9665 38.7442
#
#
#
# Elastic Compliance Matrix: (Units=1/GPa)
#
#
# Indices 1 2 3 4 5 6 
#
# 1 0.016410 0.003915 -0.006722 0.003069 -0.009124 -0.014442
# 2 0.003915 0.038141 -0.003808 0.014502 -0.010461 -0.025495
# 3 -0.006722 -0.003808 0.008960 0.002918 0.004393 0.008317
# 4 0.003069 0.014502 0.002918 0.044973 -0.006755 -0.015741
# 5 -0.009124 -0.010461 0.004393 -0.006755 0.031290 0.023932
# 6 -0.014442 -0.025495 0.008317 -0.015741 0.023932 0.057381
#
#
# Mechanical properties :
#
#
# Convention : Reuss Voigt Hill
#
# Bulk Modulus (GPa) = 19.88714 58.75695 39.32204
# Shear Modulus (GPa) = 22.01223 39.35811 30.68517
#
# Velocity S-wave (km/s) = 3.02227 4.04128 3.56834
# Velocity P-wave (km/s) = 4.52008 6.79393 5.77012
#
# Compressibility (1/GPa) = 0.05028376
#
# Stress axis : x y z
#
# Youngs Moduli (GPa) = 60.93768 26.21838 111.60135
#
# Poissons Ratio (x) = -0.10266 0.75016
# Poissons Ratio (y) = -0.23860 0.42495
# Poissons Ratio (z) = 0.40961 0.09983
#
# Static dielectric constant tensor:
#      x y z
#    x 4.423120 0.051300 0.378970 
#    y 0.051300 4.338370 -0.112630 
#    z 0.378970 -0.112630 4.905220 
# 
# 
# High freq. dielectric constant tensor:
#      x y z
#    x 1.951840 0.020040 0.014210 
#    y 0.020040 1.962850 -0.013800 
#    z 0.014210 -0.013800 1.969270 
# 
# From -- ./inp_files/513148.got.cif
#   From: 2010.06.25/outbox.cif.g09.slc.cpg/sg2_257_cif.got.tgz:513148.got - 2010.06.27 13:26:56.
