data_PCOD8044080
_publ_section_title
;
Structure prediction by ZEFSAII (Michael W. Deem and Ramdas Pophale) SiO2 
 PCOD8044080
Probable space group: P -1
;
_chemical_formula_sum "Si O2"
_cell_formula_units_Z 16
_cell_length_a 11.049640
_cell_length_b 7.519003
_cell_length_c 12.073967
_cell_angle_alpha 106.262347
_cell_angle_beta 61.685992
_cell_angle_gamma 72.565597
_cell_volume 728.399468
_symmetry_space_group_name_H-M "P -1"
_symmetry_group_IT_number 2
_symmetry_cell_setting 'triclinic'
loop_
_space_group_symop_operation_xyz
x,y,z
-x,-y,-z
loop_
_atom_site_type_symbol
_atom_site_label
_atom_site_fract_x
_atom_site_fract_y
_atom_site_fract_z
Si Si1 0.094906 0.819835 0.337440
Si Si2 0.983983 0.495346 0.378025
Si Si3 0.270714 0.352050 0.936888
Si Si4 0.028777 0.852434 0.132547
Si Si5 0.204599 0.074234 0.088427
Si Si6 0.689725 0.949816 0.312890
Si Si7 0.650554 0.845661 0.553415
Si Si8 0.612411 0.159322 0.819479
O O1 0.067820 0.619615 0.313731
O O2 0.030966 0.936649 0.268912
O O3 0.283887 0.734797 0.245817
O O4 0.000000 0.000000 0.500000
O O5 0.066696 0.258093 0.254751
O O6 0.000000 0.500000 0.500000
O O7 0.796683 0.601818 0.449151
O O8 0.299383 0.265223 0.782689
O O9 0.427262 0.347678 0.917377
O O10 0.118112 0.591897 0.043959
O O11 0.252793 0.179076 0.988324
O O12 0.841890 0.958742 0.200776
O O13 0.126466 0.944614 0.039185
O O14 0.351461 0.923132 0.082135
O O15 0.683235 0.950254 0.448853
O O16 0.517984 0.149415 0.381148
O O17 0.655446 0.960973 0.683867
#
# Coordination Sequence:
#
# PCOD8044080 Si02
#       8
#     2   2   2   2   2   2   2   2
#     4  11  19  35  62  90 121 156 201 250 307 367
#     4  12  20  36  61  92 127 155 196 253 315 361
#     4  11  23  41  61  87 124 166 206 249 303 364
#     4  11  22  40  61  86 120 165 207 249 302 360
#     4  11  23  38  61  92 122 161 201 256 307 368
#     4  10  21  38  64  87 120 163 212 247 297 368
#     4  10  19  37  63  91 120 159 201 256 307 359
#     4  10  21  38  61  92 123 157 201 254 312 361
#
# _framework density 21.965971
#
# number of rings (size 3 to 8) (size 9 to 14) (size 15 to 20)
#    0.000    1.250    5.000    1.500    0.000    2.500 
#    2.250    0.625    0.000    1.500    0.000    0.000 
#    0.000    0.000    0.000    0.000    0.000    0.000 
#
# Total GULP energy -198253.967641 kJ/mol
# GULP energy per Si atom -12390.872978 kJ/mol
# Density = 2.191598 g / cm^3
# Si number density = 21.965971 Si / 1000 Ang^3
#
#
#
# Elastic Constant Matrix: (Units=GPa)
#
#
# Indices 1 2 3 4 5 6 
#
# 1 117.0025 22.0951 29.2519 -1.4008 -42.2110 5.6206
# 2 22.0951 66.1187 16.5891 -5.8741 -17.4579 12.3641
# 3 29.2519 16.5891 70.4670 -4.9256 -20.4853 1.3030
# 4 -1.4008 -5.8741 -4.9256 25.0331 0.6428 -4.2494
# 5 -42.2110 -17.4579 -20.4853 0.6428 53.0595 0.0697
# 6 5.6206 12.3641 1.3030 -4.2494 0.0697 22.5197
#
#
#
# Elastic Compliance Matrix: (Units=1/GPa)
#
#
# Indices 1 2 3 4 5 6 
#
# 1 0.012630 -0.000818 -0.002478 -0.000660 0.008833 -0.002712
# 2 -0.000818 0.019309 -0.002497 0.002200 0.004725 -0.009852
# 3 -0.002478 -0.002497 0.017068 0.002795 0.003761 0.001518
# 4 -0.000660 0.002200 0.002795 0.042100 0.000759 0.006737
# 5 0.008833 0.004725 0.003761 0.000759 0.028878 -0.004963
# 6 -0.002712 -0.009852 0.001518 0.006737 -0.004963 0.051691
#
#
# Mechanical properties :
#
#
# Convention : Reuss Voigt Hill
#
# Bulk Modulus (GPa) = 26.72259 43.27336 34.99798
# Shear Modulus (GPa) = 25.54452 32.49929 29.02191
#
# Velocity S-wave (km/s) = 3.41385 3.85064 3.63880
# Velocity P-wave (km/s) = 5.26603 6.28592 5.79844
#
# Compressibility (1/GPa) = 0.03742153
#
# Stress axis : x y z
#
# Youngs Moduli (GPa) = 79.17600 51.78803 58.58851
#
# Poissons Ratio (x) = 0.04236 0.14521
# Poissons Ratio (y) = 0.06477 0.14628
# Poissons Ratio (z) = 0.19623 0.12930
#
# Static dielectric constant tensor:
#      x y z
#    x 4.333220 -0.014900 -0.046590 
#    y -0.014900 3.687580 -0.073580 
#    z -0.046590 -0.073580 4.016990 
# 
# 
# High freq. dielectric constant tensor:
#      x y z
#    x 1.881190 -0.004750 -0.003830 
#    y -0.004750 1.825130 -0.006470 
#    z -0.003830 -0.006470 1.875460 
# 
# From -- ./inp_files/513437.got.cif
#   From: 2010.06.25/outbox.cif.g09.slc.cpg/sg2_257_cif.got.tgz:513437.got - 2010.06.27 13:26:56.
