data_PCOD8044582
_publ_section_title
;
Structure prediction by ZEFSAII (Michael W. Deem and Ramdas Pophale) SiO2 
 PCOD8044582
Probable space group: P -1
;
_chemical_formula_sum "Si O2"
_cell_formula_units_Z 14
_cell_length_a 9.290004
_cell_length_b 8.801694
_cell_length_c 20.968953
_cell_angle_alpha 45.111246
_cell_angle_beta 41.340046
_cell_angle_gamma 75.144623
_cell_volume 651.091537
_symmetry_space_group_name_H-M "P -1"
_symmetry_group_IT_number 2
_symmetry_cell_setting 'triclinic'
loop_
_space_group_symop_operation_xyz
x,y,z
-x,-y,-z
loop_
_atom_site_type_symbol
_atom_site_label
_atom_site_fract_x
_atom_site_fract_y
_atom_site_fract_z
Si Si1 0.831565 0.115306 0.039821
Si Si2 0.016823 0.913942 0.876370
Si Si3 0.022392 0.417636 0.240299
Si Si4 0.570750 0.285201 0.878522
Si Si5 0.229143 0.729280 0.311771
Si Si6 0.094779 0.048458 0.667607
Si Si7 0.627208 0.499889 0.392433
O O1 0.884914 0.211010 0.068924
O O2 0.514788 0.891749 0.203426
O O3 0.923370 0.373444 0.893040
O O4 0.000000 0.000000 0.000000
O O5 0.696694 0.734753 0.038232
O O6 0.116960 0.949168 0.759834
O O7 0.140512 0.194194 0.789263
O O8 0.279670 0.525044 0.167294
O O9 0.776221 0.354916 0.385703
O O10 0.944431 0.149079 0.314782
O O11 0.755010 0.401316 0.719569
O O12 0.500000 0.000000 0.000000
O O13 0.000000 0.500000 0.500000
O O14 0.152763 0.929288 0.258402
O O15 0.375956 0.336830 0.474938
O O16 0.500000 0.500000 0.500000
#
# Coordination Sequence:
#
# PCOD8044582 Si02
#       7
#     2   2   2   2   2   2   2
#     4  12  22  40  67  98 132 173 233 278 325 396
#     4  11  21  39  68  93 126 179 227 271 324 406
#     4  12  24  40  68  97 136 176 220 283 334 402
#     4  12  19  43  67  96 125 180 232 264 328 407
#     4  12  25  42  69 101 132 176 232 281 327 404
#     4  11  25  41  63 101 136 172 222 279 349 390
#     4  10  19  38  63  91 125 170 222 265 320 400
#
# _framework density 21.502352999999999
#
# number of rings (size 3 to 8) (size 9 to 14) (size 15 to 20)
#    0.000    0.571    7.143    2.143    0.000    4.000 
#    0.000    0.714    0.000    0.000    0.000    0.000 
#    0.000    0.000    0.000    0.000    0.000    0.000 
#
# Total GULP energy -173490.904299 kJ/mol
# GULP energy per Si atom -12392.207450 kJ/mol
# Density = 2.145341 g / cm^3
# Si number density = 21.502353 Si / 1000 Ang^3
#
#
#
# Elastic Constant Matrix: (Units=GPa)
#
#
# Indices 1 2 3 4 5 6 
#
# 1 143.3575 39.6537 49.5381 -0.3192 -24.2852 24.5231
# 2 39.6537 108.7130 48.0349 -5.1659 -17.7220 26.8075
# 3 49.5381 48.0349 110.6366 3.9855 -23.8451 8.5998
# 4 -0.3192 -5.1659 3.9855 26.8814 6.5479 -5.8807
# 5 -24.2852 -17.7220 -23.8451 6.5479 48.6673 3.0710
# 6 24.5231 26.8075 8.5998 -5.8807 3.0710 32.2084
#
#
#
# Elastic Compliance Matrix: (Units=1/GPa)
#
#
# Indices 1 2 3 4 5 6 
#
# 1 0.010018 0.000184 -0.002925 -0.002201 0.004423 -0.007823
# 2 0.000184 0.014675 -0.004745 0.000094 0.003819 -0.011434
# 3 -0.002925 -0.004745 0.013181 -0.003414 0.003624 0.001688
# 4 -0.002201 0.000094 -0.003414 0.042355 -0.009137 0.011113
# 5 0.004423 0.003819 0.003624 -0.009137 0.027897 -0.011842
# 6 -0.007823 -0.011434 0.001688 0.011113 -0.011842 0.049228
#
#
# Mechanical properties :
#
#
# Convention : Reuss Voigt Hill
#
# Bulk Modulus (GPa) = 43.66520 70.79562 57.23041
# Shear Modulus (GPa) = 27.78387 36.58345 32.18366
#
# Velocity S-wave (km/s) = 3.59852 4.12924 3.87298
# Velocity P-wave (km/s) = 6.13328 7.46527 6.83181
#
# Compressibility (1/GPa) = 0.02290153
#
# Stress axis : x y z
#
# Youngs Moduli (GPa) = 99.82072 68.14473 75.86617
#
# Poissons Ratio (x) = -0.01251 0.22189
# Poissons Ratio (y) = -0.01833 0.35998
# Poissons Ratio (z) = 0.29195 0.32334
#
# Static dielectric constant tensor:
#      x y z
#    x 4.400290 0.215950 -0.232700 
#    y 0.215950 3.706380 0.032730 
#    z -0.232700 0.032730 4.421070 
# 
# 
# High freq. dielectric constant tensor:
#      x y z
#    x 1.851830 0.020510 -0.016150 
#    y 0.020510 1.816570 0.017130 
#    z -0.016150 0.017130 1.853820 
# 
# From -- ./inp_files/329361.got.cif
#   From: 2010.06.25/outbox.cif.g09.slc.cpg/sg2_165_cif.got.tgz:329361.got - 2010.06.27 13:26:56.
