data_PCOD8044918
_publ_section_title
;
Structure prediction by ZEFSAII (Michael W. Deem and Ramdas Pophale) SiO2 
 PCOD8044918
Probable space group: P 2
;
_chemical_formula_sum "Si O2"
_cell_formula_units_Z 12
_cell_length_a 14.885521
_cell_length_b 9.335072
_cell_length_c 7.902065
_cell_angle_alpha 90.000000
_cell_angle_beta 37.222966
_cell_angle_gamma 90.000000
_cell_volume 664.230880
_symmetry_space_group_name_H-M "P 2"
_symmetry_group_IT_number 3
_symmetry_cell_setting 'monoclinic'
loop_
_space_group_symop_operation_xyz
x,y,z
-x,y,-z
loop_
_atom_site_type_symbol
_atom_site_label
_atom_site_fract_x
_atom_site_fract_y
_atom_site_fract_z
Si Si1 0.328673 0.745870 0.445706
Si Si2 0.328672 0.745869 0.068277
Si Si3 0.323604 0.233565 0.764595
Si Si4 0.676158 0.556878 0.235763
Si Si5 0.161082 0.007754 0.193826
Si Si6 0.838918 0.007756 0.177074
O O1 0.310044 0.679595 0.284935
O O2 0.266597 0.635601 0.679489
O O3 0.238643 0.894232 0.583835
O O4 0.500000 0.781705 0.227819
O O5 0.238641 0.894231 0.200237
O O6 0.266597 0.635601 0.020718
O O7 0.500000 0.226218 0.500000
O O8 0.262309 0.395457 0.856538
O O9 0.260495 0.152575 0.691496
O O10 0.260495 0.152574 0.027020
O O11 0.500000 0.552373 0.500000
O O12 0.000000 0.053388 0.500000
O O13 0.146799 0.934604 0.029800
O O14 0.000000 0.053389 0.000000
#
# Coordination Sequence:
#
# PCOD8044918 Si02
#       6
#     2   2   2   2   2   2
#     4  10  19  33  58  87 113 145 191 238 281 333
#     4  10  19  33  58  87 113 145 191 238 281 333
#     4   9  19  35  61  81 110 157 190 227 285 336
#     4   9  17  35  57  83 115 149 186 235 282 336
#     4  10  20  34  56  80 116 146 191 231 280 329
#     4  10  20  34  56  80 116 146 191 231 280 329
#
# _framework density 18.066008
#
# number of rings (size 3 to 8) (size 9 to 14) (size 15 to 20)
#    1.000    1.333    1.667    2.000    0.000    0.000 
#    0.000    5.000    0.000    8.000    0.000    0.000 
#    0.000    0.000    0.000    0.000    0.000    0.000 
#
# Total GULP energy -148703.685675 kJ/mol
# GULP energy per Si atom -12391.973806 kJ/mol
# Density = 1.802489 g / cm^3
# Si number density = 18.066008 Si / 1000 Ang^3
#
#
#
# Elastic Constant Matrix: (Units=GPa)
#
#
# Indices 1 2 3 4 5 6 
#
# 1 91.8200 48.7568 35.2900 0.0000 8.8046 0.0000
# 2 48.7568 141.7448 47.8746 0.0000 2.9570 0.0000
# 3 35.2900 47.8746 87.3320 0.0000 6.2388 0.0000
# 4 0.0000 0.0000 0.0000 10.7207 0.0000 3.6269
# 5 8.8046 2.9570 6.2388 0.0000 35.5514 0.0000
# 6 0.0000 0.0000 0.0000 3.6269 0.0000 11.8029
#
#
#
# Elastic Compliance Matrix: (Units=1/GPa)
#
#
# Indices 1 2 3 4 5 6 
#
# 1 0.014513 -0.003706 -0.003644 0.000000 -0.002647 0.000000
# 2 -0.003706 0.009605 -0.003824 0.000000 0.000790 0.000000
# 3 -0.003644 -0.003824 0.015122 0.000000 -0.001433 0.000000
# 4 0.000000 0.000000 0.000000 0.104100 0.000000 -0.031988
# 5 -0.002647 0.000790 -0.001433 0.000000 0.028969 0.000000
# 6 0.000000 0.000000 0.000000 -0.031988 0.000000 0.094555
#
#
# Mechanical properties :
#
#
# Convention : Reuss Voigt Hill
#
# Bulk Modulus (GPa) = 59.20168 64.97106 62.08637
# Shear Modulus (GPa) = 16.95820 24.21334 20.58577
#
# Velocity S-wave (km/s) = 3.06711 3.66494 3.37927
# Velocity P-wave (km/s) = 6.73674 7.34509 7.04748
#
# Compressibility (1/GPa) = 0.01689141
#
# Stress axis : x y z
#
# Youngs Moduli (GPa) = 68.90300 104.11335 66.13000
#
# Poissons Ratio (x) = 0.38587 0.24097
# Poissons Ratio (y) = 0.25537 0.25289
# Poissons Ratio (z) = 0.25107 0.39814
#
# Static dielectric constant tensor:
#      x y z
#    x 3.229600 0.000000 0.117990 
#    y 0.000000 3.232300 0.000000 
#    z 0.117990 0.000000 3.194380 
# 
# 
# High freq. dielectric constant tensor:
#      x y z
#    x 1.692290 0.000000 0.006080 
#    y 0.000000 1.681630 0.000000 
#    z 0.006080 0.000000 1.690480 
# 
# From -- ./inp_files/8993.got.cif
#   From: 2010.03.12/outbox.cif.g09.slc.cpg/sg3_5_cif.got.tgz:8993.got - 2010.03.31 09:20:49.
