data_PCOD8044376
_publ_section_title
;
Structure prediction by ZEFSAII (Michael W. Deem and Ramdas Pophale) SiO2 
 PCOD8044376
Probable space group: P -1
;
_chemical_formula_sum "Si O2"
_cell_formula_units_Z 16
_cell_length_a 11.194901
_cell_length_b 23.665428
_cell_length_c 11.987404
_cell_angle_alpha 150.781948
_cell_angle_beta 69.278525
_cell_angle_gamma 129.092404
_cell_volume 1028.662471
_symmetry_space_group_name_H-M "P -1"
_symmetry_group_IT_number 2
_symmetry_cell_setting 'triclinic'
loop_
_space_group_symop_operation_xyz
x,y,z
-x,-y,-z
loop_
_atom_site_type_symbol
_atom_site_label
_atom_site_fract_x
_atom_site_fract_y
_atom_site_fract_z
Si Si1 0.425503 0.044054 0.453262
Si Si2 0.204824 0.515148 0.527102
Si Si3 0.971345 0.364902 0.916920
Si Si4 0.317137 0.991131 0.648745
Si Si5 0.412385 0.288287 0.217306
Si Si6 0.311406 0.461392 0.606501
Si Si7 0.728655 0.400537 0.947968
Si Si8 0.085122 0.695324 0.914244
O O1 0.400057 0.062238 0.621614
O O2 0.534105 0.222027 0.670489
O O3 0.544983 0.005835 0.329095
O O4 0.231789 0.893168 0.202013
O O5 0.413148 0.626385 0.614975
O O6 0.170333 0.434530 0.521821
O O7 0.177038 0.634548 0.743754
O O8 0.073100 0.371299 0.233257
O O9 0.832989 0.379057 0.958047
O O10 0.883069 0.189585 0.599813
O O11 0.000234 0.375395 0.057295
O O12 0.164276 0.507209 0.041986
O O13 0.299546 0.099607 0.908803
O O14 0.285514 0.305063 0.344352
O O15 0.485284 0.381204 0.232908
O O16 0.290061 0.492211 0.792711
#
# Coordination Sequence:
#
# PCOD8044376 Si02
#       8
#     2   2   2   2   2   2   2   2
#     4   9  14  23  44  62  88 107 140 184 206 252
#     4   9  16  26  43  66  92 108 144 171 214 257
#     4   9  18  26  44  65  93 109 133 187 218 255
#     4   9  14  25  41  66  84 107 147 177 214 238
#     4   9  15  27  45  65  86 111 144 182 204 247
#     4   9  16  27  45  66  85 113 143 178 208 250
#     4  10  16  28  43  67  88 111 142 175 225 247
#     4  10  16  26  44  68  89 113 134 179 215 255
#
# _framework density 15.554178
#
# number of rings (size 3 to 8) (size 9 to 14) (size 15 to 20)
#    0.750    2.000    3.750    0.750    0.000    0.000 
#    0.000    0.625    0.000   12.000    0.000    0.000 
#    0.000    0.000    0.000    0.000    0.000    0.000 
#
# Total GULP energy -198238.080767 kJ/mol
# GULP energy per Si atom -12389.880048 kJ/mol
# Density = 1.551878 g / cm^3
# Si number density = 15.554178 Si / 1000 Ang^3
#
#
#
# Elastic Constant Matrix: (Units=GPa)
#
#
# Indices 1 2 3 4 5 6 
#
# 1 40.5817 10.6691 33.7959 -3.7879 -3.3265 1.9457
# 2 10.6691 63.7039 42.6067 9.4473 5.3728 4.4819
# 3 33.7959 42.6067 115.1338 0.5102 -3.9980 3.6494
# 4 -3.7879 9.4473 0.5102 21.5363 3.0586 -0.6675
# 5 -3.3265 5.3728 -3.9980 3.0586 27.9969 -6.0783
# 6 1.9457 4.4819 3.6494 -0.6675 -6.0783 10.3574
#
#
#
# Elastic Compliance Matrix: (Units=1/GPa)
#
#
# Indices 1 2 3 4 5 6 
#
# 1 0.033523 0.000028 -0.009772 0.005839 0.001609 -0.001546
# 2 0.000028 0.024706 -0.008972 -0.009921 -0.007690 -0.012687
# 3 -0.009772 -0.008972 0.014898 0.001506 0.003033 0.002346
# 4 0.005839 -0.009921 0.001506 0.052188 -0.001810 0.004967
# 5 0.001609 -0.007690 0.003033 -0.001810 0.044025 0.027676
# 6 -0.001546 -0.012687 0.002346 0.004967 0.027676 0.118066
#
#
# Mechanical properties :
#
#
# Convention : Reuss Voigt Hill
#
# Bulk Modulus (GPa) = 28.01376 43.72919 35.87147
# Shear Modulus (GPa) = 14.84847 20.80130 17.82489
#
# Velocity S-wave (km/s) = 3.09306 3.66094 3.38892
# Velocity P-wave (km/s) = 5.55028 6.78566 6.19882
#
# Compressibility (1/GPa) = 0.03569674
#
# Stress axis : x y z
#
# Youngs Moduli (GPa) = 29.83029 40.47584 67.12128
#
# Poissons Ratio (x) = -0.00115 0.65589
# Poissons Ratio (y) = -0.00085 0.60221
# Poissons Ratio (z) = 0.29149 0.36315
#
# Static dielectric constant tensor:
#      x y z
#    x 2.703450 0.052780 -0.040890 
#    y 0.052780 2.632240 0.035840 
#    z -0.040890 0.035840 3.058080 
# 
# 
# High freq. dielectric constant tensor:
#      x y z
#    x 1.558470 0.009850 -0.008500 
#    y 0.009850 1.559200 -0.000740 
#    z -0.008500 -0.000740 1.604780 
# 
# From -- ./inp_files/331120.got.cif
#   From: 2010.06.25/outbox.cif.g09.slc.cpg/sg2_166_cif.got.tgz:331120.got - 2010.06.27 13:26:56.
