data_PCOD8044196
_publ_section_title
;
Structure prediction by ZEFSAII (Michael W. Deem and Ramdas Pophale) SiO2 
 PCOD8044196
Probable space group: P -1
;
_chemical_formula_sum "Si O2"
_cell_formula_units_Z 16
_cell_length_a 9.362810
_cell_length_b 23.401475
_cell_length_c 9.501571
_cell_angle_alpha 28.836631
_cell_angle_beta 133.585056
_cell_angle_gamma 121.721056
_cell_volume 708.884453
_symmetry_space_group_name_H-M "P -1"
_symmetry_group_IT_number 2
_symmetry_cell_setting 'triclinic'
loop_
_space_group_symop_operation_xyz
x,y,z
-x,-y,-z
loop_
_atom_site_type_symbol
_atom_site_label
_atom_site_fract_x
_atom_site_fract_y
_atom_site_fract_z
Si Si1 0.132871 0.729837 0.299926
Si Si2 0.698446 0.756830 0.837476
Si Si3 0.350311 0.488126 0.550119
Si Si4 0.641170 0.892823 0.243039
Si Si5 0.989735 0.004279 0.316104
Si Si6 0.423893 0.993586 0.617334
Si Si7 0.073932 0.492691 0.907544
Si Si8 0.494702 0.604178 0.659804
O O1 0.145441 0.617959 0.657070
O O2 0.338610 0.721880 0.364739
O O3 0.101074 0.855425 0.094583
O O4 0.941230 0.729411 0.070012
O O5 0.642573 0.771814 0.599404
O O6 0.604520 0.877516 0.602101
O O7 0.601776 0.650578 0.062559
O O8 0.500000 0.500000 0.500000
O O9 0.388370 0.577360 0.503188
O O10 0.112510 0.528308 0.266016
O O11 0.865399 0.917397 0.345114
O O12 0.500000 0.000000 0.000000
O O13 0.565866 0.889563 0.037078
O O14 0.216661 0.954374 0.528337
O O15 0.000000 0.000000 0.500000
O O16 0.500000 0.000000 0.500000
O O17 0.273854 0.384092 0.244928
O O18 0.000000 0.500000 0.000000
O O19 0.500000 0.500000 0.000000
#
# Coordination Sequence:
#
# PCOD8044196 Si02
#       8
#     2   2   2   2   2   2   2   2
#     4   9  20  37  64  88 123 160 204 255 304 356
#     4   9  20  39  64  87 121 168 208 245 314 369
#     4  11  22  41  62  86 130 167 199 255 311 365
#     4  10  19  37  65  92 114 162 211 246 302 375
#     4  11  19  40  65  89 123 167 202 247 312 369
#     4  10  22  40  62  95 129 156 202 264 306 361
#     4  10  20  38  61  87 122 157 205 249 304 367
#     4  10  22  39  61  92 118 158 209 256 299 360
#
# _framework density 22.570674
#
# number of rings (size 3 to 8) (size 9 to 14) (size 15 to 20)
#    0.000    2.000    5.000    0.000    0.000    9.000 
#    2.250    1.250   11.000    0.000    0.000    0.000 
#    0.000    0.000    0.000    0.000    0.000    0.000 
#
# Total GULP energy -198261.645366 kJ/mol
# GULP energy per Si atom -12391.352835 kJ/mol
# Density = 2.251930 g / cm^3
# Si number density = 22.570674 Si / 1000 Ang^3
#
#
#
# Elastic Constant Matrix: (Units=GPa)
#
#
# Indices 1 2 3 4 5 6 
#
# 1 177.9815 46.3300 66.0071 28.0747 -5.0448 14.4251
# 2 46.3300 78.6843 35.0081 24.5785 -0.9846 16.9815
# 3 66.0071 35.0081 111.5514 18.2841 -14.4248 4.1416
# 4 28.0747 24.5785 18.2841 33.1802 2.6195 -6.7382
# 5 -5.0448 -0.9846 -14.4248 2.6195 36.2813 8.6394
# 6 14.4251 16.9815 4.1416 -6.7382 8.6394 36.2193
#
#
#
# Elastic Compliance Matrix: (Units=1/GPa)
#
#
# Indices 1 2 3 4 5 6 
#
# 1 0.008311 -0.000858 -0.003511 -0.005300 0.001008 -0.003733
# 2 -0.000858 0.023449 -0.002714 -0.018495 0.004300 -0.014808
# 3 -0.003511 -0.002714 0.012981 -0.002656 0.004905 -0.000478
# 4 -0.005300 -0.018495 -0.002656 0.055685 -0.012110 0.024334
# 5 0.001008 0.004300 0.004905 -0.012110 0.033810 -0.013296
# 6 -0.003733 -0.014808 -0.000478 0.024334 -0.013296 0.043792
#
#
# Mechanical properties :
#
#
# Convention : Reuss Voigt Hill
#
# Bulk Modulus (GPa) = 32.70649 73.65641 53.18145
# Shear Modulus (GPa) = 24.70544 35.86096 30.28320
#
# Velocity S-wave (km/s) = 3.31204 3.99034 3.66690
# Velocity P-wave (km/s) = 5.39891 7.34404 6.44528
#
# Compressibility (1/GPa) = 0.03057497
#
# Stress axis : x y z
#
# Youngs Moduli (GPa) = 120.32195 42.64636 77.03500
#
# Poissons Ratio (x) = 0.03659 0.27047
# Poissons Ratio (y) = 0.10322 0.20907
# Poissons Ratio (z) = 0.42245 0.11574
#
# Static dielectric constant tensor:
#      x y z
#    x 4.322770 0.190020 0.000640 
#    y 0.190020 4.008320 0.122300 
#    z 0.000640 0.122300 4.714340 
# 
# 
# High freq. dielectric constant tensor:
#      x y z
#    x 1.887610 0.024510 0.002680 
#    y 0.024510 1.875720 0.016230 
#    z 0.002680 0.016230 1.899800 
# 
# From -- ./inp_files/225866.got.cif
#   From: 2010.06.25/outbox.cif.g09.slc.cpg/sg2_113_cif.got.tgz:225866.got - 2010.06.27 13:26:56.
