data_PCOD8044403
_publ_section_title
;
Structure prediction by ZEFSAII (Michael W. Deem and Ramdas Pophale) SiO2 
 PCOD8044403
Probable space group: P -1
;
_chemical_formula_sum "Si O2"
_cell_formula_units_Z 16
_cell_length_a 23.705712
_cell_length_b 18.387060
_cell_length_c 11.801967
_cell_angle_alpha 41.567078
_cell_angle_beta 149.386013
_cell_angle_gamma 161.942678
_cell_volume 727.687938
_symmetry_space_group_name_H-M "P -1"
_symmetry_group_IT_number 2
_symmetry_cell_setting 'triclinic'
loop_
_space_group_symop_operation_xyz
x,y,z
-x,-y,-z
loop_
_atom_site_type_symbol
_atom_site_label
_atom_site_fract_x
_atom_site_fract_y
_atom_site_fract_z
Si Si1 0.977203 0.678554 0.855513
Si Si2 0.330140 0.817382 0.776831
Si Si3 0.466119 0.268016 0.011647
Si Si4 0.887517 0.365418 0.146527
Si Si5 0.937845 0.627136 0.265489
Si Si6 0.763724 0.850592 0.466122
Si Si7 0.217495 0.378644 0.197520
Si Si8 0.820966 0.587291 0.446018
O O1 0.806274 0.581296 0.771569
O O2 0.803435 0.546838 0.596543
O O3 0.014245 0.581362 0.047422
O O4 0.278928 0.993384 0.007416
O O5 0.238693 0.699263 0.881574
O O6 0.215027 0.625266 0.717276
O O7 0.232731 0.855900 0.544145
O O8 0.642324 0.093372 0.970738
O O9 0.766056 0.531746 0.175143
O O10 0.537841 0.365160 0.153983
O O11 0.313807 0.216165 0.724886
O O12 0.090493 0.447925 0.420147
O O13 0.972102 0.732572 0.091005
O O14 0.515457 0.654468 0.345459
O O15 0.876508 0.831147 0.706602
O O16 0.979252 0.132002 0.549922
#
# Coordination Sequence:
#
# PCOD8044403 Si02
#       8
#     2   2   2   2   2   2   2   2
#     4  11  24  38  59  90 123 157 197 244 295 359
#     4  10  20  33  61  90 115 157 197 248 296 346
#     4  10  22  40  59  85 123 163 196 239 299 357
#     4  11  21  37  57  89 124 155 197 245 294 353
#     4  10  19  38  60  87 119 155 203 244 294 352
#     4   9  22  43  67  85 117 155 201 255 296 342
#     4  10  20  41  66  89 116 153 200 254 298 342
#     4  11  23  41  60  87 126 164 195 239 299 358
#
# _framework density 21.987447
#
# number of rings (size 3 to 8) (size 9 to 14) (size 15 to 20)
#    0.000    1.750    2.500    2.625    1.750    3.500 
#    0.000   10.625    0.000    0.000    0.000    0.000 
#    0.000    0.000    0.000    0.000    0.000    0.000 
#
# Total GULP energy -198235.638887 kJ/mol
# GULP energy per Si atom -12389.727430 kJ/mol
# Density = 2.193740 g / cm^3
# Si number density = 21.987447 Si / 1000 Ang^3
#
#
#
# Elastic Constant Matrix: (Units=GPa)
#
#
# Indices 1 2 3 4 5 6 
#
# 1 60.4703 18.1474 16.5024 -3.0800 -16.5115 -2.9197
# 2 18.1474 95.5712 44.1012 -25.3893 -16.3713 -4.8110
# 3 16.5024 44.1012 108.1519 -13.9126 -22.5767 -2.7491
# 4 -3.0800 -25.3893 -13.9126 37.4558 -6.9418 -2.6133
# 5 -16.5115 -16.3713 -22.5767 -6.9418 32.6055 -2.3104
# 6 -2.9197 -4.8110 -2.7491 -2.6133 -2.3104 24.6726
#
#
#
# Elastic Compliance Matrix: (Units=1/GPa)
#
#
# Indices 1 2 3 4 5 6 
#
# 1 0.020055 -0.000979 0.000067 0.003230 0.010649 0.003529
# 2 -0.000979 0.017228 -0.003312 0.012357 0.008847 0.005012
# 3 0.000067 -0.003312 0.012936 0.004261 0.008380 0.002039
# 4 0.003230 0.012357 0.004261 0.041344 0.020269 0.009544
# 5 0.010649 0.008847 0.008380 0.020269 0.051393 0.010878
# 6 0.003529 0.005012 0.002039 0.009544 0.010878 0.044182
#
#
# Mechanical properties :
#
#
# Convention : Reuss Voigt Hill
#
# Bulk Modulus (GPa) = 23.94012 46.85506 35.39759
# Shear Modulus (GPa) = 23.86523 31.30961 27.58742
#
# Velocity S-wave (km/s) = 3.29812 3.77766 3.54600
# Velocity P-wave (km/s) = 5.04135 6.35482 5.73581
#
# Compressibility (1/GPa) = 0.04177088
#
# Stress axis : x y z
#
# Youngs Moduli (GPa) = 49.86263 58.04496 77.30543
#
# Poissons Ratio (x) = 0.05685 -0.00521
# Poissons Ratio (y) = 0.04884 0.25603
# Poissons Ratio (z) = -0.00336 0.19224
#
# Static dielectric constant tensor:
#      x y z
#    x 3.868940 0.057060 -0.199650 
#    y 0.057060 3.807920 -0.152160 
#    z -0.199650 -0.152160 4.180600 
# 
# 
# High freq. dielectric constant tensor:
#      x y z
#    x 1.857630 0.005750 -0.016680 
#    y 0.005750 1.852940 -0.011260 
#    z -0.016680 -0.011260 1.867470 
# 
# From -- ./inp_files/272280.got.cif
#   From: 2010.06.25/outbox.cif.g09.slc.cpg/sg2_137_cif.got.tgz:272280.got - 2010.06.27 13:26:56.
