data_PCOD8044083
_publ_section_title
;
Structure prediction by ZEFSAII (Michael W. Deem and Ramdas Pophale) SiO2 
 PCOD8044083
Probable space group: P -1
;
_chemical_formula_sum "Si O2"
_cell_formula_units_Z 16
_cell_length_a 9.692282
_cell_length_b 15.276375
_cell_length_c 13.266325
_cell_angle_alpha 134.169701
_cell_angle_beta 59.466465
_cell_angle_gamma 144.955657
_cell_volume 799.668909
_symmetry_space_group_name_H-M "P -1"
_symmetry_group_IT_number 2
_symmetry_cell_setting 'triclinic'
loop_
_space_group_symop_operation_xyz
x,y,z
-x,-y,-z
loop_
_atom_site_type_symbol
_atom_site_label
_atom_site_fract_x
_atom_site_fract_y
_atom_site_fract_z
Si Si1 0.966580 0.991416 0.886534
Si Si2 0.055760 0.508031 0.101877
Si Si3 0.578653 0.820458 0.633616
Si Si4 0.249369 0.290593 0.410997
Si Si5 0.587248 0.168889 0.494666
Si Si6 0.423980 0.113886 0.729219
Si Si7 0.240324 0.896127 0.053716
Si Si8 0.086668 0.449717 0.620603
O O1 0.203948 0.077061 0.809853
O O2 0.891789 0.086501 0.961475
O O3 0.755496 0.780516 0.753245
O O4 0.000000 0.000000 0.000000
O O5 0.343940 0.680712 0.149638
O O6 0.927970 0.535862 0.242458
O O7 0.000000 0.500000 0.000000
O O8 0.953325 0.320526 0.028061
O O9 0.770259 0.819888 0.580241
O O10 0.525261 0.804581 0.523928
O O11 0.330329 0.648437 0.647482
O O12 0.703565 0.011960 0.785667
O O13 0.500000 0.500000 0.500000
O O14 0.049219 0.281875 0.485532
O O15 0.421197 0.090869 0.591766
O O16 0.857439 0.373452 0.584362
O O17 0.587324 0.030780 0.338035
O O18 0.500000 0.000000 0.000000
#
# Coordination Sequence:
#
# PCOD8044083 Si02
#       8
#     2   2   2   2   2   2   2   2
#     4  11  25  43  69  94 132 179 215 277 330 389
#     4  11  24  40  65  95 131 178 214 268 335 389
#     4  10  20  36  64  89 124 162 213 268 318 375
#     4   9  20  39  58  95 125 155 213 270 320 380
#     4  10  20  38  63  89 123 168 205 268 321 383
#     4  10  23  41  61  91 133 164 222 258 330 393
#     4  11  24  43  64  95 132 168 226 266 315 402
#     4  10  19  37  63  91 124 160 217 268 310 389
#
# _framework density 20.008279999999999
#
# number of rings (size 3 to 8) (size 9 to 14) (size 15 to 20)
#    0.000    1.750    2.500    1.125    3.500    0.500 
#   11.250    1.250    0.000    0.000    0.000    0.000 
#    0.000    0.000    0.000    0.000    0.000    0.000 
#
# Total GULP energy -198276.540254 kJ/mol
# GULP energy per Si atom -12392.283766 kJ/mol
# Density = 1.996274 g / cm^3
# Si number density = 20.008280 Si / 1000 Ang^3
#
#
#
# Elastic Constant Matrix: (Units=GPa)
#
#
# Indices 1 2 3 4 5 6 
#
# 1 128.7615 33.1828 68.0791 -11.4398 9.6525 -10.5855
# 2 33.1828 71.6604 34.9416 9.2744 1.7683 2.4304
# 3 68.0791 34.9416 127.4199 5.9371 10.5261 -18.0342
# 4 -11.4398 9.2744 5.9371 36.5588 -3.3085 1.8674
# 5 9.6525 1.7683 10.5261 -3.3085 39.3401 -4.0618
# 6 -10.5855 2.4304 -18.0342 1.8674 -4.0618 28.5096
#
#
#
# Elastic Compliance Matrix: (Units=1/GPa)
#
#
# Indices 1 2 3 4 5 6 
#
# 1 0.012331 -0.003686 -0.005655 0.005598 -0.000790 0.000837
# 2 -0.003686 0.018147 -0.003460 -0.004942 0.000107 -0.004765
# 3 -0.005655 -0.003460 0.013021 -0.003477 -0.001569 0.006436
# 4 0.005598 -0.004942 -0.003477 0.031200 0.002256 -0.001422
# 5 -0.000790 0.000107 -0.001569 0.002256 0.026458 0.002327
# 6 0.000837 -0.004765 0.006436 -0.001422 0.002327 0.040289
#
#
# Mechanical properties :
#
#
# Convention : Reuss Voigt Hill
#
# Bulk Modulus (GPa) = 55.87407 66.69430 61.28418
# Shear Modulus (GPa) = 28.89938 33.65761 31.27849
#
# Velocity S-wave (km/s) = 3.80461 4.10589 3.95812
# Velocity P-wave (km/s) = 6.87649 7.47553 7.18226
#
# Compressibility (1/GPa) = 0.01789739
#
# Stress axis : x y z
#
# Youngs Moduli (GPa) = 81.09345 55.10463 76.80047
#
# Poissons Ratio (x) = 0.20313 0.43430
# Poissons Ratio (y) = 0.29893 0.26573
# Poissons Ratio (z) = 0.45858 0.19066
#
# Static dielectric constant tensor:
#      x y z
#    x 4.788530 0.196270 -0.741880 
#    y 0.196270 3.552670 0.128570 
#    z -0.741880 0.128570 4.384640 
# 
# 
# High freq. dielectric constant tensor:
#      x y z
#    x 1.785030 0.008880 0.003530 
#    y 0.008880 1.768340 0.019050 
#    z 0.003530 0.019050 1.793990 
# 
# From -- ./inp_files/274595.got.cif
#   From: 2010.06.25/outbox.cif.g09.slc.cpg/sg2_138_cif.got.tgz:274595.got - 2010.06.27 13:26:56.
