data_PCOD8044477
_publ_section_title
;
Structure prediction by ZEFSAII (Michael W. Deem and Ramdas Pophale) SiO2 
 PCOD8044477
Probable space group: P -1
;
_chemical_formula_sum "Si O2"
_cell_formula_units_Z 16
_cell_length_a 11.876594
_cell_length_b 10.944866
_cell_length_c 9.479967
_cell_angle_alpha 103.288650
_cell_angle_beta 122.150444
_cell_angle_gamma 52.044415
_cell_volume 813.830377
_symmetry_space_group_name_H-M "P -1"
_symmetry_group_IT_number 2
_symmetry_cell_setting 'triclinic'
loop_
_space_group_symop_operation_xyz
x,y,z
-x,-y,-z
loop_
_atom_site_type_symbol
_atom_site_label
_atom_site_fract_x
_atom_site_fract_y
_atom_site_fract_z
Si Si1 0.750470 0.127745 0.344177
Si Si2 0.044268 0.802594 0.355930
Si Si3 0.630598 0.023703 0.778061
Si Si4 0.468180 0.711605 0.006630
Si Si5 0.222996 0.622348 0.874245
Si Si6 0.032109 0.334720 0.497311
Si Si7 0.002822 0.854569 0.024186
Si Si8 0.345276 0.015172 0.539550
O O1 0.794158 0.242936 0.459508
O O2 0.726610 0.062144 0.450336
O O3 0.585688 0.208453 0.161466
O O4 0.902456 0.988508 0.318114
O O5 0.981781 0.705132 0.357995
O O6 0.086557 0.780042 0.212032
O O7 0.539068 0.184847 0.845148
O O8 0.521139 0.959612 0.708717
O O9 0.630428 0.050889 0.618890
O O10 0.817341 0.903680 0.925650
O O11 0.658952 0.564555 0.078858
O O12 0.338659 0.676281 0.946029
O O13 0.105546 0.669333 0.675259
O O14 0.108420 0.705489 0.955101
O O15 0.000000 0.500000 0.500000
O O16 0.212114 0.203879 0.514801
O O17 0.000000 0.000000 0.000000
#
# Coordination Sequence:
#
# PCOD8044477 Si02
#       8
#     2   2   2   2   2   2   2   2
#     4  10  19  38  61  91 123 153 206 263 305 356
#     4  10  21  36  65  95 117 159 216 253 300 371
#     4  11  21  39  60  93 120 157 207 250 305 366
#     4  11  22  39  61  92 124 159 202 258 308 367
#     4  11  23  39  61  90 125 164 204 249 315 369
#     4  11  22  42  61  89 129 172 201 249 319 370
#     4  12  21  39  66  95 122 161 209 259 307 362
#     4  10  23  37  63  92 122 162 206 258 306 369
#
# _framework density 19.660117
#
# number of rings (size 3 to 8) (size 9 to 14) (size 15 to 20)
#    0.000    1.250    5.000    1.500    1.750    0.500 
#    2.250    5.000    0.000    0.000    0.000    0.000 
#    0.000    0.000    0.000    0.000    0.000    0.000 
#
# Total GULP energy -198307.631277 kJ/mol
# GULP energy per Si atom -12394.226955 kJ/mol
# Density = 1.961537 g / cm^3
# Si number density = 19.660117 Si / 1000 Ang^3
#
#
#
# Elastic Constant Matrix: (Units=GPa)
#
#
# Indices 1 2 3 4 5 6 
#
# 1 58.7048 32.0639 31.6999 0.6837 -4.3794 -0.1337
# 2 32.0639 94.6397 39.5304 5.9784 -13.9690 -11.5640
# 3 31.6999 39.5304 107.6979 8.6938 -8.6763 -2.5982
# 4 0.6837 5.9784 8.6938 26.5354 -4.8730 3.3386
# 5 -4.3794 -13.9690 -8.6763 -4.8730 32.8833 -4.6806
# 6 -0.1337 -11.5640 -2.5982 3.3386 -4.6806 27.9664
#
#
#
# Elastic Compliance Matrix: (Units=1/GPa)
#
#
# Indices 1 2 3 4 5 6 
#
# 1 0.023092 -0.006601 -0.004766 0.002702 -0.001094 -0.003567
# 2 -0.006601 0.016031 -0.003102 -0.002303 0.005848 0.007563
# 3 -0.004766 -0.003102 0.012149 -0.003044 0.000849 0.000329
# 4 0.002702 -0.002303 -0.003044 0.040514 0.003810 -0.005421
# 5 -0.001094 0.005848 0.000849 0.003810 0.034653 0.007836
# 6 -0.003567 0.007563 0.000329 -0.005421 0.007836 0.040856
#
#
# Mechanical properties :
#
#
# Convention : Reuss Voigt Hill
#
# Bulk Modulus (GPa) = 44.77482 51.95898 48.36690
# Shear Modulus (GPa) = 24.54851 27.99358 26.27104
#
# Velocity S-wave (km/s) = 3.53745 3.77752 3.65946
# Velocity P-wave (km/s) = 6.28559 6.74628 6.52000
#
# Compressibility (1/GPa) = 0.02233398
#
# Stress axis : x y z
#
# Youngs Moduli (GPa) = 43.30451 62.37904 82.31279
#
# Poissons Ratio (x) = 0.41175 0.39234
# Poissons Ratio (y) = 0.28584 0.25532
# Poissons Ratio (z) = 0.20641 0.19349
#
# Static dielectric constant tensor:
#      x y z
#    x 3.619490 -0.177870 0.134320 
#    y -0.177870 3.585070 -0.016170 
#    z 0.134320 -0.016170 3.795680 
# 
# 
# High freq. dielectric constant tensor:
#      x y z
#    x 1.769270 -0.009760 0.004930 
#    y -0.009760 1.741390 0.006150 
#    z 0.004930 0.006150 1.778270 
# 
# From -- ./inp_files/262718.got.cif
#   From: 2010.06.25/outbox.cif.g09.slc.cpg/sg2_132_cif.got.tgz:262718.got - 2010.06.27 13:26:56.
