data_PCOD8044132
_publ_section_title
;
Structure prediction by ZEFSAII (Michael W. Deem and Ramdas Pophale) SiO2 
 PCOD8044132
Probable space group: P -1
;
_chemical_formula_sum "Si O2"
_cell_formula_units_Z 16
_cell_length_a 9.186822
_cell_length_b 26.158055
_cell_length_c 8.945563
_cell_angle_alpha 136.379280
_cell_angle_beta 85.206574
_cell_angle_gamma 129.285346
_cell_volume 817.564896
_symmetry_space_group_name_H-M "P -1"
_symmetry_group_IT_number 2
_symmetry_cell_setting 'triclinic'
loop_
_space_group_symop_operation_xyz
x,y,z
-x,-y,-z
loop_
_atom_site_type_symbol
_atom_site_label
_atom_site_fract_x
_atom_site_fract_y
_atom_site_fract_z
Si Si1 0.335709 0.366263 0.303041
Si Si2 0.987083 0.183336 0.675836
Si Si3 0.170105 0.489445 0.327648
Si Si4 0.773550 0.956583 0.365118
Si Si5 0.779071 0.618653 0.145212
Si Si6 0.214707 0.673938 0.718127
Si Si7 0.062524 0.744392 0.681014
Si Si8 0.542894 0.982126 0.619858
O O1 0.500000 0.500000 0.500000
O O2 0.541352 0.386566 0.354962
O O3 0.218905 0.346377 0.425879
O O4 0.089932 0.239481 0.954080
O O5 0.209694 0.299020 0.778938
O O6 0.757672 0.144752 0.563312
O O7 0.882737 0.054430 0.424561
O O8 0.122349 0.553669 0.415126
O O9 0.943125 0.369210 0.209598
O O10 0.181204 0.436236 0.079009
O O11 0.673530 0.958063 0.525432
O O12 0.528165 0.807259 0.004010
O O13 0.000000 0.000000 0.500000
O O14 0.021386 0.719290 0.454588
O O15 0.500000 0.500000 0.000000
O O16 0.142460 0.699257 0.646177
O O17 0.285848 0.898943 0.025982
O O18 0.500000 0.000000 0.500000
#
# Coordination Sequence:
#
# PCOD8044132 Si02
#       8
#     2   2   2   2   2   2   2   2
#     4  12  18  34  65  89 116 157 212 260 303 359
#     4  11  21  39  64  92 124 158 211 265 308 370
#     4  11  24  40  63  95 129 163 211 267 314 370
#     4  11  21  37  66  96 121 154 207 278 314 357
#     4  12  25  39  62  94 132 170 210 253 312 384
#     4  11  23  41  64  94 125 162 215 265 316 365
#     4  12  21  38  63  90 123 168 207 254 315 373
#     4  10  19  37  64  89 119 156 210 270 301 363
#
# _framework density 19.570311
#
# number of rings (size 3 to 8) (size 9 to 14) (size 15 to 20)
#    0.000    0.750    8.750    1.500    0.000    1.000 
#    0.000    0.000    2.750    1.500    0.000    0.000 
#    0.000    0.000    0.000    0.000    0.000    0.000 
#
# Total GULP energy -198274.676152 kJ/mol
# GULP energy per Si atom -12392.167260 kJ/mol
# Density = 1.952577 g / cm^3
# Si number density = 19.570311 Si / 1000 Ang^3
#
#
#
# Elastic Constant Matrix: (Units=GPa)
#
#
# Indices 1 2 3 4 5 6 
#
# 1 105.2816 30.3516 28.1167 -0.8083 10.2135 1.2533
# 2 30.3516 90.1071 36.2157 -0.6492 0.0689 0.1102
# 3 28.1167 36.2157 110.6943 -9.9374 6.6147 -1.2545
# 4 -0.8083 -0.6492 -9.9374 30.6409 1.0448 3.8356
# 5 10.2135 0.0689 6.6147 1.0448 30.0099 4.4979
# 6 1.2533 0.1102 -1.2545 3.8356 4.4979 27.1935
#
#
#
# Elastic Compliance Matrix: (Units=1/GPa)
#
#
# Indices 1 2 3 4 5 6 
#
# 1 0.011159 -0.003102 -0.001631 -0.000186 -0.003427 0.000016
# 2 -0.003102 0.013707 -0.003915 -0.001095 0.001965 -0.000264
# 3 -0.001631 -0.003915 0.011175 0.003512 -0.002090 0.000457
# 4 -0.000186 -0.001095 0.003512 0.034348 -0.001235 -0.004465
# 5 -0.003427 0.001965 -0.002090 -0.001235 0.035842 -0.005701
# 6 0.000016 -0.000264 0.000457 -0.004465 -0.005701 0.038368
#
#
# Mechanical properties :
#
#
# Convention : Reuss Voigt Hill
#
# Bulk Modulus (GPa) = 53.35105 55.05010 54.20058
# Shear Modulus (GPa) = 29.73635 31.66212 30.69923
#
# Velocity S-wave (km/s) = 3.90226 4.02663 3.96493
# Velocity P-wave (km/s) = 6.90101 7.05754 6.97971
#
# Compressibility (1/GPa) = 0.01874377
#
# Stress axis : x y z
#
# Youngs Moduli (GPa) = 89.61305 72.95338 89.48862
#
# Poissons Ratio (x) = 0.22630 0.14598
# Poissons Ratio (y) = 0.27797 0.35039
# Poissons Ratio (z) = 0.14618 0.28565
#
# Static dielectric constant tensor:
#      x y z
#    x 5.982430 0.771420 1.865780 
#    y 0.771420 3.919530 0.560410 
#    z 1.865780 0.560410 4.757840 
# 
# 
# High freq. dielectric constant tensor:
#      x y z
#    x 1.756160 0.005290 0.013160 
#    y 0.005290 1.747330 0.024060 
#    z 0.013160 0.024060 1.771720 
# 
# From -- ./inp_files/200859.got.cif
#   From: 2010.06.25/outbox.cif.g09.slc.cpg/sg2_101_cif.got.tgz:200859.got - 2010.06.27 13:26:56.
