data_PCOD8044706
_publ_section_title
;
Structure prediction by ZEFSAII (Michael W. Deem and Ramdas Pophale) SiO2 
 PCOD8044706
Probable space group: P -1
;
_chemical_formula_sum "Si O2"
_cell_formula_units_Z 16
_cell_length_a 9.146391
_cell_length_b 15.195063
_cell_length_c 18.520303
_cell_angle_alpha 150.061205
_cell_angle_beta 35.804391
_cell_angle_gamma 136.323475
_cell_volume 749.666399
_symmetry_space_group_name_H-M "P -1"
_symmetry_group_IT_number 2
_symmetry_cell_setting 'triclinic'
loop_
_space_group_symop_operation_xyz
x,y,z
-x,-y,-z
loop_
_atom_site_type_symbol
_atom_site_label
_atom_site_fract_x
_atom_site_fract_y
_atom_site_fract_z
Si Si1 0.862790 0.611142 0.411715
Si Si2 0.630016 0.824148 0.341376
Si Si3 0.800393 0.445027 0.640985
Si Si4 0.423044 0.689964 0.744457
Si Si5 0.196458 0.261713 0.257779
Si Si6 0.406656 0.292363 0.881242
Si Si7 0.021524 0.918772 0.013329
Si Si8 0.118501 0.939658 0.482004
O O1 0.645584 0.609616 0.555670
O O2 0.784848 0.477309 0.281675
O O3 0.112164 0.541877 0.301043
O O4 0.906339 0.810248 0.510535
O O5 0.445951 0.685458 0.359625
O O6 0.721230 0.736240 0.167704
O O7 0.500000 0.000000 0.500000
O O8 0.846067 0.888965 0.357621
O O9 0.742319 0.637204 0.770623
O O10 0.025974 0.374682 0.455578
O O11 0.535705 0.763449 0.827750
O O12 0.289092 0.833866 0.852781
O O13 0.037550 0.078332 0.177542
O O14 0.638251 0.168648 0.706819
O O15 0.207342 0.221321 0.971770
O O16 0.500000 0.500000 0.000000
O O17 0.000000 0.000000 0.000000
O O18 0.000000 0.000000 0.500000
#
# Coordination Sequence:
#
# PCOD8044706 Si02
#       8
#     2   2   2   2   2   2   2   2
#     4  10  20  39  63  88 126 160 208 261 319 370
#     4  10  20  40  66  91 124 172 216 266 319 390
#     4  10  19  38  65  92 121 157 221 259 319 380
#     4  10  23  39  60  90 125 167 204 264 314 380
#     4  10  22  37  63  92 124 165 209 267 317 380
#     4  11  25  45  69  93 131 177 218 267 334 392
#     4  12  26  41  63  91 132 170 216 256 324 391
#     4  11  24  40  68  98 128 163 221 274 324 384
#
# _framework density 21.342827
#
# number of rings (size 3 to 8) (size 9 to 14) (size 15 to 20)
#    0.000    1.500    2.500    3.375    7.000    1.000 
#    0.000    0.625    0.000    0.000    0.000    0.000 
#    0.000    0.000    0.000    0.000    0.000    0.000 
#
# Total GULP energy -198249.839910 kJ/mol
# GULP energy per Si atom -12390.614994 kJ/mol
# Density = 2.129425 g / cm^3
# Si number density = 21.342827 Si / 1000 Ang^3
#
#
#
# Elastic Constant Matrix: (Units=GPa)
#
#
# Indices 1 2 3 4 5 6 
#
# 1 163.2348 60.7930 39.6658 18.6276 16.8620 -1.1345
# 2 60.7930 152.8747 21.2321 27.6900 16.0212 0.7437
# 3 39.6658 21.2321 63.1009 18.2272 11.5965 6.1225
# 4 18.6276 27.6900 18.2272 26.0625 2.4138 7.0532
# 5 16.8620 16.0212 11.5965 2.4138 32.4449 7.4081
# 6 -1.1345 0.7437 6.1225 7.0532 7.4081 29.3473
#
#
#
# Elastic Compliance Matrix: (Units=1/GPa)
#
#
# Indices 1 2 3 4 5 6 
#
# 1 0.008312 -0.002361 -0.003939 -0.001018 -0.002123 0.001983
# 2 -0.002361 0.009429 0.001600 -0.009814 -0.003882 0.002674
# 3 -0.003939 0.001600 0.023045 -0.014445 -0.005896 -0.000041
# 4 -0.001018 -0.009814 -0.014445 0.062604 0.009105 -0.014121
# 5 -0.002123 -0.003882 -0.005896 0.009105 0.037657 -0.010448
# 6 0.001983 0.002674 -0.000041 -0.014121 -0.010448 0.040123
#
#
# Mechanical properties :
#
#
# Convention : Reuss Voigt Hill
#
# Bulk Modulus (GPa) = 31.86036 69.17690 50.51863
# Shear Modulus (GPa) = 24.87161 34.73892 29.80527
#
# Velocity S-wave (km/s) = 3.41741 4.03881 3.74103
# Velocity P-wave (km/s) = 5.52557 7.36423 6.51014
#
# Compressibility (1/GPa) = 0.03138696
#
# Stress axis : x y z
#
# Youngs Moduli (GPa) = 120.31044 106.05164 43.39314
#
# Poissons Ratio (x) = 0.25040 0.17091
# Poissons Ratio (y) = 0.28406 -0.06943
# Poissons Ratio (z) = 0.47387 -0.16970
#
# Static dielectric constant tensor:
#      x y z
#    x 4.438130 0.185800 0.296620 
#    y 0.185800 3.988850 0.218870 
#    z 0.296620 0.218870 3.796930 
# 
# 
# High freq. dielectric constant tensor:
#      x y z
#    x 1.838350 0.009240 0.013620 
#    y 0.009240 1.844490 0.020410 
#    z 0.013620 0.020410 1.820490 
# 
# From -- ./inp_files/561404.got.cif
#   From: 2010.06.25/outbox.cif.g09.slc.cpg/sg2_281_cif.got.tgz:561404.got - 2010.06.27 13:26:56.
