data_PCOD8044739
_publ_section_title
;
Structure prediction by ZEFSAII (Michael W. Deem and Ramdas Pophale) SiO2 
 PCOD8044739
Probable space group: P -1
;
_chemical_formula_sum "Si O2"
_cell_formula_units_Z 14
_cell_length_a 11.139008
_cell_length_b 11.459711
_cell_length_c 14.595391
_cell_angle_alpha 149.424541
_cell_angle_beta 46.278364
_cell_angle_gamma 128.435162
_cell_volume 683.122671
_symmetry_space_group_name_H-M "P -1"
_symmetry_group_IT_number 2
_symmetry_cell_setting 'triclinic'
loop_
_space_group_symop_operation_xyz
x,y,z
-x,-y,-z
loop_
_atom_site_type_symbol
_atom_site_label
_atom_site_fract_x
_atom_site_fract_y
_atom_site_fract_z
Si Si1 0.833980 0.874135 0.418597
Si Si2 0.691564 0.524845 0.520177
Si Si3 0.466253 0.126196 0.292641
Si Si4 0.624052 0.800342 0.303817
Si Si5 0.308079 0.405739 0.042575
Si Si6 0.996411 0.661275 0.339513
Si Si7 0.605632 0.654766 0.851504
O O1 0.684384 0.954885 0.615506
O O2 0.769483 0.830243 0.321093
O O3 0.909989 0.650804 0.276110
O O4 0.985395 0.069130 0.461710
O O5 0.604490 0.268641 0.379023
O O6 0.587407 0.710162 0.649214
O O7 0.704183 0.602323 0.671757
O O8 0.878044 0.522195 0.380379
O O9 0.531170 0.903386 0.058271
O O10 0.536730 0.549367 0.199440
O O11 0.500000 0.000000 0.500000
O O12 0.709894 0.808479 0.163199
O O13 0.181443 0.581934 0.190900
O O14 0.267034 0.341154 0.126071
O O15 0.500000 0.500000 0.000000
#
# Coordination Sequence:
#
# PCOD8044739 Si02
#       7
#     2   2   2   2   2   2   2
#     4  10  19  38  66  87 127 166 203 262 309 358
#     4  10  22  39  64  92 131 162 197 261 314 376
#     4  10  20  40  65  95 123 164 212 245 309 383
#     4  11  21  37  65  96 120 165 218 254 305 371
#     4  10  22  38  59  86 120 158 212 259 298 374
#     4  10  22  40  58  94 125 160 208 263 315 363
#     4  11  21  38  66  91 123 170 208 250 307 376
#
# _framework density 20.494123999999999
#
# number of rings (size 3 to 8) (size 9 to 14) (size 15 to 20)
#    0.000    1.714    1.429    4.714    0.000    1.143 
#    2.571    0.714    0.000    0.000    0.000    0.000 
#    0.000    0.000    0.000    0.000    0.000    0.000 
#
# Total GULP energy -173477.288407 kJ/mol
# GULP energy per Si atom -12391.234886 kJ/mol
# Density = 2.044748 g / cm^3
# Si number density = 20.494124 Si / 1000 Ang^3
#
#
#
# Elastic Constant Matrix: (Units=GPa)
#
#
# Indices 1 2 3 4 5 6 
#
# 1 156.6734 32.7713 56.2691 -14.8424 8.4871 -17.5709
# 2 32.7713 70.7207 26.7444 1.1711 5.2444 6.1153
# 3 56.2691 26.7444 97.4842 4.8378 3.4226 -5.2871
# 4 -14.8424 1.1711 4.8378 32.3205 -5.7073 3.8399
# 5 8.4871 5.2444 3.4226 -5.7073 44.4531 -8.8152
# 6 -17.5709 6.1153 -5.2871 3.8399 -8.8152 29.8225
#
#
#
# Elastic Compliance Matrix: (Units=1/GPa)
#
#
# Indices 1 2 3 4 5 6 
#
# 1 0.009767 -0.003308 -0.004708 0.004792 0.000522 0.005135
# 2 -0.003308 0.017670 -0.003142 -0.001368 -0.002727 -0.006759
# 3 -0.004708 -0.003142 0.014104 -0.004297 -0.000196 0.000866
# 4 0.004792 -0.001368 -0.004297 0.034626 0.003828 -0.000985
# 5 0.000522 -0.002727 -0.000196 0.003828 0.024742 0.007652
# 6 0.005135 -0.006759 0.000866 -0.000985 0.007652 0.040486
#
#
# Mechanical properties :
#
#
# Convention : Reuss Voigt Hill
#
# Bulk Modulus (GPa) = 52.00808 61.82753 56.91781
# Shear Modulus (GPa) = 29.39124 35.25879 32.32502
#
# Velocity S-wave (km/s) = 3.79110 4.15231 3.97581
# Velocity P-wave (km/s) = 6.67798 7.29540 6.99351
#
# Compressibility (1/GPa) = 0.01922778
#
# Stress axis : x y z
#
# Youngs Moduli (GPa) = 102.38572 56.59220 70.89977
#
# Poissons Ratio (x) = 0.18719 0.33378
# Poissons Ratio (y) = 0.33866 0.22273
# Poissons Ratio (z) = 0.48201 0.17778
#
# Static dielectric constant tensor:
#      x y z
#    x 4.209510 -0.284750 0.357290 
#    y -0.284750 3.692100 -0.080490 
#    z 0.357290 -0.080490 3.692510 
# 
# 
# High freq. dielectric constant tensor:
#      x y z
#    x 1.814620 -0.014950 0.008120 
#    y -0.014950 1.787690 0.002650 
#    z 0.008120 0.002650 1.786740 
# 
# From -- ./inp_files/82900.got.cif
#   From: 2010.06.25/outbox.cif.g09.slc.cpg/sg2_42_cif.got.tgz:82900.got - 2010.06.27 13:26:56.
