data_PCOD8044564
_publ_section_title
;
Structure prediction by ZEFSAII (Michael W. Deem and Ramdas Pophale) SiO2 
 PCOD8044564
Probable space group: P -1
;
_chemical_formula_sum "Si O2"
_cell_formula_units_Z 16
_cell_length_a 7.777562
_cell_length_b 14.023529
_cell_length_c 18.644782
_cell_angle_alpha 20.213716
_cell_angle_beta 115.744302
_cell_angle_gamma 116.232720
_cell_volume 629.018731
_symmetry_space_group_name_H-M "P -1"
_symmetry_group_IT_number 2
_symmetry_cell_setting 'triclinic'
loop_
_space_group_symop_operation_xyz
x,y,z
-x,-y,-z
loop_
_atom_site_type_symbol
_atom_site_label
_atom_site_fract_x
_atom_site_fract_y
_atom_site_fract_z
Si Si1 0.790381 0.720084 0.975202
Si Si2 0.553544 0.104181 0.827916
Si Si3 0.651881 0.622661 0.288023
Si Si4 0.108447 0.697113 0.820208
Si Si5 0.949717 0.137806 0.819388
Si Si6 0.403512 0.669350 0.004259
Si Si7 0.561563 0.063036 0.586009
Si Si8 0.759335 0.947513 0.562601
O O1 0.625487 0.611918 0.078025
O O2 0.946842 0.925747 0.900951
O O3 0.680433 0.850968 0.797715
O O4 0.892626 0.467382 0.139907
O O5 0.455481 0.353020 0.672231
O O6 0.736175 0.237792 0.718374
O O7 0.393820 0.924091 0.877720
O O8 0.629710 0.900086 0.044247
O O9 0.557531 0.348172 0.426078
O O10 0.883037 0.612365 0.345725
O O11 0.321025 0.776286 0.837760
O O12 0.992720 0.968769 0.593505
O O13 0.000000 0.500000 0.000000
O O14 0.000000 0.000000 0.000000
O O15 0.295456 0.385221 0.213224
O O16 0.337015 0.948688 0.602957
O O17 0.673558 0.111887 0.496071
#
# Coordination Sequence:
#
# PCOD8044564 Si02
#       8
#     2   2   2   2   2   2   2   2
#     4  11  22  37  65  89 123 155 206 252 307 354
#     4   9  19  36  60  89 109 163 208 247 289 376
#     4  10  20  35  62  80 123 159 203 242 316 356
#     4  10  20  35  61  91 113 158 210 242 281 380
#     4   9  21  38  58  90 115 155 212 254 285 363
#     4  10  19  38  63  87 119 160 205 248 296 366
#     4  11  22  38  58  93 123 161 189 256 318 359
#     4  10  22  38  62  84 128 156 201 244 307 364
#
# _framework density 25.436444999999999
#
# number of rings (size 3 to 8) (size 9 to 14) (size 15 to 20)
#    0.000    2.000    3.750    0.375    3.500    1.500 
#    0.000    4.375    0.000    0.000    0.000    0.000 
#    0.000    0.000    0.000    0.000    0.000    0.000 
#
# Total GULP energy -198305.990154 kJ/mol
# GULP energy per Si atom -12394.124385 kJ/mol
# Density = 2.537855 g / cm^3
# Si number density = 25.436445 Si / 1000 Ang^3
#
#
#
# Elastic Constant Matrix: (Units=GPa)
#
#
# Indices 1 2 3 4 5 6 
#
# 1 93.9277 39.6638 5.8662 -28.4469 22.0362 -12.3909
# 2 39.6638 163.2164 22.7469 -16.9281 19.1773 -15.6400
# 3 5.8662 22.7469 50.3607 -7.1403 19.2447 -6.1313
# 4 -28.4469 -16.9281 -7.1403 46.1636 -2.5708 12.4930
# 5 22.0362 19.1773 19.2447 -2.5708 32.2120 -8.7067
# 6 -12.3909 -15.6400 -6.1313 12.4930 -8.7067 42.9565
#
#
#
# Elastic Compliance Matrix: (Units=1/GPa)
#
#
# Indices 1 2 3 4 5 6 
#
# 1 0.017376 -0.002464 0.005420 0.010103 -0.013039 -0.000693
# 2 -0.002464 0.007335 -0.002507 0.000379 -0.000793 0.001331
# 3 0.005420 -0.002507 0.028320 0.005986 -0.018894 -0.000878
# 4 0.010103 0.000379 0.005986 0.030269 -0.010179 -0.006960
# 5 -0.013039 -0.000793 -0.018894 -0.010179 0.052780 0.006912
# 6 -0.000693 0.001331 -0.000878 -0.006960 0.006912 0.026864
#
#
# Mechanical properties :
#
#
# Convention : Reuss Voigt Hill
#
# Bulk Modulus (GPa) = 18.54341 49.33987 33.94164
# Shear Modulus (GPa) = 27.77407 40.21495 33.99451
#
# Velocity S-wave (km/s) = 3.30798 3.98049 3.65971
# Velocity P-wave (km/s) = 4.67934 6.36908 5.58844
#
# Compressibility (1/GPa) = 0.05392752
#
# Stress axis : x y z
#
# Youngs Moduli (GPa) = 57.54978 136.32900 35.31100
#
# Poissons Ratio (x) = 0.33598 -0.19138
# Poissons Ratio (y) = 0.14183 0.08853
# Poissons Ratio (z) = -0.31191 0.34181
#
# Static dielectric constant tensor:
#      x y z
#    x 5.396380 0.276240 0.285230 
#    y 0.276240 5.082120 0.487030 
#    z 0.285230 0.487030 4.413010 
# 
# 
# High freq. dielectric constant tensor:
#      x y z
#    x 2.029130 -0.003540 -0.000060 
#    y -0.003540 2.029970 0.018890 
#    z -0.000060 0.018890 1.994110 
# 
# From -- ./inp_files/338624.got.cif
#   From: 2010.06.25/outbox.cif.g09.slc.cpg/sg2_170_cif.got.tgz:338624.got - 2010.06.27 13:26:56.
