data_PCOD8044700
_publ_section_title
;
Structure prediction by ZEFSAII (Michael W. Deem and Ramdas Pophale) SiO2 
 PCOD8044700
Probable space group: P -1
;
_chemical_formula_sum "Si O2"
_cell_formula_units_Z 14
_cell_length_a 9.188882
_cell_length_b 14.599867
_cell_length_c 8.819599
_cell_angle_alpha 63.275297
_cell_angle_beta 96.970275
_cell_angle_gamma 142.107728
_cell_volume 587.316372
_symmetry_space_group_name_H-M "P -1"
_symmetry_group_IT_number 2
_symmetry_cell_setting 'triclinic'
loop_
_space_group_symop_operation_xyz
x,y,z
-x,-y,-z
loop_
_atom_site_type_symbol
_atom_site_label
_atom_site_fract_x
_atom_site_fract_y
_atom_site_fract_z
Si Si1 0.684854 0.887299 0.317446
Si Si2 0.106252 0.405753 0.955320
Si Si3 0.838531 0.760559 0.079475
Si Si4 0.637167 0.189972 0.888402
Si Si5 0.773940 0.114183 0.385496
Si Si6 0.940565 0.835177 0.378481
Si Si7 0.541271 0.764435 0.920518
O O1 0.411482 0.766400 0.297146
O O2 0.699579 0.772995 0.440147
O O3 0.725080 0.974607 0.409644
O O4 0.895247 0.034421 0.101711
O O5 0.244921 0.383271 0.928979
O O6 0.319407 0.610843 0.883107
O O7 0.948922 0.358604 0.825131
O O8 0.896451 0.262964 0.169056
O O9 0.888424 0.759655 0.261044
O O10 0.594465 0.697314 0.085689
O O11 0.534826 0.181107 0.035509
O O12 0.500000 0.000000 0.000000
O O13 0.001226 0.227802 0.457394
O O14 0.500000 0.000000 0.500000
O O15 0.193490 0.054546 0.267347
#
# Coordination Sequence:
#
# PCOD8044700 Si02
#       7
#     2   2   2   2   2   2   2
#     4  10  20  37  61  91 115 160 212 250 286 358
#     4  11  24  38  62  94 128 157 194 261 311 355
#     4  10  19  38  65  91 116 161 206 245 293 377
#     4  12  19  36  63  88 117 159 215 243 289 357
#     4  11  24  37  60  91 127 159 205 248 307 363
#     4  11  20  39  67  93 117 161 208 249 295 372
#     4  11  21  38  63  96 122 152 207 257 306 352
#
# _framework density 23.837236999999998
#
# number of rings (size 3 to 8) (size 9 to 14) (size 15 to 20)
#    0.000    1.143    5.714    3.000    2.000    0.000 
#    0.000    0.714    3.143    1.714    0.000    0.000 
#    0.000    0.000    0.000    0.000    0.000    0.000 
#
# Total GULP energy -173535.811923 kJ/mol
# GULP energy per Si atom -12395.415137 kJ/mol
# Density = 2.378298 g / cm^3
# Si number density = 23.837237 Si / 1000 Ang^3
#
#
#
# Elastic Constant Matrix: (Units=GPa)
#
#
# Indices 1 2 3 4 5 6 
#
# 1 136.0334 38.4561 15.8827 14.0694 8.9911 -4.6069
# 2 38.4561 142.2200 14.5484 18.6076 4.9338 1.7400
# 3 15.8827 14.5484 41.1158 17.3755 1.9140 2.1555
# 4 14.0694 18.6076 17.3755 32.6827 6.5188 5.6439
# 5 8.9911 4.9338 1.9140 6.5188 26.2661 18.8880
# 6 -4.6069 1.7400 2.1555 5.6439 18.8880 39.0186
#
#
#
# Elastic Compliance Matrix: (Units=1/GPa)
#
#
# Indices 1 2 3 4 5 6 
#
# 1 0.008703 -0.001849 -0.002162 -0.001222 -0.004881 0.003769
# 2 -0.001849 0.008048 -0.000686 -0.003423 0.000081 -0.000083
# 3 -0.002162 -0.000686 0.032176 -0.016255 0.003539 -0.001364
# 4 -0.001222 -0.003423 -0.016255 0.043474 -0.007169 -0.001911
# 5 -0.004881 0.000081 0.003539 -0.007169 0.062986 -0.030229
# 6 0.003769 -0.000083 -0.001364 -0.001911 -0.030229 0.041062
#
#
# Mechanical properties :
#
#
# Convention : Reuss Voigt Hill
#
# Bulk Modulus (GPa) = 25.29587 50.79372 38.04480
# Shear Modulus (GPa) = 22.82900 36.29229 29.56064
#
# Velocity S-wave (km/s) = 3.09804 3.90616 3.52533
# Velocity P-wave (km/s) = 4.84067 6.45747 5.70662
#
# Compressibility (1/GPa) = 0.03953214
#
# Stress axis : x y z
#
# Youngs Moduli (GPa) = 114.90457 124.26108 31.07954
#
# Poissons Ratio (x) = 0.22976 0.06718
# Poissons Ratio (y) = 0.21246 0.02133
# Poissons Ratio (z) = 0.24838 0.08527
#
# Static dielectric constant tensor:
#      x y z
#    x 4.865040 0.322890 0.249530 
#    y 0.322890 4.296210 0.428670 
#    z 0.249530 0.428670 3.847870 
# 
# 
# High freq. dielectric constant tensor:
#      x y z
#    x 1.970020 0.005580 0.008150 
#    y 0.005580 1.940770 0.040370 
#    z 0.008150 0.040370 1.893990 
# 
# From -- ./inp_files/158775.got.cif
#   From: 2010.06.25/outbox.cif.g09.slc.cpg/sg2_80_cif.got.tgz:158775.got - 2010.06.27 13:26:56.
