data_PCOD8044320
_publ_section_title
;
Structure prediction by ZEFSAII (Michael W. Deem and Ramdas Pophale) SiO2 
 PCOD8044320
Probable space group: P -1
;
_chemical_formula_sum "Si O2"
_cell_formula_units_Z 16
_cell_length_a 11.139272
_cell_length_b 13.330620
_cell_length_c 9.445815
_cell_angle_alpha 122.675930
_cell_angle_beta 79.476866
_cell_angle_gamma 131.496714
_cell_volume 849.519712
_symmetry_space_group_name_H-M "P -1"
_symmetry_group_IT_number 2
_symmetry_cell_setting 'triclinic'
loop_
_space_group_symop_operation_xyz
x,y,z
-x,-y,-z
loop_
_atom_site_type_symbol
_atom_site_label
_atom_site_fract_x
_atom_site_fract_y
_atom_site_fract_z
Si Si1 0.142839 0.558848 0.197178
Si Si2 0.732652 0.101269 0.487066
Si Si3 0.455709 0.012245 0.287714
Si Si4 0.427047 0.689562 0.679803
Si Si5 0.245234 0.176049 0.146576
Si Si6 0.767108 0.327997 0.046331
Si Si7 0.936913 0.100190 0.233451
Si Si8 0.220397 0.416162 0.290018
O O1 0.184607 0.714224 0.373397
O O2 0.234296 0.515849 0.232619
O O3 0.945088 0.407520 0.130797
O O4 0.211303 0.593576 0.049875
O O5 0.583644 0.008076 0.334305
O O6 0.865881 0.093570 0.395763
O O7 0.663297 0.008325 0.581704
O O8 0.559038 0.178656 0.308281
O O9 0.344497 0.864681 0.088537
O O10 0.609751 0.762608 0.731055
O O11 0.321836 0.637626 0.805594
O O12 0.331617 0.531166 0.485161
O O13 0.287294 0.327486 0.167947
O O14 0.076658 0.088211 0.210254
O O15 0.213728 0.048217 0.945459
O O16 0.026314 0.274705 0.274021
#
# Coordination Sequence:
#
# PCOD8044320 Si02
#       8
#     2   2   2   2   2   2   2   2
#     4  10  21  39  56  88 115 146 182 232 283 336
#     4  10  19  38  56  85 114 144 185 228 285 335
#     4  10  22  33  56  86 118 143 179 232 282 342
#     4  12  21  36  58  85 113 152 185 230 283 325
#     4   9  22  38  55  85 110 148 196 235 262 330
#     4  10  23  35  57  86 122 141 181 234 284 336
#     4   9  20  37  62  77 109 152 186 236 272 324
#     4  10  21  37  62  77 116 148 188 228 275 333
#
# _framework density 18.834171999999999
#
# number of rings (size 3 to 8) (size 9 to 14) (size 15 to 20)
#    0.750    1.250    1.250    2.250    3.500    1.000 
#    0.000    1.250    2.750    0.000    0.000    0.000 
#    0.000    0.000    0.000    0.000    0.000    0.000 
#
# Total GULP energy -198348.074638 kJ/mol
# GULP energy per Si atom -12396.754665 kJ/mol
# Density = 1.879130 g / cm^3
# Si number density = 18.834172 Si / 1000 Ang^3
#
#
#
# Elastic Constant Matrix: (Units=GPa)
#
#
# Indices 1 2 3 4 5 6 
#
# 1 63.3702 19.4181 37.6716 -6.1074 10.7024 0.8434
# 2 19.4181 61.1949 42.1506 5.0081 0.4954 7.9608
# 3 37.6716 42.1506 94.7383 12.8324 21.2276 4.8881
# 4 -6.1074 5.0081 12.8324 34.0561 8.1070 4.1277
# 5 10.7024 0.4954 21.2276 8.1070 20.2697 0.6301
# 6 0.8434 7.9608 4.8881 4.1277 0.6301 18.0239
#
#
#
# Elastic Compliance Matrix: (Units=1/GPa)
#
#
# Indices 1 2 3 4 5 6 
#
# 1 0.023406 -0.003132 -0.007329 0.009359 -0.008362 0.000425
# 2 -0.003132 0.028575 -0.014621 -0.002377 0.017485 -0.008576
# 3 -0.007329 -0.014621 0.025001 -0.003917 -0.020440 0.001632
# 4 0.009359 -0.002377 -0.003917 0.037328 -0.015514 -0.006332
# 5 -0.008362 0.017485 -0.020440 -0.015514 0.080966 -0.001066
# 6 0.000425 -0.008576 0.001632 -0.006332 -0.001066 0.060294
#
#
# Mechanical properties :
#
#
# Convention : Reuss Voigt Hill
#
# Bulk Modulus (GPa) = 37.29078 46.42044 41.85561
# Shear Modulus (GPa) = 15.88945 22.47416 19.18180
#
# Velocity S-wave (km/s) = 2.90772 3.45811 3.19479
# Velocity P-wave (km/s) = 5.57814 6.37536 5.99002
#
# Compressibility (1/GPa) = 0.02681628
#
# Stress axis : x y z
#
# Youngs Moduli (GPa) = 42.72466 34.99595 39.99805
#
# Poissons Ratio (x) = 0.10961 0.29316
# Poissons Ratio (y) = 0.13382 0.58482
# Poissons Ratio (z) = 0.31315 0.51168
#
# Static dielectric constant tensor:
#      x y z
#    x 3.223670 0.202080 0.107320 
#    y 0.202080 3.372480 0.137820 
#    z 0.107320 0.137820 3.541920 
# 
# 
# High freq. dielectric constant tensor:
#      x y z
#    x 1.713660 0.016610 0.010690 
#    y 0.016610 1.720800 0.015330 
#    z 0.010690 0.015330 1.742680 
# 
# From -- ./inp_files/260086.got.cif
#   From: 2010.06.25/outbox.cif.g09.slc.cpg/sg2_131_cif.got.tgz:260086.got - 2010.06.27 13:26:56.
