data_PCOD8044781
_publ_section_title
;
Structure prediction by ZEFSAII (Michael W. Deem and Ramdas Pophale) SiO2 
 PCOD8044781
Probable space group: P -1
;
_chemical_formula_sum "Si O2"
_cell_formula_units_Z 16
_cell_length_a 17.219240
_cell_length_b 8.492363
_cell_length_c 13.940517
_cell_angle_alpha 144.700263
_cell_angle_beta 141.220589
_cell_angle_gamma 39.812957
_cell_volume 687.053436
_symmetry_space_group_name_H-M "P -1"
_symmetry_group_IT_number 2
_symmetry_cell_setting 'triclinic'
loop_
_space_group_symop_operation_xyz
x,y,z
-x,-y,-z
loop_
_atom_site_type_symbol
_atom_site_label
_atom_site_fract_x
_atom_site_fract_y
_atom_site_fract_z
Si Si1 0.158240 0.897303 0.337554
Si Si2 0.818364 0.572527 0.016452
Si Si3 0.545087 0.155135 0.705495
Si Si4 0.059477 0.951703 0.640604
Si Si5 0.611673 0.605123 0.588409
Si Si6 0.266256 0.397963 0.651045
Si Si7 0.489484 0.210439 0.220573
Si Si8 0.695749 0.569165 0.079373
O O1 0.115666 0.738884 0.128529
O O2 0.258893 0.643371 0.371332
O O3 0.220788 0.120573 0.464574
O O4 0.040851 0.064233 0.380668
O O5 0.660577 0.728431 0.922721
O O6 0.824812 0.531431 0.118242
O O7 0.893136 0.781269 0.157410
O O8 0.419074 0.322406 0.733928
O O9 0.500000 0.000000 0.500000
O O10 0.651241 0.871531 0.720370
O O11 0.624319 0.364694 0.862053
O O12 0.180943 0.642705 0.614677
O O13 0.000000 0.000000 0.500000
O O14 0.545964 0.466126 0.370754
O O15 0.499751 0.762047 0.639867
O O16 0.251637 0.518376 0.806224
O O17 0.587145 0.895055 0.124335
#
# Coordination Sequence:
#
# PCOD8044781 Si02
#       8
#     2   2   2   2   2   2   2   2
#     4  11  24  48  71  98 142 184 229 287 343 408
#     4  11  25  44  69 103 137 186 229 281 349 411
#     4  12  25  39  66 110 148 179 221 283 354 419
#     4  12  29  49  71  97 133 186 246 289 338 409
#     4  10  20  38  68 102 141 175 216 275 355 406
#     4  12  25  46  72 102 136 181 234 288 349 407
#     4  10  19  38  67 100 139 176 215 277 344 419
#     4  12  23  41  68 105 144 179 227 283 348 418
#
# _framework density 23.287855
#
# number of rings (size 3 to 8) (size 9 to 14) (size 15 to 20)
#    0.000    0.750    2.500    6.000    5.250    0.000 
#    0.000    1.250    0.000    0.000    0.000    0.000 
#    0.000    0.000    0.000    0.000    0.000    0.000 
#
# Total GULP energy -198300.637930 kJ/mol
# GULP energy per Si atom -12393.789871 kJ/mol
# Density = 2.323485 g / cm^3
# Si number density = 23.287855 Si / 1000 Ang^3
#
#
#
# Elastic Constant Matrix: (Units=GPa)
#
#
# Indices 1 2 3 4 5 6 
#
# 1 66.6305 4.6621 12.2836 6.8722 1.0889 4.9313
# 2 4.6621 84.8625 19.9645 7.1851 -3.6919 10.3637
# 3 12.2836 19.9645 114.4894 21.8000 -4.5840 4.3068
# 4 6.8722 7.1851 21.8000 36.0983 9.1303 -1.8467
# 5 1.0889 -3.6919 -4.5840 9.1303 40.7694 -5.8869
# 6 4.9313 10.3637 4.3068 -1.8467 -5.8869 17.8205
#
#
#
# Elastic Compliance Matrix: (Units=1/GPa)
#
#
# Indices 1 2 3 4 5 6 
#
# 1 0.015810 0.000139 -0.001107 -0.002440 -0.000660 -0.004659
# 2 0.000139 0.013269 -0.001616 -0.002181 0.000429 -0.007449
# 3 -0.001107 -0.001616 0.010504 -0.006464 0.002340 -0.001189
# 4 -0.002440 -0.002181 -0.006464 0.034756 -0.007998 0.004466
# 5 -0.000660 0.000429 0.002340 -0.007998 0.027752 0.007706
# 6 -0.004659 -0.007449 -0.001189 0.004466 0.007706 0.065032
#
#
# Mechanical properties :
#
#
# Convention : Reuss Voigt Hill
#
# Bulk Modulus (GPa) = 29.05724 37.75588 33.40656
# Shear Modulus (GPa) = 27.20889 34.20912 30.70900
#
# Velocity S-wave (km/s) = 3.42185 3.83687 3.63529
# Velocity P-wave (km/s) = 5.30251 5.98971 5.65656
#
# Compressibility (1/GPa) = 0.03441484
#
# Stress axis : x y z
#
# Youngs Moduli (GPa) = 63.25194 75.36147 95.19965
#
# Poissons Ratio (x) = -0.01046 0.10538
# Poissons Ratio (y) = -0.00878 0.15385
# Poissons Ratio (z) = 0.07002 0.12179
#
# Static dielectric constant tensor:
#      x y z
#    x 4.559200 0.346410 -0.156380 
#    y 0.346410 4.476590 0.318990 
#    z -0.156380 0.318990 4.677560 
# 
# 
# High freq. dielectric constant tensor:
#      x y z
#    x 1.922280 0.015360 -0.005280 
#    y 0.015360 1.907190 0.014570 
#    z -0.005280 0.014570 1.937450 
# 
# From -- ./inp_files/447826.got.cif
#   From: 2010.06.25/outbox.cif.g09.slc.cpg/sg2_224_cif.got.tgz:447826.got - 2010.06.27 13:26:56.
