data_PCOD8044231
_publ_section_title
;
Structure prediction by ZEFSAII (Michael W. Deem and Ramdas Pophale) SiO2 
 PCOD8044231
Probable space group: P -1
;
_chemical_formula_sum "Si O2"
_cell_formula_units_Z 16
_cell_length_a 9.511327
_cell_length_b 12.023482
_cell_length_c 16.549337
_cell_angle_alpha 52.049017
_cell_angle_beta 148.007851
_cell_angle_gamma 117.375570
_cell_volume 781.969823
_symmetry_space_group_name_H-M "P -1"
_symmetry_group_IT_number 2
_symmetry_cell_setting 'triclinic'
loop_
_space_group_symop_operation_xyz
x,y,z
-x,-y,-z
loop_
_atom_site_type_symbol
_atom_site_label
_atom_site_fract_x
_atom_site_fract_y
_atom_site_fract_z
Si Si1 0.285090 0.363746 0.884001
Si Si2 0.632028 0.059793 0.417145
Si Si3 0.685547 0.934055 0.047095
Si Si4 0.446554 0.653495 0.812418
Si Si5 0.269284 0.616011 0.302227
Si Si6 0.882386 0.915040 0.744409
Si Si7 0.996481 0.373185 0.994484
Si Si8 0.313562 0.936137 0.176349
O O1 0.315962 0.235068 0.891631
O O2 0.323507 0.511432 0.791732
O O3 0.995122 0.386444 0.772909
O O4 0.516567 0.334230 0.078327
O O5 0.743088 0.203975 0.376411
O O6 0.413334 0.098603 0.363212
O O7 0.869477 0.950640 0.625285
O O8 0.495894 0.995000 0.304979
O O9 0.990022 0.960153 0.203020
O O10 0.500000 0.000000 0.000000
O O11 0.577656 0.019218 0.876368
O O12 0.729018 0.659709 0.905449
O O13 0.500000 0.500000 0.500000
O O14 0.361593 0.768674 0.286821
O O15 0.231453 0.585066 0.202674
O O16 0.063278 0.763278 0.920829
O O17 0.000000 0.500000 0.000000
O O18 0.000000 0.000000 0.000000
#
# Coordination Sequence:
#
# PCOD8044231 Si02
#       8
#     2   2   2   2   2   2   2   2
#     4  10  20  40  64  90 127 166 209 260 323 383
#     4  10  19  37  66  91 117 163 216 263 309 374
#     4  12  24  40  66  95 126 171 215 263 319 382
#     4   9  19  37  63  89 120 168 206 254 325 381
#     4  11  23  39  65  97 123 163 220 263 312 383
#     4  10  21  38  59  92 121 158 216 258 311 371
#     4  10  21  37  59  86 127 164 201 259 317 373
#     4  12  19  42  71  88 123 173 219 259 309 386
#
# _framework density 20.461147
#
# number of rings (size 3 to 8) (size 9 to 14) (size 15 to 20)
#    0.000    1.500    5.000    0.750    3.500    0.000 
#    4.500    1.250    0.000    0.000    0.000    0.000 
#    0.000    0.000    0.000    0.000    0.000    0.000 
#
# Total GULP energy -198314.369130 kJ/mol
# GULP energy per Si atom -12394.648071 kJ/mol
# Density = 2.041458 g / cm^3
# Si number density = 20.461147 Si / 1000 Ang^3
#
#
#
# Elastic Constant Matrix: (Units=GPa)
#
#
# Indices 1 2 3 4 5 6 
#
# 1 64.1324 39.2537 45.2762 -11.5652 -22.7799 -4.7395
# 2 39.2537 180.8233 79.7543 -25.7731 -28.8145 2.6362
# 3 45.2762 79.7543 149.1432 -14.2686 -41.8226 -5.9189
# 4 -11.5652 -25.7731 -14.2686 30.1824 0.3549 -6.8602
# 5 -22.7799 -28.8145 -41.8226 0.3549 32.1588 -3.0431
# 6 -4.7395 2.6362 -5.9189 -6.8602 -3.0431 35.0852
#
#
#
# Elastic Compliance Matrix: (Units=1/GPa)
#
#
# Indices 1 2 3 4 5 6 
#
# 1 0.024824 -0.001077 -0.001652 0.009049 0.014959 0.006222
# 2 -0.001077 0.008186 -0.002696 0.005285 0.003014 0.000079
# 3 -0.001652 -0.002696 0.013048 0.004016 0.013732 0.004157
# 4 0.009049 0.005285 0.004016 0.045510 0.016990 0.011875
# 5 0.014959 0.003014 0.013732 0.016990 0.063286 0.012922
# 6 0.006222 0.000079 0.004157 0.011875 0.012922 0.033481
#
#
# Mechanical properties :
#
#
# Convention : Reuss Voigt Hill
#
# Bulk Modulus (GPa) = 28.40420 80.29635 54.35027
# Shear Modulus (GPa) = 23.70536 34.80626 29.25581
#
# Velocity S-wave (km/s) = 3.40745 4.12890 3.78540
# Velocity P-wave (km/s) = 5.42154 7.87775 6.76210
#
# Compressibility (1/GPa) = 0.03520607
#
# Stress axis : x y z
#
# Youngs Moduli (GPa) = 40.28394 122.16287 76.63744
#
# Poissons Ratio (x) = 0.13159 0.12664
# Poissons Ratio (y) = 0.04339 0.20664
# Poissons Ratio (z) = 0.06657 0.32940
#
# Static dielectric constant tensor:
#      x y z
#    x 3.627100 0.222460 -0.554140 
#    y 0.222460 3.797710 -0.070120 
#    z -0.554140 -0.070120 3.833520 
# 
# 
# High freq. dielectric constant tensor:
#      x y z
#    x 1.781860 0.007430 -0.029840 
#    y 0.007430 1.812250 -0.006430 
#    z -0.029840 -0.006430 1.788780 
# 
# From -- ./inp_files/500111.got.cif
#   From: 2010.06.25/outbox.cif.g09.slc.cpg/sg2_251_cif.got.tgz:500111.got - 2010.06.27 13:26:56.
