data_PCOD8044058
_publ_section_title
;
Structure prediction by ZEFSAII (Michael W. Deem and Ramdas Pophale) SiO2 
 PCOD8044058
Probable space group: P -1
;
_chemical_formula_sum "Si O2"
_cell_formula_units_Z 16
_cell_length_a 20.491057
_cell_length_b 13.237977
_cell_length_c 11.098157
_cell_angle_alpha 33.533426
_cell_angle_beta 26.567456
_cell_angle_gamma 37.951212
_cell_volume 732.462020
_symmetry_space_group_name_H-M "P -1"
_symmetry_group_IT_number 2
_symmetry_cell_setting 'triclinic'
loop_
_space_group_symop_operation_xyz
x,y,z
-x,-y,-z
loop_
_atom_site_type_symbol
_atom_site_label
_atom_site_fract_x
_atom_site_fract_y
_atom_site_fract_z
Si Si1 0.665277 0.635506 0.169000
Si Si2 0.880400 0.215077 0.730053
Si Si3 0.404118 0.473960 0.858213
Si Si4 0.918801 0.323491 0.812026
Si Si5 0.206097 0.127249 0.892603
Si Si6 0.096223 0.724540 0.855085
Si Si7 0.182610 0.069784 0.264103
Si Si8 0.365178 0.426631 0.234115
O O1 0.545224 0.575694 0.516452
O O2 0.600737 0.661375 0.113815
O O3 0.816031 0.484556 0.078416
O O4 0.700065 0.831642 0.957373
O O5 0.958175 0.201144 0.748170
O O6 0.781560 0.416015 0.673814
O O7 0.013969 0.178163 0.449776
O O8 0.782800 0.052861 0.033591
O O9 0.258603 0.628799 0.941374
O O10 0.408896 0.366667 0.083923
O O11 0.000000 0.500000 0.500000
O O12 0.962708 0.213468 0.973692
O O13 0.335833 0.241604 0.533060
O O14 0.225098 0.057234 0.067027
O O15 0.047950 0.263043 0.002924
O O16 0.201025 0.862471 0.494137
O O17 0.500000 0.500000 0.000000
#
# Coordination Sequence:
#
# PCOD8044058 Si02
#       8
#     2   2   2   2   2   2   2   2
#     4  10  20  39  61  81 117 151 181 242 291 330
#     4  10  22  39  58  85 118 146 187 246 285 330
#     4   9  20  37  58  88 114 144 194 235 282 346
#     4  10  19  37  63  88 116 150 192 236 285 343
#     4  11  24  38  56  86 117 149 197 240 279 343
#     4  10  21  37  60  87 112 148 191 231 286 347
#     4  11  23  37  58  86 114 150 195 234 283 342
#     4  11  23  39  60  84 115 157 194 230 289 348
#
# _framework density 21.844135999999999
#
# number of rings (size 3 to 8) (size 9 to 14) (size 15 to 20)
#    0.000    1.750    0.000    6.000    0.000    8.500 
#    0.000    8.125    0.000    0.000    0.000    0.000 
#    0.000    0.000    0.000    0.000    0.000    0.000 
#
# Total GULP energy -198377.450677 kJ/mol
# GULP energy per Si atom -12398.590667 kJ/mol
# Density = 2.179442 g / cm^3
# Si number density = 21.844136 Si / 1000 Ang^3
#
#
#
# Elastic Constant Matrix: (Units=GPa)
#
#
# Indices 1 2 3 4 5 6 
#
# 1 119.2463 5.1688 65.6587 -17.3817 10.1859 22.5202
# 2 5.1688 28.3033 8.1227 -3.1145 1.1570 12.8651
# 3 65.6587 8.1227 147.4978 -19.5410 5.3691 21.4776
# 4 -17.3817 -3.1145 -19.5410 29.0530 4.6279 -4.6005
# 5 10.1859 1.1570 5.3691 4.6279 48.2643 -0.8660
# 6 22.5202 12.8651 21.4776 -4.6005 -0.8660 28.6455
#
#
#
# Elastic Compliance Matrix: (Units=1/GPa)
#
#
# Indices 1 2 3 4 5 6 
#
# 1 0.012863 0.002960 -0.004054 0.004520 -0.002907 -0.007765
# 2 0.002960 0.045372 -0.000034 0.003487 -0.002441 -0.022192
# 3 -0.004054 -0.000034 0.009580 0.003570 -0.000613 -0.003426
# 4 0.004520 0.003487 0.003570 0.040521 -0.005346 -0.001450
# 5 -0.002907 -0.002441 -0.000613 -0.005346 0.022038 0.003650
# 6 -0.007765 -0.022192 -0.003426 -0.001450 0.003650 0.053427
#
#
# Mechanical properties :
#
#
# Convention : Reuss Voigt Hill
#
# Bulk Modulus (GPa) = 15.25330 50.32754 32.79042
# Shear Modulus (GPa) = 24.04885 35.59903 29.82394
#
# Velocity S-wave (km/s) = 3.32163 4.04131 3.69901
# Velocity P-wave (km/s) = 4.65928 6.69819 5.76951
#
# Compressibility (1/GPa) = 0.06555958
#
# Stress axis : x y z
#
# Youngs Moduli (GPa) = 77.73983 22.04019 104.38017
#
# Poissons Ratio (x) = -0.06524 0.42314
# Poissons Ratio (y) = -0.23010 0.00354
# Poissons Ratio (z) = 0.31515 0.00075
#
# Static dielectric constant tensor:
#      x y z
#    x 4.325410 0.185870 0.111190 
#    y 0.185870 3.621890 0.104910 
#    z 0.111190 0.104910 4.043000 
# 
# 
# High freq. dielectric constant tensor:
#      x y z
#    x 1.871800 0.009760 -0.000480 
#    y 0.009760 1.823650 0.006980 
#    z -0.000480 0.006980 1.868690 
# 
# From -- ./inp_files/471659.got.cif
#   From: 2010.06.25/outbox.cif.g09.slc.cpg/sg2_236_cif.got.tgz:471659.got - 2010.06.27 13:26:56.
