data_PCOD8044913
_publ_section_title
;
Structure prediction by ZEFSAII (Michael W. Deem and Ramdas Pophale) SiO2 
 PCOD8044913
Probable space group: P 2
;
_chemical_formula_sum "Si O2"
_cell_formula_units_Z 16
_cell_length_a 9.000893
_cell_length_b 17.977970
_cell_length_c 8.158166
_cell_angle_alpha 90.000000
_cell_angle_beta 145.963825
_cell_angle_gamma 90.000000
_cell_volume 738.901731
_symmetry_space_group_name_H-M "P 2"
_symmetry_group_IT_number 3
_symmetry_cell_setting 'monoclinic'
loop_
_space_group_symop_operation_xyz
x,y,z
-x,y,-z
loop_
_atom_site_type_symbol
_atom_site_label
_atom_site_fract_x
_atom_site_fract_y
_atom_site_fract_z
Si Si1 0.512495 0.737600 0.329283
Si Si2 0.457539 0.055791 0.656127
Si Si3 0.962563 0.810266 0.279069
Si Si4 0.220065 0.461721 0.829018
Si Si5 0.462702 0.222796 0.658456
Si Si6 0.963044 0.972401 0.154519
Si Si7 0.711872 0.575615 0.818711
Si Si8 0.040673 0.314555 0.844226
O O1 0.500000 0.772978 0.500000
O O2 0.423568 0.652477 0.250855
O O3 0.819808 0.746625 0.560352
O O4 0.328483 0.779781 0.030357
O O5 0.500000 0.056305 0.500000
O O6 0.441534 0.139747 0.711251
O O7 0.186904 0.015603 0.460697
O O8 0.682574 0.007076 0.953324
O O9 0.999084 0.884705 0.209000
O O10 0.000000 0.833104 0.500000
O O11 0.091511 0.391870 0.802345
O O12 0.000000 0.490872 0.500000
O O13 0.500000 0.441662 0.000000
O O14 0.265751 0.526450 0.000564
O O15 0.500000 0.217162 0.500000
O O16 0.210501 0.274321 0.467861
O O17 0.715869 0.260617 0.971272
O O18 0.000000 0.991794 0.000000
O O19 0.500000 0.537182 0.500000
O O20 0.000000 0.588349 0.000000
O O21 0.000000 0.330032 0.000000
#
# Coordination Sequence:
#
# PCOD8044913 Si02
#       8
#     2   2   2   2   2   2   2   2
#     4  11  23  43  67  92 120 158 206 255 306 367
#     4   9  17  30  53  85 115 145 197 260 308 349
#     4  12  25  40  61  91 128 165 202 251 307 370
#     4  12  26  42  63  94 131 168 205 256 311 372
#     4   9  17  31  55  87 116 149 200 261 309 353
#     4  10  19  33  55  82 115 158 201 248 302 363
#     4  11  24  45  70  95 123 161 208 260 311 371
#     4  10  20  36  60  86 118 160 205 251 304 365
#
# _framework density 21.653759000000001
#
# number of rings (size 3 to 8) (size 9 to 14) (size 15 to 20)
#    0.000    1.500    0.000    6.375    0.000    7.000 
#    0.000    0.000    0.000    7.500    0.000    0.000 
#    0.000    0.000    0.000    0.000    0.000    0.000 
#
# Total GULP energy -198385.209399 kJ/mol
# GULP energy per Si atom -12399.075587 kJ/mol
# Density = 2.160447 g / cm^3
# Si number density = 21.653759 Si / 1000 Ang^3
#
#
#
# Elastic Constant Matrix: (Units=GPa)
#
#
# Indices 1 2 3 4 5 6 
#
# 1 49.8305 37.9137 46.6369 0.0000 11.9077 0.0000
# 2 37.9137 135.0905 58.4302 0.0000 9.0912 0.0000
# 3 46.6369 58.4302 161.0478 0.0000 15.7911 0.0000
# 4 0.0000 0.0000 0.0000 27.5498 0.0000 12.2884
# 5 11.9077 9.0912 15.7911 0.0000 37.7876 0.0000
# 6 0.0000 0.0000 0.0000 12.2884 0.0000 -11.3663
#
#
#
# Elastic Compliance Matrix: (Units=1/GPa)
#
#
# Indices 1 2 3 4 5 6 
#
# 1 0.032043 -0.005731 -0.006616 0.000000 -0.005954 0.000000
# 2 -0.005731 0.009829 -0.001931 0.000000 0.000248 0.000000
# 3 -0.006616 -0.001931 0.008942 0.000000 -0.001187 0.000000
# 4 0.000000 0.000000 0.000000 0.024489 0.000000 0.026475
# 5 -0.005954 0.000248 -0.001187 0.000000 0.028776 0.000000
# 6 0.000000 0.000000 0.000000 0.026475 0.000000 -0.059356
#
#
# Mechanical properties :
#
#
# Convention : Reuss Voigt Hill
#
# Bulk Modulus (GPa) = 44.92566 70.21451 57.57008
# Shear Modulus (GPa) = 61.95825 24.32675 43.14250
#
# Velocity S-wave (km/s) = 5.35493 3.35542 4.46845
# Velocity P-wave (km/s) = 7.68284 6.89262 7.29843
#
# Compressibility (1/GPa) = 0.02225899
#
# Stress axis : x y z
#
# Youngs Moduli (GPa) = 31.20779 101.73658 111.82779
#
# Poissons Ratio (x) = 0.58302 0.73988
# Poissons Ratio (y) = 0.17884 0.21594
# Poissons Ratio (z) = 0.20648 0.19645
#
# Static dielectric constant tensor:
#      x y z
#    x 3.800520 0.000000 -0.036050 
#    y 0.000000 3.859900 0.000000 
#    z -0.036050 0.000000 4.649310 
# 
# 
# High freq. dielectric constant tensor:
#      x y z
#    x 1.824720 0.000000 0.010700 
#    y 0.000000 1.855040 0.000000 
#    z 0.010700 0.000000 1.873530 
# 
# From -- ./inp_files/6257.got.cif
#   From: 2010.03.12/outbox.cif.g09.slc.cpg/sg3_4_cif.got.tgz:6257.got - 2010.03.31 09:20:49.
