data_PCOD8045942
_publ_section_title
;
Structure prediction by ZEFSAII (Michael W. Deem and Ramdas Pophale) SiO2 
 PCOD8045942
Probable space group: P 21
;
_chemical_formula_sum "Si O2"
_cell_formula_units_Z 16
_cell_length_a 10.099352
_cell_length_b 8.877711
_cell_length_c 7.662009
_cell_angle_alpha 90.000000
_cell_angle_beta 112.521500
_cell_angle_gamma 90.000000
_cell_volume 634.577950
_symmetry_space_group_name_H-M "P 21"
_symmetry_group_IT_number 4
_symmetry_cell_setting 'monoclinic'
loop_
_space_group_symop_operation_xyz
x,y,z
-x,1/2+y,-z
loop_
_atom_site_type_symbol
_atom_site_label
_atom_site_fract_x
_atom_site_fract_y
_atom_site_fract_z
Si Si1 0.695800 0.048410 0.285303
Si Si2 0.987781 0.916247 0.349168
Si Si3 0.920435 0.581126 0.294419
Si Si4 0.432701 0.887998 0.292652
Si Si5 0.726701 0.658365 0.905847
Si Si6 0.894094 0.940641 0.914770
Si Si7 0.439310 0.821926 0.678383
Si Si8 0.608170 0.080662 0.864704
O O1 0.696989 0.232022 0.310070
O O2 0.849424 0.974021 0.390646
O O3 0.583403 0.975483 0.363692
O O4 0.638377 0.008009 0.066449
O O5 0.005995 0.737016 0.370579
O O6 0.977426 0.971976 0.142500
O O7 0.109081 0.995967 0.533829
O O8 0.003227 0.477394 0.194301
O O9 0.767706 0.621249 0.128397
O O10 0.426215 0.794029 0.466385
O O11 0.417752 0.759547 0.137115
O O12 0.297526 0.002335 0.211488
O O13 0.851894 0.762520 0.885121
O O14 0.578831 0.746850 0.836242
O O15 0.750978 0.042482 0.823383
O O16 0.460674 0.000461 0.722199
#
# Coordination Sequence:
#
# PCOD8045942 Si02
#       8
#     2   2   2   2   2   2   2   2
#     4  10  22  42  64  94 143 174 229 300 350 427
#     4  10  25  45  69 107 131 194 248 292 372 422
#     4  11  24  45  74  99 149 188 245 304 351 435
#     4  11  22  37  69 102 138 178 235 288 352 436
#     4   9  22  42  67 100 137 186 231 283 366 422
#     4   9  22  44  69  95 146 188 233 300 356 426
#     4  10  21  40  66 100 138 177 230 288 358 434
#     4  10  20  37  64  95 134 183 227 283 361 420
#
# _framework density 25.213608000000001
#
# number of rings (size 3 to 8) (size 9 to 14) (size 15 to 20)
#    0.000    2.000    0.000    3.000    5.250    8.000 
#    0.000    1.250    0.000    0.000    0.000    0.000 
#    0.000    0.000    0.000    0.000    0.000    0.000 
#
# Total GULP energy -198284.327677 kJ/mol
# GULP energy per Si atom -12392.770480 kJ/mol
# Density = 2.515622 g / cm^3
# Si number density = 25.213608 Si / 1000 Ang^3
#
#
#
# Elastic Constant Matrix: (Units=GPa)
#
#
# Indices 1 2 3 4 5 6 
#
# 1 39.6732 18.0823 14.1366 0.0000 -6.1988 0.0000
# 2 18.0823 145.5700 40.2056 0.0000 4.2077 0.0000
# 3 14.1366 40.2056 117.4061 0.0000 4.6448 0.0000
# 4 0.0000 0.0000 0.0000 46.5406 0.0000 -0.5462
# 5 -6.1988 4.2077 4.6448 0.0000 25.0381 0.0000
# 6 0.0000 0.0000 0.0000 -0.5462 0.0000 36.2260
#
#
#
# Elastic Compliance Matrix: (Units=1/GPa)
#
#
# Indices 1 2 3 4 5 6 
#
# 1 0.028857 -0.003061 -0.002749 0.000000 0.008169 0.000000
# 2 -0.003061 0.007928 -0.002280 0.000000 -0.001667 0.000000
# 3 -0.002749 -0.002280 0.009712 0.000000 -0.002099 0.000000
# 4 0.000000 0.000000 0.000000 0.021490 0.000000 0.000324
# 5 0.008169 -0.001667 -0.002099 0.000000 0.042631 0.000000
# 6 0.000000 0.000000 0.000000 0.000324 0.000000 0.027609
#
#
# Mechanical properties :
#
#
# Convention : Reuss Voigt Hill
#
# Bulk Modulus (GPa) = 32.98655 49.72203 41.35429
# Shear Modulus (GPa) = 30.39221 36.90925 33.65073
#
# Velocity S-wave (km/s) = 3.47564 3.83020 3.65722
# Velocity P-wave (km/s) = 5.40537 6.27086 5.85413
#
# Compressibility (1/GPa) = 0.03031539
#
# Stress axis : x y z
#
# Youngs Moduli (GPa) = 34.65327 126.13820 102.96077
#
# Poissons Ratio (x) = 0.38615 0.28309
# Poissons Ratio (y) = 0.10608 0.23478
# Poissons Ratio (z) = 0.09528 0.28763
#
# Static dielectric constant tensor:
#      x y z
#    x 4.126590 0.000000 0.281870 
#    y 0.000000 4.752680 0.000000 
#    z 0.281870 0.000000 4.723320 
# 
# 
# High freq. dielectric constant tensor:
#      x y z
#    x 1.964660 0.000000 0.009710 
#    y 0.000000 2.016110 0.000000 
#    z 0.009710 0.000000 2.018270 
# 
# From -- ./inp_files/7896.got.cif
#   From: 2010.03.12/outbox.cif.g09.slc.cpg/sg4_4_cif.got.tgz:7896.got - 2010.03.31 09:31:35.
