data_PCOD8045296
_publ_section_title
;
Structure prediction by ZEFSAII (Michael W. Deem and Ramdas Pophale) SiO2 
 PCOD8045296
Probable space group: P 2
;
_chemical_formula_sum "Si O2"
_cell_formula_units_Z 14
_cell_length_a 12.812501
_cell_length_b 6.160921
_cell_length_c 8.438451
_cell_angle_alpha 90.000000
_cell_angle_beta 74.696060
_cell_angle_gamma 90.000000
_cell_volume 642.483827
_symmetry_space_group_name_H-M "P 2"
_symmetry_group_IT_number 3
_symmetry_cell_setting 'monoclinic'
loop_
_space_group_symop_operation_xyz
x,y,z
-x,y,-z
loop_
_atom_site_type_symbol
_atom_site_label
_atom_site_fract_x
_atom_site_fract_y
_atom_site_fract_z
Si Si1 0.300016 0.171730 0.378586
Si Si2 0.113497 0.868148 0.538715
Si Si3 0.385255 0.516241 0.124885
Si Si4 0.477989 0.836503 0.333793
Si Si5 0.298975 0.797165 0.885064
Si Si6 0.113303 0.102006 0.868956
Si Si7 0.788377 0.485175 0.335649
O O1 0.316388 0.306063 0.208547
O O2 0.284429 0.316685 0.540436
O O3 0.201787 0.999106 0.397991
O O4 0.411079 0.055202 0.374304
O O5 0.144356 0.616937 0.557567
O O6 0.000000 0.876599 0.500000
O O7 0.100524 0.976685 0.712263
O O8 0.408538 0.655342 0.271733
O O9 0.500000 0.448912 0.000000
O O10 0.306110 0.651645 0.040506
O O11 0.500000 0.744468 0.500000
O O12 0.584311 0.904887 0.191494
O O13 0.283474 0.649683 0.736007
O O14 0.207042 0.983161 0.936303
O O15 0.138634 0.353779 0.821083
O O16 0.000000 0.088248 0.000000
#
# Coordination Sequence:
#
# PCOD8045296 Si02
#       7
#     2   2   2   2   2   2   2
#     4  11  23  41  64  93 123 166 214 256 312 376
#     4  10  23  43  64  90 127 164 210 264 313 370
#     4  10  24  40  62  95 129 164 207 258 319 379
#     4  11  22  39  63  90 125 166 207 257 312 374
#     4  10  23  43  62  91 130 164 205 262 318 374
#     4  10  23  42  66  93 123 165 210 258 319 377
#     4  10  22  42  65  92 123 165 214 257 313 378
#
# _framework density 21.790431000000002
#
# number of rings (size 3 to 8) (size 9 to 14) (size 15 to 20)
#    0.000    1.714    0.000    4.286    0.000   16.000 
#    0.000    2.857    0.000    0.000    0.000    0.000 
#    0.000    0.000    0.000    0.000    0.000    0.000 
#
# Total GULP energy -173595.741062 kJ/mol
# GULP energy per Si atom -12399.695790 kJ/mol
# Density = 2.174083 g / cm^3
# Si number density = 21.790431 Si / 1000 Ang^3
#
#
#
# Elastic Constant Matrix: (Units=GPa)
#
#
# Indices 1 2 3 4 5 6 
#
# 1 148.3713 69.1943 50.4689 0.0000 -8.2513 0.0000
# 2 69.1943 123.3506 43.6570 0.0000 -13.4536 0.0000
# 3 50.4689 43.6570 92.7196 0.0000 -4.6064 0.0000
# 4 0.0000 0.0000 0.0000 38.3891 0.0000 -6.6893
# 5 -8.2513 -13.4536 -4.6064 0.0000 45.8594 0.0000
# 6 0.0000 0.0000 0.0000 -6.6893 0.0000 19.2977
#
#
#
# Elastic Compliance Matrix: (Units=1/GPa)
#
#
# Indices 1 2 3 4 5 6 
#
# 1 0.009920 -0.004366 -0.003336 0.000000 0.000169 0.000000
# 2 -0.004366 0.011921 -0.003118 0.000000 0.002399 0.000000
# 3 -0.003336 -0.003118 0.014064 0.000000 -0.000102 0.000000
# 4 0.000000 0.000000 0.000000 0.027724 0.000000 0.009610
# 5 0.000169 0.002399 -0.000102 0.000000 0.022530 0.000000
# 6 0.000000 0.000000 0.000000 0.009610 0.000000 0.055151
#
#
# Mechanical properties :
#
#
# Convention : Reuss Voigt Hill
#
# Bulk Modulus (GPa) = 70.09218 76.78689 73.43954
# Shear Modulus (GPa) = 29.81493 34.11732 31.96613
#
# Velocity S-wave (km/s) = 3.70301 3.96119 3.83427
# Velocity P-wave (km/s) = 7.10770 7.49911 7.30603
#
# Compressibility (1/GPa) = 0.01426693
#
# Stress axis : x y z
#
# Youngs Moduli (GPa) = 100.80865 83.88669 71.10542
#
# Poissons Ratio (x) = 0.36621 0.23718
# Poissons Ratio (y) = 0.44009 0.22167
# Poissons Ratio (z) = 0.33626 0.26152
#
# Static dielectric constant tensor:
#      x y z
#    x 4.029870 0.000000 -0.035640 
#    y 0.000000 4.251870 0.000000 
#    z -0.035640 0.000000 4.015370 
# 
# 
# High freq. dielectric constant tensor:
#      x y z
#    x 1.852870 0.000000 -0.005660 
#    y 0.000000 1.858660 0.000000 
#    z -0.005660 0.000000 1.862080 
# 
# From -- ./inp_files/6616.got.cif
#   From: 2010.03.12/outbox.cif.g09.slc.cpg/sg3_4_cif.got.tgz:6616.got - 2010.03.31 09:20:49.
