data_PCOD8045831
_publ_section_title
;
Structure prediction by ZEFSAII (Michael W. Deem and Ramdas Pophale) SiO2 
 PCOD8045831
Probable space group: P 21
;
_chemical_formula_sum "Si O2"
_cell_formula_units_Z 14
_cell_length_a 5.297749
_cell_length_b 18.878143
_cell_length_c 6.479534
_cell_angle_alpha 90.000000
_cell_angle_beta 75.480328
_cell_angle_gamma 90.000000
_cell_volume 627.331975
_symmetry_space_group_name_H-M "P 21"
_symmetry_group_IT_number 4
_symmetry_cell_setting 'monoclinic'
loop_
_space_group_symop_operation_xyz
x,y,z
-x,1/2+y,-z
loop_
_atom_site_type_symbol
_atom_site_label
_atom_site_fract_x
_atom_site_fract_y
_atom_site_fract_z
Si Si1 0.000280 0.488900 0.542576
Si Si2 0.615486 0.678629 0.161642
Si Si3 0.629010 0.903096 0.766888
Si Si4 0.457247 0.035283 0.604005
Si Si5 0.257698 0.869199 0.182014
Si Si6 0.838588 0.235777 0.038025
Si Si7 0.445275 0.784854 0.524918
O O1 0.250995 0.536555 0.558590
O O2 0.763896 0.540814 0.527143
O O3 0.915222 0.439743 0.752487
O O4 0.089228 0.440435 0.324174
O O5 0.571151 0.597004 0.223765
O O6 0.397605 0.700861 0.041500
O O7 0.606551 0.725426 0.370680
O O8 0.905221 0.687397 0.012570
O O9 0.540808 0.886359 0.019425
O O10 0.633710 0.830334 0.634307
O O11 0.414720 0.959060 0.722607
O O12 0.101328 0.813787 0.069505
O O13 0.304593 0.837661 0.397253
O O14 0.766480 0.244209 0.292192
#
# Coordination Sequence:
#
# PCOD8045831 Si02
#       7
#     2   2   2   2   2   2   2
#     4  10  20  40  59  91 125 159 204 260 304 365
#     4  11  23  44  62  90 129 171 203 257 313 368
#     4   9  21  39  62  95 124 160 209 263 304 368
#     4  10  22  42  61  88 133 162 210 255 302 377
#     4  10  19  40  66  94 121 162 204 262 320 357
#     4  10  24  39  65  90 122 162 211 256 312 370
#     4  10  21  42  65  96 122 162 211 263 307 371
#
# _framework density 22.316731999999998
#
# number of rings (size 3 to 8) (size 9 to 14) (size 15 to 20)
#    0.857    1.143    1.429    1.714    0.000    5.714 
#   10.286    0.000    0.000    0.000    0.000    0.000 
#    0.000    0.000    0.000    0.000    0.000    0.000 
#
# Total GULP energy -173494.129362 kJ/mol
# GULP energy per Si atom -12392.437812 kJ/mol
# Density = 2.226594 g / cm^3
# Si number density = 22.316732 Si / 1000 Ang^3
#
#
#
# Elastic Constant Matrix: (Units=GPa)
#
#
# Indices 1 2 3 4 5 6 
#
# 1 128.0689 10.9712 23.8510 0.0000 -9.3979 0.0000
# 2 10.9712 58.8353 7.7651 0.0000 -1.5037 0.0000
# 3 23.8510 7.7651 93.3500 0.0000 -11.4368 0.0000
# 4 0.0000 0.0000 0.0000 16.8960 0.0000 -9.6740
# 5 -9.3979 -1.5037 -11.4368 0.0000 14.5968 0.0000
# 6 0.0000 0.0000 0.0000 -9.6740 0.0000 26.8233
#
#
#
# Elastic Compliance Matrix: (Units=1/GPa)
#
#
# Indices 1 2 3 4 5 6 
#
# 1 0.008511 -0.001275 -0.001563 0.000000 0.004124 0.000000
# 2 -0.001275 0.017383 -0.001108 0.000000 0.000102 0.000000
# 3 -0.001563 -0.001108 0.012242 0.000000 0.008471 0.000000
# 4 0.000000 0.000000 0.000000 0.074588 0.000000 0.026901
# 5 0.004124 0.000102 0.008471 0.000000 0.077810 0.000000
# 6 0.000000 0.000000 0.000000 0.026901 0.000000 0.046983
#
#
# Mechanical properties :
#
#
# Convention : Reuss Voigt Hill
#
# Bulk Modulus (GPa) = 33.06501 40.60320 36.83410
# Shear Modulus (GPa) = 19.57008 27.50767 23.53888
#
# Velocity S-wave (km/s) = 2.96450 3.51465 3.25124
# Velocity P-wave (km/s) = 5.15423 5.89101 5.53489
#
# Compressibility (1/GPa) = 0.03024345
#
# Stress axis : x y z
#
# Youngs Moduli (GPa) = 117.49086 57.52676 81.68755
#
# Poissons Ratio (x) = 0.07337 0.12771
# Poissons Ratio (y) = 0.14985 0.09048
# Poissons Ratio (z) = 0.18368 0.06372
#
# Static dielectric constant tensor:
#      x y z
#    x 3.692590 0.000000 -0.218210 
#    y 0.000000 3.947160 0.000000 
#    z -0.218210 0.000000 3.960800 
# 
# 
# High freq. dielectric constant tensor:
#      x y z
#    x 1.865410 0.000000 -0.018110 
#    y 0.000000 1.871250 0.000000 
#    z -0.018110 0.000000 1.869400 
# 
# From -- ./inp_files/595.got.cif
#   From: 2010.03.12/outbox.cif.g09.slc.cpg/sg4_1_cif.got.tgz:595.got - 2010.03.31 09:31:35.
