data_PCOD8045159
_publ_section_title
;
Structure prediction by ZEFSAII (Michael W. Deem and Ramdas Pophale) SiO2 
 PCOD8045159
Probable space group: P 2
;
_chemical_formula_sum "Si O2"
_cell_formula_units_Z 13
_cell_length_a 11.924989
_cell_length_b 8.620651
_cell_length_c 13.826919
_cell_angle_alpha 90.000000
_cell_angle_beta 30.406716
_cell_angle_gamma 90.000000
_cell_volume 719.431950
_symmetry_space_group_name_H-M "P 2"
_symmetry_group_IT_number 3
_symmetry_cell_setting 'monoclinic'
loop_
_space_group_symop_operation_xyz
x,y,z
-x,y,-z
loop_
_atom_site_type_symbol
_atom_site_label
_atom_site_fract_x
_atom_site_fract_y
_atom_site_fract_z
Si Si1 0.500000 0.044850 0.500000
Si Si2 0.151982 0.101745 0.218688
Si Si3 0.228294 0.765146 0.771690
Si Si4 0.873652 0.830391 0.500000
Si Si5 0.284120 0.260293 0.499974
Si Si6 0.670460 0.617087 0.500002
Si Si7 0.589372 0.101755 0.781314
O O1 0.389521 0.147047 0.499902
O O2 0.308569 0.940360 0.691372
O O3 0.253422 0.151906 0.246570
O O4 0.978964 0.231773 0.313144
O O5 0.336436 0.086348 0.999994
O O6 0.034775 0.934997 0.314288
O O7 0.417546 0.676329 0.691511
O O8 0.199377 0.676262 0.691552
O O9 0.000000 0.765836 0.000000
O O10 0.796639 0.679742 0.500004
O O11 0.000000 0.767339 0.500000
O O12 0.663376 0.935017 0.685695
O O13 0.329653 0.432998 0.499962
O O14 0.394727 0.231797 0.313133
#
# Coordination Sequence:
#
# PCOD8045159 Si02
#       7
#     1   2   2   2   2   2   2
#     4  10  22  36  54  80 100 132 184 216 252 314
#     4   9  18  34  56  79 103 138 182 219 253 299
#     4  10  21  39  59  75  99 136 178 222 258 300
#     4   9  18  33  54  78 106 140 177 217 255 299
#     4  11  21  35  53  78 112 139 166 214 266 312
#     4  10  22  36  53  81 110 137 171 209 263 324
#     4   9  18  34  56  79 103 138 182 219 253 299
#
# _framework density 18.069811999999999
#
# number of rings (size 3 to 8) (size 9 to 14) (size 15 to 20)
#    0.000    2.462    0.000    6.000    0.000    7.385 
#    0.000    1.538    0.000    3.692    0.000    0.000 
#    0.000    0.000    0.000    0.000    0.000    0.000 
#
# Total GULP energy -161201.630224 kJ/mol
# GULP energy per Si atom -12400.125402 kJ/mol
# Density = 1.802868 g / cm^3
# Si number density = 18.069812 Si / 1000 Ang^3
#
#
#
# Elastic Constant Matrix: (Units=GPa)
#
#
# Indices 1 2 3 4 5 6 
#
# 1 116.2636 66.8204 56.4497 0.0000 -1.7333 0.0000
# 2 66.8204 133.8725 54.6259 0.0000 -0.7870 0.0000
# 3 56.4497 54.6259 177.8175 0.0000 6.0379 0.0000
# 4 0.0000 0.0000 0.0000 7.5062 0.0000 -0.8284
# 5 -1.7333 -0.7870 6.0379 0.0000 17.4580 0.0000
# 6 0.0000 0.0000 0.0000 -0.8284 0.0000 19.6480
#
#
#
# Elastic Compliance Matrix: (Units=1/GPa)
#
#
# Indices 1 2 3 4 5 6 
#
# 1 0.012977 -0.005440 -0.002513 0.000000 0.001912 0.000000
# 2 -0.005440 0.010851 -0.001624 0.000000 0.000511 0.000000
# 3 -0.002513 -0.001624 0.007014 0.000000 -0.002748 0.000000
# 4 0.000000 0.000000 0.000000 0.133847 0.000000 0.005643
# 5 0.001912 0.000511 -0.002748 0.000000 0.058444 0.000000
# 6 0.000000 0.000000 0.000000 0.005643 0.000000 0.051134
#
#
# Mechanical properties :
#
#
# Convention : Reuss Voigt Hill
#
# Bulk Modulus (GPa) = 85.56702 87.08285 86.32493
# Shear Modulus (GPa) = 16.81717 25.59293 21.20505
#
# Velocity S-wave (km/s) = 3.05401 3.76751 3.42937
# Velocity P-wave (km/s) = 7.73901 8.19894 7.97229
#
# Compressibility (1/GPa) = 0.01168675
#
# Stress axis : x y z
#
# Youngs Moduli (GPa) = 77.06159 92.15927 142.57845
#
# Poissons Ratio (x) = 0.50138 0.35833
# Poissons Ratio (y) = 0.41924 0.23149
# Poissons Ratio (z) = 0.19367 0.14963
#
# Static dielectric constant tensor:
#      x y z
#    x 3.539940 0.000000 -0.006400 
#    y 0.000000 3.089840 0.000000 
#    z -0.006400 0.000000 3.445200 
# 
# 
# High freq. dielectric constant tensor:
#      x y z
#    x 1.718520 0.000000 -0.001530 
#    y 0.000000 1.680580 0.000000 
#    z -0.001530 0.000000 1.696050 
# 
# From -- ./inp_files/12224.got.cif
#   From: 2010.03.12/outbox.cif.g09.slc.cpg/sg3_7_cif.got.tgz:12224.got - 2010.03.31 09:20:49.
