data_PCOD8045214
_publ_section_title
;
Structure prediction by ZEFSAII (Michael W. Deem and Ramdas Pophale) SiO2 
 PCOD8045214
Probable space group: P 2
;
_chemical_formula_sum "Si O2"
_cell_formula_units_Z 15
_cell_length_a 20.669746
_cell_length_b 5.277309
_cell_length_c 7.549004
_cell_angle_alpha 90.000000
_cell_angle_beta 43.745059
_cell_angle_gamma 90.000000
_cell_volume 569.375239
_symmetry_space_group_name_H-M "P 2"
_symmetry_group_IT_number 3
_symmetry_cell_setting 'monoclinic'
loop_
_space_group_symop_operation_xyz
x,y,z
-x,y,-z
loop_
_atom_site_type_symbol
_atom_site_label
_atom_site_fract_x
_atom_site_fract_y
_atom_site_fract_z
Si Si1 0.767514 0.546660 0.480560
Si Si2 0.677240 0.350471 0.168387
Si Si3 0.421616 0.076702 0.931381
Si Si4 0.137015 0.538965 0.082850
Si Si5 0.500000 0.693210 0.500000
Si Si6 0.144704 0.042515 0.606246
Si Si7 0.610348 0.251021 0.652245
Si Si8 0.048423 0.036113 0.176720
O O1 0.830392 0.557990 0.183010
O O2 0.801900 0.307062 0.530136
O O3 0.657610 0.501458 0.649136
O O4 0.782307 0.806617 0.561433
O O5 0.662372 0.184808 0.022657
O O6 0.773905 0.503846 0.962072
O O7 0.590704 0.536378 0.373374
O O8 0.675249 0.174822 0.352323
O O9 0.502746 0.293042 0.801946
O O10 0.473773 0.851002 0.727995
O O11 0.384209 0.026084 0.206790
O O12 0.069646 0.296380 0.239126
O O13 0.082824 0.800528 0.231286
O O14 0.100326 0.035656 0.887951
O O15 0.063077 0.012652 0.623699
#
# Coordination Sequence:
#
# PCOD8045214 Si02
#       8
#     2   2   2   2   1   2   2   2
#     4   9  18  31  50  82 114 162 199 262 309 385
#     4  11  22  42  59  90 126 168 208 275 320 384
#     4  11  23  42  60  88 123 170 211 269 328 383
#     4   9  19  29  54  81 117 157 209 251 315 380
#     4  12  22  40  66  88 124 172 222 274 332 386
#     4   9  16  29  50  77 123 152 199 254 322 370
#     4  10  21  42  59  86 126 163 219 258 328 389
#     4   9  16  29  48  84 114 158 199 255 310 390
#
# _framework density 26.344664000000002
#
# number of rings (size 3 to 8) (size 9 to 14) (size 15 to 20)
#    0.000    2.133    2.667    0.800    1.867    6.400 
#    7.200    0.000    0.000    0.000    0.000    5.600 
#    0.000    0.000    0.000    0.000    0.000    0.000 
#
# Total GULP energy -185828.255898 kJ/mol
# GULP energy per Si atom -12388.550393 kJ/mol
# Density = 2.628470 g / cm^3
# Si number density = 26.344664 Si / 1000 Ang^3
#
#
#
# Elastic Constant Matrix: (Units=GPa)
#
#
# Indices 1 2 3 4 5 6 
#
# 1 135.9235 40.5548 27.8530 0.0000 -24.4454 0.0000
# 2 40.5548 143.1335 0.4349 0.0000 -17.0417 0.0000
# 3 27.8530 0.4349 35.3257 0.0000 18.1356 0.0000
# 4 0.0000 0.0000 0.0000 0.2191 0.0000 -17.2656
# 5 -24.4454 -17.0417 18.1356 0.0000 56.7078 0.0000
# 6 0.0000 0.0000 0.0000 -17.2656 0.0000 17.4042
#
#
#
# Elastic Compliance Matrix: (Units=1/GPa)
#
#
# Indices 1 2 3 4 5 6 
#
# 1 0.012934 -0.002467 -0.015135 0.000000 0.009675 0.000000
# 2 -0.002467 0.007778 0.001430 0.000000 0.000817 0.000000
# 3 -0.015135 0.001430 0.051868 0.000000 -0.022682 0.000000
# 4 0.000000 0.000000 0.000000 -0.059140 0.000000 -0.058669
# 5 0.009675 0.000817 -0.022682 0.000000 0.029304 0.000000
# 6 0.000000 0.000000 0.000000 -0.058669 0.000000 -0.000745
#
#
# Mechanical properties :
#
#
# Convention : Reuss Voigt Hill
#
# Bulk Modulus (GPa) = 24.85229 50.22979 37.54104
# Shear Modulus (GPa) = 56.97614 31.23557 44.10586
#
# Velocity S-wave (km/s) = 4.65555 3.44706 4.09612
# Velocity P-wave (km/s) = 6.19297 5.91192 6.05408
#
# Compressibility (1/GPa) = 0.04023774
#
# Stress axis : x y z
#
# Youngs Moduli (GPa) = 77.31316 128.56194 19.27964
#
# Poissons Ratio (x) = 0.31715 0.29179
# Poissons Ratio (y) = 0.19072 -0.02757
# Poissons Ratio (z) = 1.17011 -0.18384
#
# Static dielectric constant tensor:
#      x y z
#    x 5.083220 0.000000 -0.009010 
#    y 0.000000 4.715620 0.000000 
#    z -0.009010 0.000000 4.636050 
# 
# 
# High freq. dielectric constant tensor:
#      x y z
#    x 2.065750 0.000000 -0.006470 
#    y 0.000000 2.026740 0.000000 
#    z -0.006470 0.000000 2.049320 
# 
# From -- ./inp_files/8871.got.cif
#   From: 2010.03.12/outbox.cif.g09.slc.cpg/sg3_5_cif.got.tgz:8871.got - 2010.03.31 09:20:49.
