data_PCOD8045827
_publ_section_title
;
Structure prediction by ZEFSAII (Michael W. Deem and Ramdas Pophale) SiO2 
 PCOD8045827
Probable space group: P 21
;
_chemical_formula_sum "Si O2"
_cell_formula_units_Z 16
_cell_length_a 12.127162
_cell_length_b 9.433727
_cell_length_c 9.145821
_cell_angle_alpha 90.000000
_cell_angle_beta 131.423711
_cell_angle_gamma 90.000000
_cell_volume 784.570978
_symmetry_space_group_name_H-M "P 21"
_symmetry_group_IT_number 4
_symmetry_cell_setting 'monoclinic'
loop_
_space_group_symop_operation_xyz
x,y,z
-x,1/2+y,-z
loop_
_atom_site_type_symbol
_atom_site_label
_atom_site_fract_x
_atom_site_fract_y
_atom_site_fract_z
Si Si1 0.902636 0.655950 0.650560
Si Si2 0.424662 0.178646 0.581257
Si Si3 0.441533 0.223940 0.930685
Si Si4 0.857871 0.951510 0.105762
Si Si5 0.118528 0.168658 0.705712
Si Si6 0.885233 0.973239 0.638854
Si Si7 0.673464 0.020036 0.188057
Si Si8 0.342355 0.457321 0.335270
O O1 0.737283 0.610813 0.546732
O O2 0.940842 0.652051 0.510951
O O3 0.003510 0.544160 0.827907
O O4 0.932760 0.815986 0.730726
O O5 0.480542 0.204891 0.794411
O O6 0.418161 0.326253 0.485943
O O7 0.532325 0.069701 0.595034
O O8 0.293580 0.143203 0.854025
O O9 0.431935 0.390319 0.956024
O O10 0.573758 0.155353 0.142392
O O11 0.915881 0.821968 0.255891
O O12 0.770280 0.061161 0.133018
O O13 0.748977 0.897753 0.883490
O O14 0.032837 0.059769 0.735862
O O15 0.776918 0.960935 0.405555
O O16 0.781249 0.038093 0.674454
#
# Coordination Sequence:
#
# PCOD8045827 Si02
#       8
#     2   2   2   2   2   2   2   2
#     4  10  19  40  64  85 122 157 201 259 299 345
#     4  10  22  43  61  87 129 166 196 252 309 360
#     4  10  21  40  63  94 125 153 206 262 299 349
#     4  11  22  38  63  91 119 160 203 247 300 367
#     4  10  20  39  61  91 119 154 206 253 299 355
#     4  11  22  40  61  88 124 160 197 252 306 359
#     4  11  20  40  62  93 120 159 207 254 296 354
#     4  11  24  42  63  87 130 163 198 249 310 371
#
# _framework density 20.393311000000001
#
# number of rings (size 3 to 8) (size 9 to 14) (size 15 to 20)
#    0.000    1.500    7.500    0.000    0.000    6.000 
#    4.500    0.000    0.000    0.000    0.000    0.000 
#    0.000    0.000    0.000    0.000    0.000    0.000 
#
# Total GULP energy -198277.011177 kJ/mol
# GULP energy per Si atom -12392.313199 kJ/mol
# Density = 2.034690 g / cm^3
# Si number density = 20.393311 Si / 1000 Ang^3
#
#
#
# Elastic Constant Matrix: (Units=GPa)
#
#
# Indices 1 2 3 4 5 6 
#
# 1 123.5328 37.5603 17.5034 0.0000 -9.6056 0.0000
# 2 37.5603 59.1066 24.8800 0.0000 3.9804 0.0000
# 3 17.5034 24.8800 51.1041 0.0000 1.7134 0.0000
# 4 0.0000 0.0000 0.0000 25.0700 0.0000 5.1598
# 5 -9.6056 3.9804 1.7134 0.0000 17.4025 0.0000
# 6 0.0000 0.0000 0.0000 5.1598 0.0000 40.3722
#
#
#
# Elastic Compliance Matrix: (Units=1/GPa)
#
#
# Indices 1 2 3 4 5 6 
#
# 1 0.010989 -0.007312 -0.000465 0.000000 0.007784 0.000000
# 2 -0.007312 0.026406 -0.010047 0.000000 -0.009086 0.000000
# 3 -0.000465 -0.010047 0.024631 0.000000 -0.000384 0.000000
# 4 0.000000 0.000000 0.000000 0.040966 0.000000 -0.005236
# 5 0.007784 -0.009086 -0.000384 0.000000 0.063875 0.000000
# 6 0.000000 0.000000 0.000000 -0.005236 0.000000 0.025439
#
#
# Mechanical properties :
#
#
# Convention : Reuss Voigt Hill
#
# Bulk Modulus (GPa) = 37.90856 43.73677 40.82267
# Shear Modulus (GPa) = 21.11962 26.82228 23.97095
#
# Velocity S-wave (km/s) = 3.22159 3.63057 3.43218
# Velocity P-wave (km/s) = 5.69800 6.25043 5.98060
#
# Compressibility (1/GPa) = 0.02637927
#
# Stress axis : x y z
#
# Youngs Moduli (GPa) = 90.99744 37.87040 40.59876
#
# Poissons Ratio (x) = 0.27690 0.01888
# Poissons Ratio (y) = 0.66535 0.40788
# Poissons Ratio (z) = 0.04233 0.38047
#
# Static dielectric constant tensor:
#      x y z
#    x 3.996420 0.000000 -0.042260 
#    y 0.000000 3.434370 0.000000 
#    z -0.042260 0.000000 3.552740 
# 
# 
# High freq. dielectric constant tensor:
#      x y z
#    x 1.812530 0.000000 0.001670 
#    y 0.000000 1.779830 0.000000 
#    z 0.001670 0.000000 1.778410 
# 
# From -- ./inp_files/7819.got.cif
#   From: 2010.03.12/outbox.cif.g09.slc.cpg/sg4_4_cif.got.tgz:7819.got - 2010.03.31 09:31:35.
