data_PCOD8045794
_publ_section_title
;
Structure prediction by ZEFSAII (Michael W. Deem and Ramdas Pophale) SiO2 
 PCOD8045794
Probable space group: P 21
;
_chemical_formula_sum "Si O2"
_cell_formula_units_Z 16
_cell_length_a 11.702274
_cell_length_b 12.572868
_cell_length_c 14.258572
_cell_angle_alpha 90.000000
_cell_angle_beta 18.772718
_cell_angle_gamma 90.000000
_cell_volume 675.129059
_symmetry_space_group_name_H-M "P 21"
_symmetry_group_IT_number 4
_symmetry_cell_setting 'monoclinic'
loop_
_space_group_symop_operation_xyz
x,y,z
-x,1/2+y,-z
loop_
_atom_site_type_symbol
_atom_site_label
_atom_site_fract_x
_atom_site_fract_y
_atom_site_fract_z
Si Si1 0.832916 0.042430 0.746384
Si Si2 0.365914 0.741063 0.383590
Si Si3 0.190797 0.805155 0.001655
Si Si4 0.847312 0.631432 0.151770
Si Si5 0.788626 0.010760 0.292334
Si Si6 0.738187 0.624604 0.937343
Si Si7 0.993096 0.777695 0.358709
Si Si8 0.627084 0.405688 0.774197
O O1 0.031339 0.149677 0.623360
O O2 0.444963 0.068112 0.007230
O O3 0.070218 0.992051 0.480420
O O4 0.736460 0.961407 0.906602
O O5 0.600283 0.721238 0.294272
O O6 0.451263 0.853289 0.267356
O O7 0.949302 0.729975 0.735971
O O8 0.452787 0.650633 0.239180
O O9 0.062843 0.689446 0.066781
O O10 0.205587 0.813021 0.102091
O O11 0.597455 0.826394 0.655862
O O12 0.914061 0.890914 0.172809
O O13 0.629737 0.530966 0.364063
O O14 0.124150 0.587646 0.861673
O O15 0.977277 0.042860 0.242705
O O16 0.214297 0.817581 0.277220
#
# Coordination Sequence:
#
# PCOD8045794 Si02
#       8
#     2   2   2   2   2   2   2   2
#     4  12  25  40  65 101 138 176 214 270 354 405
#     4  10  21  39  65  89 125 166 223 272 320 380
#     4  12  25  46  69 100 139 179 224 279 345 402
#     4  10  23  44  68  96 130 171 228 284 322 390
#     4  10  21  41  71 100 120 180 232 269 328 394
#     4  10  19  37  64  90 129 166 217 275 307 393
#     4  12  26  44  68 102 142 177 218 285 338 407
#     4  12  24  41  66 100 133 177 222 268 342 415
#
# _framework density 23.699172999999998
#
# number of rings (size 3 to 8) (size 9 to 14) (size 15 to 20)
#    0.000    1.000    1.250    6.000    1.750    2.000 
#    6.750    0.000    0.000    0.000    0.000    0.000 
#    0.000    0.000    0.000    0.000    0.000    0.000 
#
# Total GULP energy -198408.355957 kJ/mol
# GULP energy per Si atom -12400.522247 kJ/mol
# Density = 2.364523 g / cm^3
# Si number density = 23.699173 Si / 1000 Ang^3
#
#
#
# Elastic Constant Matrix: (Units=GPa)
#
#
# Indices 1 2 3 4 5 6 
#
# 1 52.2881 14.0529 27.3248 0.0000 14.7152 0.0000
# 2 14.0529 92.7847 5.8777 0.0000 8.2621 0.0000
# 3 27.3248 5.8777 75.5404 0.0000 18.4235 0.0000
# 4 0.0000 0.0000 0.0000 37.7051 0.0000 5.5157
# 5 14.7152 8.2621 18.4235 0.0000 26.2749 0.0000
# 6 0.0000 0.0000 0.0000 5.5157 0.0000 32.0500
#
#
#
# Elastic Compliance Matrix: (Units=1/GPa)
#
#
# Indices 1 2 3 4 5 6 
#
# 1 0.026009 -0.002712 -0.007060 0.000000 -0.008763 0.000000
# 2 -0.002712 0.011371 0.000721 0.000000 -0.002562 0.000000
# 3 -0.007060 0.000721 0.017885 0.000000 -0.008814 0.000000
# 4 0.000000 0.000000 0.000000 0.027207 0.000000 -0.004682
# 5 -0.008763 -0.002562 -0.008814 0.000000 0.049953 0.000000
# 6 0.000000 0.000000 0.000000 -0.004682 0.000000 0.032007
#
#
# Mechanical properties :
#
#
# Convention : Reuss Voigt Hill
#
# Bulk Modulus (GPa) = 26.90757 35.01378 30.96067
# Shear Modulus (GPa) = 25.65148 30.76319 28.20733
#
# Velocity S-wave (km/s) = 3.29352 3.60678 3.45371
# Velocity P-wave (km/s) = 5.08345 5.67023 5.38484
#
# Compressibility (1/GPa) = 0.03716426
#
# Stress axis : x y z
#
# Youngs Moduli (GPa) = 38.44787 87.94422 55.91245
#
# Poissons Ratio (x) = 0.23848 0.39473
# Poissons Ratio (y) = 0.10426 -0.04032
# Poissons Ratio (z) = 0.27144 -0.06342
#
# Static dielectric constant tensor:
#      x y z
#    x 4.011810 0.000000 0.169720 
#    y 0.000000 4.205620 0.000000 
#    z 0.169720 0.000000 4.196320 
# 
# 
# High freq. dielectric constant tensor:
#      x y z
#    x 1.926100 0.000000 0.018520 
#    y 0.000000 1.932730 0.000000 
#    z 0.018520 0.000000 1.945400 
# 
# From -- ./inp_files/12252.got.cif
#   From: 2010.03.12/outbox.cif.g09.slc.cpg/sg4_7_cif.got.tgz:12252.got - 2010.03.31 09:31:35.
