data_PCOD8045846
_publ_section_title
;
Structure prediction by ZEFSAII (Michael W. Deem and Ramdas Pophale) SiO2 
 PCOD8045846
Probable space group: P 21
;
_chemical_formula_sum "Si O2"
_cell_formula_units_Z 14
_cell_length_a 13.451477
_cell_length_b 8.810599
_cell_length_c 7.564064
_cell_angle_alpha 90.000000
_cell_angle_beta 138.326505
_cell_angle_gamma 90.000000
_cell_volume 596.042279
_symmetry_space_group_name_H-M "P 21"
_symmetry_group_IT_number 4
_symmetry_cell_setting 'monoclinic'
loop_
_space_group_symop_operation_xyz
x,y,z
-x,1/2+y,-z
loop_
_atom_site_type_symbol
_atom_site_label
_atom_site_fract_x
_atom_site_fract_y
_atom_site_fract_z
Si Si1 0.026288 0.365250 0.621669
Si Si2 0.843208 0.462245 0.712081
Si Si3 0.595232 0.626646 0.183875
Si Si4 0.362377 0.415322 0.980369
Si Si5 0.098823 0.045155 0.846480
Si Si6 0.596068 0.262503 0.538050
Si Si7 0.419239 0.993697 0.206808
O O1 0.953550 0.440730 0.695807
O O2 0.933793 0.398897 0.319991
O O3 0.192111 0.431014 0.813428
O O4 0.021317 0.185457 0.645666
O O5 0.720662 0.588135 0.495062
O O6 0.753826 0.310156 0.657144
O O7 0.951279 0.519167 0.016362
O O8 0.616620 0.802780 0.162429
O O9 0.427181 0.584335 0.027077
O O10 0.612024 0.508404 0.042361
O O11 0.457941 0.342996 0.261032
O O12 0.275618 0.073931 0.105766
O O13 0.580806 0.318819 0.723109
O O14 0.568363 0.082285 0.475984
#
# Coordination Sequence:
#
# PCOD8045846 Si02
#       7
#     2   2   2   2   2   2   2
#     4  12  23  47  68 100 145 185 227 282 348 415
#     4  10  23  42  68  99 134 176 231 281 336 405
#     4  10  20  42  68  94 133 173 224 285 334 401
#     4  10  22  40  65  99 130 178 226 275 344 398
#     4  11  25  44  69  98 139 186 228 284 343 411
#     4   9  20  39  64  93 129 167 223 276 333 391
#     4  10  19  42  64  95 130 169 219 287 330 395
#
# _framework density 23.488268000000001
#
# number of rings (size 3 to 8) (size 9 to 14) (size 15 to 20)
#    0.000    1.714    4.286    0.000    0.000    9.143 
#   10.286    0.000    0.000    0.000    0.000    0.000 
#    0.000    0.000    0.000    0.000    0.000    0.000 
#
# Total GULP energy -173454.439962 kJ/mol
# GULP energy per Si atom -12389.602854 kJ/mol
# Density = 2.343481 g / cm^3
# Si number density = 23.488268 Si / 1000 Ang^3
#
#
#
# Elastic Constant Matrix: (Units=GPa)
#
#
# Indices 1 2 3 4 5 6 
#
# 1 95.7579 36.7061 51.3225 0.0000 7.3591 0.0000
# 2 36.7061 79.2422 49.5624 0.0000 -2.5752 0.0000
# 3 51.3225 49.5624 101.4633 0.0000 -19.5302 0.0000
# 4 0.0000 0.0000 0.0000 34.2894 0.0000 -4.2016
# 5 7.3591 -2.5752 -19.5302 0.0000 51.1852 0.0000
# 6 0.0000 0.0000 0.0000 -4.2016 0.0000 18.5557
#
#
#
# Elastic Compliance Matrix: (Units=1/GPa)
#
#
# Indices 1 2 3 4 5 6 
#
# 1 0.016130 -0.002719 -0.007882 0.000000 -0.005463 0.000000
# 2 -0.002719 0.018974 -0.008239 0.000000 -0.001798 0.000000
# 3 -0.007882 -0.008239 0.019433 0.000000 0.008134 0.000000
# 4 0.000000 0.000000 0.000000 0.029996 0.000000 0.006792
# 5 -0.005463 -0.001798 0.008134 0.000000 0.023335 0.000000
# 6 0.000000 0.000000 0.000000 0.006792 0.000000 0.055430
#
#
# Mechanical properties :
#
#
# Convention : Reuss Voigt Hill
#
# Bulk Modulus (GPa) = 59.32655 61.29395 60.31025
# Shear Modulus (GPa) = 24.20180 30.06421 27.13300
#
# Velocity S-wave (km/s) = 3.21343 3.58154 3.40247
# Velocity P-wave (km/s) = 6.25148 6.57689 6.41625
#
# Compressibility (1/GPa) = 0.01685586
#
# Stress axis : x y z
#
# Youngs Moduli (GPa) = 61.99738 52.70446 51.45917
#
# Poissons Ratio (x) = 0.14331 0.40561
# Poissons Ratio (y) = 0.16858 0.42397
# Poissons Ratio (z) = 0.48867 0.43423
#
# Static dielectric constant tensor:
#      x y z
#    x 4.492060 0.000000 -0.129430 
#    y 0.000000 4.436930 0.000000 
#    z -0.129430 0.000000 4.253340 
# 
# 
# High freq. dielectric constant tensor:
#      x y z
#    x 1.935580 0.000000 -0.012550 
#    y 0.000000 1.905370 0.000000 
#    z -0.012550 0.000000 1.926580 
# 
# From -- ./inp_files/9197.got.cif
#   From: 2010.03.12/outbox.cif.g09.slc.cpg/sg4_5_cif.got.tgz:9197.got - 2010.03.31 09:31:35.
