data_PCOD8045164
_publ_section_title
;
Structure prediction by ZEFSAII (Michael W. Deem and Ramdas Pophale) SiO2 
 PCOD8045164
Probable space group: P 2
;
_chemical_formula_sum "Si O2"
_cell_formula_units_Z 16
_cell_length_a 8.444050
_cell_length_b 9.388237
_cell_length_c 17.032400
_cell_angle_alpha 90.000000
_cell_angle_beta 34.618495
_cell_angle_gamma 90.000000
_cell_volume 767.083571
_symmetry_space_group_name_H-M "P 2"
_symmetry_group_IT_number 3
_symmetry_cell_setting 'monoclinic'
loop_
_space_group_symop_operation_xyz
x,y,z
-x,y,-z
loop_
_atom_site_type_symbol
_atom_site_label
_atom_site_fract_x
_atom_site_fract_y
_atom_site_fract_z
Si Si1 0.191518 0.753950 0.846419
Si Si2 0.914835 0.887253 0.392282
Si Si3 0.967952 0.457416 0.138093
Si Si4 0.113425 0.168425 0.367907
Si Si5 0.784607 0.638149 0.655433
Si Si6 0.442399 0.380514 0.831017
Si Si7 0.713410 0.969354 0.316456
Si Si8 0.782619 0.275124 0.351997
O O1 0.059027 0.628756 0.845981
O O2 0.511304 0.720671 0.736711
O O3 0.170761 0.907644 0.812603
O O4 0.000000 0.763355 0.000000
O O5 0.928442 0.913230 0.294099
O O6 0.594817 0.905019 0.548836
O O7 0.040745 0.732423 0.354734
O O8 0.105072 0.997646 0.364405
O O9 0.723828 0.404446 0.181028
O O10 0.944724 0.391774 0.234430
O O11 0.259218 0.403367 0.983345
O O12 0.944924 0.231132 0.363377
O O13 0.000000 0.216548 0.500000
O O14 0.430722 0.221920 0.226767
O O15 0.698745 0.491558 0.732313
O O16 0.000000 0.598191 0.500000
O O17 0.708308 0.140628 0.325146
O O18 0.500000 0.344998 0.500000
#
# Coordination Sequence:
#
# PCOD8045164 Si02
#       8
#     2   2   2   2   2   2   2   2
#     4  11  22  44  65  92 131 173 213 262 318 390
#     4  10  21  39  61  94 125 161 207 273 318 373
#     4  10  22  44  63  88 132 173 213 262 318 390
#     4  11  22  38  64  93 125 162 211 267 321 373
#     4  11  20  36  66  97 124 161 216 271 315 372
#     4  10  22  40  61  89 129 168 212 264 315 383
#     4  10  21  42  63  89 132 164 212 265 324 382
#     4  11  22  42  65  93 128 166 213 269 321 384
#
# _framework density 20.858222000000001
#
# number of rings (size 3 to 8) (size 9 to 14) (size 15 to 20)
#    0.000    1.500    6.250    1.500    0.000    2.500 
#    6.750    0.625    0.000    0.000    0.000    0.000 
#    0.000    0.000    0.000    0.000    0.000    0.000 
#
# Total GULP energy -198324.229123 kJ/mol
# GULP energy per Si atom -12395.264320 kJ/mol
# Density = 2.081075 g / cm^3
# Si number density = 20.858222 Si / 1000 Ang^3
#
#
#
# Elastic Constant Matrix: (Units=GPa)
#
#
# Indices 1 2 3 4 5 6 
#
# 1 59.5748 37.3128 38.0116 0.0000 13.4438 0.0000
# 2 37.3128 73.7638 46.7528 0.0000 6.0144 0.0000
# 3 38.0116 46.7528 126.0299 0.0000 7.4237 0.0000
# 4 0.0000 0.0000 0.0000 31.6025 0.0000 2.8824
# 5 13.4438 6.0144 7.4237 0.0000 33.6441 0.0000
# 6 0.0000 0.0000 0.0000 2.8824 0.0000 35.9362
#
#
#
# Elastic Compliance Matrix: (Units=1/GPa)
#
#
# Indices 1 2 3 4 5 6 
#
# 1 0.028079 -0.011067 -0.003869 0.000000 -0.008388 0.000000
# 2 -0.011067 0.022187 -0.004984 0.000000 0.001556 0.000000
# 3 -0.003869 -0.004984 0.010949 0.000000 0.000021 0.000000
# 4 0.000000 0.000000 0.000000 0.031876 0.000000 -0.002557
# 5 -0.008388 0.001556 0.000021 0.000000 0.032792 0.000000
# 6 0.000000 0.000000 0.000000 -0.002557 0.000000 0.028032
#
#
# Mechanical properties :
#
#
# Convention : Reuss Voigt Hill
#
# Bulk Modulus (GPa) = 46.78587 55.94701 51.36644
# Shear Modulus (GPa) = 24.89023 29.38930 27.13977
#
# Velocity S-wave (km/s) = 3.45817 3.75774 3.61106
# Velocity P-wave (km/s) = 6.19874 6.76079 6.48586
#
# Compressibility (1/GPa) = 0.02137397
#
# Stress axis : x y z
#
# Youngs Moduli (GPa) = 35.61418 45.07060 91.32896
#
# Poissons Ratio (x) = 0.49880 0.35337
# Poissons Ratio (y) = 0.39415 0.45523
# Poissons Ratio (z) = 0.13780 0.22465
#
# Static dielectric constant tensor:
#      x y z
#    x 3.779740 0.000000 -0.040150 
#    y 0.000000 3.952230 0.000000 
#    z -0.040150 0.000000 3.684480 
# 
# 
# High freq. dielectric constant tensor:
#      x y z
#    x 1.812940 0.000000 -0.000230 
#    y 0.000000 1.812750 0.000000 
#    z -0.000230 0.000000 1.810110 
# 
# From -- ./inp_files/7474.got.cif
#   From: 2010.03.12/outbox.cif.g09.slc.cpg/sg3_4_cif.got.tgz:7474.got - 2010.03.31 09:20:49.
