data_PCOD8045881
_publ_section_title
;
Structure prediction by ZEFSAII (Michael W. Deem and Ramdas Pophale) SiO2 
 PCOD8045881
Probable space group: P 21
;
_chemical_formula_sum "Si O2"
_cell_formula_units_Z 12
_cell_length_a 14.514571
_cell_length_b 9.220447
_cell_length_c 9.839097
_cell_angle_alpha 90.000000
_cell_angle_beta 151.309546
_cell_angle_gamma 90.000000
_cell_volume 632.153634
_symmetry_space_group_name_H-M "P 21"
_symmetry_group_IT_number 4
_symmetry_cell_setting 'monoclinic'
loop_
_space_group_symop_operation_xyz
x,y,z
-x,1/2+y,-z
loop_
_atom_site_type_symbol
_atom_site_label
_atom_site_fract_x
_atom_site_fract_y
_atom_site_fract_z
Si Si1 0.457617 0.256360 0.276356
Si Si2 0.049440 0.312043 0.648369
Si Si3 0.138946 0.756278 0.320268
Si Si4 0.094698 0.078797 0.187875
Si Si5 0.093848 0.638591 0.781536
Si Si6 0.501549 0.578866 0.408301
O O1 0.632042 0.241913 0.396201
O O2 0.466160 0.406928 0.369925
O O3 0.464682 0.127287 0.393779
O O4 0.262506 0.246452 0.938569
O O5 0.051822 0.485609 0.655467
O O6 0.913408 0.246435 0.589372
O O7 0.964664 0.267717 0.393858
O O8 0.062386 0.906858 0.158683
O O9 0.035653 0.627186 0.106639
O O10 0.316388 0.118401 0.449273
O O11 0.029219 0.157880 0.240679
O O12 0.317828 0.657938 0.106217
#
# Coordination Sequence:
#
# PCOD8045881 Si02
#       6
#     2   2   2   2   2   2
#     4  10  20  35  57  83 110 142 183 227 271 324
#     4  10  22  38  54  80 115 146 181 226 273 324
#     4  10  20  35  57  83 110 142 183 227 271 324
#     4  10  20  35  57  83 110 142 183 227 271 324
#     4  10  22  38  54  80 115 146 181 226 273 324
#     4  10  20  35  57  83 110 142 183 227 271 324
#
# _framework density 18.982728000000002
#
# number of rings (size 3 to 8) (size 9 to 14) (size 15 to 20)
#    0.000    2.000    3.333    0.000    0.000    4.000 
#    0.000    0.000    0.000    0.000    0.000    0.000 
#    0.000    0.000    0.000    0.000    0.000    0.000 
#
# Total GULP energy -148857.409559 kJ/mol
# GULP energy per Si atom -12404.784130 kJ/mol
# Density = 1.893952 g / cm^3
# Si number density = 18.982728 Si / 1000 Ang^3
#
#
#
# Elastic Constant Matrix: (Units=GPa)
#
#
# Indices 1 2 3 4 5 6 
#
# 1 105.0821 7.5656 25.8632 0.0000 25.4035 0.0000
# 2 7.5656 17.8574 4.3642 0.0000 3.3341 0.0000
# 3 25.8632 4.3642 62.4731 0.0000 18.1036 0.0000
# 4 0.0000 0.0000 0.0000 33.8870 0.0000 -6.6015
# 5 25.4035 3.3341 18.1036 0.0000 34.5964 0.0000
# 6 0.0000 0.0000 0.0000 -6.6015 0.0000 27.3999
#
#
#
# Elastic Compliance Matrix: (Units=1/GPa)
#
#
# Indices 1 2 3 4 5 6 
#
# 1 0.012153 -0.003139 -0.002727 0.000000 -0.007194 0.000000
# 2 -0.003139 0.058260 -0.002135 0.000000 -0.002192 0.000000
# 3 -0.002727 -0.002135 0.019620 0.000000 -0.008059 0.000000
# 4 0.000000 0.000000 0.000000 0.030963 0.000000 0.007460
# 5 -0.007194 -0.002192 -0.008059 0.000000 0.038615 0.000000
# 6 0.000000 0.000000 0.000000 0.007460 0.000000 0.038294
#
#
# Mechanical properties :
#
#
# Convention : Reuss Voigt Hill
#
# Bulk Modulus (GPa) = 13.50789 28.99984 21.25386
# Shear Modulus (GPa) = 20.95691 29.01797 24.98744
#
# Velocity S-wave (km/s) = 3.32625 3.91404 3.63206
# Velocity P-wave (km/s) = 4.67796 5.97799 5.36748
#
# Compressibility (1/GPa) = 0.07403082
#
# Stress axis : x y z
#
# Youngs Moduli (GPa) = 82.28622 17.16438 50.96761
#
# Poissons Ratio (x) = 0.05388 0.13899
# Poissons Ratio (y) = 0.25830 0.10882
# Poissons Ratio (z) = 0.22440 0.03665
#
# Static dielectric constant tensor:
#      x y z
#    x 3.685140 0.000000 0.319200 
#    y 0.000000 3.346460 0.000000 
#    z 0.319200 0.000000 3.371320 
# 
# 
# High freq. dielectric constant tensor:
#      x y z
#    x 1.748030 0.000000 0.018220 
#    y 0.000000 1.728150 0.000000 
#    z 0.018220 0.000000 1.730080 
# 
# From -- ./inp_files/5214.got.cif
#   From: 2010.03.12/outbox.cif.g09.slc.cpg/sg4_3_cif.got.tgz:5214.got - 2010.03.31 09:31:35.
