data_PCOD8045432
_publ_section_title
;
Structure prediction by ZEFSAII (Michael W. Deem and Ramdas Pophale) SiO2 
 PCOD8045432
Probable space group: P 2
;
_chemical_formula_sum "Si O2"
_cell_formula_units_Z 14
_cell_length_a 19.148855
_cell_length_b 6.432293
_cell_length_c 9.475902
_cell_angle_alpha 90.000000
_cell_angle_beta 31.600203
_cell_angle_gamma 90.000000
_cell_volume 611.577215
_symmetry_space_group_name_H-M "P 2"
_symmetry_group_IT_number 3
_symmetry_cell_setting 'monoclinic'
loop_
_space_group_symop_operation_xyz
x,y,z
-x,y,-z
loop_
_atom_site_type_symbol
_atom_site_label
_atom_site_fract_x
_atom_site_fract_y
_atom_site_fract_z
Si Si1 0.217189 0.526510 0.092232
Si Si2 0.834387 0.147874 0.610934
Si Si3 0.305952 0.358643 0.643579
Si Si4 0.000000 0.862081 0.500000
Si Si5 0.152905 0.054384 0.712448
Si Si6 0.386291 0.871085 0.898039
Si Si7 0.500000 0.146053 0.500000
Si Si8 0.613326 0.737748 0.682725
O O1 0.170866 0.350428 0.281096
O O2 0.118798 0.718621 0.244847
O O3 0.231722 0.446081 0.909155
O O4 0.349343 0.630190 0.931860
O O5 0.849400 0.207345 0.420800
O O6 0.961186 0.009865 0.436818
O O7 0.706854 0.996114 0.835110
O O8 0.209248 0.181668 0.748101
O O9 0.448110 0.278508 0.456753
O O10 0.337390 0.519640 0.465145
O O11 0.251761 0.860276 0.506908
O O12 0.000000 0.977271 0.000000
O O13 0.537816 0.871965 0.693570
O O14 0.380254 0.001307 0.762558
O O15 0.500000 0.702118 0.000000
#
# Coordination Sequence:
#
# PCOD8045432 Si02
#       8
#     2   2   2   1   2   2   1   2
#     4  11  25  45  76 111 143 199 263 321 381 457
#     4  11  25  47  75 106 150 200 258 312 389 460
#     4  12  28  44  76 113 152 198 255 324 383 458
#     4  10  26  42  78 100 146 200 260 312 374 460
#     4  12  31  49  75 111 163 205 251 319 392 468
#     4  11  23  43  74 107 145 191 255 319 386 445
#     4  12  22  46  74 112 150 190 256 330 378 444
#     4  12  27  49  76 108 152 207 257 315 391 467
#
# _framework density 22.891632999999999
#
# number of rings (size 3 to 8) (size 9 to 14) (size 15 to 20)
#    0.000    0.571    4.286    2.143    8.000    1.143 
#    0.000    0.000    0.000    0.000    0.000    0.000 
#    0.000    0.000    0.000    0.000    0.000    0.000 
#
# Total GULP energy -173491.549912 kJ/mol
# GULP energy per Si atom -12392.253565 kJ/mol
# Density = 2.283953 g / cm^3
# Si number density = 22.891633 Si / 1000 Ang^3
#
#
#
# Elastic Constant Matrix: (Units=GPa)
#
#
# Indices 1 2 3 4 5 6 
#
# 1 121.1804 56.1289 61.4234 0.0000 -3.0952 0.0000
# 2 56.1289 119.0694 47.9798 0.0000 1.4906 0.0000
# 3 61.4234 47.9798 114.3962 0.0000 8.3355 0.0000
# 4 0.0000 0.0000 0.0000 24.3076 0.0000 12.4976
# 5 -3.0952 1.4906 8.3355 0.0000 47.8489 0.0000
# 6 0.0000 0.0000 0.0000 12.4976 0.0000 29.1172
#
#
#
# Elastic Compliance Matrix: (Units=1/GPa)
#
#
# Indices 1 2 3 4 5 6 
#
# 1 0.012844 -0.003904 -0.005397 0.000000 0.001893 0.000000
# 2 -0.003904 0.011302 -0.002633 0.000000 -0.000146 0.000000
# 3 -0.005397 -0.002633 0.012928 0.000000 -0.002519 0.000000
# 4 0.000000 0.000000 0.000000 0.052789 0.000000 -0.022658
# 5 0.001893 -0.000146 -0.002519 0.000000 0.021465 0.000000
# 6 0.000000 0.000000 0.000000 -0.022658 0.000000 0.044069
#
#
# Mechanical properties :
#
#
# Convention : Reuss Voigt Hill
#
# Bulk Modulus (GPa) = 75.72962 76.19002 75.95982
# Shear Modulus (GPa) = 27.22323 32.86234 30.04278
#
# Velocity S-wave (km/s) = 3.45225 3.79299 3.62662
# Velocity P-wave (km/s) = 7.00317 7.24828 7.12678
#
# Compressibility (1/GPa) = 0.01320487
#
# Stress axis : x y z
#
# Youngs Moduli (GPa) = 77.85540 88.48295 77.35386
#
# Poissons Ratio (x) = 0.34540 0.41750
# Poissons Ratio (y) = 0.30392 0.20371
# Poissons Ratio (z) = 0.42020 0.23302
#
# Static dielectric constant tensor:
#      x y z
#    x 4.380990 0.000000 -0.115870 
#    y 0.000000 4.228860 0.000000 
#    z -0.115870 0.000000 4.163470 
# 
# 
# High freq. dielectric constant tensor:
#      x y z
#    x 1.914010 0.000000 -0.000280 
#    y 0.000000 1.904910 0.000000 
#    z -0.000280 0.000000 1.907850 
# 
# From -- ./inp_files/8847.got.cif
#   From: 2010.03.12/outbox.cif.g09.slc.cpg/sg3_5_cif.got.tgz:8847.got - 2010.03.31 09:20:49.
