data_PCOD8045125
_publ_section_title
;
Structure prediction by ZEFSAII (Michael W. Deem and Ramdas Pophale) SiO2 
 PCOD8045125
Probable space group: P 2
;
_chemical_formula_sum "Si O2"
_cell_formula_units_Z 14
_cell_length_a 9.520961
_cell_length_b 16.347502
_cell_length_c 8.388555
_cell_angle_alpha 90.000000
_cell_angle_beta 148.071173
_cell_angle_gamma 90.000000
_cell_volume 690.501304
_symmetry_space_group_name_H-M "P 2"
_symmetry_group_IT_number 3
_symmetry_cell_setting 'monoclinic'
loop_
_space_group_symop_operation_xyz
x,y,z
-x,y,-z
loop_
_atom_site_type_symbol
_atom_site_label
_atom_site_fract_x
_atom_site_fract_y
_atom_site_fract_z
Si Si1 0.590191 0.043780 0.906242
Si Si2 0.555664 0.858106 0.867103
Si Si3 0.940396 0.768736 0.630362
Si Si4 0.230153 0.303559 0.336196
Si Si5 0.904324 0.122134 0.732317
Si Si6 0.268838 0.427177 0.659919
Si Si7 0.261436 0.607557 0.655791
O O1 0.373176 0.079474 0.576356
O O2 0.640973 0.949782 0.906035
O O3 0.500000 0.051341 0.000000
O O4 0.865081 0.093153 0.164631
O O5 0.277712 0.833713 0.517264
O O6 0.500000 0.848519 0.000000
O O7 0.782460 0.794896 0.021015
O O8 0.821128 0.677675 0.552876
O O9 0.000000 0.772956 0.500000
O O10 0.500000 0.287545 0.500000
O O11 0.131892 0.219090 0.319630
O O12 0.275176 0.368955 0.515614
O O13 0.000000 0.338108 0.000000
O O14 0.000000 0.096402 0.000000
O O15 0.335943 0.518802 0.655255
O O16 0.000000 0.419893 0.500000
O O17 0.500000 0.398454 0.000000
O O18 0.000000 0.586812 0.500000
O O19 0.500000 0.640593 0.000000
#
# Coordination Sequence:
#
# PCOD8045125 Si02
#       7
#     2   2   2   2   2   2   2
#     4  11  22  37  57  85 114 141 182 237 284 322
#     4   9  17  27  44  72 106 137 172 217 266 314
#     4   9  14  24  42  68 105 144 170 205 263 318
#     4  11  23  41  60  81 110 147 189 226 271 338
#     4  11  23  40  58  79 109 148 188 227 275 338
#     4  10  21  36  57  87 117 142 179 232 281 323
#     4   9  16  27  45  74 109 141 174 216 266 319
#
# _framework density 20.275124999999999
#
# number of rings (size 3 to 8) (size 9 to 14) (size 15 to 20)
#    0.000    2.000    0.000    6.429    0.000    4.000 
#    0.000    0.000    0.000    0.000    0.000   10.000 
#    0.000    0.000    0.000    0.000    0.000    0.000 
#
# Total GULP energy -173498.206483 kJ/mol
# GULP energy per Si atom -12392.729035 kJ/mol
# Density = 2.022898 g / cm^3
# Si number density = 20.275125 Si / 1000 Ang^3
#
#
#
# Elastic Constant Matrix: (Units=GPa)
#
#
# Indices 1 2 3 4 5 6 
#
# 1 41.9020 45.6706 19.1703 0.0000 9.1376 0.0000
# 2 45.6706 153.1619 54.4000 0.0000 0.3252 0.0000
# 3 19.1703 54.4000 130.5233 0.0000 14.3306 0.0000
# 4 0.0000 0.0000 0.0000 31.6197 0.0000 9.6690
# 5 9.1376 0.3252 14.3306 0.0000 31.6609 0.0000
# 6 0.0000 0.0000 0.0000 9.6690 0.0000 -4.6986
#
#
#
# Elastic Compliance Matrix: (Units=1/GPa)
#
#
# Indices 1 2 3 4 5 6 
#
# 1 0.038925 -0.011729 0.000412 0.000000 -0.011300 0.000000
# 2 -0.011729 0.011261 -0.003504 0.000000 0.004855 0.000000
# 3 0.000412 -0.003504 0.009545 0.000000 -0.004403 0.000000
# 4 0.000000 0.000000 0.000000 0.019411 0.000000 0.039945
# 5 -0.011300 0.004855 -0.004403 0.000000 0.036789 0.000000
# 6 0.000000 0.000000 0.000000 0.039945 0.000000 -0.130629
#
#
# Mechanical properties :
#
#
# Convention : Reuss Voigt Hill
#
# Bulk Modulus (GPa) = 33.23476 62.67435 47.95455
# Shear Modulus (GPa) = 200.22123 25.47283 112.84703
#
# Velocity S-wave (km/s) = 9.94819 3.54836 7.46851
# Velocity P-wave (km/s) = 12.18125 6.91136 9.90328
#
# Compressibility (1/GPa) = 0.03008898
#
# Stress axis : x y z
#
# Youngs Moduli (GPa) = 25.69036 88.80482 104.77111
#
# Poissons Ratio (x) = 1.04162 -0.04319
# Poissons Ratio (y) = 0.30133 0.36708
# Poissons Ratio (z) = -0.01059 0.31114
#
# Static dielectric constant tensor:
#      x y z
#    x 3.277720 0.000000 0.338600 
#    y 0.000000 3.969550 0.000000 
#    z 0.338600 0.000000 3.991980 
# 
# 
# High freq. dielectric constant tensor:
#      x y z
#    x 1.739740 0.000000 0.031950 
#    y 0.000000 1.805910 0.000000 
#    z 0.031950 0.000000 1.809730 
# 
# From -- ./inp_files/6251.got.cif
#   From: 2010.03.12/outbox.cif.g09.slc.cpg/sg3_4_cif.got.tgz:6251.got - 2010.03.31 09:20:49.
