data_PCOD8045278
_publ_section_title
;
Structure prediction by ZEFSAII (Michael W. Deem and Ramdas Pophale) SiO2 
 PCOD8045278
Probable space group: P 2
;
_chemical_formula_sum "Si O2"
_cell_formula_units_Z 12
_cell_length_a 13.865604
_cell_length_b 7.956649
_cell_length_c 4.914543
_cell_angle_alpha 90.000000
_cell_angle_beta 89.695225
_cell_angle_gamma 90.000000
_cell_volume 542.183114
_symmetry_space_group_name_H-M "P 2"
_symmetry_group_IT_number 3
_symmetry_cell_setting 'monoclinic'
loop_
_space_group_symop_operation_xyz
x,y,z
-x,y,-z
loop_
_atom_site_type_symbol
_atom_site_label
_atom_site_fract_x
_atom_site_fract_y
_atom_site_fract_z
Si Si1 0.743034 0.207020 0.953787
Si Si2 0.893773 0.492744 0.047899
Si Si3 0.893793 0.716387 0.539941
Si Si4 0.259715 0.990103 0.508854
Si Si5 0.567667 0.415502 0.760167
Si Si6 0.566420 0.790703 0.749219
O O1 0.713722 0.092550 0.216580
O O2 0.814259 0.350830 0.042199
O O3 0.654832 0.284658 0.780347
O O4 0.795969 0.098151 0.719909
O O5 0.875032 0.651856 0.847448
O O6 0.888239 0.551542 0.356944
O O7 0.000000 0.414974 0.000000
O O8 0.812060 0.838992 0.423489
O O9 0.000000 0.800430 0.500000
O O10 0.354414 0.924932 0.344617
O O11 0.500000 0.391919 0.500000
O O12 0.610214 0.604852 0.810852
O O13 0.500000 0.360653 0.000000
O O14 0.500000 0.751700 0.500000
O O15 0.500000 0.858354 0.000000
#
# Coordination Sequence:
#
# PCOD8045278 Si02
#       6
#     2   2   2   2   2   2
#     4  12  25  39  62  96 131 165 203 262 328 378
#     4  10  22  42  67  93 126 171 217 258 305 374
#     4  10  22  42  67  93 126 171 217 258 305 374
#     4  12  25  39  62  96 131 165 203 262 328 378
#     4  10  22  41  64  87 116 162 215 260 304 366
#     4  10  22  41  64  87 116 162 215 260 304 366
#
# _framework density 22.132743000000001
#
# number of rings (size 3 to 8) (size 9 to 14) (size 15 to 20)
#    0.000    1.333    0.000    5.000    0.000    8.000 
#    0.000    0.000    0.000    0.000    0.000    0.000 
#    0.000    0.000    0.000    0.000    0.000    0.000 
#
# Total GULP energy -148703.244923 kJ/mol
# GULP energy per Si atom -12391.937077 kJ/mol
# Density = 2.208237 g / cm^3
# Si number density = 22.132743 Si / 1000 Ang^3
#
#
#
# Elastic Constant Matrix: (Units=GPa)
#
#
# Indices 1 2 3 4 5 6 
#
# 1 111.7358 54.4160 36.0679 0.0000 2.7004 0.0000
# 2 54.4160 77.2360 25.8651 0.0000 -3.6036 0.0000
# 3 36.0679 25.8651 125.4295 0.0000 1.9251 0.0000
# 4 0.0000 0.0000 0.0000 26.9854 0.0000 -7.7266
# 5 2.7004 -3.6036 1.9251 0.0000 31.7296 0.0000
# 6 0.0000 0.0000 0.0000 -7.7266 0.0000 -29.6457
#
#
#
# Elastic Compliance Matrix: (Units=1/GPa)
#
#
# Indices 1 2 3 4 5 6 
#
# 1 0.014296 -0.009461 -0.002127 0.000000 -0.002162 0.000000
# 2 -0.009461 0.020267 -0.001508 0.000000 0.003198 0.000000
# 3 -0.002127 -0.001508 0.008903 0.000000 -0.000530 0.000000
# 4 0.000000 0.000000 0.000000 0.034484 0.000000 -0.008988
# 5 -0.002162 0.003198 -0.000530 0.000000 0.032096 0.000000
# 6 0.000000 0.000000 0.000000 -0.008988 0.000000 -0.031389
#
#
# Mechanical properties :
#
#
# Convention : Reuss Voigt Hill
#
# Bulk Modulus (GPa) = 57.88586 60.78881 59.33733
# Shear Modulus (GPa) = 45.20571 19.01734 32.11153
#
# Velocity S-wave (km/s) = 4.52428 2.93446 3.81315
# Velocity P-wave (km/s) = 7.31457 6.24553 6.80108
#
# Compressibility (1/GPa) = 0.01727538
#
# Stress axis : x y z
#
# Youngs Moduli (GPa) = 69.95037 49.34132 112.31845
#
# Poissons Ratio (x) = 0.46680 0.23887
# Poissons Ratio (y) = 0.66178 0.16937
# Poissons Ratio (z) = 0.14877 0.07440
#
# Static dielectric constant tensor:
#      x y z
#    x 3.923090 0.000000 0.043410 
#    y 0.000000 3.989790 0.000000 
#    z 0.043410 0.000000 4.097720 
# 
# 
# High freq. dielectric constant tensor:
#      x y z
#    x 1.863700 0.000000 0.005060 
#    y 0.000000 1.868910 0.000000 
#    z 0.005060 0.000000 1.893400 
# 
# From -- ./inp_files/2155.got.cif
#   From: 2010.03.12/outbox.cif.g09.slc.cpg/sg3_2_cif.got.tgz:2155.got - 2010.03.31 09:20:49.
