data_PCOD8045341
_publ_section_title
;
Structure prediction by ZEFSAII (Michael W. Deem and Ramdas Pophale) SiO2 
 PCOD8045341
Probable space group: P 2
;
_chemical_formula_sum "Si O2"
_cell_formula_units_Z 11
_cell_length_a 14.048425
_cell_length_b 5.315404
_cell_length_c 7.187120
_cell_angle_alpha 90.000000
_cell_angle_beta 85.238101
_cell_angle_gamma 90.000000
_cell_volume 534.831721
_symmetry_space_group_name_H-M "P 2"
_symmetry_group_IT_number 3
_symmetry_cell_setting 'monoclinic'
loop_
_space_group_symop_operation_xyz
x,y,z
-x,y,-z
loop_
_atom_site_type_symbol
_atom_site_label
_atom_site_fract_x
_atom_site_fract_y
_atom_site_fract_z
Si Si1 0.067050 0.534490 0.830684
Si Si2 0.308482 0.161555 0.209323
Si Si3 0.233302 0.876306 0.895878
Si Si4 0.393635 0.668453 0.086067
Si Si5 0.177786 0.140149 0.564895
Si Si6 0.000000 0.823184 0.500000
O O1 0.130171 0.742327 0.929209
O O2 0.135815 0.342798 0.714101
O O3 0.998685 0.656011 0.685896
O O4 0.000000 0.406323 0.000000
O O5 0.382367 0.391437 0.173997
O O6 0.240163 0.112774 0.039860
O O7 0.367380 0.899265 0.232870
O O8 0.244344 0.250292 0.393274
O O9 0.320288 0.684396 0.923415
O O10 0.244252 0.961678 0.680379
O O11 0.500000 0.708757 0.000000
O O12 0.094147 0.991622 0.475046
#
# Coordination Sequence:
#
# PCOD8045341 Si02
#       6
#     2   2   2   2   2   1
#     4  11  23  39  62  92 134 172 220 264 317 378
#     4  10  23  41  70  93 130 169 211 267 323 381
#     4   9  23  40  65  91 132 168 216 263 321 382
#     4  10  22  44  72  94 128 171 213 265 331 386
#     4  11  23  40  63  95 129 174 218 265 320 380
#     4  10  24  38  58  90 134 172 226 254 320 380
#
# _framework density 20.567216999999999
#
# number of rings (size 3 to 8) (size 9 to 14) (size 15 to 20)
#    1.091    0.727    0.000    3.273    5.091    7.273 
#    0.000    0.909    0.000    0.000    0.000    0.000 
#    0.000    0.000    0.000    0.000    0.000    0.000 
#
# Total GULP energy -136294.623696 kJ/mol
# GULP energy per Si atom -12390.420336 kJ/mol
# Density = 2.052041 g / cm^3
# Si number density = 20.567217 Si / 1000 Ang^3
#
#
#
# Elastic Constant Matrix: (Units=GPa)
#
#
# Indices 1 2 3 4 5 6 
#
# 1 77.7764 26.9161 66.3625 0.0000 -13.7837 0.0000
# 2 26.9161 112.1065 36.3667 0.0000 -14.4819 0.0000
# 3 66.3625 36.3667 110.6614 0.0000 -24.0022 0.0000
# 4 0.0000 0.0000 0.0000 25.6973 0.0000 -13.4384
# 5 -13.7837 -14.4819 -24.0022 0.0000 26.6277 0.0000
# 6 0.0000 0.0000 0.0000 -13.4384 0.0000 19.0743
#
#
#
# Elastic Compliance Matrix: (Units=1/GPa)
#
#
# Indices 1 2 3 4 5 6 
#
# 1 0.026542 -0.001432 -0.015706 0.000000 -0.001197 0.000000
# 2 -0.001432 0.010268 -0.001821 0.000000 0.003202 0.000000
# 3 -0.015706 -0.001821 0.021225 0.000000 0.010012 0.000000
# 4 0.000000 0.000000 0.000000 0.061616 0.000000 0.043410
# 5 -0.001197 0.003202 0.010012 0.000000 0.047701 0.000000
# 6 0.000000 0.000000 0.000000 0.043410 0.000000 0.083010
#
#
# Mechanical properties :
#
#
# Convention : Reuss Voigt Hill
#
# Bulk Modulus (GPa) = 49.70929 62.20389 55.95659
# Shear Modulus (GPa) = 16.94992 25.67314 21.31153
#
# Velocity S-wave (km/s) = 2.87387 3.53690 3.22248
# Velocity P-wave (km/s) = 5.93581 6.85488 6.41183
#
# Compressibility (1/GPa) = 0.02011696
#
# Stress axis : x y z
#
# Youngs Moduli (GPa) = 37.67638 97.38687 47.11376
#
# Poissons Ratio (x) = 0.13949 0.73996
# Poissons Ratio (y) = 0.05396 0.08580
# Poissons Ratio (z) = 0.59174 0.17735
#
# Static dielectric constant tensor:
#      x y z
#    x 3.540350 0.000000 0.164650 
#    y 0.000000 3.767780 0.000000 
#    z 0.164650 0.000000 3.584000 
# 
# 
# High freq. dielectric constant tensor:
#      x y z
#    x 1.791980 0.000000 0.006110 
#    y 0.000000 1.806480 0.000000 
#    z 0.006110 0.000000 1.793320 
# 
# From -- ./inp_files/2648.got.cif
#   From: 2010.03.12/outbox.cif.g09.slc.cpg/sg3_2_cif.got.tgz:2648.got - 2010.03.31 09:20:49.
