data_PCOD8045544
_publ_section_title
;
Structure prediction by ZEFSAII (Michael W. Deem and Ramdas Pophale) SiO2 
 PCOD8045544
Probable space group: P 2
;
_chemical_formula_sum "Si O2"
_cell_formula_units_Z 13
_cell_length_a 11.277223
_cell_length_b 9.509544
_cell_length_c 8.253190
_cell_angle_alpha 90.000000
_cell_angle_beta 39.896465
_cell_angle_gamma 90.000000
_cell_volume 567.693884
_symmetry_space_group_name_H-M "P 2"
_symmetry_group_IT_number 3
_symmetry_cell_setting 'monoclinic'
loop_
_space_group_symop_operation_xyz
x,y,z
-x,y,-z
loop_
_atom_site_type_symbol
_atom_site_label
_atom_site_fract_x
_atom_site_fract_y
_atom_site_fract_z
Si Si1 0.925119 0.997850 0.254652
Si Si2 0.868302 0.266995 0.488078
Si Si3 0.751408 0.754250 0.585370
Si Si4 0.030026 0.544958 0.161563
Si Si5 0.417186 0.661827 0.758469
Si Si6 0.277817 0.915857 0.058667
Si Si7 0.500000 0.151842 0.000000
O O1 0.749536 0.898921 0.480385
O O2 0.075058 0.971076 0.237521
O O3 0.877158 0.160664 0.326674
O O4 0.000000 0.964619 0.000000
O O5 0.654604 0.258011 0.767826
O O6 0.000000 0.226143 0.500000
O O7 0.930366 0.415086 0.351333
O O8 0.583657 0.649888 0.713963
O O9 0.728484 0.797647 0.794372
O O10 0.945345 0.681569 0.337558
O O11 0.249613 0.552193 0.969948
O O12 0.000000 0.546975 0.000000
O O13 0.500000 0.620522 0.500000
O O14 0.350103 0.825390 0.829119
O O15 0.409205 0.048425 0.960712
#
# Coordination Sequence:
#
# PCOD8045544 Si02
#       7
#     2   2   2   2   2   2   1
#     4  12  23  44  76 108 150 195 239 305 375 435
#     4  12  27  48  74 101 147 198 250 303 369 441
#     4  12  23  44  73 109 143 190 242 305 366 437
#     4  12  28  48  68 105 151 197 245 305 372 438
#     4  12  24  42  71 107 146 188 241 301 370 437
#     4  12  23  43  78 111 147 187 243 305 370 438
#     4  12  24  48  72 112 140 188 254 304 358 444
#
# _framework density 22.899664999999999
#
# number of rings (size 3 to 8) (size 9 to 14) (size 15 to 20)
#    0.000    0.000    7.692    2.308    2.154    1.231 
#    0.000    0.000    0.000    0.000    0.000    0.000 
#    0.000    0.000    0.000    0.000    0.000    0.000 
#
# Total GULP energy -161122.315614 kJ/mol
# GULP energy per Si atom -12394.024278 kJ/mol
# Density = 2.284754 g / cm^3
# Si number density = 22.899665 Si / 1000 Ang^3
#
#
#
# Elastic Constant Matrix: (Units=GPa)
#
#
# Indices 1 2 3 4 5 6 
#
# 1 108.7152 22.6678 52.8044 0.0000 -13.8261 0.0000
# 2 22.6678 108.2564 50.3080 0.0000 -1.9310 0.0000
# 3 52.8044 50.3080 135.6905 0.0000 -22.3491 0.0000
# 4 0.0000 0.0000 0.0000 52.0824 0.0000 -7.7023
# 5 -13.8261 -1.9310 -22.3491 0.0000 35.7899 0.0000
# 6 0.0000 0.0000 0.0000 -7.7023 0.0000 18.8891
#
#
#
# Elastic Compliance Matrix: (Units=1/GPa)
#
#
# Indices 1 2 3 4 5 6 
#
# 1 0.011474 -0.000533 -0.003948 0.000000 0.001938 0.000000
# 2 -0.000533 0.011344 -0.004382 0.000000 -0.002330 0.000000
# 3 -0.003948 -0.004382 0.011415 0.000000 0.005366 0.000000
# 4 0.000000 0.000000 0.000000 0.020432 0.000000 0.008332
# 5 0.001938 -0.002330 0.005366 0.000000 0.031915 0.000000
# 6 0.000000 0.000000 0.000000 0.008332 0.000000 0.056338
#
#
# Mechanical properties :
#
#
# Convention : Reuss Voigt Hill
#
# Bulk Modulus (GPa) = 60.58628 67.13585 63.86107
# Shear Modulus (GPa) = 30.09400 36.47773 33.28586
#
# Velocity S-wave (km/s) = 3.62908 3.99549 3.81668
# Velocity P-wave (km/s) = 6.63890 7.11803 6.88263
#
# Compressibility (1/GPa) = 0.01650539
#
# Stress axis : x y z
#
# Youngs Moduli (GPa) = 87.15616 88.15363 87.60644
#
# Poissons Ratio (x) = 0.04700 0.34588
# Poissons Ratio (y) = 0.04647 0.38390
# Poissons Ratio (z) = 0.34410 0.38630
#
# Static dielectric constant tensor:
#      x y z
#    x 4.150520 0.000000 -0.209200 
#    y 0.000000 3.933220 0.000000 
#    z -0.209200 0.000000 4.404430 
# 
# 
# High freq. dielectric constant tensor:
#      x y z
#    x 1.898400 0.000000 -0.011780 
#    y 0.000000 1.887730 0.000000 
#    z -0.011780 0.000000 1.926250 
# 
# From -- ./inp_files/7309.got.cif
#   From: 2010.03.12/outbox.cif.g09.slc.cpg/sg3_4_cif.got.tgz:7309.got - 2010.03.31 09:20:49.
