data_PCOD8045471
_publ_section_title
;
Structure prediction by ZEFSAII (Michael W. Deem and Ramdas Pophale) SiO2 
 PCOD8045471
Probable space group: P 2
;
_chemical_formula_sum "Si O2"
_cell_formula_units_Z 16
_cell_length_a 9.471308
_cell_length_b 17.809862
_cell_length_c 8.476119
_cell_angle_alpha 90.000000
_cell_angle_beta 32.181359
_cell_angle_gamma 90.000000
_cell_volume 761.499267
_symmetry_space_group_name_H-M "P 2"
_symmetry_group_IT_number 3
_symmetry_cell_setting 'monoclinic'
loop_
_space_group_symop_operation_xyz
x,y,z
-x,y,-z
loop_
_atom_site_type_symbol
_atom_site_label
_atom_site_fract_x
_atom_site_fract_y
_atom_site_fract_z
Si Si1 0.524725 0.876580 0.792202
Si Si2 0.500367 0.714262 0.315060
Si Si3 0.009343 0.129443 0.180311
Si Si4 0.008141 0.959959 0.178166
Si Si5 0.499458 0.209912 0.321019
Si Si6 0.219533 0.478279 0.176160
Si Si7 0.987673 0.643144 0.688664
Si Si8 0.280604 0.370940 0.823904
O O1 0.571096 0.789927 0.707955
O O2 0.767825 0.920277 0.489619
O O3 0.500000 0.887550 0.000000
O O4 0.264669 0.911115 0.964977
O O5 0.500000 0.730272 0.500000
O O6 0.283074 0.650143 0.480930
O O7 0.790101 0.689474 0.985317
O O8 0.788448 0.184179 0.469635
O O9 0.285266 0.163464 0.981057
O O10 0.001843 0.044612 0.251646
O O11 0.000000 0.133273 0.000000
O O12 0.000000 0.964141 0.000000
O O13 0.500000 0.182288 0.500000
O O14 0.574988 0.297587 0.240852
O O15 0.000000 0.441976 0.500000
O O16 0.107682 0.557733 0.224153
O O17 0.500000 0.487087 0.000000
O O18 0.235085 0.427418 0.008331
O O19 0.000000 0.676535 0.500000
O O20 0.500000 0.407776 0.500000
O O21 0.000000 0.352639 0.000000
#
# Coordination Sequence:
#
# PCOD8045471 Si02
#       8
#     2   2   2   2   2   2   2   2
#     4  12  25  42  62  88 125 167 200 242 307 378
#     4  12  25  42  65  94 123 155 200 258 307 359
#     4   9  17  30  54  84 115 152 197 250 304 356
#     4  11  22  39  63  92 120 156 208 262 303 355
#     4   9  16  30  52  85 120 152 195 250 307 356
#     4  11  24  43  64  89 126 170 207 250 310 381
#     4  11  23  43  65  89 121 163 205 246 304 376
#     4  11  22  37  62  95 126 161 210 268 310 359
#
# _framework density 21.011182000000002
#
# number of rings (size 3 to 8) (size 9 to 14) (size 15 to 20)
#    0.000    1.250    0.000    8.625    0.000    3.500 
#    0.000    0.000    0.000    7.500    0.000    0.000 
#    0.000    0.000    0.000    0.000    0.000    0.000 
#
# Total GULP energy -198330.730040 kJ/mol
# GULP energy per Si atom -12395.670628 kJ/mol
# Density = 2.096336 g / cm^3
# Si number density = 21.011182 Si / 1000 Ang^3
#
#
#
# Elastic Constant Matrix: (Units=GPa)
#
#
# Indices 1 2 3 4 5 6 
#
# 1 46.1592 30.3314 30.9726 0.0000 -1.6923 0.0000
# 2 30.3314 118.8852 58.4758 0.0000 0.3390 0.0000
# 3 30.9726 58.4758 168.8174 0.0000 -2.1508 0.0000
# 4 0.0000 0.0000 0.0000 -3.7956 0.0000 -59.1742
# 5 -1.6923 0.3390 -2.1508 0.0000 42.1968 0.0000
# 6 0.0000 0.0000 0.0000 -59.1742 0.0000 -61.2425
#
#
#
# Elastic Compliance Matrix: (Units=1/GPa)
#
#
# Indices 1 2 3 4 5 6 
#
# 1 0.027378 -0.005452 -0.003122 0.000000 0.000983 0.000000
# 2 -0.005452 0.011228 -0.002895 0.000000 -0.000456 0.000000
# 3 -0.003122 -0.002895 0.007503 0.000000 0.000280 0.000000
# 4 0.000000 0.000000 0.000000 0.018734 0.000000 -0.018101
# 5 0.000983 -0.000456 0.000280 0.000000 0.023756 0.000000
# 6 0.000000 0.000000 0.000000 -0.018101 0.000000 0.001161
#
#
# Mechanical properties :
#
#
# Convention : Reuss Voigt Hill
#
# Bulk Modulus (GPa) = 43.15836 63.71349 53.43592
# Shear Modulus (GPa) = 41.52182 9.70389 25.61285
#
# Velocity S-wave (km/s) = 4.45024 2.15139 3.49522
# Velocity P-wave (km/s) = 6.85503 6.04655 6.46344
#
# Compressibility (1/GPa) = 0.02317048
#
# Stress axis : x y z
#
# Youngs Moduli (GPa) = 36.52630 89.06672 133.28838
#
# Poissons Ratio (x) = 0.48560 0.41611
# Poissons Ratio (y) = 0.19915 0.38581
# Poissons Ratio (z) = 0.11403 0.25781
#
# Static dielectric constant tensor:
#      x y z
#    x 3.598080 0.000000 -0.090020 
#    y 0.000000 3.807050 0.000000 
#    z -0.090020 0.000000 4.359700 
# 
# 
# High freq. dielectric constant tensor:
#      x y z
#    x 1.795920 0.000000 -0.007560 
#    y 0.000000 1.828060 0.000000 
#    z -0.007560 0.000000 1.855180 
# 
# From -- ./inp_files/6208.got.cif
#   From: 2010.03.12/outbox.cif.g09.slc.cpg/sg3_4_cif.got.tgz:6208.got - 2010.03.31 09:20:49.
