data_PCOD8045310
_publ_section_title
;
Structure prediction by ZEFSAII (Michael W. Deem and Ramdas Pophale) SiO2 
 PCOD8045310
Probable space group: P 2
;
_chemical_formula_sum "Si O2"
_cell_formula_units_Z 16
_cell_length_a 5.458158
_cell_length_b 7.100055
_cell_length_c 22.780280
_cell_angle_alpha 90.000000
_cell_angle_beta 55.624691
_cell_angle_gamma 90.000000
_cell_volume 728.632694
_symmetry_space_group_name_H-M "P 2"
_symmetry_group_IT_number 3
_symmetry_cell_setting 'monoclinic'
loop_
_space_group_symop_operation_xyz
x,y,z
-x,y,-z
loop_
_atom_site_type_symbol
_atom_site_label
_atom_site_fract_x
_atom_site_fract_y
_atom_site_fract_z
Si Si1 0.796346 0.032200 0.176115
Si Si2 0.980175 0.550737 0.290278
Si Si3 0.757477 0.326493 0.079495
Si Si4 0.498858 0.709859 0.158252
Si Si5 0.304756 0.828896 0.582703
Si Si6 0.192270 0.051521 0.418379
Si Si7 0.440083 0.998327 0.074272
Si Si8 0.535245 0.324083 0.702097
O O1 0.857479 0.161389 0.110087
O O2 0.614638 0.141796 0.249245
O O3 0.633429 0.831633 0.192827
O O4 0.124825 0.974709 0.148705
O O5 0.816090 0.648172 0.366874
O O6 0.730387 0.454527 0.284245
O O7 0.150285 0.688101 0.221700
O O8 0.238286 0.417070 0.282300
O O9 0.638493 0.502062 0.132473
O O10 0.516098 0.218238 0.072601
O O11 0.000000 0.395560 0.000000
O O12 0.602675 0.831283 0.087611
O O13 0.500000 0.765362 0.500000
O O14 0.510793 0.942374 0.600857
O O15 0.012253 0.939941 0.600635
O O16 0.000000 0.107499 0.500000
O O17 0.281987 0.250421 0.378358
O O18 0.500000 0.938938 0.000000
#
# Coordination Sequence:
#
# PCOD8045310 Si02
#       8
#     2   2   2   2   2   2   2   2
#     4  11  25  44  66  91 133 174 223 281 339 406
#     4  12  26  44  67 101 137 179 228 283 338 400
#     4  11  23  44  64  92 132 166 222 286 341 407
#     4  11  27  41  68  95 130 177 227 279 344 409
#     4  10  22  42  69 100 137 177 227 279 335 403
#     4  10  22  42  69 100 136 181 226 275 339 403
#     4  11  25  42  65  95 127 174 224 281 346 407
#     4  12  26  43  69  97 141 178 228 283 335 403
#
# _framework density 21.958936999999999
#
# number of rings (size 3 to 8) (size 9 to 14) (size 15 to 20)
#    0.000    1.000    2.500    3.000    7.000    2.500 
#    0.000    0.000    0.000    0.000    0.000    0.000 
#    0.000    0.000    0.000    0.000    0.000    0.000 
#
# Total GULP energy -198222.125432 kJ/mol
# GULP energy per Si atom -12388.882840 kJ/mol
# Density = 2.190896 g / cm^3
# Si number density = 21.958937 Si / 1000 Ang^3
#
#
#
# Elastic Constant Matrix: (Units=GPa)
#
#
# Indices 1 2 3 4 5 6 
#
# 1 106.8831 25.7493 16.7904 0.0000 -7.5539 0.0000
# 2 25.7493 110.0655 43.8933 0.0000 -1.9512 0.0000
# 3 16.7904 43.8933 101.1241 0.0000 -4.9539 0.0000
# 4 0.0000 0.0000 0.0000 459.7771 0.0000 -739.1723
# 5 -7.5539 -1.9512 -4.9539 0.0000 31.3277 0.0000
# 6 0.0000 0.0000 0.0000 -739.1723 0.0000 1369.6853
#
#
#
# Elastic Compliance Matrix: (Units=1/GPa)
#
#
# Indices 1 2 3 4 5 6 
#
# 1 0.010114 -0.002056 -0.000679 0.000000 0.002203 0.000000
# 2 -0.002056 0.011406 -0.004635 0.000000 -0.000518 0.000000
# 3 -0.000679 -0.004635 0.012085 0.000000 0.001459 0.000000
# 4 0.000000 0.000000 0.000000 0.016428 0.000000 0.008866
# 5 0.002203 -0.000518 0.001459 0.000000 0.032650 0.000000
# 6 0.000000 0.000000 0.000000 0.008866 0.000000 0.005515
#
#
# Mechanical properties :
#
#
# Convention : Reuss Voigt Hill
#
# Bulk Modulus (GPa) = 53.00925 54.54873 53.77899
# Shear Modulus (GPa) = 45.77718 387.60066 216.68892
#
# Velocity S-wave (km/s) = 4.57077 13.30018 9.94451
# Velocity P-wave (km/s) = 7.21447 16.14791 12.50607
#
# Compressibility (1/GPa) = 0.01886463
#
# Stress axis : x y z
#
# Youngs Moduli (GPa) = 98.87526 87.67598 82.74942
#
# Poissons Ratio (x) = 0.18029 0.05617
# Poissons Ratio (y) = 0.20332 0.38351
# Poissons Ratio (z) = 0.06711 0.40635
#
# Static dielectric constant tensor:
#      x y z
#    x 0.594640 0.000000 -4.144940 
#    y 0.000000 3.809240 0.000000 
#    z -4.144940 0.000000 -0.711860 
# 
# 
# High freq. dielectric constant tensor:
#      x y z
#    x 1.870010 0.000000 -0.001130 
#    y 0.000000 1.860840 0.000000 
#    z -0.001130 0.000000 1.882980 
# 
# From -- ./inp_files/3963.got.cif
#   From: 2010.03.12/outbox.cif.g09.slc.cpg/sg3_2_cif.got.tgz:3963.got - 2010.03.31 09:20:49.
