data_PCOD8045003
_publ_section_title
;
Structure prediction by ZEFSAII (Michael W. Deem and Ramdas Pophale) SiO2 
 PCOD8045003
Probable space group: P 2
;
_chemical_formula_sum "Si O2"
_cell_formula_units_Z 14
_cell_length_a 8.420509
_cell_length_b 15.709255
_cell_length_c 9.717633
_cell_angle_alpha 90.000000
_cell_angle_beta 148.914697
_cell_angle_gamma 90.000000
_cell_volume 663.694243
_symmetry_space_group_name_H-M "P 2"
_symmetry_group_IT_number 3
_symmetry_cell_setting 'monoclinic'
loop_
_space_group_symop_operation_xyz
x,y,z
-x,y,-z
loop_
_atom_site_type_symbol
_atom_site_label
_atom_site_fract_x
_atom_site_fract_y
_atom_site_fract_z
Si Si1 0.687685 0.580160 0.499950
Si Si2 0.147912 0.832778 0.748660
Si Si3 0.322608 0.390152 0.512623
Si Si4 0.260175 0.095875 0.078089
Si Si5 0.821167 0.685610 0.008288
Si Si6 0.182707 0.287949 0.994186
Si Si7 0.097010 0.012811 0.420336
O O1 0.500000 0.572575 0.500000
O O2 0.739667 0.485684 0.478172
O O3 0.023928 0.612976 0.785324
O O4 0.518712 0.647844 0.273436
O O5 0.168931 0.770339 0.894088
O O6 0.000000 0.789379 0.500000
O O7 0.500000 0.867075 0.000000
O O8 0.908354 0.910139 0.598716
O O9 0.500000 0.393607 0.500000
O O10 0.023399 0.330002 0.278005
O O11 0.521202 0.347235 0.778380
O O12 0.296716 0.192301 0.050977
O O13 0.166290 0.042792 0.876881
O O14 0.574820 0.055758 0.372842
O O15 0.000000 0.088789 0.000000
O O16 0.000000 0.705670 0.000000
O O17 0.000000 0.288759 0.000000
O O18 0.000000 0.041487 0.500000
#
# Coordination Sequence:
#
# PCOD8045003 Si02
#       7
#     2   2   2   2   2   2   2
#     4   9  17  29  49  80 115 147 181 226 280 337
#     4  11  23  41  61  82 110 150 199 241 285 351
#     4   9  15  26  45  74 113 150 179 217 276 335
#     4  11  22  38  60  90 120 148 191 246 297 339
#     4  10  20  35  56  84 115 143 182 238 291 336
#     4   9  17  28  47  77 113 146 180 227 279 333
#     4  11  23  41  61  83 114 154 197 239 288 355
#
# _framework density 21.094048999999998
#
# number of rings (size 3 to 8) (size 9 to 14) (size 15 to 20)
#    0.000    2.000    0.000    5.143    0.000    6.286 
#    0.000    5.714    0.000    0.000    0.000   35.000 
#    0.000    0.000    0.000    0.000    0.000    0.000 
#
# Total GULP energy -173492.826752 kJ/mol
# GULP energy per Si atom -12392.344768 kJ/mol
# Density = 2.104604 g / cm^3
# Si number density = 21.094049 Si / 1000 Ang^3
#
#
#
# Elastic Constant Matrix: (Units=GPa)
#
#
# Indices 1 2 3 4 5 6 
#
# 1 37.1590 37.3916 17.1217 0.0000 0.9347 0.0000
# 2 37.3916 146.8773 46.2745 0.0000 -0.4345 0.0000
# 3 17.1217 46.2745 127.3955 0.0000 4.0755 0.0000
# 4 0.0000 0.0000 0.0000 -21.9179 0.0000 110.2297
# 5 0.9347 -0.4345 4.0755 0.0000 28.2333 0.0000
# 6 0.0000 0.0000 0.0000 110.2297 0.0000 -183.6324
#
#
#
# Elastic Compliance Matrix: (Units=1/GPa)
#
#
# Indices 1 2 3 4 5 6 
#
# 1 0.036548 -0.008775 -0.001689 0.000000 -0.001101 0.000000
# 2 -0.008775 0.009803 -0.002407 0.000000 0.000789 0.000000
# 3 -0.001689 -0.002407 0.008992 0.000000 -0.001279 0.000000
# 4 0.000000 0.000000 0.000000 0.022599 0.000000 0.013565
# 5 -0.001101 0.000789 -0.001279 0.000000 0.035652 0.000000
# 6 0.000000 0.000000 0.000000 0.013565 0.000000 0.002697
#
#
# Mechanical properties :
#
#
# Convention : Reuss Voigt Hill
#
# Bulk Modulus (GPa) = 33.78377 57.00082 45.39230
# Shear Modulus (GPa) = 32.91648 -21.42046 5.74801
#
# Velocity S-wave (km/s) = 3.95455 -3.19011 1.65253
# Velocity P-wave (km/s) = 6.07469 3.67585 5.02064
#
# Compressibility (1/GPa) = 0.02960001
#
# Stress axis : x y z
#
# Youngs Moduli (GPa) = 27.36161 102.01034 111.21383
#
# Poissons Ratio (x) = 0.89516 0.18787
# Poissons Ratio (y) = 0.24010 0.26765
# Poissons Ratio (z) = 0.04622 0.24550
#
# Static dielectric constant tensor:
#      x y z
#    x 3.742890 0.000000 -0.044430 
#    y 0.000000 3.947050 0.000000 
#    z -0.044430 0.000000 4.437940 
# 
# 
# High freq. dielectric constant tensor:
#      x y z
#    x 1.774990 0.000000 0.002950 
#    y 0.000000 1.836920 0.000000 
#    z 0.002950 0.000000 1.850210 
# 
# From -- ./inp_files/6240.got.cif
#   From: 2010.03.12/outbox.cif.g09.slc.cpg/sg3_4_cif.got.tgz:6240.got - 2010.03.31 09:20:49.
