data_PCOD8045193
_publ_section_title
;
Structure prediction by ZEFSAII (Michael W. Deem and Ramdas Pophale) SiO2 
 PCOD8045193
Probable space group: P 2
;
_chemical_formula_sum "Si O2"
_cell_formula_units_Z 12
_cell_length_a 8.843790
_cell_length_b 7.717465
_cell_length_c 9.888626
_cell_angle_alpha 90.000000
_cell_angle_beta 125.227084
_cell_angle_gamma 90.000000
_cell_volume 551.319336
_symmetry_space_group_name_H-M "P 2"
_symmetry_group_IT_number 3
_symmetry_cell_setting 'monoclinic'
loop_
_space_group_symop_operation_xyz
x,y,z
-x,y,-z
loop_
_atom_site_type_symbol
_atom_site_label
_atom_site_fract_x
_atom_site_fract_y
_atom_site_fract_z
Si Si1 0.675474 0.962840 0.995072
Si Si2 0.950798 0.662278 0.131601
Si Si3 0.559154 0.966152 0.379666
Si Si4 0.181175 0.658765 0.503887
Si Si5 0.456001 0.357383 0.628712
Si Si6 0.182953 0.312388 0.008833
O O1 0.619163 0.942407 0.808835
O O2 0.772823 0.149435 0.064331
O O3 0.500000 0.952995 0.000000
O O4 0.816893 0.814605 0.112044
O O5 0.132374 0.661368 0.319029
O O6 0.850791 0.478055 0.103725
O O7 0.000000 0.686545 0.000000
O O8 0.500000 0.914494 0.500000
O O9 0.718800 0.839264 0.409369
O O10 0.632198 0.164280 0.410691
O O11 0.311815 0.497340 0.611749
O O12 0.000000 0.642868 0.500000
O O13 0.500000 0.413183 0.500000
O O14 0.647013 0.361885 0.807690
O O15 0.000000 0.267541 0.000000
#
# Coordination Sequence:
#
# PCOD8045193 Si02
#       6
#     2   2   2   2   2   2
#     4  11  23  39  62  91 124 158 198 254 308 355
#     4  11  23  39  62  88 119 162 206 247 292 360
#     4  10  22  41  63  85 117 165 208 246 294 358
#     4  12  25  39  61  93 128 161 197 249 306 360
#     4  10  21  40  64  89 121 161 205 250 297 358
#     4  10  22  40  64  90 118 159 208 252 298 357
#
# _framework density 21.765972000000001
#
# number of rings (size 3 to 8) (size 9 to 14) (size 15 to 20)
#    0.000    1.333    0.000    6.000    0.000    8.000 
#    0.000    0.000    0.000    0.000    0.000    0.000 
#    0.000    0.000    0.000    0.000    0.000    0.000 
#
# Total GULP energy -148841.454680 kJ/mol
# GULP energy per Si atom -12403.454557 kJ/mol
# Density = 2.171643 g / cm^3
# Si number density = 21.765972 Si / 1000 Ang^3
#
#
#
# Elastic Constant Matrix: (Units=GPa)
#
#
# Indices 1 2 3 4 5 6 
#
# 1 85.3502 43.5059 15.8158 0.0000 22.5002 0.0000
# 2 43.5059 161.2276 36.8393 0.0000 31.4809 0.0000
# 3 15.8158 36.8393 84.1040 0.0000 16.0934 0.0000
# 4 0.0000 0.0000 0.0000 25.4502 0.0000 12.5118
# 5 22.5002 31.4809 16.0934 0.0000 36.1279 0.0000
# 6 0.0000 0.0000 0.0000 12.5118 0.0000 12.3951
#
#
#
# Elastic Compliance Matrix: (Units=1/GPa)
#
#
# Indices 1 2 3 4 5 6 
#
# 1 0.014919 -0.002605 -0.000351 0.000000 -0.006865 0.000000
# 2 -0.002605 0.008327 -0.002273 0.000000 -0.004621 0.000000
# 3 -0.000351 -0.002273 0.013699 0.000000 -0.003903 0.000000
# 4 0.000000 0.000000 0.000000 0.078000 0.000000 -0.078734
# 5 -0.006865 -0.004621 -0.003903 0.000000 0.037720 0.000000
# 6 0.000000 0.000000 0.000000 -0.078734 0.000000 0.160153
#
#
# Mechanical properties :
#
#
# Convention : Reuss Voigt Hill
#
# Bulk Modulus (GPa) = 37.75542 58.11155 47.93348
# Shear Modulus (GPa) = 15.05549 30.42935 22.74242
#
# Velocity S-wave (km/s) = 2.63287 3.74307 3.23594
# Velocity P-wave (km/s) = 5.16008 6.74070 6.00265
#
# Compressibility (1/GPa) = 0.02648626
#
# Stress axis : x y z
#
# Youngs Moduli (GPa) = 67.02772 120.08994 73.00041
#
# Poissons Ratio (x) = 0.31286 0.02561
# Poissons Ratio (y) = 0.17462 0.16595
# Poissons Ratio (z) = 0.02351 0.27300
#
# Static dielectric constant tensor:
#      x y z
#    x 3.591840 0.000000 0.016120 
#    y 0.000000 4.254370 0.000000 
#    z 0.016120 0.000000 4.099920 
# 
# 
# High freq. dielectric constant tensor:
#      x y z
#    x 1.838190 0.000000 0.003080 
#    y 0.000000 1.875820 0.000000 
#    z 0.003080 0.000000 1.861500 
# 
# From -- ./inp_files/10616.got.cif
#   From: 2010.03.12/outbox.cif.g09.slc.cpg/sg3_6_cif.got.tgz:10616.got - 2010.03.31 09:20:49.
