data_PCOD8045517
_publ_section_title
;
Structure prediction by ZEFSAII (Michael W. Deem and Ramdas Pophale) SiO2 
 PCOD8045517
Probable space group: P 2
;
_chemical_formula_sum "Si O2"
_cell_formula_units_Z 13
_cell_length_a 13.537668
_cell_length_b 5.059730
_cell_length_c 19.233501
_cell_angle_alpha 90.000000
_cell_angle_beta 21.717864
_cell_angle_gamma 90.000000
_cell_volume 487.499335
_symmetry_space_group_name_H-M "P 2"
_symmetry_group_IT_number 3
_symmetry_cell_setting 'monoclinic'
loop_
_space_group_symop_operation_xyz
x,y,z
-x,y,-z
loop_
_atom_site_type_symbol
_atom_site_label
_atom_site_fract_x
_atom_site_fract_y
_atom_site_fract_z
Si Si1 0.278289 0.330740 0.009883
Si Si2 0.967751 0.749510 0.396518
Si Si3 0.692316 0.163213 0.246809
Si Si4 0.793370 0.952097 0.362998
Si Si5 0.677801 0.223453 0.638213
Si Si6 0.500000 0.563913 0.000000
Si Si7 0.928899 0.674414 0.150495
O O1 0.553227 0.222387 0.796988
O O2 0.327847 0.394146 0.058247
O O3 0.205628 0.582050 0.006904
O O4 0.034387 0.124377 0.171600
O O5 0.865512 0.795431 0.385390
O O6 0.827475 0.491615 0.519607
O O7 0.899924 0.994798 0.490443
O O8 0.290038 0.733060 0.182703
O O9 0.564926 0.147943 0.254099
O O10 0.821075 0.449402 0.170115
O O11 0.464053 0.132078 0.454711
O O12 0.925231 0.941116 0.105249
O O13 0.731273 0.732424 0.344963
#
# Coordination Sequence:
#
# PCOD8045517 Si02
#       7
#     2   2   2   2   2   1   2
#     4  12  29  51  76 116 154 201 260 320 381 452
#     4  11  26  50  81 111 150 199 257 313 389 451
#     4  11  25  42  74 107 156 199 247 302 385 439
#     4  11  25  45  76 110 154 196 261 311 364 455
#     4  11  28  52  74 115 160 196 244 318 388 472
#     4  12  26  54  86 108 146 202 264 330 376 444
#     4  12  25  43  73 112 148 201 256 304 364 460
#
# _framework density 26.666706999999999
#
# number of rings (size 3 to 8) (size 9 to 14) (size 15 to 20)
#    0.000    0.615    3.077    4.154    6.462    3.692 
#    2.769    3.077    0.000    0.000    0.000    0.000 
#    0.000    0.000    0.000    0.000    0.000    0.000 
#
# Total GULP energy -161130.551737 kJ/mol
# GULP energy per Si atom -12394.657826 kJ/mol
# Density = 2.660601 g / cm^3
# Si number density = 26.666707 Si / 1000 Ang^3
#
#
#
# Elastic Constant Matrix: (Units=GPa)
#
#
# Indices 1 2 3 4 5 6 
#
# 1 70.0556 15.0614 23.7910 0.0000 -3.8391 0.0000
# 2 15.0614 157.2949 52.9350 0.0000 0.7839 0.0000
# 3 23.7910 52.9350 178.3612 0.0000 19.6720 0.0000
# 4 0.0000 0.0000 0.0000 1.1930 0.0000 -45.8283
# 5 -3.8391 0.7839 19.6720 0.0000 39.5897 0.0000
# 6 0.0000 0.0000 0.0000 -45.8283 0.0000 -46.6544
#
#
#
# Elastic Compliance Matrix: (Units=1/GPa)
#
#
# Indices 1 2 3 4 5 6 
#
# 1 0.015289 -0.000773 -0.002090 0.000000 0.002536 0.000000
# 2 -0.000773 0.007136 -0.002106 0.000000 0.000830 0.000000
# 3 -0.002090 -0.002106 0.006907 0.000000 -0.003593 0.000000
# 4 0.000000 0.000000 0.000000 0.021640 0.000000 -0.021257
# 5 0.002536 0.000830 -0.003593 0.000000 0.027274 0.000000
# 6 0.000000 0.000000 0.000000 -0.021257 0.000000 -0.000553
#
#
# Mechanical properties :
#
#
# Convention : Reuss Voigt Hill
#
# Bulk Modulus (GPa) = 51.56351 65.47629 58.51990
# Shear Modulus (GPa) = 53.13699 19.75395 36.44547
#
# Velocity S-wave (km/s) = 4.46874 2.72467 3.70091
# Velocity P-wave (km/s) = 6.78265 5.87412 6.34467
#
# Compressibility (1/GPa) = 0.01939356
#
# Stress axis : x y z
#
# Youngs Moduli (GPa) = 65.40532 140.12936 144.78636
#
# Poissons Ratio (x) = 0.10838 0.30254
# Poissons Ratio (y) = 0.05059 0.30497
# Poissons Ratio (z) = 0.13667 0.29516
#
# Static dielectric constant tensor:
#      x y z
#    x 4.960100 0.000000 0.018380 
#    y 0.000000 4.954030 0.000000 
#    z 0.018380 0.000000 5.193220 
# 
# 
# High freq. dielectric constant tensor:
#      x y z
#    x 2.080650 0.000000 0.013170 
#    y 0.000000 2.066320 0.000000 
#    z 0.013170 0.000000 2.083050 
# 
# From -- ./inp_files/15978.got.cif
#   From: 2010.03.12/outbox.cif.g09.slc.cpg/sg3_8_cif.got.tgz:15978.got - 2010.03.31 09:20:49.
