data_PCOD8045964
_publ_section_title
;
Structure prediction by ZEFSAII (Michael W. Deem and Ramdas Pophale) SiO2 
 PCOD8045964
Probable space group: P 21
;
_chemical_formula_sum "Si O2"
_cell_formula_units_Z 16
_cell_length_a 18.611283
_cell_length_b 8.385989
_cell_length_c 8.196634
_cell_angle_alpha 90.000000
_cell_angle_beta 147.192785
_cell_angle_gamma 90.000000
_cell_volume 693.132737
_symmetry_space_group_name_H-M "P 21"
_symmetry_group_IT_number 4
_symmetry_cell_setting 'monoclinic'
loop_
_space_group_symop_operation_xyz
x,y,z
-x,1/2+y,-z
loop_
_atom_site_type_symbol
_atom_site_label
_atom_site_fract_x
_atom_site_fract_y
_atom_site_fract_z
Si Si1 0.982150 0.441280 0.357728
Si Si2 0.688505 0.426475 0.281033
Si Si3 0.578634 0.696816 0.674868
Si Si4 0.794569 0.746691 0.349327
Si Si5 0.076382 0.786367 0.429012
Si Si6 0.571045 0.972431 0.415814
Si Si7 0.724505 0.511011 0.695596
Si Si8 0.815162 0.843305 0.736002
O O1 0.073366 0.286522 0.499825
O O2 0.053367 0.611448 0.462527
O O3 0.931593 0.423151 0.446920
O O4 0.859353 0.425739 0.002328
O O5 0.784834 0.572788 0.411452
O O6 0.776594 0.281345 0.374355
O O7 0.666717 0.407202 0.434866
O O8 0.539227 0.447157 0.934201
O O9 0.536385 0.830493 0.471220
O O10 0.449962 0.639097 0.530022
O O11 0.634818 0.539680 0.685525
O O12 0.678910 0.772672 0.997725
O O13 0.800268 0.869516 0.513374
O O14 0.967176 0.840105 0.085221
O O15 0.722288 0.980004 0.640532
O O16 0.743831 0.684579 0.657699
#
# Coordination Sequence:
#
# PCOD8045964 Si02
#       8
#     2   2   2   2   2   2   2   2
#     4  11  20  35  60  85 116 158 199 242 294 351
#     4  10  21  38  59  86 118 151 194 248 300 352
#     4  10  21  39  60  86 118 155 198 247 295 349
#     4  10  20  38  61  84 117 158 193 243 302 350
#     4  11  22  37  58  89 120 154 200 246 292 348
#     4  10  21  38  60  84 115 159 199 238 296 354
#     4   9  19  37  59  83 116 155 193 239 296 352
#     4   9  20  38  59  83 116 154 194 241 297 352
#
# _framework density 23.083601999999999
#
# number of rings (size 3 to 8) (size 9 to 14) (size 15 to 20)
#    0.000    2.000    0.000    5.250    0.000    3.000 
#    0.000    7.500    0.000    0.000    0.000    0.000 
#    0.000    0.000    0.000    0.000    0.000    0.000 
#
# Total GULP energy -198240.451203 kJ/mol
# GULP energy per Si atom -12390.028200 kJ/mol
# Density = 2.303106 g / cm^3
# Si number density = 23.083602 Si / 1000 Ang^3
#
#
#
# Elastic Constant Matrix: (Units=GPa)
#
#
# Indices 1 2 3 4 5 6 
#
# 1 72.8519 -2.9250 19.7190 0.0000 -23.1804 0.0000
# 2 -2.9250 30.1719 12.9344 0.0000 -12.8582 0.0000
# 3 19.7190 12.9344 47.2502 0.0000 -20.5494 0.0000
# 4 0.0000 0.0000 0.0000 29.7253 0.0000 8.0430
# 5 -23.1804 -12.8582 -20.5494 0.0000 41.1218 0.0000
# 6 0.0000 0.0000 0.0000 8.0430 0.0000 31.8027
#
#
#
# Elastic Compliance Matrix: (Units=1/GPa)
#
#
# Indices 1 2 3 4 5 6 
#
# 1 0.019008 0.008821 -0.005734 0.000000 0.010608 0.000000
# 2 0.008821 0.044085 -0.009700 0.000000 0.013910 0.000000
# 3 -0.005734 -0.009700 0.030009 0.000000 0.008731 0.000000
# 4 0.000000 0.000000 0.000000 0.036113 0.000000 -0.009133
# 5 0.010608 0.013910 0.008731 0.000000 0.039010 0.000000
# 6 0.000000 0.000000 0.000000 -0.009133 0.000000 0.033754
#
#
# Mechanical properties :
#
#
# Convention : Reuss Voigt Hill
#
# Bulk Modulus (GPa) = 12.51919 23.30343 17.91131
# Shear Modulus (GPa) = 20.67577 28.56634 24.62106
#
# Velocity S-wave (km/s) = 2.99606 3.52165 3.26943
# Velocity P-wave (km/s) = 4.17177 5.16267 4.69344
#
# Compressibility (1/GPa) = 0.07987739
#
# Stress axis : x y z
#
# Youngs Moduli (GPa) = 52.60961 22.68357 33.32289
#
# Poissons Ratio (x) = -0.20010 0.19108
# Poissons Ratio (y) = -0.46409 0.32322
# Poissons Ratio (z) = 0.30167 0.22003
#
# Static dielectric constant tensor:
#      x y z
#    x 4.708420 0.000000 -0.253270 
#    y 0.000000 3.885600 0.000000 
#    z -0.253270 0.000000 4.019170 
# 
# 
# High freq. dielectric constant tensor:
#      x y z
#    x 1.927990 0.000000 -0.015430 
#    y 0.000000 1.886560 0.000000 
#    z -0.015430 0.000000 1.907450 
# 
# From -- ./inp_files/9941.got.cif
#   From: 2010.03.12/outbox.cif.g09.slc.cpg/sg4_5_cif.got.tgz:9941.got - 2010.03.31 09:31:35.
