data_PCOD8045811
_publ_section_title
;
Structure prediction by ZEFSAII (Michael W. Deem and Ramdas Pophale) SiO2 
 PCOD8045811
Probable space group: P 21
;
_chemical_formula_sum "Si O2"
_cell_formula_units_Z 14
_cell_length_a 24.110359
_cell_length_b 5.123906
_cell_length_c 8.496255
_cell_angle_alpha 90.000000
_cell_angle_beta 32.656987
_cell_angle_gamma 90.000000
_cell_volume 566.384156
_symmetry_space_group_name_H-M "P 21"
_symmetry_group_IT_number 4
_symmetry_cell_setting 'monoclinic'
loop_
_space_group_symop_operation_xyz
x,y,z
-x,1/2+y,-z
loop_
_atom_site_type_symbol
_atom_site_label
_atom_site_fract_x
_atom_site_fract_y
_atom_site_fract_z
Si Si1 0.755670 0.128670 0.640424
Si Si2 0.697279 0.819069 0.509886
Si Si3 0.729272 0.523197 0.954125
Si Si4 0.879368 0.502192 0.145446
Si Si5 0.459405 0.283828 0.681400
Si Si6 0.080754 0.265450 0.632099
Si Si7 0.625919 0.338898 0.515341
O O1 0.693691 0.295694 0.917186
O O2 0.789086 0.304380 0.410654
O O3 0.685658 0.904242 0.722812
O O4 0.857067 0.027592 0.483561
O O5 0.818530 0.730930 0.195613
O O6 0.625714 0.565485 0.648720
O O7 0.667438 0.056489 0.467060
O O8 0.851183 0.588749 0.651128
O O9 0.665459 0.780258 0.042455
O O10 0.701615 0.441844 0.196167
O O11 0.936272 0.608382 0.165456
O O12 0.968954 0.353941 0.830820
O O13 0.505752 0.500458 0.458867
O O14 0.507401 0.317714 0.741557
#
# Coordination Sequence:
#
# PCOD8045811 Si02
#       7
#     2   2   2   2   2   2   2
#     4  10  21  40  68  97 134 168 228 274 329 385
#     4  11  23  41  69  96 136 183 213 265 348 420
#     4  10  24  39  72 105 127 168 239 291 314 392
#     4  10  19  38  65  97 130 181 220 265 333 400
#     4  10  22  42  70 100 128 171 226 280 337 398
#     4  10  20  35  68  98 132 168 230 281 319 379
#     4  11  23  43  70  97 137 181 218 274 350 404
#
# _framework density 24.718209000000002
#
# number of rings (size 3 to 8) (size 9 to 14) (size 15 to 20)
#    0.000    1.714    2.857    1.714    6.000    0.000 
#    0.000    0.000   15.714    0.000    0.000    0.000 
#    0.000    0.000    0.000    0.000    0.000    0.000 
#
# Total GULP energy -173451.656538 kJ/mol
# GULP energy per Si atom -12389.404038 kJ/mol
# Density = 2.466195 g / cm^3
# Si number density = 24.718209 Si / 1000 Ang^3
#
#
#
# Elastic Constant Matrix: (Units=GPa)
#
#
# Indices 1 2 3 4 5 6 
#
# 1 48.5287 15.5335 -25.0576 0.0000 -10.3006 0.0000
# 2 15.5335 107.7846 -5.0924 0.0000 -3.6854 0.0000
# 3 -25.0576 -5.0924 35.8263 0.0000 -10.5373 0.0000
# 4 0.0000 0.0000 0.0000 30.6161 0.0000 -1.5830
# 5 -10.3006 -3.6854 -10.5373 0.0000 28.6551 0.0000
# 6 0.0000 0.0000 0.0000 -1.5830 0.0000 55.4547
#
#
#
# Elastic Compliance Matrix: (Units=1/GPa)
#
#
# Indices 1 2 3 4 5 6 
#
# 1 0.055185 -0.004366 0.048939 0.000000 0.037272 0.000000
# 2 -0.004366 0.009779 -0.001969 0.000000 -0.001036 0.000000
# 3 0.048939 -0.001969 0.075082 0.000000 0.044949 0.000000
# 4 0.000000 0.000000 0.000000 0.032711 0.000000 0.000934
# 5 0.037272 -0.001036 0.044949 0.000000 0.064692 0.000000
# 6 0.000000 0.000000 0.000000 0.000934 0.000000 0.018059
#
#
# Mechanical properties :
#
#
# Convention : Reuss Voigt Hill
#
# Bulk Modulus (GPa) = 4.43946 18.10073 11.27009
# Shear Modulus (GPa) = 20.37629 36.72890 28.55260
#
# Velocity S-wave (km/s) = 2.87425 3.85893 3.40240
# Velocity P-wave (km/s) = 3.57981 5.21477 4.47263
#
# Compressibility (1/GPa) = 0.22525281
#
# Stress axis : x y z
#
# Youngs Moduli (GPa) = 18.12101 102.26414 13.31881
#
# Poissons Ratio (x) = 0.44652 -0.65181
# Poissons Ratio (y) = 0.07912 0.02622
# Poissons Ratio (z) = -0.88682 0.20132
#
# Static dielectric constant tensor:
#      x y z
#    x 4.334180 0.000000 -0.322290 
#    y 0.000000 4.842060 0.000000 
#    z -0.322290 0.000000 4.282400 
# 
# 
# High freq. dielectric constant tensor:
#      x y z
#    x 1.958270 0.000000 -0.019640 
#    y 0.000000 2.011930 0.000000 
#    z -0.019640 0.000000 1.962780 
# 
# From -- ./inp_files/8706.got.cif
#   From: 2010.03.12/outbox.cif.g09.slc.cpg/sg4_5_cif.got.tgz:8706.got - 2010.03.31 09:31:35.
