data_PCOD8045234
_publ_section_title
;
Structure prediction by ZEFSAII (Michael W. Deem and Ramdas Pophale) SiO2 
 PCOD8045234
Probable space group: P 2
;
_chemical_formula_sum "Si O2"
_cell_formula_units_Z 15
_cell_length_a 14.905701
_cell_length_b 5.327107
_cell_length_c 23.852023
_cell_angle_alpha 90.000000
_cell_angle_beta 20.708017
_cell_angle_gamma 90.000000
_cell_volume 669.712399
_symmetry_space_group_name_H-M "P 2"
_symmetry_group_IT_number 3
_symmetry_cell_setting 'monoclinic'
loop_
_space_group_symop_operation_xyz
x,y,z
-x,y,-z
loop_
_atom_site_type_symbol
_atom_site_label
_atom_site_fract_x
_atom_site_fract_y
_atom_site_fract_z
Si Si1 0.957243 0.115260 0.708943
Si Si2 0.348896 0.141282 0.219034
Si Si3 0.214408 0.499257 0.012725
Si Si4 0.224260 0.616440 0.132538
Si Si5 0.187500 0.557987 0.837696
Si Si6 0.580323 0.790806 0.731425
Si Si7 0.000000 0.453816 0.500000
Si Si8 0.506222 0.060696 0.665850
O O1 0.714402 0.122786 0.809180
O O2 0.939953 0.367837 0.756346
O O3 0.926613 0.865235 0.762833
O O4 0.228054 0.090397 0.521117
O O5 0.634115 0.240281 0.064803
O O6 0.134909 0.308892 0.371885
O O7 0.324857 0.872697 0.262100
O O8 0.322277 0.645738 0.894945
O O9 0.237004 0.647778 0.057878
O O10 0.930951 0.474138 0.153816
O O11 0.500000 0.602589 0.000000
O O12 0.345291 0.819077 0.737796
O O13 0.369358 0.325489 0.743670
O O14 0.000000 0.589795 0.000000
O O15 0.550331 0.020818 0.706580
O O16 0.798590 0.610148 0.580775
#
# Coordination Sequence:
#
# PCOD8045234 Si02
#       8
#     2   2   2   2   2   2   1   2
#     4  12  27  46  73 106 149 191 241 301 369 435
#     4  11  23  40  68 102 143 182 234 300 372 436
#     4  11  26  45  73 102 141 186 252 304 357 432
#     4  12  26  48  73 109 143 192 246 299 362 434
#     4  12  26  48  73 109 143 192 246 299 362 434
#     4  11  23  40  68 102 143 182 234 300 372 436
#     4  10  22  36  60 110 138 190 220 288 380 456
#     4  12  27  46  73 106 149 191 241 301 369 435
#
# _framework density 22.397675
#
# number of rings (size 3 to 8) (size 9 to 14) (size 15 to 20)
#    0.000    0.533    2.667    5.200   11.200    0.000 
#    0.000    4.000    0.000    0.000    0.000    0.000 
#    0.000    0.000    0.000    0.000    0.000    0.000 
#
# Total GULP energy -185876.650640 kJ/mol
# GULP energy per Si atom -12391.776709 kJ/mol
# Density = 2.234670 g / cm^3
# Si number density = 22.397675 Si / 1000 Ang^3
#
#
#
# Elastic Constant Matrix: (Units=GPa)
#
#
# Indices 1 2 3 4 5 6 
#
# 1 96.8257 3.0301 23.7339 0.0000 -7.7707 0.0000
# 2 3.0301 109.0071 33.3138 0.0000 0.2287 0.0000
# 3 23.7339 33.3138 92.7707 0.0000 -0.1012 0.0000
# 4 0.0000 0.0000 0.0000 41.9510 0.0000 -5.1686
# 5 -7.7707 0.2287 -0.1012 0.0000 22.3062 0.0000
# 6 0.0000 0.0000 0.0000 -5.1686 0.0000 31.3573
#
#
#
# Elastic Compliance Matrix: (Units=1/GPa)
#
#
# Indices 1 2 3 4 5 6 
#
# 1 0.011394 0.000634 -0.003138 0.000000 0.003949 0.000000
# 2 0.000634 0.010340 -0.003875 0.000000 0.000097 0.000000
# 3 -0.003138 -0.003875 0.012973 0.000000 -0.000995 0.000000
# 4 0.000000 0.000000 0.000000 0.024331 0.000000 0.004011
# 5 0.003949 0.000097 -0.000995 0.000000 0.046201 0.000000
# 6 0.000000 0.000000 0.000000 0.004011 0.000000 0.032552
#
#
# Mechanical properties :
#
#
# Convention : Reuss Voigt Hill
#
# Bulk Modulus (GPa) = 45.56235 46.52878 46.04557
# Shear Modulus (GPa) = 31.67246 35.02462 33.34854
#
# Velocity S-wave (km/s) = 3.76453 3.95873 3.86285
# Velocity P-wave (km/s) = 6.26755 6.45867 6.36383
#
# Compressibility (1/GPa) = 0.02194795
#
# Stress axis : x y z
#
# Youngs Moduli (GPa) = 87.76414 96.70985 77.08498
#
# Poissons Ratio (x) = -0.06133 0.24193
# Poissons Ratio (y) = -0.05565 0.29873
# Poissons Ratio (z) = 0.27544 0.37478
#
# Static dielectric constant tensor:
#      x y z
#    x 4.016470 0.000000 -0.088620 
#    y 0.000000 4.265830 0.000000 
#    z -0.088620 0.000000 4.215390 
# 
# 
# High freq. dielectric constant tensor:
#      x y z
#    x 1.878300 0.000000 -0.000830 
#    y 0.000000 1.899170 0.000000 
#    z -0.000830 0.000000 1.882400 
# 
# From -- ./inp_files/16321.got.cif
#   From: 2010.03.12/outbox.cif.g09.slc.cpg/sg3_9_cif.got.tgz:16321.got - 2010.03.31 09:20:49.
