data_PCOD8045411
_publ_section_title
;
Structure prediction by ZEFSAII (Michael W. Deem and Ramdas Pophale) SiO2 
 PCOD8045411
Probable space group: P 2
;
_chemical_formula_sum "Si O2"
_cell_formula_units_Z 12
_cell_length_a 24.831526
_cell_length_b 5.023139
_cell_length_c 22.040934
_cell_angle_alpha 90.000000
_cell_angle_beta 169.490454
_cell_angle_gamma 90.000000
_cell_volume 501.454886
_symmetry_space_group_name_H-M "P 2"
_symmetry_group_IT_number 3
_symmetry_cell_setting 'monoclinic'
loop_
_space_group_symop_operation_xyz
x,y,z
-x,y,-z
loop_
_atom_site_type_symbol
_atom_site_label
_atom_site_fract_x
_atom_site_fract_y
_atom_site_fract_z
Si Si1 0.651957 0.537200 0.228933
Si Si2 0.839775 0.859072 0.884701
Si Si3 0.702090 0.358447 0.928304
Si Si4 0.843783 0.179840 0.266806
Si Si5 0.885665 0.858428 0.203637
Si Si6 0.023276 0.359065 0.160075
O O1 0.929444 0.358583 0.519070
O O2 0.771559 0.778522 0.403212
O O3 0.500000 0.656950 0.000000
O O4 0.434476 0.358452 0.026614
O O5 0.500000 0.777371 0.500000
O O6 0.000000 0.939760 0.000000
O O7 0.013827 0.609511 0.104896
O O8 0.849089 0.109796 0.939699
O O9 0.362867 0.275350 0.544395
O O10 0.706153 0.610246 0.977762
O O11 0.862582 0.441737 0.044152
O O12 0.879456 0.106426 0.150995
O O13 0.000000 0.060088 0.500000
O O14 0.744600 0.938496 0.112956
#
# Coordination Sequence:
#
# PCOD8045411 Si02
#       6
#     2   2   2   2   2   2
#     4  10  24  45  71 102 139 181 244 326 389 439
#     4  12  24  45  80 111 142 186 232 288 348 414
#     4  12  28  45  72  99 150 198 236 290 352 440
#     4  10  24  45  71 102 139 181 244 326 389 439
#     4  12  26  49  70 105 136 200 250 296 372 456
#     4  12  26  49  68 111 150 186 234 290 346 418
#
# _framework density 23.930368000000001
#
# number of rings (size 3 to 8) (size 9 to 14) (size 15 to 20)
#    0.000    0.667    1.667    5.000    2.333    8.000 
#    0.000    0.000    0.000    0.000    0.000    0.000 
#    0.000    0.000    0.000    0.000    0.000    0.000 
#
# Total GULP energy -148874.068632 kJ/mol
# GULP energy per Si atom -12406.172386 kJ/mol
# Density = 2.387590 g / cm^3
# Si number density = 23.930368 Si / 1000 Ang^3
#
#
#
# Elastic Constant Matrix: (Units=GPa)
#
#
# Indices 1 2 3 4 5 6 
#
# 1 117.7255 46.0899 76.4608 0.0000 -0.1447 0.0000
# 2 46.0899 145.4648 39.6841 0.0000 -17.1873 0.0000
# 3 76.4608 39.6841 121.4154 0.0000 9.8758 0.0000
# 4 0.0000 0.0000 0.0000 513.8318 0.0000 -569.5770
# 5 -0.1447 -17.1873 9.8758 0.0000 48.9566 0.0000
# 6 0.0000 0.0000 0.0000 -569.5770 0.0000 703.3083
#
#
#
# Elastic Compliance Matrix: (Units=1/GPa)
#
#
# Indices 1 2 3 4 5 6 
#
# 1 0.015152 -0.002251 -0.008891 0.000000 0.001048 0.000000
# 2 -0.002251 0.008410 -0.001597 0.000000 0.003268 0.000000
# 3 -0.008891 -0.001597 0.014645 0.000000 -0.003541 0.000000
# 4 0.000000 0.000000 0.000000 0.019027 0.000000 0.015409
# 5 0.001048 0.003268 -0.003541 0.000000 0.022291 0.000000
# 6 0.000000 0.000000 0.000000 0.015409 0.000000 0.013901
#
#
# Mechanical properties :
#
#
# Convention : Reuss Voigt Hill
#
# Bulk Modulus (GPa) = 78.56548 78.78612 78.67580
# Shear Modulus (GPa) = 40.60233 268.04408 154.32320
#
# Velocity S-wave (km/s) = 4.12355 10.59496 8.03918
# Velocity P-wave (km/s) = 7.45478 13.51538 10.91419
#
# Compressibility (1/GPa) = 0.01272824
#
# Stress axis : x y z
#
# Youngs Moduli (GPa) = 65.99950 118.91284 68.28183
#
# Poissons Ratio (x) = 0.26771 0.60710
# Poissons Ratio (y) = 0.14859 0.10902
# Poissons Ratio (z) = 0.58681 0.18986
#
# Static dielectric constant tensor:
#      x y z
#    x 2.587110 0.000000 -2.561050 
#    y 0.000000 4.328010 0.000000 
#    z -2.561050 0.000000 1.717210 
# 
# 
# High freq. dielectric constant tensor:
#      x y z
#    x 1.959850 0.000000 -0.007670 
#    y 0.000000 1.957780 0.000000 
#    z -0.007670 0.000000 1.957200 
# 
# From -- ./inp_files/16146.got.cif
#   From: 2010.03.12/outbox.cif.g09.slc.cpg/sg3_9_cif.got.tgz:16146.got - 2010.03.31 09:20:49.
