data_PCOD8045970
_publ_section_title
;
Structure prediction by ZEFSAII (Michael W. Deem and Ramdas Pophale) SiO2 
 PCOD8045970
Probable space group: P 21
;
_chemical_formula_sum "Si O2"
_cell_formula_units_Z 16
_cell_length_a 8.873444
_cell_length_b 13.540946
_cell_length_c 10.301291
_cell_angle_alpha 90.000000
_cell_angle_beta 39.836908
_cell_angle_gamma 90.000000
_cell_volume 792.908071
_symmetry_space_group_name_H-M "P 21"
_symmetry_group_IT_number 4
_symmetry_cell_setting 'monoclinic'
loop_
_space_group_symop_operation_xyz
x,y,z
-x,1/2+y,-z
loop_
_atom_site_type_symbol
_atom_site_label
_atom_site_fract_x
_atom_site_fract_y
_atom_site_fract_z
Si Si1 0.799517 0.933390 0.315670
Si Si2 0.912141 0.531581 0.660571
Si Si3 0.879616 0.042136 0.754120
Si Si4 0.254457 0.921835 0.876254
Si Si5 0.522647 0.684457 0.905203
Si Si6 0.636304 0.553865 0.417750
Si Si7 0.473717 0.897289 0.009976
Si Si8 0.552509 0.755547 0.594814
O O1 0.762430 0.831059 0.418927
O O2 0.904903 0.014477 0.344411
O O3 0.569405 0.979295 0.398945
O O4 0.978077 0.912203 0.081496
O O5 0.736542 0.619700 0.818808
O O6 0.063910 0.557450 0.434460
O O7 0.738249 0.436276 0.757223
O O8 0.127796 0.031810 0.660091
O O9 0.725315 0.944273 0.877626
O O10 0.731446 0.132661 0.912022
O O11 0.406323 0.923683 0.906512
O O12 0.319160 0.824207 0.748388
O O13 0.314790 0.024853 0.764321
O O14 0.504818 0.780982 0.006047
O O15 0.585665 0.706834 0.713813
O O16 0.549467 0.667109 0.491286
#
# Coordination Sequence:
#
# PCOD8045970 Si02
#       8
#     2   2   2   2   2   2   2   2
#     4  10  23  42  64  85 123 162 200 246 300 363
#     4  10  20  38  62  88 115 157 200 247 295 357
#     4  11  22  35  64  91 121 153 196 258 298 351
#     4   9  21  40  64  84 119 163 200 244 298 355
#     4  10  21  37  62  93 113 158 209 242 300 355
#     4  11  23  36  62  94 120 154 200 250 300 363
#     4   9  21  40  62  84 119 157 203 245 295 363
#     4  10  21  38  62  91 114 160 206 238 296 367
#
# _framework density 20.178885000000001
#
# number of rings (size 3 to 8) (size 9 to 14) (size 15 to 20)
#    0.000    2.000    1.250    2.250    7.000    1.000 
#    4.500    0.000   22.000    0.000    0.000    0.000 
#    0.000    0.000    0.000    0.000    0.000    0.000 
#
# Total GULP energy -198300.455308 kJ/mol
# GULP energy per Si atom -12393.778457 kJ/mol
# Density = 2.013296 g / cm^3
# Si number density = 20.178885 Si / 1000 Ang^3
#
#
#
# Elastic Constant Matrix: (Units=GPa)
#
#
# Indices 1 2 3 4 5 6 
#
# 1 58.1910 43.2954 31.5363 0.0000 -16.4673 0.0000
# 2 43.2954 147.2828 62.0178 0.0000 -2.3252 0.0000
# 3 31.5363 62.0178 144.5759 0.0000 -10.6894 0.0000
# 4 0.0000 0.0000 0.0000 32.0268 0.0000 6.5803
# 5 -16.4673 -2.3252 -10.6894 0.0000 32.6961 0.0000
# 6 0.0000 0.0000 0.0000 6.5803 0.0000 30.4665
#
#
#
# Elastic Compliance Matrix: (Units=1/GPa)
#
#
# Indices 1 2 3 4 5 6 
#
# 1 0.026886 -0.006864 -0.002004 0.000000 0.012398 0.000000
# 2 -0.006864 0.010050 -0.003091 0.000000 -0.003753 0.000000
# 3 -0.002004 -0.003091 0.008802 0.000000 0.001649 0.000000
# 4 0.000000 0.000000 0.000000 0.032674 0.000000 -0.007057
# 5 0.012398 -0.003753 0.001649 0.000000 0.037101 0.000000
# 6 0.000000 0.000000 0.000000 -0.007057 0.000000 0.034347
#
#
# Mechanical properties :
#
#
# Convention : Reuss Voigt Hill
#
# Bulk Modulus (GPa) = 45.82968 69.30540 57.56754
# Shear Modulus (GPa) = 27.61659 33.25123 30.43391
#
# Velocity S-wave (km/s) = 3.70346 4.06374 3.88778
# Velocity P-wave (km/s) = 6.40691 7.51257 6.98166
#
# Compressibility (1/GPa) = 0.02181992
#
# Stress axis : x y z
#
# Youngs Moduli (GPa) = 37.19398 99.50421 113.61389
#
# Poissons Ratio (x) = 0.68300 0.22763
# Poissons Ratio (y) = 0.25530 0.35121
# Poissons Ratio (z) = 0.07452 0.30759
#
# Static dielectric constant tensor:
#      x y z
#    x 3.339400 0.000000 -0.050250 
#    y 0.000000 3.855060 0.000000 
#    z -0.050250 0.000000 4.053210 
# 
# 
# High freq. dielectric constant tensor:
#      x y z
#    x 1.752760 0.000000 -0.010460 
#    y 0.000000 1.787990 0.000000 
#    z -0.010460 0.000000 1.812670 
# 
# From -- ./inp_files/11336.got.cif
#   From: 2010.03.12/outbox.cif.g09.slc.cpg/sg4_6_cif.got.tgz:11336.got - 2010.03.31 09:31:35.
