data_PCOD8045925
_publ_section_title
;
Structure prediction by ZEFSAII (Michael W. Deem and Ramdas Pophale) SiO2 
 PCOD8045925
Probable space group: P 21
;
_chemical_formula_sum "Si O2"
_cell_formula_units_Z 16
_cell_length_a 15.752930
_cell_length_b 10.251362
_cell_length_c 10.376840
_cell_angle_alpha 90.000000
_cell_angle_beta 29.122318
_cell_angle_gamma 90.000000
_cell_volume 815.544557
_symmetry_space_group_name_H-M "P 21"
_symmetry_group_IT_number 4
_symmetry_cell_setting 'monoclinic'
loop_
_space_group_symop_operation_xyz
x,y,z
-x,1/2+y,-z
loop_
_atom_site_type_symbol
_atom_site_label
_atom_site_fract_x
_atom_site_fract_y
_atom_site_fract_z
Si Si1 0.147170 0.579540 0.196379
Si Si2 0.185915 0.176364 0.219996
Si Si3 0.490733 0.509661 0.165681
Si Si4 0.408208 0.412837 0.997665
Si Si5 0.285927 0.758637 0.506314
Si Si6 0.921789 0.830537 0.870495
Si Si7 0.655849 0.185374 0.293158
Si Si8 0.395141 0.403769 0.553808
O O1 0.314295 0.539236 0.061401
O O2 0.059491 0.454204 0.247781
O O3 0.005536 0.650480 0.471402
O O4 0.210280 0.680899 0.003313
O O5 0.270457 0.294609 0.188621
O O6 0.165742 0.213667 0.095917
O O7 0.310006 0.049970 0.065725
O O8 0.482465 0.438710 0.040583
O O9 0.366719 0.634953 0.325993
O O10 0.423928 0.408236 0.362399
O O11 0.572636 0.375531 0.688992
O O12 0.241277 0.724087 0.713212
O O13 0.111272 0.794590 0.666158
O O14 0.804250 0.865110 0.150273
O O15 0.512816 0.294587 0.461545
O O16 0.563337 0.044584 0.436737
#
# Coordination Sequence:
#
# PCOD8045925 Si02
#       8
#     2   2   2   2   2   2   2   2
#     4  10  21  37  58  85 116 152 198 242 291 357
#     4  10  21  37  58  84 116 153 194 244 297 348
#     4  10  21  37  58  85 116 152 198 242 291 357
#     4  10  21  37  58  84 116 153 194 244 297 348
#     4  10  20  37  58  81 116 155 193 245 300 347
#     4  10  20  37  58  81 116 155 193 245 300 347
#     4  10  21  39  59  84 117 154 196 241 292 354
#     4  10  21  39  59  84 117 154 196 241 292 354
#
# _framework density 19.618794000000001
#
# number of rings (size 3 to 8) (size 9 to 14) (size 15 to 20)
#    0.000    2.000    0.000    5.250    0.000    6.000 
#    0.000   13.750    0.000    0.000    0.000    0.000 
#    0.000    0.000    0.000    0.000    0.000    0.000 
#
# Total GULP energy -198421.019945 kJ/mol
# GULP energy per Si atom -12401.313747 kJ/mol
# Density = 1.957414 g / cm^3
# Si number density = 19.618794 Si / 1000 Ang^3
#
#
#
# Elastic Constant Matrix: (Units=GPa)
#
#
# Indices 1 2 3 4 5 6 
#
# 1 109.9323 50.1285 57.7598 0.0000 -5.3794 0.0000
# 2 50.1285 65.2274 44.8272 0.0000 -5.3897 0.0000
# 3 57.7598 44.8272 113.2997 0.0000 8.9492 0.0000
# 4 0.0000 0.0000 0.0000 25.8518 0.0000 -3.5948
# 5 -5.3794 -5.3897 8.9492 0.0000 37.9992 0.0000
# 6 0.0000 0.0000 0.0000 -3.5948 0.0000 29.3889
#
#
#
# Elastic Compliance Matrix: (Units=1/GPa)
#
#
# Indices 1 2 3 4 5 6 
#
# 1 0.015583 -0.008554 -0.004726 0.000000 0.002106 0.000000
# 2 -0.008554 0.026745 -0.006547 0.000000 0.004124 0.000000
# 3 -0.004726 -0.006547 0.014216 0.000000 -0.004946 0.000000
# 4 0.000000 0.000000 0.000000 0.039351 0.000000 0.004813
# 5 0.002106 0.004124 -0.004946 0.000000 0.028364 0.000000
# 6 0.000000 0.000000 0.000000 0.004813 0.000000 0.034615
#
#
# Mechanical properties :
#
#
# Convention : Reuss Voigt Hill
#
# Bulk Modulus (GPa) = 59.20369 65.98782 62.59575
# Shear Modulus (GPa) = 24.49068 27.69757 26.09412
#
# Velocity S-wave (km/s) = 3.53700 3.76145 3.65095
# Velocity P-wave (km/s) = 6.85004 7.25070 7.05322
#
# Compressibility (1/GPa) = 0.01689084
#
# Stress axis : x y z
#
# Youngs Moduli (GPa) = 64.17093 37.39050 70.34134
#
# Poissons Ratio (x) = 0.31984 0.33245
# Poissons Ratio (y) = 0.54892 0.46049
# Poissons Ratio (z) = 0.30329 0.24478
#
# Static dielectric constant tensor:
#      x y z
#    x 3.500220 0.000000 0.121220 
#    y 0.000000 3.597510 0.000000 
#    z 0.121220 0.000000 3.617570 
# 
# 
# High freq. dielectric constant tensor:
#      x y z
#    x 1.761430 0.000000 0.006550 
#    y 0.000000 1.759170 0.000000 
#    z 0.006550 0.000000 1.767760 
# 
# From -- ./inp_files/9290.got.cif
#   From: 2010.03.12/outbox.cif.g09.slc.cpg/sg4_5_cif.got.tgz:9290.got - 2010.03.31 09:31:35.
