data_PCOD8045356
_publ_section_title
;
Structure prediction by ZEFSAII (Michael W. Deem and Ramdas Pophale) SiO2 
 PCOD8045356
Probable space group: P 2
;
_chemical_formula_sum "Si O2"
_cell_formula_units_Z 12
_cell_length_a 14.935545
_cell_length_b 8.864988
_cell_length_c 10.164729
_cell_angle_alpha 90.000000
_cell_angle_beta 153.742694
_cell_angle_gamma 90.000000
_cell_volume 595.405914
_symmetry_space_group_name_H-M "P 2"
_symmetry_group_IT_number 3
_symmetry_cell_setting 'monoclinic'
loop_
_space_group_symop_operation_xyz
x,y,z
-x,y,-z
loop_
_atom_site_type_symbol
_atom_site_label
_atom_site_fract_x
_atom_site_fract_y
_atom_site_fract_z
Si Si1 0.975911 0.704740 0.315452
Si Si2 0.191337 0.009494 0.000612
Si Si3 0.892231 0.212849 0.721444
Si Si4 0.468029 0.641426 0.304044
Si Si5 0.392001 0.968899 0.538257
Si Si6 0.674523 0.502473 0.339823
O O1 0.952252 0.880992 0.249249
O O2 0.000000 0.687417 0.500000
O O3 0.163401 0.632273 0.482907
O O4 0.770937 0.616088 0.016421
O O5 0.269559 0.946197 0.242658
O O6 0.392276 0.055317 0.184555
O O7 0.067108 0.162315 0.852011
O O8 0.782941 0.342429 0.496397
O O9 0.746239 0.066450 0.546106
O O10 0.000000 0.265255 0.000000
O O11 0.500000 0.620449 0.500000
O O12 0.545472 0.798754 0.340380
O O13 0.581332 0.520568 0.363023
O O14 0.500000 0.497947 0.000000
#
# Coordination Sequence:
#
# PCOD8045356 Si02
#       6
#     2   2   2   2   2   2
#     4  11  22  42  67  92 125 167 211 262 318 370
#     4   9  18  38  62  92 118 152 206 262 308 362
#     4  10  23  39  61  90 123 167 209 251 309 377
#     4  11  22  42  71  96 119 163 216 266 313 367
#     4   9  17  38  64  92 120 148 204 267 308 356
#     4  12  27  44  58  91 139 172 204 257 316 376
#
# _framework density 20.154319000000001
#
# number of rings (size 3 to 8) (size 9 to 14) (size 15 to 20)
#    0.000    1.667    5.000    1.000    2.333    1.333 
#    9.000    0.000    0.000    0.000    0.000    0.000 
#    0.000    0.000    0.000    0.000    0.000    0.000 
#
# Total GULP energy -148672.832495 kJ/mol
# GULP energy per Si atom -12389.402708 kJ/mol
# Density = 2.010845 g / cm^3
# Si number density = 20.154319 Si / 1000 Ang^3
#
#
#
# Elastic Constant Matrix: (Units=GPa)
#
#
# Indices 1 2 3 4 5 6 
#
# 1 95.7388 24.3765 48.1626 0.0000 -2.0149 0.0000
# 2 24.3765 49.2070 42.9438 0.0000 -2.8578 0.0000
# 3 48.1626 42.9438 137.2653 0.0000 4.5159 0.0000
# 4 0.0000 0.0000 0.0000 46.1368 0.0000 2.0289
# 5 -2.0149 -2.8578 4.5159 0.0000 23.6842 0.0000
# 6 0.0000 0.0000 0.0000 2.0289 0.0000 22.6152
#
#
#
# Elastic Compliance Matrix: (Units=1/GPa)
#
#
# Indices 1 2 3 4 5 6 
#
# 1 0.013132 -0.003248 -0.003638 0.000000 0.001419 0.000000
# 2 -0.003248 0.029377 -0.008210 0.000000 0.004834 0.000000
# 3 -0.003638 -0.008210 0.011244 0.000000 -0.003444 0.000000
# 4 0.000000 0.000000 0.000000 0.021761 0.000000 -0.001952
# 5 0.001419 0.004834 -0.003444 0.000000 0.043583 0.000000
# 6 0.000000 0.000000 0.000000 -0.001952 0.000000 0.044393
#
#
# Mechanical properties :
#
#
# Convention : Reuss Voigt Hill
#
# Bulk Modulus (GPa) = 42.44432 57.01963 49.73198
# Shear Modulus (GPa) = 24.80950 29.60245 27.20598
#
# Velocity S-wave (km/s) = 3.51233 3.83664 3.67806
# Velocity P-wave (km/s) = 6.12813 6.92671 6.53962
#
# Compressibility (1/GPa) = 0.02356028
#
# Stress axis : x y z
#
# Youngs Moduli (GPa) = 76.14868 34.04007 88.93939
#
# Poissons Ratio (x) = 0.11056 0.32359
# Poissons Ratio (y) = 0.24732 0.73021
# Poissons Ratio (z) = 0.27705 0.27947
#
# Static dielectric constant tensor:
#      x y z
#    x 3.726020 0.000000 0.321230 
#    y 0.000000 3.499470 0.000000 
#    z 0.321230 0.000000 3.722120 
# 
# 
# High freq. dielectric constant tensor:
#      x y z
#    x 1.780540 0.000000 0.019750 
#    y 0.000000 1.769060 0.000000 
#    z 0.019750 0.000000 1.802440 
# 
# From -- ./inp_files/12501.got.cif
#   From: 2010.03.12/outbox.cif.g09.slc.cpg/sg3_7_cif.got.tgz:12501.got - 2010.03.31 09:20:49.
