data_PCOD8045861
_publ_section_title
;
Structure prediction by ZEFSAII (Michael W. Deem and Ramdas Pophale) SiO2 
 PCOD8045861
Probable space group: P 21
;
_chemical_formula_sum "Si O2"
_cell_formula_units_Z 16
_cell_length_a 10.101919
_cell_length_b 8.424743
_cell_length_c 10.908777
_cell_angle_alpha 90.000000
_cell_angle_beta 114.141979
_cell_angle_gamma 90.000000
_cell_volume 847.200149
_symmetry_space_group_name_H-M "P 21"
_symmetry_group_IT_number 4
_symmetry_cell_setting 'monoclinic'
loop_
_space_group_symop_operation_xyz
x,y,z
-x,1/2+y,-z
loop_
_atom_site_type_symbol
_atom_site_label
_atom_site_fract_x
_atom_site_fract_y
_atom_site_fract_z
Si Si1 0.138628 0.347620 0.245185
Si Si2 0.325325 0.224117 0.519135
Si Si3 0.257742 0.680568 0.215252
Si Si4 0.461286 0.843024 0.932369
Si Si5 0.441759 0.182389 0.807001
Si Si6 0.401741 0.932872 0.398448
Si Si7 0.184044 0.849218 0.953846
Si Si8 0.328527 0.133270 0.146387
O O1 0.178569 0.280145 0.395358
O O2 0.198085 0.522878 0.250740
O O3 0.203808 0.236541 0.164074
O O4 0.966054 0.358969 0.173937
O O5 0.308812 0.218151 0.661812
O O6 0.447871 0.344864 0.516325
O O7 0.365017 0.044218 0.498068
O O8 0.421974 0.665055 0.230939
O O9 0.266928 0.810481 0.328068
O O10 0.159120 0.739460 0.064342
O O11 0.301528 0.770616 0.904416
O O12 0.549426 0.746940 0.864799
O O13 0.432513 0.023451 0.883198
O O14 0.548546 0.831174 0.095430
O O15 0.417889 0.031405 0.278397
O O16 0.247102 0.022140 0.016783
#
# Coordination Sequence:
#
# PCOD8045861 Si02
#       8
#     2   2   2   2   2   2   2   2
#     4  11  20  35  58  84 119 152 176 231 296 337
#     4  10  20  33  54  83 119 146 184 231 288 336
#     4   9  18  34  54  84 112 141 190 237 272 326
#     4  11  20  36  59  81 109 145 193 240 274 320
#     4  10  20  34  56  82 108 144 191 236 271 329
#     4   9  19  32  54  85 112 141 190 239 273 329
#     4  10  21  35  55  87 119 143 190 233 281 342
#     4  10  20  35  58  86 108 148 192 233 281 325
#
# _framework density 18.885738
#
# number of rings (size 3 to 8) (size 9 to 14) (size 15 to 20)
#    0.000    2.000    2.500    3.000    1.750    0.000 
#    0.000    0.000    2.750    0.000    0.000    0.000 
#    0.000    0.000    0.000    0.000    0.000    0.000 
#
# Total GULP energy -198278.165165 kJ/mol
# GULP energy per Si atom -12392.385323 kJ/mol
# Density = 1.884275 g / cm^3
# Si number density = 18.885738 Si / 1000 Ang^3
#
#
#
# Elastic Constant Matrix: (Units=GPa)
#
#
# Indices 1 2 3 4 5 6 
#
# 1 53.4886 18.8496 32.0165 0.0000 1.8682 0.0000
# 2 18.8496 87.1098 43.8934 0.0000 -1.5444 0.0000
# 3 32.0165 43.8934 127.0770 0.0000 1.5627 0.0000
# 4 0.0000 0.0000 0.0000 29.0212 0.0000 -4.9583
# 5 1.8682 -1.5444 1.5627 0.0000 22.0669 0.0000
# 6 0.0000 0.0000 0.0000 -4.9583 0.0000 19.4142
#
#
#
# Elastic Compliance Matrix: (Units=1/GPa)
#
#
# Indices 1 2 3 4 5 6 
#
# 1 0.022499 -0.002487 -0.004788 0.000000 -0.001740 0.000000
# 2 -0.002487 0.014212 -0.004301 0.000000 0.001510 0.000000
# 3 -0.004788 -0.004301 0.010569 0.000000 -0.000644 0.000000
# 4 0.000000 0.000000 0.000000 0.036030 0.000000 0.009202
# 5 -0.001740 0.001510 -0.000644 0.000000 0.045615 0.000000
# 6 0.000000 0.000000 0.000000 0.009202 0.000000 0.053859
#
#
# Mechanical properties :
#
#
# Convention : Reuss Voigt Hill
#
# Bulk Modulus (GPa) = 41.44539 50.79938 46.12239
# Shear Modulus (GPa) = 23.36694 25.62818 24.49756
#
# Velocity S-wave (km/s) = 3.52131 3.68776 3.60550
# Velocity P-wave (km/s) = 6.20692 6.71487 6.46588
#
# Compressibility (1/GPa) = 0.02412813
#
# Stress axis : x y z
#
# Youngs Moduli (GPa) = 44.44708 70.36408 94.61535
#
# Poissons Ratio (x) = 0.17497 0.45303
# Poissons Ratio (y) = 0.11052 0.40694
# Poissons Ratio (z) = 0.21282 0.30263
#
# Static dielectric constant tensor:
#      x y z
#    x 3.149990 0.000000 -0.017430 
#    y 0.000000 3.763330 0.000000 
#    z -0.017430 0.000000 3.871740 
# 
# 
# High freq. dielectric constant tensor:
#      x y z
#    x 1.687290 0.000000 -0.006290 
#    y 0.000000 1.745780 0.000000 
#    z -0.006290 0.000000 1.740790 
# 
# From -- ./inp_files/7647.got.cif
#   From: 2010.03.12/outbox.cif.g09.slc.cpg/sg4_4_cif.got.tgz:7647.got - 2010.03.31 09:31:35.
