data_PCOD8045923
_publ_section_title
;
Structure prediction by ZEFSAII (Michael W. Deem and Ramdas Pophale) SiO2 
 PCOD8045923
Probable space group: P 21
;
_chemical_formula_sum "Si O2"
_cell_formula_units_Z 16
_cell_length_a 11.532036
_cell_length_b 9.718618
_cell_length_c 8.832169
_cell_angle_alpha 90.000000
_cell_angle_beta 54.822792
_cell_angle_gamma 90.000000
_cell_volume 809.093595
_symmetry_space_group_name_H-M "P 21"
_symmetry_group_IT_number 4
_symmetry_cell_setting 'monoclinic'
loop_
_space_group_symop_operation_xyz
x,y,z
-x,1/2+y,-z
loop_
_atom_site_type_symbol
_atom_site_label
_atom_site_fract_x
_atom_site_fract_y
_atom_site_fract_z
Si Si1 0.620114 0.327820 0.706144
Si Si2 0.871894 0.327820 0.307862
Si Si3 0.931716 0.827820 0.090650
Si Si4 0.947557 0.033969 0.338144
Si Si5 0.767064 0.076556 0.743652
Si Si6 0.052443 0.121671 0.661856
Si Si7 0.304567 0.327820 0.990714
Si Si8 0.767065 0.579084 0.743652
O O1 0.705858 0.327820 0.480331
O O2 0.653489 0.190729 0.777950
O O3 0.653489 0.464912 0.777950
O O4 0.454434 0.327820 0.789859
O O5 0.949796 0.457676 0.321598
O O6 0.949797 0.197964 0.321597
O O7 0.907663 0.327820 0.100836
O O8 0.909261 0.962762 0.208817
O O9 0.909261 0.692878 0.208817
O O10 0.819277 0.827820 0.039791
O O11 0.830222 0.993391 0.551362
O O12 0.105193 0.993303 0.272687
O O13 0.894806 0.162337 0.727314
O O14 0.697896 0.965496 0.906720
O O15 0.169778 0.162250 0.448639
O O16 0.302104 0.190144 0.093280
#
# Coordination Sequence:
#
# PCOD8045923 Si02
#       8
#     2   2   2   2   2   2   2   2
#     4  10  23  39  58  82 121 158 192 230 287 343
#     4  10  20  37  57  84 118 149 187 241 282 338
#     4  12  22  35  61  89 119 144 192 239 295 337
#     4  10  20  37  63  90 109 148 195 247 285 325
#     4  10  20  39  63  85 113 149 199 241 279 336
#     4  10  20  37  63  90 109 148 195 247 285 325
#     4  12  23  37  58  89 120 153 189 236 288 348
#     4  10  20  39  63  85 113 149 199 241 279 336
#
# _framework density 19.775213999999998
#
# number of rings (size 3 to 8) (size 9 to 14) (size 15 to 20)
#    0.000    1.500    2.500    3.000    0.000    2.000 
#    0.000    5.000   11.000    0.000    0.000    0.000 
#    0.000    0.000    0.000    0.000    0.000    0.000 
#
# Total GULP energy -198323.837715 kJ/mol
# GULP energy per Si atom -12395.239857 kJ/mol
# Density = 1.973021 g / cm^3
# Si number density = 19.775214 Si / 1000 Ang^3
#
#
#
# Elastic Constant Matrix: (Units=GPa)
#
#
# Indices 1 2 3 4 5 6 
#
# 1 66.3505 33.4735 62.3137 0.0000 -6.8090 0.0000
# 2 33.4735 103.6175 46.5709 0.0000 3.8430 0.0000
# 3 62.3137 46.5709 147.3330 0.0000 -0.6313 0.0000
# 4 0.0000 0.0000 0.0000 2.9385 0.0000 -22.0539
# 5 -6.8090 3.8430 -0.6313 0.0000 30.9751 0.0000
# 6 0.0000 0.0000 0.0000 -22.0539 0.0000 -6.7825
#
#
#
# Elastic Compliance Matrix: (Units=1/GPa)
#
#
# Indices 1 2 3 4 5 6 
#
# 1 0.027631 -0.004575 -0.010213 0.000000 0.006433 0.000000
# 2 -0.004575 0.012074 -0.001892 0.000000 -0.002542 0.000000
# 3 -0.010213 -0.001892 0.011697 0.000000 -0.001772 0.000000
# 4 0.000000 0.000000 0.000000 0.013396 0.000000 -0.043559
# 5 0.006433 -0.002542 -0.001772 0.000000 0.033977 0.000000
# 6 0.000000 0.000000 0.000000 -0.043559 0.000000 -0.005804
#
#
# Mechanical properties :
#
#
# Convention : Reuss Voigt Hill
#
# Bulk Modulus (GPa) = 55.42561 66.89079 61.15820
# Shear Modulus (GPa) = 37.77989 17.08907 27.43448
#
# Velocity S-wave (km/s) = 4.37563 2.94286 3.72871
# Velocity P-wave (km/s) = 7.32235 6.74138 7.03786
#
# Compressibility (1/GPa) = 0.01804220
#
# Stress axis : x y z
#
# Youngs Moduli (GPa) = 36.19125 82.82579 85.48907
#
# Poissons Ratio (x) = 0.37889 0.87308
# Poissons Ratio (y) = 0.16556 0.16178
# Poissons Ratio (z) = 0.36961 0.15674
#
# Static dielectric constant tensor:
#      x y z
#    x 3.198600 0.000000 -0.015110 
#    y 0.000000 3.552590 0.000000 
#    z -0.015110 0.000000 3.917630 
# 
# 
# High freq. dielectric constant tensor:
#      x y z
#    x 1.734190 0.000000 -0.000650 
#    y 0.000000 1.781580 0.000000 
#    z -0.000650 0.000000 1.782880 
# 
# From -- ./inp_files/7653.got.cif
#   From: 2010.03.12/outbox.cif.g09.slc.cpg/sg4_4_cif.got.tgz:7653.got - 2010.03.31 09:31:35.
