data_PCOD8045256
_publ_section_title
;
Structure prediction by ZEFSAII (Michael W. Deem and Ramdas Pophale) SiO2 
 PCOD8045256
Probable space group: P 2
;
_chemical_formula_sum "Si O2"
_cell_formula_units_Z 16
_cell_length_a 12.023025
_cell_length_b 9.215922
_cell_length_c 9.520244
_cell_angle_alpha 90.000000
_cell_angle_beta 50.724590
_cell_angle_gamma 90.000000
_cell_volume 816.590650
_symmetry_space_group_name_H-M "P 2"
_symmetry_group_IT_number 3
_symmetry_cell_setting 'monoclinic'
loop_
_space_group_symop_operation_xyz
x,y,z
-x,y,-z
loop_
_atom_site_type_symbol
_atom_site_label
_atom_site_fract_x
_atom_site_fract_y
_atom_site_fract_z
Si Si1 0.812201 0.282750 0.561882
Si Si2 0.606560 0.526694 0.725984
Si Si3 0.333623 0.789282 0.498296
Si Si4 0.696562 0.602734 0.955978
Si Si5 0.110684 0.078216 0.036058
Si Si6 0.914878 0.970297 0.428700
Si Si7 0.092358 0.358537 0.209680
Si Si8 0.351732 0.859581 0.799338
O O1 0.660679 0.362199 0.659087
O O2 0.843680 0.287090 0.701369
O O3 0.922859 0.373781 0.375429
O O4 0.816080 0.114755 0.516343
O O5 0.641313 0.622242 0.562035
O O6 0.679390 0.611414 0.800680
O O7 0.436707 0.509216 0.879803
O O8 0.192488 0.844411 0.531486
O O9 0.308626 0.788888 0.685009
O O10 0.475299 0.882060 0.337203
O O11 0.842151 0.515924 0.877275
O O12 0.698883 0.758981 0.029366
O O13 0.268569 0.012671 0.877244
O O14 0.127515 0.249280 0.054085
O O15 0.000000 0.054917 0.000000
O O16 0.044067 0.991445 0.218230
O O17 0.000000 0.925291 0.500000
#
# Coordination Sequence:
#
# PCOD8045256 Si02
#       8
#     2   2   2   2   2   2   2   2
#     4   9  17  35  56  79 110 141 177 227 275 328
#     4   9  19  35  58  81 108 142 187 231 274 327
#     4  10  22  40  57  81 113 154 187 227 281 332
#     4   9  19  36  56  82 109 142 185 232 274 325
#     4  11  21  38  57  82 114 147 187 234 278 328
#     4  11  21  38  59  84 114 146 187 233 280 331
#     4   9  18  35  55  78 110 142 177 225 279 325
#     4  10  22  40  57  79 118 150 187 231 275 333
#
# _framework density 19.593661999999998
#
# number of rings (size 3 to 8) (size 9 to 14) (size 15 to 20)
#    0.000    2.250    3.750    0.000    1.750    2.000 
#    6.750    0.000    0.000    0.000    0.000    0.000 
#    0.000    0.000    0.000    0.000    0.000    0.000 
#
# Total GULP energy -198318.991746 kJ/mol
# GULP energy per Si atom -12394.936984 kJ/mol
# Density = 1.954907 g / cm^3
# Si number density = 19.593662 Si / 1000 Ang^3
#
#
#
# Elastic Constant Matrix: (Units=GPa)
#
#
# Indices 1 2 3 4 5 6 
#
# 1 67.6832 8.0743 9.3025 0.0000 2.9969 0.0000
# 2 8.0743 27.2068 7.5801 0.0000 -1.9559 0.0000
# 3 9.3025 7.5801 54.5552 0.0000 13.2030 0.0000
# 4 0.0000 0.0000 0.0000 21.4449 0.0000 -17.7254
# 5 2.9969 -1.9559 13.2030 0.0000 28.0100 0.0000
# 6 0.0000 0.0000 0.0000 -17.7254 0.0000 13.0485
#
#
#
# Elastic Compliance Matrix: (Units=1/GPa)
#
#
# Indices 1 2 3 4 5 6 
#
# 1 0.015573 -0.004199 -0.001804 0.000000 -0.001109 0.000000
# 2 -0.004199 0.040233 -0.006392 0.000000 0.006272 0.000000
# 3 -0.001804 -0.006392 0.022109 0.000000 -0.010675 0.000000
# 4 0.000000 0.000000 0.000000 -0.379680 0.000000 -0.515767
# 5 -0.001109 0.006272 -0.010675 0.000000 0.041290 0.000000
# 6 0.000000 0.000000 0.000000 -0.515767 0.000000 -0.623993
#
#
# Mechanical properties :
#
#
# Convention : Reuss Voigt Hill
#
# Bulk Modulus (GPa) = 18.82300 22.15099 20.48700
# Shear Modulus (GPa) = -5.93845 20.79991 7.43073
#
# Velocity S-wave (km/s) = -1.74281 3.26170 1.94953
# Velocity P-wave (km/s) = 2.36171 5.05120 3.94286
#
# Compressibility (1/GPa) = 0.05312648
#
# Stress axis : x y z
#
# Youngs Moduli (GPa) = 64.21531 24.85497 45.23016
#
# Poissons Ratio (x) = 0.10436 0.08157
# Poissons Ratio (y) = 0.26963 0.28911
# Poissons Ratio (z) = 0.11581 0.15887
#
# Static dielectric constant tensor:
#      x y z
#    x 3.587050 0.000000 -0.006570 
#    y 0.000000 3.274680 0.000000 
#    z -0.006570 0.000000 3.885080 
# 
# 
# High freq. dielectric constant tensor:
#      x y z
#    x 1.753820 0.000000 -0.001110 
#    y 0.000000 1.738190 0.000000 
#    z -0.001110 0.000000 1.772310 
# 
# From -- ./inp_files/7419.got.cif
#   From: 2010.03.12/outbox.cif.g09.slc.cpg/sg3_4_cif.got.tgz:7419.got - 2010.03.31 09:20:49.
