data_PCOD8045437
_publ_section_title
;
Structure prediction by ZEFSAII (Michael W. Deem and Ramdas Pophale) SiO2 
 PCOD8045437
Probable space group: P 2
;
_chemical_formula_sum "Si O2"
_cell_formula_units_Z 11
_cell_length_a 9.020286
_cell_length_b 6.473573
_cell_length_c 8.555335
_cell_angle_alpha 90.000000
_cell_angle_beta 70.541232
_cell_angle_gamma 90.000000
_cell_volume 471.040746
_symmetry_space_group_name_H-M "P 2"
_symmetry_group_IT_number 3
_symmetry_cell_setting 'monoclinic'
loop_
_space_group_symop_operation_xyz
x,y,z
-x,y,-z
loop_
_atom_site_type_symbol
_atom_site_label
_atom_site_fract_x
_atom_site_fract_y
_atom_site_fract_z
Si Si1 0.500000 0.792171 0.500000
Si Si2 0.744401 0.151706 0.386490
Si Si3 0.582172 0.464868 0.213857
Si Si4 0.051125 0.929268 0.308201
Si Si5 0.124235 0.547062 0.083071
Si Si6 0.270253 0.274551 0.274414
O O1 0.508588 0.645043 0.345696
O O2 0.651766 0.939076 0.454940
O O3 0.669743 0.279447 0.272391
O O4 0.739901 0.307703 0.535527
O O5 0.923625 0.092896 0.288418
O O6 0.444491 0.348916 0.163785
O O7 0.704485 0.573182 0.054519
O O8 0.057167 0.758957 0.173185
O O9 0.000000 0.850954 0.500000
O O10 0.224550 0.035201 0.256597
O O11 0.137855 0.401913 0.229096
O O12 0.000000 0.460342 0.000000
#
# Coordination Sequence:
#
# PCOD8045437 Si02
#       6
#     1   2   2   2   2   2
#     4  12  22  42  80 106 146 186 260 282 370 438
#     4  11  23  47  76 108 142 195 242 302 359 438
#     4  12  25  46  76 109 150 188 237 308 365 435
#     4  10  26  46  74 103 143 194 245 295 357 437
#     4  12  28  47  68 107 144 195 242 300 362 426
#     4  11  24  47  70 104 146 190 239 300 360 422
#
# _framework density 23.352547000000001
#
# number of rings (size 3 to 8) (size 9 to 14) (size 15 to 20)
#    0.000    0.727    3.636    2.727    5.091    7.273 
#    3.273    0.000    0.000    0.000    0.000    0.000 
#    0.000    0.000    0.000    0.000    0.000    0.000 
#
# Total GULP energy -136340.951313 kJ/mol
# GULP energy per Si atom -12394.631938 kJ/mol
# Density = 2.329940 g / cm^3
# Si number density = 23.352547 Si / 1000 Ang^3
#
#
#
# Elastic Constant Matrix: (Units=GPa)
#
#
# Indices 1 2 3 4 5 6 
#
# 1 148.0833 44.9599 50.6193 0.0000 6.2100 0.0000
# 2 44.9599 87.0901 56.0482 0.0000 -2.3715 0.0000
# 3 50.6193 56.0482 81.3482 0.0000 -12.7197 0.0000
# 4 0.0000 0.0000 0.0000 21.5405 0.0000 1.0784
# 5 6.2100 -2.3715 -12.7197 0.0000 40.9399 0.0000
# 6 0.0000 0.0000 0.0000 1.0784 0.0000 39.5846
#
#
#
# Elastic Compliance Matrix: (Units=1/GPa)
#
#
# Indices 1 2 3 4 5 6 
#
# 1 0.009075 -0.001486 -0.005100 0.000000 -0.003047 0.000000
# 2 -0.001486 0.021330 -0.014234 0.000000 -0.002962 0.000000
# 3 -0.005100 -0.014234 0.026555 0.000000 0.008200 0.000000
# 4 0.000000 0.000000 0.000000 0.046487 0.000000 -0.001266
# 5 -0.003047 -0.002962 0.008200 0.000000 0.027264 0.000000
# 6 0.000000 0.000000 0.000000 -0.001266 0.000000 0.025297
#
#
# Mechanical properties :
#
#
# Convention : Reuss Voigt Hill
#
# Bulk Modulus (GPa) = 65.27272 68.86406 67.06839
# Shear Modulus (GPa) = 24.66026 31.40594 28.03310
#
# Velocity S-wave (km/s) = 3.25314 3.67121 3.46848
# Velocity P-wave (km/s) = 6.49016 6.89372 6.69498
#
# Compressibility (1/GPa) = 0.01532034
#
# Stress axis : x y z
#
# Youngs Moduli (GPa) = 110.19141 46.88330 37.65700
#
# Poissons Ratio (x) = 0.06967 0.19204
# Poissons Ratio (y) = 0.16375 0.53602
# Poissons Ratio (z) = 0.56194 0.66735
#
# Static dielectric constant tensor:
#      x y z
#    x 4.444860 0.000000 0.034570 
#    y 0.000000 4.048390 0.000000 
#    z 0.034570 0.000000 4.140640 
# 
# 
# High freq. dielectric constant tensor:
#      x y z
#    x 1.945780 0.000000 0.006470 
#    y 0.000000 1.912540 0.000000 
#    z 0.006470 0.000000 1.917610 
# 
# From -- ./inp_files/4840.got.cif
#   From: 2010.03.12/outbox.cif.g09.slc.cpg/sg3_3_cif.got.tgz:4840.got - 2010.03.31 09:20:49.
