data_PCOD8045843
_publ_section_title
;
Structure prediction by ZEFSAII (Michael W. Deem and Ramdas Pophale) SiO2 
 PCOD8045843
Probable space group: P 21
;
_chemical_formula_sum "Si O2"
_cell_formula_units_Z 16
_cell_length_a 12.455715
_cell_length_b 10.186155
_cell_length_c 6.193336
_cell_angle_alpha 90.000000
_cell_angle_beta 112.148427
_cell_angle_gamma 90.000000
_cell_volume 727.801919
_symmetry_space_group_name_H-M "P 21"
_symmetry_group_IT_number 4
_symmetry_cell_setting 'monoclinic'
loop_
_space_group_symop_operation_xyz
x,y,z
-x,1/2+y,-z
loop_
_atom_site_type_symbol
_atom_site_label
_atom_site_fract_x
_atom_site_fract_y
_atom_site_fract_z
Si Si1 0.076610 0.157180 0.307731
Si Si2 0.339418 0.800784 0.143939
Si Si3 0.229673 0.365125 0.676586
Si Si4 0.191533 0.882363 0.414191
Si Si5 0.646469 0.513868 0.153407
Si Si6 0.170865 0.656675 0.713974
Si Si7 0.579167 0.725879 0.414723
Si Si8 0.755504 0.701599 0.926870
O O1 0.136653 0.257463 0.521258
O O2 0.122086 0.194934 0.103467
O O3 0.938689 0.168099 0.209382
O O4 0.103397 0.003489 0.367440
O O5 0.230851 0.854248 0.199011
O O6 0.444669 0.749533 0.374613
O O7 0.408053 0.915576 0.063787
O O8 0.285488 0.694630 0.936937
O O9 0.184765 0.513037 0.618910
O O10 0.348186 0.348621 0.628060
O O11 0.252130 0.339664 0.950057
O O12 0.306950 0.921738 0.624582
O O13 0.142236 0.752067 0.490584
O O14 0.564922 0.618107 0.211306
O O15 0.749794 0.589828 0.105928
O O16 0.647849 0.678609 0.679677
#
# Coordination Sequence:
#
# PCOD8045843 Si02
#       8
#     2   2   2   2   2   2   2   2
#     4  11  21  43  72  97 126 183 225 269 329 403
#     4  11  25  41  64 102 133 175 218 277 337 394
#     4  10  23  45  64 100 132 174 224 273 333 395
#     4  11  22  45  66  97 136 169 226 272 330 393
#     4  10  19  42  66  92 124 171 223 267 323 394
#     4  11  27  41  63 102 142 170 215 284 334 387
#     4  10  22  40  68  94 129 174 218 273 328 403
#     4  10  19  41  69  92 122 174 229 261 324 401
#
# _framework density 21.984003000000001
#
# number of rings (size 3 to 8) (size 9 to 14) (size 15 to 20)
#    0.000    1.500    5.000    0.750    1.750    8.000 
#    4.500    0.000    0.000    0.000    0.000    0.000 
#    0.000    0.000    0.000    0.000    0.000    0.000 
#
# Total GULP energy -198212.494936 kJ/mol
# GULP energy per Si atom -12388.280933 kJ/mol
# Density = 2.193397 g / cm^3
# Si number density = 21.984003 Si / 1000 Ang^3
#
#
#
# Elastic Constant Matrix: (Units=GPa)
#
#
# Indices 1 2 3 4 5 6 
#
# 1 88.4913 29.2047 12.1081 0.0000 8.8935 0.0000
# 2 29.2047 133.1317 32.3207 0.0000 -5.2213 0.0000
# 3 12.1081 32.3207 71.7048 0.0000 -13.5858 0.0000
# 4 0.0000 0.0000 0.0000 25.8256 0.0000 -3.6664
# 5 8.8935 -5.2213 -13.5858 0.0000 21.9689 0.0000
# 6 0.0000 0.0000 0.0000 -3.6664 0.0000 19.4861
#
#
#
# Elastic Compliance Matrix: (Units=1/GPa)
#
#
# Indices 1 2 3 4 5 6 
#
# 1 0.013255 -0.002598 -0.002493 0.000000 -0.007525 0.000000
# 2 -0.002598 0.008946 -0.003389 0.000000 0.001082 0.000000
# 3 -0.002493 -0.003389 0.018048 0.000000 0.011365 0.000000
# 4 0.000000 0.000000 0.000000 0.039784 0.000000 0.007485
# 5 -0.007525 0.001082 0.011365 0.000000 0.055851 0.000000
# 6 0.000000 0.000000 0.000000 0.007485 0.000000 0.052727
#
#
# Mechanical properties :
#
#
# Convention : Reuss Voigt Hill
#
# Bulk Modulus (GPa) = 42.93672 48.95497 45.94584
# Shear Modulus (GPa) = 23.43744 28.10242 25.76993
#
# Velocity S-wave (km/s) = 3.26868 3.57923 3.42747
# Velocity P-wave (km/s) = 5.81541 6.27678 6.05049
#
# Compressibility (1/GPa) = 0.02329009
#
# Stress axis : x y z
#
# Youngs Moduli (GPa) = 75.44166 111.77739 55.40823
#
# Poissons Ratio (x) = 0.29035 0.13814
# Poissons Ratio (y) = 0.19597 0.18777
# Poissons Ratio (z) = 0.18809 0.37880
#
# Static dielectric constant tensor:
#      x y z
#    x 3.639870 0.000000 -0.242630 
#    y 0.000000 4.105300 0.000000 
#    z -0.242630 0.000000 4.029690 
# 
# 
# High freq. dielectric constant tensor:
#      x y z
#    x 1.843210 0.000000 -0.017010 
#    y 0.000000 1.866760 0.000000 
#    z -0.017010 0.000000 1.863910 
# 
# From -- ./inp_files/3083.got.cif
#   From: 2010.03.12/outbox.cif.g09.slc.cpg/sg4_2_cif.got.tgz:3083.got - 2010.03.31 09:31:35.
