data_PCOD8045002
_publ_section_title
;
Structure prediction by ZEFSAII (Michael W. Deem and Ramdas Pophale) SiO2 
 PCOD8045002
Probable space group: P 2
;
_chemical_formula_sum "Si O2"
_cell_formula_units_Z 12
_cell_length_a 14.812021
_cell_length_b 6.721680
_cell_length_c 6.157460
_cell_angle_alpha 90.000000
_cell_angle_beta 70.577753
_cell_angle_gamma 90.000000
_cell_volume 578.160684
_symmetry_space_group_name_H-M "P 2"
_symmetry_group_IT_number 3
_symmetry_cell_setting 'monoclinic'
loop_
_space_group_symop_operation_xyz
x,y,z
-x,y,-z
loop_
_atom_site_type_symbol
_atom_site_label
_atom_site_fract_x
_atom_site_fract_y
_atom_site_fract_z
Si Si1 0.323987 0.600080 0.403516
Si Si2 0.410380 0.353289 0.951791
Si Si3 0.095298 0.560580 0.046020
Si Si4 0.249687 0.268439 0.789833
Si Si5 0.835209 0.874827 0.342053
Si Si6 0.500000 0.602833 0.500000
Si Si7 0.000000 0.769236 0.500000
O O1 0.291324 0.414255 0.575213
O O2 0.239607 0.759641 0.441629
O O3 0.410869 0.719519 0.460376
O O4 0.356311 0.514752 0.146041
O O5 0.331680 0.207583 0.902517
O O6 0.460523 0.468909 0.721615
O O7 0.500000 0.239755 0.000000
O O8 0.165908 0.373225 0.995146
O O9 0.144600 0.746790 0.887812
O O10 0.070205 0.625049 0.309680
O O11 0.000000 0.490715 0.000000
O O12 0.208340 0.081637 0.696482
O O13 0.934189 0.906745 0.396756
#
# Coordination Sequence:
#
# PCOD8045002 Si02
#       7
#     2   2   2   2   2   1   1
#     4   9  18  35  56  80 109 146 186 227 276 329
#     4   9  17  33  58  82 110 149 186 225 276 330
#     4   9  20  37  56  80 111 145 184 231 277 327
#     4  10  20  35  56  81 111 146 185 230 278 328
#     4  10  21  36  55  82 113 145 185 232 277 328
#     4   8  16  32  56  80 110 144 180 228 274 322
#     4  10  20  38  58  80 114 150 188 232 278 332
#
# _framework density 20.755475000000001
#
# number of rings (size 3 to 8) (size 9 to 14) (size 15 to 20)
#    0.000    2.667    0.000    1.000    0.000    3.333 
#    0.000   13.333    0.000   18.000    0.000    0.000 
#    0.000    0.000    0.000    0.000    0.000    0.000 
#
# Total GULP energy -148669.488938 kJ/mol
# GULP energy per Si atom -12389.124078 kJ/mol
# Density = 2.070823 g / cm^3
# Si number density = 20.755475 Si / 1000 Ang^3
#
#
#
# Elastic Constant Matrix: (Units=GPa)
#
#
# Indices 1 2 3 4 5 6 
#
# 1 156.0078 62.0294 37.3351 0.0000 9.8562 0.0000
# 2 62.0294 79.0167 28.3575 0.0000 4.1216 0.0000
# 3 37.3351 28.3575 119.6702 0.0000 -10.6300 0.0000
# 4 0.0000 0.0000 0.0000 6.9987 0.0000 6.5408
# 5 9.8562 4.1216 -10.6300 0.0000 35.2797 0.0000
# 6 0.0000 0.0000 0.0000 6.5408 0.0000 19.4939
#
#
#
# Elastic Compliance Matrix: (Units=1/GPa)
#
#
# Indices 1 2 3 4 5 6 
#
# 1 0.009690 -0.006909 -0.001597 0.000000 -0.002381 0.000000
# 2 -0.006909 0.019008 -0.002440 0.000000 -0.001026 0.000000
# 3 -0.001597 -0.002440 0.009759 0.000000 0.003672 0.000000
# 4 0.000000 0.000000 0.000000 0.208157 0.000000 -0.069843
# 5 -0.002381 -0.001026 0.003672 0.000000 0.030236 0.000000
# 6 0.000000 0.000000 0.000000 -0.069843 0.000000 0.074733
#
#
# Mechanical properties :
#
#
# Convention : Reuss Voigt Hill
#
# Bulk Modulus (GPa) = 60.37032 67.79320 64.08176
# Shear Modulus (GPa) = 13.19268 27.48596 20.33932
#
# Velocity S-wave (km/s) = 2.52389 3.64301 3.13381
# Velocity P-wave (km/s) = 6.13539 7.10134 6.63596
#
# Compressibility (1/GPa) = 0.01656443
#
# Stress axis : x y z
#
# Youngs Moduli (GPa) = 103.20184 52.60809 102.46996
#
# Poissons Ratio (x) = 0.36348 0.16368
# Poissons Ratio (y) = 0.71304 0.25002
# Poissons Ratio (z) = 0.16485 0.12836
#
# Static dielectric constant tensor:
#      x y z
#    x 4.713480 0.000000 -0.075750 
#    y 0.000000 3.090030 0.000000 
#    z -0.075750 0.000000 3.949680 
# 
# 
# High freq. dielectric constant tensor:
#      x y z
#    x 1.848570 0.000000 -0.006500 
#    y 0.000000 1.744700 0.000000 
#    z -0.006500 0.000000 1.827740 
# 
# From -- ./inp_files/2819.got.cif
#   From: 2010.03.12/outbox.cif.g09.slc.cpg/sg3_2_cif.got.tgz:2819.got - 2010.03.31 09:20:49.
