data_PCOD8045220
_publ_section_title
;
Structure prediction by ZEFSAII (Michael W. Deem and Ramdas Pophale) SiO2 
 PCOD8045220
Probable space group: P 2
;
_chemical_formula_sum "Si O2"
_cell_formula_units_Z 16
_cell_length_a 9.550701
_cell_length_b 8.727134
_cell_length_c 11.397172
_cell_angle_alpha 90.000000
_cell_angle_beta 130.318186
_cell_angle_gamma 90.000000
_cell_volume 724.307142
_symmetry_space_group_name_H-M "P 2"
_symmetry_group_IT_number 3
_symmetry_cell_setting 'monoclinic'
loop_
_space_group_symop_operation_xyz
x,y,z
-x,y,-z
loop_
_atom_site_type_symbol
_atom_site_label
_atom_site_fract_x
_atom_site_fract_y
_atom_site_fract_z
Si Si1 0.570690 0.340840 0.862356
Si Si2 0.932010 0.545129 0.711777
Si Si3 0.079590 0.046490 0.333670
Si Si4 0.811942 0.771260 0.461842
Si Si5 0.682426 0.280587 0.668084
Si Si6 0.095564 0.818041 0.933778
Si Si7 0.472733 0.687686 0.123863
Si Si8 0.201055 0.302180 0.785350
O O1 0.637397 0.259166 0.780409
O O2 0.581571 0.523421 0.853130
O O3 0.357440 0.298235 0.770695
O O4 0.704454 0.279400 0.036545
O O5 0.794643 0.643393 0.554938
O O6 0.823681 0.417802 0.725341
O O7 0.021767 0.651585 0.858445
O O8 0.095440 0.465648 0.724812
O O9 0.189053 0.944428 0.487961
O O10 0.943123 0.938284 0.188634
O O11 0.230326 0.122994 0.331055
O O12 0.948257 0.171291 0.324267
O O13 0.651614 0.757034 0.281082
O O14 0.000000 0.736864 0.500000
O O15 0.500000 0.322037 0.500000
O O16 0.314073 0.808673 0.068525
O O17 0.000000 0.875540 0.000000
O O18 0.500000 0.668741 0.000000
#
# Coordination Sequence:
#
# PCOD8045220 Si02
#       8
#     2   2   2   2   2   2   2   2
#     4  11  21  40  73 107 130 174 234 299 341 402
#     4  10  21  42  68 100 132 174 224 283 351 407
#     4  10  26  45  61  97 140 186 227 271 353 415
#     4  11  24  44  71  99 141 183 229 289 346 417
#     4  11  25  42  67  99 141 182 230 282 351 420
#     4  11  23  40  64  97 133 180 223 280 341 412
#     4  12  22  43  74 105 132 172 238 293 349 406
#     4  10  21  42  71 100 137 172 232 286 344 409
#
# _framework density 22.090077000000001
#
# number of rings (size 3 to 8) (size 9 to 14) (size 15 to 20)
#    0.000    1.250    2.500    3.750    1.750    3.000 
#    6.750    5.000    0.000    0.000    0.000    0.000 
#    0.000    0.000    0.000    0.000    0.000    0.000 
#
# Total GULP energy -198483.907226 kJ/mol
# GULP energy per Si atom -12405.244202 kJ/mol
# Density = 2.203980 g / cm^3
# Si number density = 22.090077 Si / 1000 Ang^3
#
#
#
# Elastic Constant Matrix: (Units=GPa)
#
#
# Indices 1 2 3 4 5 6 
#
# 1 102.7155 12.0234 27.4286 0.0000 1.4141 0.0000
# 2 12.0234 77.4938 26.5490 0.0000 -1.3743 0.0000
# 3 27.4286 26.5490 120.3034 0.0000 10.6509 0.0000
# 4 0.0000 0.0000 0.0000 21.2624 0.0000 -3.2419
# 5 1.4141 -1.3743 10.6509 0.0000 35.1350 0.0000
# 6 0.0000 0.0000 0.0000 -3.2419 0.0000 4.1063
#
#
#
# Elastic Compliance Matrix: (Units=1/GPa)
#
#
# Indices 1 2 3 4 5 6 
#
# 1 0.010422 -0.000857 -0.002206 0.000000 0.000216 0.000000
# 2 -0.000857 0.014110 -0.003052 0.000000 0.001512 0.000000
# 3 -0.002206 -0.003052 0.009753 0.000000 -0.002987 0.000000
# 4 0.000000 0.000000 0.000000 0.053467 0.000000 0.042213
# 5 0.000216 0.001512 -0.002987 0.000000 0.029418 0.000000
# 6 0.000000 0.000000 0.000000 0.042213 0.000000 0.276858
#
#
# Mechanical properties :
#
#
# Convention : Reuss Voigt Hill
#
# Bulk Modulus (GPa) = 45.34338 48.05720 46.70029
# Shear Modulus (GPa) = 12.08866 27.73486 19.91176
#
# Velocity S-wave (km/s) = 2.34186 3.54720 3.00557
# Velocity P-wave (km/s) = 5.28049 6.21121 5.76466
#
# Compressibility (1/GPa) = 0.02205394
#
# Stress axis : x y z
#
# Youngs Moduli (GPa) = 95.94978 70.87300 102.52912
#
# Poissons Ratio (x) = 0.06077 0.22619
# Poissons Ratio (y) = 0.08227 0.31293
# Poissons Ratio (z) = 0.21167 0.21631
#
# Static dielectric constant tensor:
#      x y z
#    x 4.026180 0.000000 0.099580 
#    y 0.000000 4.016360 0.000000 
#    z 0.099580 0.000000 3.984620 
# 
# 
# High freq. dielectric constant tensor:
#      x y z
#    x 1.870910 0.000000 0.007090 
#    y 0.000000 1.869490 0.000000 
#    z 0.007090 0.000000 1.872020 
# 
# From -- ./inp_files/9173.got.cif
#   From: 2010.03.12/outbox.cif.g09.slc.cpg/sg3_5_cif.got.tgz:9173.got - 2010.03.31 09:20:49.
