data_PCOD8045483
_publ_section_title
;
Structure prediction by ZEFSAII (Michael W. Deem and Ramdas Pophale) SiO2 
 PCOD8045483
Probable space group: P 2
;
_chemical_formula_sum "Si O2"
_cell_formula_units_Z 14
_cell_length_a 9.233491
_cell_length_b 8.047979
_cell_length_c 17.939561
_cell_angle_alpha 90.000000
_cell_angle_beta 29.337822
_cell_angle_gamma 90.000000
_cell_volume 653.165807
_symmetry_space_group_name_H-M "P 2"
_symmetry_group_IT_number 3
_symmetry_cell_setting 'monoclinic'
loop_
_space_group_symop_operation_xyz
x,y,z
-x,y,-z
loop_
_atom_site_type_symbol
_atom_site_label
_atom_site_fract_x
_atom_site_fract_y
_atom_site_fract_z
Si Si1 0.842619 0.299990 0.137835
Si Si2 0.244581 0.374905 0.328921
Si Si3 0.598746 0.104357 0.381707
Si Si4 0.055541 0.649840 0.059948
Si Si5 0.790897 0.754496 0.324575
Si Si6 0.024110 0.029501 0.402406
Si Si7 0.285410 0.702203 0.214605
O O1 0.542167 0.376741 0.242714
O O2 0.799863 0.202175 0.233378
O O3 0.069299 0.449843 0.052752
O O4 0.000000 0.192815 0.000000
O O5 0.195111 0.202203 0.304905
O O6 0.220778 0.534479 0.288125
O O7 0.000000 0.392725 0.500000
O O8 0.500000 0.211527 0.500000
O O9 0.312440 0.027644 0.472423
O O10 0.796813 0.954491 0.325210
O O11 0.794878 0.702155 0.235042
O O12 0.363426 0.717458 0.955502
O O13 0.000000 0.717978 0.000000
O O14 0.500000 0.686345 0.500000
O O15 0.093351 0.686930 0.225585
O O16 0.000000 0.011697 0.500000
O O17 0.194129 0.869928 0.297006
#
# Coordination Sequence:
#
# PCOD8045483 Si02
#       7
#     2   2   2   2   2   2   2
#     4  11  23  46  70 108 148 186 252 310 370 446
#     4  11  23  41  72 109 141 195 253 305 373 438
#     4  11  23  46  70 108 148 186 252 310 370 446
#     4  11  26  45  70 107 143 194 244 300 376 442
#     4  11  26  45  70 107 143 194 244 300 376 442
#     4  11  23  41  72 109 141 195 253 305 373 438
#     4  12  24  46  72 102 159 182 251 306 377 442
#
# _framework density 21.434066999999999
#
# number of rings (size 3 to 8) (size 9 to 14) (size 15 to 20)
#    0.000    0.857    8.571    0.857    4.000    3.429 
#    0.000    0.000    0.000    0.000    0.000    0.000 
#    0.000    0.000    0.000    0.000    0.000    0.000 
#
# Total GULP energy -173489.090892 kJ/mol
# GULP energy per Si atom -12392.077921 kJ/mol
# Density = 2.138528 g / cm^3
# Si number density = 21.434067 Si / 1000 Ang^3
#
#
#
# Elastic Constant Matrix: (Units=GPa)
#
#
# Indices 1 2 3 4 5 6 
#
# 1 115.5130 8.0413 55.5793 0.0000 13.5524 0.0000
# 2 8.0413 78.6587 17.0200 0.0000 16.1042 0.0000
# 3 55.5793 17.0200 138.1113 0.0000 26.9562 0.0000
# 4 0.0000 0.0000 0.0000 44.1544 0.0000 8.2461
# 5 13.5524 16.1042 26.9562 0.0000 57.7590 0.0000
# 6 0.0000 0.0000 0.0000 8.2461 0.0000 39.5396
#
#
#
# Elastic Compliance Matrix: (Units=1/GPa)
#
#
# Indices 1 2 3 4 5 6 
#
# 1 0.010752 -0.000078 -0.004213 0.000000 -0.000535 0.000000
# 2 -0.000078 0.013615 -0.001000 0.000000 -0.003311 0.000000
# 3 -0.004213 -0.001000 0.009695 0.000000 -0.003257 0.000000
# 4 0.000000 0.000000 0.000000 0.023566 0.000000 -0.004915
# 5 -0.000535 -0.003311 -0.003257 0.000000 0.019882 0.000000
# 6 0.000000 0.000000 0.000000 -0.004915 0.000000 0.026316
#
#
# Mechanical properties :
#
#
# Convention : Reuss Voigt Hill
#
# Bulk Modulus (GPa) = 42.58915 54.84047 48.71481
# Shear Modulus (GPa) = 40.90452 45.06676 42.98564
#
# Velocity S-wave (km/s) = 4.37325 4.59036 4.48312
# Velocity P-wave (km/s) = 6.73895 7.33051 7.04094
#
# Compressibility (1/GPa) = 0.02348016
#
# Stress axis : x y z
#
# Youngs Moduli (GPa) = 93.00334 73.44591 103.14664
#
# Poissons Ratio (x) = 0.00574 0.43455
# Poissons Ratio (y) = 0.00726 0.10317
# Poissons Ratio (z) = 0.39182 0.07346
#
# Static dielectric constant tensor:
#      x y z
#    x 4.026970 0.000000 0.182690 
#    y 0.000000 3.962190 0.000000 
#    z 0.182690 0.000000 4.128850 
# 
# 
# High freq. dielectric constant tensor:
#      x y z
#    x 1.849440 0.000000 0.005770 
#    y 0.000000 1.826380 0.000000 
#    z 0.005770 0.000000 1.852650 
# 
# From -- ./inp_files/14995.got.cif
#   From: 2010.03.12/outbox.cif.g09.slc.cpg/sg3_8_cif.got.tgz:14995.got - 2010.03.31 09:20:49.
