data_PCOD8045721
_publ_section_title
;
Structure prediction by ZEFSAII (Michael W. Deem and Ramdas Pophale) SiO2 
 PCOD8045721
Probable space group: P 21
;
_chemical_formula_sum "Si O2"
_cell_formula_units_Z 16
_cell_length_a 10.602608
_cell_length_b 9.443936
_cell_length_c 19.487166
_cell_angle_alpha 90.000000
_cell_angle_beta 156.782052
_cell_angle_gamma 90.000000
_cell_volume 769.243591
_symmetry_space_group_name_H-M "P 21"
_symmetry_group_IT_number 4
_symmetry_cell_setting 'monoclinic'
loop_
_space_group_symop_operation_xyz
x,y,z
-x,1/2+y,-z
loop_
_atom_site_type_symbol
_atom_site_label
_atom_site_fract_x
_atom_site_fract_y
_atom_site_fract_z
Si Si1 0.121676 0.867250 0.205104
Si Si2 0.302112 0.222517 0.101583
Si Si3 0.878545 0.864784 0.583557
Si Si4 0.085951 0.579823 0.626393
Si Si5 0.205503 0.266036 0.319798
Si Si6 0.697865 0.509506 0.299476
Si Si7 0.085818 0.652177 0.959512
Si Si8 0.205580 0.966078 0.385735
O O1 0.500100 0.865929 0.397982
O O2 0.999447 0.889346 0.222364
O O3 0.029808 0.993646 0.109131
O O4 0.959157 0.727025 0.091350
O O5 0.535887 0.087650 0.204621
O O6 0.500014 0.366005 0.200858
O O7 0.117727 0.215273 0.080628
O O8 0.000724 0.842771 0.723032
O O9 0.970673 0.738407 0.579592
O O10 0.040865 0.005014 0.632186
O O11 0.882229 0.516788 0.462901
O O12 0.025510 0.487157 0.664508
O O13 0.329327 0.116070 0.414674
O O14 0.499931 0.366075 0.444129
O O15 0.974526 0.244884 0.138988
O O16 0.464000 0.644327 0.168678
#
# Coordination Sequence:
#
# PCOD8045721 Si02
#       8
#     2   2   2   2   2   2   2   2
#     4   9  18  34  57  82 112 149 192 242 299 350
#     4  10  20  33  56  84 115 151 189 241 295 347
#     4   9  18  34  57  82 112 149 192 242 299 350
#     4  10  19  33  56  83 115 152 193 239 291 350
#     4   9  18  34  60  87 114 152 198 246 293 349
#     4  10  20  33  56  84 115 151 189 241 295 347
#     4  10  19  33  56  83 115 152 193 239 291 350
#     4   9  18  34  60  87 114 152 198 246 293 349
#
# _framework density 20.799652999999999
#
# number of rings (size 3 to 8) (size 9 to 14) (size 15 to 20)
#    0.000    2.500    0.000    2.250    0.000    0.000 
#    0.000    0.000    0.000  190.500    0.000    0.000 
#    0.000    0.000    0.000    0.000    0.000    0.000 
#
# Total GULP energy -198245.503972 kJ/mol
# GULP energy per Si atom -12390.343998 kJ/mol
# Density = 2.075231 g / cm^3
# Si number density = 20.799653 Si / 1000 Ang^3
#
#
#
# Elastic Constant Matrix: (Units=GPa)
#
#
# Indices 1 2 3 4 5 6 
#
# 1 157.9714 32.3179 77.9062 0.0000 -17.0613 0.0000
# 2 32.3179 29.1676 26.9464 0.0000 -3.2404 0.0000
# 3 77.9062 26.9464 113.0667 0.0000 -9.9361 0.0000
# 4 0.0000 0.0000 0.0000 21.8523 0.0000 -2.7752
# 5 -17.0613 -3.2404 -9.9361 0.0000 30.1273 0.0000
# 6 0.0000 0.0000 0.0000 -2.7752 0.0000 26.4859
#
#
#
# Elastic Compliance Matrix: (Units=1/GPa)
#
#
# Indices 1 2 3 4 5 6 
#
# 1 0.010780 -0.006380 -0.005593 0.000000 0.003574 0.000000
# 2 -0.006380 0.047791 -0.007064 0.000000 -0.000803 0.000000
# 3 -0.005593 -0.007064 0.014455 0.000000 0.000840 0.000000
# 4 0.000000 0.000000 0.000000 0.046379 0.000000 0.004860
# 5 0.003574 -0.000803 0.000840 0.000000 0.035407 0.000000
# 6 0.000000 0.000000 0.000000 0.004860 0.000000 0.038265
#
#
# Mechanical properties :
#
#
# Convention : Reuss Voigt Hill
#
# Bulk Modulus (GPa) = 28.61097 63.83853 46.22475
# Shear Modulus (GPa) = 20.59292 26.56210 23.57751
#
# Velocity S-wave (km/s) = 3.14994 3.57745 3.37048
# Velocity P-wave (km/s) = 5.19758 6.91542 6.11710
#
# Compressibility (1/GPa) = 0.03495162
#
# Stress axis : x y z
#
# Youngs Moduli (GPa) = 92.76664 20.92463 69.17785
#
# Poissons Ratio (x) = 0.13350 0.38691
# Poissons Ratio (y) = 0.59184 0.48868
# Poissons Ratio (z) = 0.51885 0.14782
#
# Static dielectric constant tensor:
#      x y z
#    x 4.197610 0.000000 0.021180 
#    y 0.000000 3.767170 0.000000 
#    z 0.021180 0.000000 4.230950 
# 
# 
# High freq. dielectric constant tensor:
#      x y z
#    x 1.825550 0.000000 -0.011370 
#    y 0.000000 1.792790 0.000000 
#    z -0.011370 0.000000 1.806610 
# 
# From -- ./inp_files/15712.got.cif
#   From: 2010.03.12/outbox.cif.g09.slc.cpg/sg4_8_cif.got.tgz:15712.got - 2010.03.31 09:31:35.
