data_PCOD8045528
_publ_section_title
;
Structure prediction by ZEFSAII (Michael W. Deem and Ramdas Pophale) SiO2 
 PCOD8045528
Probable space group: P 2
;
_chemical_formula_sum "Si O2"
_cell_formula_units_Z 14
_cell_length_a 7.976297
_cell_length_b 6.322286
_cell_length_c 16.662992
_cell_angle_alpha 90.000000
_cell_angle_beta 135.737657
_cell_angle_gamma 90.000000
_cell_volume 586.474978
_symmetry_space_group_name_H-M "P 2"
_symmetry_group_IT_number 3
_symmetry_cell_setting 'monoclinic'
loop_
_space_group_symop_operation_xyz
x,y,z
-x,y,-z
loop_
_atom_site_type_symbol
_atom_site_label
_atom_site_fract_x
_atom_site_fract_y
_atom_site_fract_z
Si Si1 0.456209 0.456590 0.155049
Si Si2 0.949830 0.266419 0.330539
Si Si3 0.000000 0.004268 0.500000
Si Si4 0.500000 0.618178 0.000000
Si Si5 0.140672 0.103990 0.121614
Si Si6 0.486264 0.780475 0.704954
Si Si7 0.095674 0.943920 0.812041
Si Si8 0.710419 0.614498 0.632703
O O1 0.433645 0.462775 0.050934
O O2 0.235809 0.324826 0.117323
O O3 0.452509 0.695718 0.185346
O O4 0.718716 0.394888 0.279787
O O5 0.145197 0.405388 0.347473
O O6 0.071434 0.154391 0.449229
O O7 0.815851 0.094137 0.228529
O O8 0.786256 0.843479 0.406128
O O9 0.721583 0.764635 0.098551
O O10 0.363020 0.993882 0.241732
O O11 0.953511 0.107123 0.131319
O O12 0.000000 0.986784 0.000000
O O13 0.581946 0.597337 0.676036
O O14 0.872606 0.821931 0.695507
O O15 0.500000 0.671404 0.500000
#
# Coordination Sequence:
#
# PCOD8045528 Si02
#       8
#     2   2   1   1   2   2   2   2
#     4  12  27  45  72 111 145 192 245 301 361 441
#     4  12  27  45  72 111 145 192 245 301 361 441
#     4  12  26  46  82 108 152 196 244 302 380 432
#     4  12  26  46  82 108 152 196 244 302 380 432
#     4  11  26  46  75 105 147 193 243 305 366 438
#     4  11  26  49  72 106 148 197 243 301 367 440
#     4  11  26  49  72 106 148 197 243 301 367 440
#     4  11  26  46  75 105 147 193 243 305 366 438
#
# _framework density 23.871435000000002
#
# number of rings (size 3 to 8) (size 9 to 14) (size 15 to 20)
#    0.000    0.571    2.857    3.429    8.000    5.714 
#    0.000    0.000    0.000    0.000    0.000    0.000 
#    0.000    0.000    0.000    0.000    0.000    0.000 
#
# Total GULP energy -173447.273179 kJ/mol
# GULP energy per Si atom -12389.090941 kJ/mol
# Density = 2.381710 g / cm^3
# Si number density = 23.871435 Si / 1000 Ang^3
#
#
#
# Elastic Constant Matrix: (Units=GPa)
#
#
# Indices 1 2 3 4 5 6 
#
# 1 89.6142 47.3558 30.9136 0.0000 -15.3688 0.0000
# 2 47.3558 91.9028 31.9039 0.0000 -13.0754 0.0000
# 3 30.9136 31.9039 130.5373 0.0000 -3.2878 0.0000
# 4 0.0000 0.0000 0.0000 1.6494 0.0000 -32.8894
# 5 -15.3688 -13.0754 -3.2878 0.0000 48.2418 0.0000
# 6 0.0000 0.0000 0.0000 -32.8894 0.0000 22.9907
#
#
#
# Elastic Compliance Matrix: (Units=1/GPa)
#
#
# Indices 1 2 3 4 5 6 
#
# 1 0.016182 -0.007211 -0.001993 0.000000 0.003065 0.000000
# 2 -0.007211 0.015562 -0.002051 0.000000 0.001781 0.000000
# 3 -0.001993 -0.002051 0.008619 0.000000 -0.000603 0.000000
# 4 0.000000 0.000000 0.000000 -0.022026 0.000000 -0.031510
# 5 0.003065 0.001781 -0.000603 0.000000 0.022147 0.000000
# 6 0.000000 0.000000 0.000000 -0.031510 0.000000 -0.001580
#
#
# Mechanical properties :
#
#
# Convention : Reuss Voigt Hill
#
# Bulk Modulus (GPa) = 56.00890 59.15566 57.58228
# Shear Modulus (GPa) = 74.22384 28.03512 51.12948
#
# Velocity S-wave (km/s) = 5.58217 3.43070 4.63305
# Velocity P-wave (km/s) = 8.06605 6.36614 7.26598
#
# Compressibility (1/GPa) = 0.01785431
#
# Stress axis : x y z
#
# Youngs Moduli (GPa) = 61.79535 64.25934 116.02761
#
# Poissons Ratio (x) = 0.46335 0.23122
# Poissons Ratio (y) = 0.44558 0.23797
# Poissons Ratio (z) = 0.12314 0.13179
#
# Static dielectric constant tensor:
#      x y z
#    x 4.630090 0.000000 -0.161670 
#    y 0.000000 4.070290 0.000000 
#    z -0.161670 0.000000 4.491670 
# 
# 
# High freq. dielectric constant tensor:
#      x y z
#    x 1.956250 0.000000 -0.007810 
#    y 0.000000 1.936590 0.000000 
#    z -0.007810 0.000000 1.964280 
# 
# From -- ./inp_files/14836.got.cif
#   From: 2010.03.12/outbox.cif.g09.slc.cpg/sg3_8_cif.got.tgz:14836.got - 2010.03.31 09:20:49.
