data_PCOD8045309
_publ_section_title
;
Structure prediction by ZEFSAII (Michael W. Deem and Ramdas Pophale) SiO2 
 PCOD8045309
Probable space group: P 2
;
_chemical_formula_sum "Si O2"
_cell_formula_units_Z 16
_cell_length_a 12.543002
_cell_length_b 9.025478
_cell_length_c 9.166857
_cell_angle_alpha 90.000000
_cell_angle_beta 44.554097
_cell_angle_gamma 90.000000
_cell_volume 728.066141
_symmetry_space_group_name_H-M "P 2"
_symmetry_group_IT_number 3
_symmetry_cell_setting 'monoclinic'
loop_
_space_group_symop_operation_xyz
x,y,z
-x,y,-z
loop_
_atom_site_type_symbol
_atom_site_label
_atom_site_fract_x
_atom_site_fract_y
_atom_site_fract_z
Si Si1 0.333550 0.757630 0.620141
Si Si2 0.829745 0.621610 0.463101
Si Si3 0.595404 0.070344 0.533897
Si Si4 0.827496 0.298893 0.988426
Si Si5 0.612839 0.085333 0.008067
Si Si6 0.328676 0.770299 0.128976
Si Si7 0.169934 0.299904 0.671385
Si Si8 0.835699 0.635617 0.957035
O O1 0.500000 0.698519 0.500000
O O2 0.304311 0.711492 0.483553
O O3 0.323861 0.936225 0.632969
O O4 0.197296 0.678146 0.842850
O O5 0.796274 0.670035 0.662092
O O6 0.808440 0.448625 0.444168
O O7 0.994062 0.681771 0.253513
O O8 0.500000 0.156617 0.500000
O O9 0.487245 0.008453 0.766897
O O10 0.714114 0.177083 0.500931
O O11 0.725523 0.198619 0.980467
O O12 0.785461 0.310858 0.200611
O O13 0.814988 0.463734 0.939591
O O14 0.000062 0.240190 0.811687
O O15 0.500000 0.166055 0.000000
O O16 0.695386 0.949745 0.840732
O O17 0.294186 0.728163 0.996704
O O18 0.500000 0.724409 0.000000
#
# Coordination Sequence:
#
# PCOD8045309 Si02
#       8
#     2   2   2   2   2   2   2   2
#     4  11  22  38  62  96 133 172 222 276 330 393
#     4  11  23  43  67  96 132 175 224 278 337 400
#     4  11  22  40  64  98 132 178 227 279 332 400
#     4  10  22  43  67  98 138 178 220 285 340 403
#     4  11  24  44  67  96 140 180 224 282 343 408
#     4  11  24  44  65  94 136 178 222 277 337 408
#     4  10  22  42  68  99 136 172 231 282 336 401
#     4  11  23  41  66  98 131 175 223 280 335 402
#
# _framework density 21.976026999999998
#
# number of rings (size 3 to 8) (size 9 to 14) (size 15 to 20)
#    0.000    1.250    2.500    4.500    0.000    5.000 
#    2.250    4.375    0.000    0.000    0.000    0.000 
#    0.000    0.000    0.000    0.000    0.000    0.000 
#
# Total GULP energy -198254.338663 kJ/mol
# GULP energy per Si atom -12390.896166 kJ/mol
# Density = 2.192601 g / cm^3
# Si number density = 21.976027 Si / 1000 Ang^3
#
#
#
# Elastic Constant Matrix: (Units=GPa)
#
#
# Indices 1 2 3 4 5 6 
#
# 1 122.2848 47.8039 15.0775 0.0000 -2.8144 0.0000
# 2 47.8039 100.8093 41.7876 0.0000 -15.0027 0.0000
# 3 15.0775 41.7876 95.2984 0.0000 -8.6885 0.0000
# 4 0.0000 0.0000 0.0000 29.5271 0.0000 0.3989
# 5 -2.8144 -15.0027 -8.6885 0.0000 31.2538 0.0000
# 6 0.0000 0.0000 0.0000 0.3989 0.0000 35.5700
#
#
#
# Elastic Compliance Matrix: (Units=1/GPa)
#
#
# Indices 1 2 3 4 5 6 
#
# 1 0.010128 -0.005255 0.000569 0.000000 -0.001452 0.000000
# 2 -0.005255 0.015486 -0.005463 0.000000 0.005442 0.000000
# 3 0.000569 -0.005463 0.012891 0.000000 0.001013 0.000000
# 4 0.000000 0.000000 0.000000 0.033872 0.000000 -0.000380
# 5 -0.001452 0.005442 0.001013 0.000000 0.034759 0.000000
# 6 0.000000 0.000000 0.000000 -0.000380 0.000000 0.028118
#
#
# Mechanical properties :
#
#
# Convention : Reuss Voigt Hill
#
# Bulk Modulus (GPa) = 54.91991 58.63673 56.77832
# Shear Modulus (GPa) = 30.93654 33.51840 32.22747
#
# Velocity S-wave (km/s) = 3.75606 3.90965 3.83362
# Velocity P-wave (km/s) = 6.62236 6.86444 6.74449
#
# Compressibility (1/GPa) = 0.01820833
#
# Stress axis : x y z
#
# Youngs Moduli (GPa) = 98.73317 64.57428 77.57325
#
# Poissons Ratio (x) = 0.33934 -0.04417
# Poissons Ratio (y) = 0.51885 0.42378
# Poissons Ratio (z) = -0.05622 0.35277
#
# Static dielectric constant tensor:
#      x y z
#    x 4.116920 0.000000 0.004530 
#    y 0.000000 3.681640 0.000000 
#    z 0.004530 0.000000 3.867880 
# 
# 
# High freq. dielectric constant tensor:
#      x y z
#    x 1.882150 0.000000 0.005280 
#    y 0.000000 1.849320 0.000000 
#    z 0.005280 0.000000 1.858410 
# 
# From -- ./inp_files/7394.got.cif
#   From: 2010.03.12/outbox.cif.g09.slc.cpg/sg3_4_cif.got.tgz:7394.got - 2010.03.31 09:20:49.
