data_PCOD8045404
_publ_section_title
;
Structure prediction by ZEFSAII (Michael W. Deem and Ramdas Pophale) SiO2 
 PCOD8045404
Probable space group: P 2
;
_chemical_formula_sum "Si O2"
_cell_formula_units_Z 16
_cell_length_a 11.186914
_cell_length_b 5.110491
_cell_length_c 11.376319
_cell_angle_alpha 90.000000
_cell_angle_beta 104.462305
_cell_angle_gamma 90.000000
_cell_volume 629.781752
_symmetry_space_group_name_H-M "P 2"
_symmetry_group_IT_number 3
_symmetry_cell_setting 'monoclinic'
loop_
_space_group_symop_operation_xyz
x,y,z
-x,y,-z
loop_
_atom_site_type_symbol
_atom_site_label
_atom_site_fract_x
_atom_site_fract_y
_atom_site_fract_z
Si Si1 0.764310 0.393300 0.491101
Si Si2 0.226134 0.909039 0.645158
Si Si3 0.967150 0.085493 0.642086
Si Si4 0.006015 0.409149 0.870616
Si Si5 0.589615 0.795856 0.843901
Si Si6 0.782068 0.693049 0.706870
Si Si7 0.450995 0.298324 0.858950
Si Si8 0.258184 0.673172 0.887090
O O1 0.746077 0.623123 0.394728
O O2 0.908448 0.331291 0.557410
O O3 0.709137 0.482780 0.604866
O O4 0.702184 0.140218 0.409861
O O5 0.261724 0.907952 0.791695
O O6 0.079170 0.963296 0.594829
O O7 0.021790 0.176569 0.781253
O O8 0.854043 0.883293 0.633862
O O9 0.117892 0.615896 0.889409
O O10 0.877130 0.556124 0.818291
O O11 0.000000 0.287396 0.000000
O O12 0.685995 0.852940 0.762890
O O13 0.527284 0.516605 0.804643
O O14 0.480827 0.014322 0.808944
O O15 0.659670 0.790190 0.986952
O O16 0.310764 0.404450 0.840436
O O17 0.500000 0.281244 0.000000
#
# Coordination Sequence:
#
# PCOD8045404 Si02
#       8
#     2   2   2   2   2   2   2   2
#     4  11  26  41  64  99 143 195 246 279 350 426
#     4  12  25  40  67 101 144 187 235 304 348 425
#     4  11  25  37  65  99 145 195 235 278 353 439
#     4  11  23  41  63 108 153 191 223 289 373 441
#     4  11  25  44  74  99 141 185 241 292 353 434
#     4  11  24  44  66 103 145 199 233 287 354 444
#     4  10  24  44  69 102 134 187 235 295 349 423
#     4  11  24  45  70 108 147 181 242 296 369 428
#
# _framework density 25.405628
#
# number of rings (size 3 to 8) (size 9 to 14) (size 15 to 20)
#    0.000    1.000    3.750    2.250    7.000    7.500 
#    0.000    0.000    0.000    0.750    3.250    0.000 
#    0.000    0.000    0.000    0.000    0.000    0.000 
#
# Total GULP energy -198274.950705 kJ/mol
# GULP energy per Si atom -12392.184419 kJ/mol
# Density = 2.534780 g / cm^3
# Si number density = 25.405628 Si / 1000 Ang^3
#
#
#
# Elastic Constant Matrix: (Units=GPa)
#
#
# Indices 1 2 3 4 5 6 
#
# 1 63.5537 13.2767 16.8972 0.0000 -21.8735 0.0000
# 2 13.2767 138.1340 41.2368 0.0000 -9.8361 0.0000
# 3 16.8972 41.2368 111.1032 0.0000 -6.6540 0.0000
# 4 0.0000 0.0000 0.0000 13.8118 0.0000 -47.8601
# 5 -21.8735 -9.8361 -6.6540 0.0000 27.9994 0.0000
# 6 0.0000 0.0000 0.0000 -47.8601 0.0000 -42.0690
#
#
#
# Elastic Compliance Matrix: (Units=1/GPa)
#
#
# Indices 1 2 3 4 5 6 
#
# 1 0.022124 -0.000263 -0.002270 0.000000 0.016652 0.000000
# 2 -0.000263 0.008277 -0.002912 0.000000 0.002010 0.000000
# 3 -0.002270 -0.002912 0.010407 0.000000 -0.000323 0.000000
# 4 0.000000 0.000000 0.000000 0.014650 0.000000 -0.016666
# 5 0.016652 0.002010 -0.000323 0.000000 0.049353 0.000000
# 6 0.000000 0.000000 0.000000 -0.016666 0.000000 -0.004810
#
#
# Mechanical properties :
#
#
# Convention : Reuss Voigt Hill
#
# Bulk Modulus (GPa) = 33.42326 50.62358 42.02342
# Shear Modulus (GPa) = 41.36869 16.04044 28.70456
#
# Velocity S-wave (km/s) = 4.03963 2.51544 3.36497
# Velocity P-wave (km/s) = 5.91122 5.32973 5.62799
#
# Compressibility (1/GPa) = 0.02991928
#
# Stress axis : x y z
#
# Youngs Moduli (GPa) = 45.19902 120.81696 96.08729
#
# Poissons Ratio (x) = 0.03179 0.21810
# Poissons Ratio (y) = 0.01189 0.27977
# Poissons Ratio (z) = 0.10260 0.35178
#
# Static dielectric constant tensor:
#      x y z
#    x 5.284110 0.000000 0.682310 
#    y 0.000000 4.895460 0.000000 
#    z 0.682310 0.000000 5.221300 
# 
# 
# High freq. dielectric constant tensor:
#      x y z
#    x 1.985730 0.000000 0.009890 
#    y 0.000000 2.016780 0.000000 
#    z 0.009890 0.000000 2.033550 
# 
# From -- ./inp_files/11307.got.cif
#   From: 2010.03.12/outbox.cif.g09.slc.cpg/sg3_6_cif.got.tgz:11307.got - 2010.03.31 09:20:49.
