data_PCOD8045652
_publ_section_title
;
Structure prediction by ZEFSAII (Michael W. Deem and Ramdas Pophale) SiO2 
 PCOD8045652
Probable space group: P 21
;
_chemical_formula_sum "Si O2"
_cell_formula_units_Z 12
_cell_length_a 31.324892
_cell_length_b 5.004450
_cell_length_c 10.361399
_cell_angle_alpha 90.000000
_cell_angle_beta 25.544121
_cell_angle_gamma 90.000000
_cell_volume 700.404844
_symmetry_space_group_name_H-M "P 21"
_symmetry_group_IT_number 4
_symmetry_cell_setting 'monoclinic'
loop_
_space_group_symop_operation_xyz
x,y,z
-x,1/2+y,-z
loop_
_atom_site_type_symbol
_atom_site_label
_atom_site_fract_x
_atom_site_fract_y
_atom_site_fract_z
Si Si1 0.257876 0.303860 0.282914
Si Si2 0.630804 0.274127 0.635852
Si Si3 0.558051 0.796759 0.390373
Si Si4 0.938018 0.037095 0.151870
Si Si5 0.566287 0.775638 0.669742
Si Si6 0.768762 0.270304 0.481609
O O1 0.151623 0.412002 0.515717
O O2 0.299370 0.537559 0.265571
O O3 0.240705 0.039100 0.411778
O O4 0.332655 0.242889 0.963502
O O5 0.614495 0.489682 0.567798
O O6 0.734443 0.316740 0.428136
O O7 0.633739 0.988816 0.560047
O O8 0.545781 0.300392 0.975567
O O9 0.484993 0.557862 0.558370
O O10 0.567733 0.837517 0.515566
O O11 0.883535 0.162801 0.172683
O O12 0.008941 0.787268 0.921274
#
# Coordination Sequence:
#
# PCOD8045652 Si02
#       6
#     2   2   2   2   2   2
#     4  10  20  32  52  79 109 135 172 212 270 314
#     4  10  19  34  48  73 102 141 180 218 240 302
#     4  12  23  35  52  76 112 150 178 207 256 317
#     4  10  18  33  53  82 108 126 170 225 283 316
#     4  10  21  32  50  70 105 143 181 208 250 291
#     4  10  19  32  55  76 108 133 169 222 271 306
#
# _framework density 17.132947000000001
#
# number of rings (size 3 to 8) (size 9 to 14) (size 15 to 20)
#    1.000    0.667    1.667    5.000    0.000    2.667 
#    0.000    0.000    0.000    0.000    0.000    4.667 
#    0.000    0.000    0.000    0.000    0.000    0.000 
#
# Total GULP energy -148676.794282 kJ/mol
# GULP energy per Si atom -12389.732857 kJ/mol
# Density = 1.709395 g / cm^3
# Si number density = 17.132947 Si / 1000 Ang^3
#
#
#
# Elastic Constant Matrix: (Units=GPa)
#
#
# Indices 1 2 3 4 5 6 
#
# 1 98.5010 24.3533 40.6159 0.0000 -6.0871 0.0000
# 2 24.3533 109.6107 22.6304 0.0000 -11.6869 0.0000
# 3 40.6159 22.6304 58.8871 0.0000 -12.4053 0.0000
# 4 0.0000 0.0000 0.0000 15.5080 0.0000 -1.6258
# 5 -6.0871 -11.6869 -12.4053 0.0000 25.6646 0.0000
# 6 0.0000 0.0000 0.0000 -1.6258 0.0000 23.3114
#
#
#
# Elastic Compliance Matrix: (Units=1/GPa)
#
#
# Indices 1 2 3 4 5 6 
#
# 1 0.014427 -0.001385 -0.009832 0.000000 -0.001961 0.000000
# 2 -0.001385 0.010251 -0.002305 0.000000 0.003225 0.000000
# 3 -0.009832 -0.002305 0.026650 0.000000 0.009500 0.000000
# 4 0.000000 0.000000 0.000000 0.064958 0.000000 0.004530
# 5 -0.001961 0.003225 0.009500 0.000000 0.044560 0.000000
# 6 0.000000 0.000000 0.000000 0.004530 0.000000 0.043213
#
#
# Mechanical properties :
#
#
# Convention : Reuss Voigt Hill
#
# Bulk Modulus (GPa) = 41.17731 49.13309 45.15520
# Shear Modulus (GPa) = 20.90330 24.85676 22.88003
#
# Velocity S-wave (km/s) = 3.49673 3.81309 3.65833
# Velocity P-wave (km/s) = 6.35523 6.93729 6.65263
#
# Compressibility (1/GPa) = 0.02428522
#
# Stress axis : x y z
#
# Youngs Moduli (GPa) = 69.31242 97.55535 37.52337
#
# Poissons Ratio (x) = 0.13508 0.36893
# Poissons Ratio (y) = 0.09597 0.08649
# Poissons Ratio (z) = 0.68148 0.22485
#
# Static dielectric constant tensor:
#      x y z
#    x 3.062680 0.000000 -0.226100 
#    y 0.000000 3.486040 0.000000 
#    z -0.226100 0.000000 2.982110 
# 
# 
# High freq. dielectric constant tensor:
#      x y z
#    x 1.644390 0.000000 -0.024530 
#    y 0.000000 1.693270 0.000000 
#    z -0.024530 0.000000 1.619790 
# 
# From -- ./inp_files/7168.got.cif
#   From: 2010.03.12/outbox.cif.g09.slc.cpg/sg4_4_cif.got.tgz:7168.got - 2010.03.31 09:31:35.
