data_PCOD8045101
_publ_section_title
;
Structure prediction by ZEFSAII (Michael W. Deem and Ramdas Pophale) SiO2 
 PCOD8045101
Probable space group: P 2
;
_chemical_formula_sum "Si O2"
_cell_formula_units_Z 12
_cell_length_a 6.218462
_cell_length_b 6.137016
_cell_length_c 14.448666
_cell_angle_alpha 90.000000
_cell_angle_beta 105.776044
_cell_angle_gamma 90.000000
_cell_volume 530.631232
_symmetry_space_group_name_H-M "P 2"
_symmetry_group_IT_number 3
_symmetry_cell_setting 'monoclinic'
loop_
_space_group_symop_operation_xyz
x,y,z
-x,y,-z
loop_
_atom_site_type_symbol
_atom_site_label
_atom_site_fract_x
_atom_site_fract_y
_atom_site_fract_z
Si Si1 0.594151 0.697760 0.159862
Si Si2 0.000000 0.887090 0.500000
Si Si3 0.891252 0.370769 0.081482
Si Si4 0.316136 0.361975 0.236447
Si Si5 0.385754 0.976420 0.668952
Si Si6 0.500000 0.034390 0.000000
Si Si7 0.679705 0.654557 0.593064
O O1 0.779729 0.575463 0.120579
O O2 0.402779 0.533404 0.170840
O O3 0.706441 0.812379 0.262551
O O4 0.469118 0.882648 0.085870
O O5 0.101523 0.727342 0.435372
O O6 0.184081 0.035707 0.574323
O O7 0.717675 0.182204 0.037036
O O8 0.084143 0.265882 0.169624
O O9 0.000000 0.460949 0.000000
O O10 0.514332 0.188699 0.270891
O O11 0.257908 0.465242 0.328545
O O12 0.582410 0.864379 0.634224
O O13 0.500000 0.557987 0.500000
#
# Coordination Sequence:
#
# PCOD8045101 Si02
#       7
#     2   1   2   2   2   1   2
#     4  11  24  45  66  92 131 169 214 264 315 382
#     4  10  20  42  68  94 132 174 210 260 320 372
#     4  12  25  42  66  96 128 166 214 264 322 382
#     4  11  24  44  68  96 128 169 216 263 317 379
#     4  10  22  41  66  97 131 168 215 264 314 374
#     4  12  26  44  66  96 128 164 212 268 324 382
#     4   9  21  40  64  97 133 169 213 262 313 373
#
# _framework density 22.614571999999999
#
# number of rings (size 3 to 8) (size 9 to 14) (size 15 to 20)
#    0.000    1.333    0.000    5.500    0.000    9.333 
#    0.000   10.000    0.000    0.000    0.000    0.000 
#    0.000    0.000    0.000    0.000    0.000    0.000 
#
# Total GULP energy -148820.398825 kJ/mol
# GULP energy per Si atom -12401.699902 kJ/mol
# Density = 2.256310 g / cm^3
# Si number density = 22.614572 Si / 1000 Ang^3
#
#
#
# Elastic Constant Matrix: (Units=GPa)
#
#
# Indices 1 2 3 4 5 6 
#
# 1 125.1189 63.2638 83.8447 0.0000 -0.1284 0.0000
# 2 63.2638 109.1852 69.8574 0.0000 6.9059 0.0000
# 3 83.8447 69.8574 160.5563 0.0000 9.8735 0.0000
# 4 0.0000 0.0000 0.0000 30.2207 0.0000 5.9563
# 5 -0.1284 6.9059 9.8735 0.0000 59.7652 0.0000
# 6 0.0000 0.0000 0.0000 5.9563 0.0000 16.8547
#
#
#
# Elastic Compliance Matrix: (Units=1/GPa)
#
#
# Indices 1 2 3 4 5 6 
#
# 1 0.013969 -0.004797 -0.005298 0.000000 0.001459 0.000000
# 2 -0.004797 0.014358 -0.003677 0.000000 -0.001062 0.000000
# 3 -0.005298 -0.003677 0.010678 0.000000 -0.001351 0.000000
# 4 0.000000 0.000000 0.000000 0.035567 0.000000 -0.012569
# 5 0.001459 -0.001062 -0.001351 0.000000 0.017081 0.000000
# 6 0.000000 0.000000 0.000000 -0.012569 0.000000 0.063773
#
#
# Mechanical properties :
#
#
# Convention : Reuss Voigt Hill
#
# Bulk Modulus (GPa) = 87.24304 92.08803 89.66553
# Shear Modulus (GPa) = 26.76820 33.22774 29.99797
#
# Velocity S-wave (km/s) = 3.44418 3.83731 3.64605
# Velocity P-wave (km/s) = 7.38096 7.77447 7.58027
#
# Compressibility (1/GPa) = 0.01146223
#
# Stress axis : x y z
#
# Youngs Moduli (GPa) = 71.58482 69.64907 93.65418
#
# Poissons Ratio (x) = 0.33410 0.49615
# Poissons Ratio (y) = 0.34339 0.34433
# Poissons Ratio (z) = 0.37923 0.25607
#
# Static dielectric constant tensor:
#      x y z
#    x 3.973400 0.000000 -0.088470 
#    y 0.000000 3.811010 0.000000 
#    z -0.088470 0.000000 4.575520 
# 
# 
# High freq. dielectric constant tensor:
#      x y z
#    x 1.890530 0.000000 -0.006350 
#    y 0.000000 1.869410 0.000000 
#    z -0.006350 0.000000 1.925310 
# 
# From -- ./inp_files/2822.got.cif
#   From: 2010.03.12/outbox.cif.g09.slc.cpg/sg3_2_cif.got.tgz:2822.got - 2010.03.31 09:20:49.
