data_PCOD8045733
_publ_section_title
;
Structure prediction by ZEFSAII (Michael W. Deem and Ramdas Pophale) SiO2 
 PCOD8045733
Probable space group: P 21
;
_chemical_formula_sum "Si O2"
_cell_formula_units_Z 16
_cell_length_a 17.825836
_cell_length_b 5.007140
_cell_length_c 10.039142
_cell_angle_alpha 90.000000
_cell_angle_beta 124.142664
_cell_angle_gamma 90.000000
_cell_volume 741.616006
_symmetry_space_group_name_H-M "P 21"
_symmetry_group_IT_number 4
_symmetry_cell_setting 'monoclinic'
loop_
_space_group_symop_operation_xyz
x,y,z
-x,1/2+y,-z
loop_
_atom_site_type_symbol
_atom_site_label
_atom_site_fract_x
_atom_site_fract_y
_atom_site_fract_z
Si Si1 0.951703 0.781680 0.259365
Si Si2 0.106529 0.691230 0.606814
Si Si3 0.487279 0.734840 0.405115
Si Si4 0.702778 0.130915 0.726448
Si Si5 0.675129 0.630373 0.519032
Si Si6 0.873211 0.402091 0.991420
Si Si7 0.820886 0.707284 0.453469
Si Si8 0.943244 0.610269 0.813691
O O1 0.874585 0.573820 0.130585
O O2 0.006600 0.655467 0.438488
O O3 0.909644 0.077748 0.257303
O O4 0.021538 0.822460 0.206725
O O5 0.181655 0.489029 0.623248
O O6 0.148678 0.985305 0.627210
O O7 0.510992 0.548096 0.557022
O O8 0.384587 0.653853 0.260733
O O9 0.567583 0.675215 0.379074
O O10 0.692479 0.337686 0.594743
O O11 0.709061 0.841643 0.664747
O O12 0.790681 0.191242 0.906101
O O13 0.724692 0.646940 0.425752
O O14 0.969636 0.272155 0.053658
O O15 0.866812 0.590054 0.852827
O O16 0.895488 0.749500 0.641436
#
# Coordination Sequence:
#
# PCOD8045733 Si02
#       8
#     2   2   2   2   2   2   2   2
#     4  11  24  40  54  74 111 162 201 246 282 330
#     4  11  24  39  56  75 106 153 210 241 277 319
#     4   8  16  32  50  77 111 153 181 216 280 351
#     4  10  21  32  54  81 120 151 184 225 286 361
#     4  10  19  34  55  80 116 151 185 233 286 343
#     4  12  23  34  54  83 117 158 192 235 292 352
#     4  11  22  37  56  81 108 152 194 246 280 331
#     4  11  23  34  51  79 115 152 191 228 289 345
#
# _framework density 21.574507000000001
#
# number of rings (size 3 to 8) (size 9 to 14) (size 15 to 20)
#    0.000    1.500    3.750    2.250    7.000    0.000 
#    0.000    0.000    0.000    0.000    0.000    0.000 
#    3.750    0.000    1.000    0.000    0.000    0.000 
#
# Total GULP energy -198225.659094 kJ/mol
# GULP energy per Si atom -12389.103693 kJ/mol
# Density = 2.152540 g / cm^3
# Si number density = 21.574507 Si / 1000 Ang^3
#
#
#
# Elastic Constant Matrix: (Units=GPa)
#
#
# Indices 1 2 3 4 5 6 
#
# 1 131.3426 8.5175 18.4880 0.0000 10.3294 0.0000
# 2 8.5175 80.2010 6.8811 0.0000 1.7757 0.0000
# 3 18.4880 6.8811 36.2441 0.0000 -0.0169 0.0000
# 4 0.0000 0.0000 0.0000 14.6436 0.0000 0.9822
# 5 10.3294 1.7757 -0.0169 0.0000 19.7369 0.0000
# 6 0.0000 0.0000 0.0000 0.9822 0.0000 31.3064
#
#
#
# Elastic Compliance Matrix: (Units=1/GPa)
#
#
# Indices 1 2 3 4 5 6 
#
# 1 0.008599 -0.000445 -0.004304 0.000000 -0.004464 0.000000
# 2 -0.000445 0.012724 -0.002189 0.000000 -0.000914 0.000000
# 3 -0.004304 -0.002189 0.030203 0.000000 0.002475 0.000000
# 4 0.000000 0.000000 0.000000 0.068433 0.000000 -0.002147
# 5 -0.004464 -0.000914 0.002475 0.000000 0.053087 0.000000
# 6 0.000000 0.000000 0.000000 -0.002147 0.000000 0.032010
#
#
# Mechanical properties :
#
#
# Convention : Reuss Voigt Hill
#
# Bulk Modulus (GPa) = 26.56059 35.06230 30.81145
# Shear Modulus (GPa) = 21.59986 27.39748 24.49867
#
# Velocity S-wave (km/s) = 3.16757 3.56743 3.37343
# Velocity P-wave (km/s) = 5.07108 5.76678 5.43008
#
# Compressibility (1/GPa) = 0.03764977
#
# Stress axis : x y z
#
# Youngs Moduli (GPa) = 116.28602 78.59165 33.10933
#
# Poissons Ratio (x) = 0.03498 0.14251
# Poissons Ratio (y) = 0.05176 0.07248
# Poissons Ratio (z) = 0.50051 0.17204
#
# Static dielectric constant tensor:
#      x y z
#    x 4.202390 0.000000 0.023940 
#    y 0.000000 4.025260 0.000000 
#    z 0.023940 0.000000 3.579280 
# 
# 
# High freq. dielectric constant tensor:
#      x y z
#    x 1.847200 0.000000 -0.007810 
#    y 0.000000 1.869640 0.000000 
#    z -0.007810 0.000000 1.786090 
# 
# From -- ./inp_files/9409.got.cif
#   From: 2010.03.12/outbox.cif.g09.slc.cpg/sg4_5_cif.got.tgz:9409.got - 2010.03.31 09:31:35.
