data_PCOD8045743
_publ_section_title
;
Structure prediction by ZEFSAII (Michael W. Deem and Ramdas Pophale) SiO2 
 PCOD8045743
Probable space group: P 21
;
_chemical_formula_sum "Si O2"
_cell_formula_units_Z 10
_cell_length_a 10.682077
_cell_length_b 5.095629
_cell_length_c 10.224029
_cell_angle_alpha 90.000000
_cell_angle_beta 70.578888
_cell_angle_gamma 90.000000
_cell_volume 524.847841
_symmetry_space_group_name_H-M "P 21"
_symmetry_group_IT_number 4
_symmetry_cell_setting 'monoclinic'
loop_
_space_group_symop_operation_xyz
x,y,z
-x,1/2+y,-z
loop_
_atom_site_type_symbol
_atom_site_label
_atom_site_fract_x
_atom_site_fract_y
_atom_site_fract_z
Si Si1 0.131344 0.944570 0.340171
Si Si2 0.589651 0.874726 0.118902
Si Si3 0.675220 0.373764 0.948199
Si Si4 0.167901 0.443775 0.492446
Si Si5 0.575936 0.873068 0.429070
O O1 0.185811 0.909697 0.174751
O O2 0.189198 0.723563 0.416719
O O3 0.972812 0.924496 0.385530
O O4 0.179146 0.224779 0.376487
O O5 0.439491 0.891040 0.120479
O O6 0.587059 0.928150 0.272533
O O7 0.655779 0.595749 0.064608
O O8 0.678346 0.095653 0.018838
O O9 0.278321 0.401923 0.562652
O O10 0.523415 0.580319 0.470972
#
# Coordination Sequence:
#
# PCOD8045743 Si02
#       5
#     2   2   2   2   2
#     4  10  20  37  59  80 108 145 182 225 264 315
#     4  10  21  33  52  79 106 139 181 217 263 324
#     4  10  19  35  53  75 107 142 179 219 261 314
#     4  10  21  36  57  84 108 140 187 221 266 324
#     4  12  23  37  57  82 113 142 175 228 278 317
#
# _framework density 19.053141
#
# number of rings (size 3 to 8) (size 9 to 14) (size 15 to 20)
#    0.000    1.600    0.000    6.000    0.000    3.200 
#    0.000    2.000    0.000    0.000    0.000    0.000 
#    0.000    0.000    0.000    0.000    0.000    0.000 
#
# Total GULP energy -124069.839110 kJ/mol
# GULP energy per Si atom -12406.983911 kJ/mol
# Density = 1.900977 g / cm^3
# Si number density = 19.053141 Si / 1000 Ang^3
#
#
#
# Elastic Constant Matrix: (Units=GPa)
#
#
# Indices 1 2 3 4 5 6 
#
# 1 75.9361 20.8413 38.0308 0.0000 9.8042 0.0000
# 2 20.8413 72.9616 -0.4314 0.0000 -4.5085 0.0000
# 3 38.0308 -0.4314 103.6917 0.0000 -5.3414 0.0000
# 4 0.0000 0.0000 0.0000 23.4070 0.0000 -4.4665
# 5 9.8042 -4.5085 -5.3414 0.0000 29.2694 0.0000
# 6 0.0000 0.0000 0.0000 -4.4665 0.0000 21.6335
#
#
#
# Elastic Compliance Matrix: (Units=1/GPa)
#
#
# Indices 1 2 3 4 5 6 
#
# 1 0.020001 -0.006322 -0.007831 0.000000 -0.009103 0.000000
# 2 -0.006322 0.015839 0.002644 0.000000 0.005040 0.000000
# 3 -0.007831 0.002644 0.012804 0.000000 0.005367 0.000000
# 4 0.000000 0.000000 0.000000 0.044474 0.000000 0.009182
# 5 -0.009103 0.005040 0.005367 0.000000 0.038970 0.000000
# 6 0.000000 0.000000 0.000000 0.009182 0.000000 0.048120
#
#
# Mechanical properties :
#
#
# Convention : Reuss Voigt Hill
#
# Bulk Modulus (GPa) = 39.02289 41.05228 40.03759
# Shear Modulus (GPa) = 23.61066 27.80523 25.70795
#
# Velocity S-wave (km/s) = 3.52405 3.82429 3.67723
# Velocity P-wave (km/s) = 6.08967 6.41040 6.25209
#
# Compressibility (1/GPa) = 0.02562598
#
# Stress axis : x y z
#
# Youngs Moduli (GPa) = 49.99647 63.13606 78.10281
#
# Poissons Ratio (x) = 0.39915 0.61163
# Poissons Ratio (y) = 0.31608 -0.20653
# Poissons Ratio (z) = 0.39153 -0.16695
#
# Static dielectric constant tensor:
#      x y z
#    x 3.374590 0.000000 -0.136680 
#    y 0.000000 3.779330 0.000000 
#    z -0.136680 0.000000 3.366540 
# 
# 
# High freq. dielectric constant tensor:
#      x y z
#    x 1.721970 0.000000 -0.011880 
#    y 0.000000 1.763720 0.000000 
#    z -0.011880 0.000000 1.742590 
# 
# From -- ./inp_files/5065.got.cif
#   From: 2010.03.12/outbox.cif.g09.slc.cpg/sg4_3_cif.got.tgz:5065.got - 2010.03.31 09:31:35.
