data_PCOD8045192
_publ_section_title
;
Structure prediction by ZEFSAII (Michael W. Deem and Ramdas Pophale) SiO2 
 PCOD8045192
Probable space group: P 2
;
_chemical_formula_sum "Si O2"
_cell_formula_units_Z 12
_cell_length_a 21.589980
_cell_length_b 5.198562
_cell_length_c 9.985164
_cell_angle_alpha 90.000000
_cell_angle_beta 29.129938
_cell_angle_gamma 90.000000
_cell_volume 545.549285
_symmetry_space_group_name_H-M "P 2"
_symmetry_group_IT_number 3
_symmetry_cell_setting 'monoclinic'
loop_
_space_group_symop_operation_xyz
x,y,z
-x,y,-z
loop_
_atom_site_type_symbol
_atom_site_label
_atom_site_fract_x
_atom_site_fract_y
_atom_site_fract_z
Si Si1 0.023560 0.483430 0.611650
Si Si2 0.259113 0.471085 0.790965
Si Si3 0.466466 0.586541 0.217841
Si Si4 0.350523 0.970458 0.765468
Si Si5 0.182834 0.981445 0.346305
Si Si6 0.572971 0.087557 0.001664
O O1 0.118107 0.704375 0.484321
O O2 0.000000 0.526429 0.500000
O O3 0.076615 0.200588 0.539950
O O4 0.891318 0.509133 0.940098
O O5 0.320043 0.517819 0.527585
O O6 0.291460 0.184445 0.778320
O O7 0.320852 0.682084 0.772365
O O8 0.554482 0.359367 0.113695
O O9 0.504967 0.857522 0.214846
O O10 0.500000 0.642293 0.000000
O O11 0.500000 0.015842 0.500000
O O12 0.277826 0.005852 0.042625
O O13 0.276246 0.026346 0.298544
O O14 0.500000 0.140320 0.000000
#
# Coordination Sequence:
#
# PCOD8045192 Si02
#       6
#     2   2   2   2   2   2
#     4  12  23  40  59  88 134 176 200 239 298 389
#     4  12  23  38  59  89 127 165 202 248 307 369
#     4  10  21  40  64  87 117 160 208 262 318 349
#     4  12  23  35  58  92 127 157 205 251 307 376
#     4  12  22  39  62  90 128 169 205 247 311 369
#     4  10  22  41  66  90 117 160 211 266 316 353
#
# _framework density 21.996179999999999
#
# number of rings (size 3 to 8) (size 9 to 14) (size 15 to 20)
#    0.000    0.667    3.333    6.000    0.000    0.000 
#    0.000    0.000    0.000   24.000    0.000    0.000 
#    0.000    0.000    0.000    0.000    0.000    0.000 
#
# Total GULP energy -148728.777210 kJ/mol
# GULP energy per Si atom -12394.064768 kJ/mol
# Density = 2.194612 g / cm^3
# Si number density = 21.996180 Si / 1000 Ang^3
#
#
#
# Elastic Constant Matrix: (Units=GPa)
#
#
# Indices 1 2 3 4 5 6 
#
# 1 51.3695 -6.2765 21.2036 0.0000 -7.4187 0.0000
# 2 -6.2765 138.7478 10.4746 0.0000 -2.7684 0.0000
# 3 21.2036 10.4746 152.9163 0.0000 0.9653 0.0000
# 4 0.0000 0.0000 0.0000 42.6796 0.0000 -12.0826
# 5 -7.4187 -2.7684 0.9653 0.0000 33.9419 0.0000
# 6 0.0000 0.0000 0.0000 -12.0826 0.0000 10.9417
#
#
#
# Elastic Compliance Matrix: (Units=1/GPa)
#
#
# Indices 1 2 3 4 5 6 
#
# 1 0.021626 0.001312 -0.003120 0.000000 0.004922 0.000000
# 2 0.001312 0.007337 -0.000690 0.000000 0.000905 0.000000
# 3 -0.003120 -0.000690 0.007025 0.000000 -0.000938 0.000000
# 4 0.000000 0.000000 0.000000 0.034086 0.000000 0.037641
# 5 0.004922 0.000905 -0.000938 0.000000 0.030639 0.000000
# 6 0.000000 0.000000 0.000000 0.037641 0.000000 0.132959
#
#
# Mechanical properties :
#
#
# Convention : Reuss Voigt Hill
#
# Bulk Modulus (GPa) = 32.26618 43.75967 38.01292
# Shear Modulus (GPa) = 20.08051 38.68811 29.38431
#
# Velocity S-wave (km/s) = 3.02472 4.19842 3.65894
# Velocity P-wave (km/s) = 5.18646 6.59088 5.93039
#
# Compressibility (1/GPa) = 0.03099220
#
# Stress axis : x y z
#
# Youngs Moduli (GPa) = 46.24135 136.29862 142.34282
#
# Poissons Ratio (x) = -0.17882 0.44405
# Poissons Ratio (y) = -0.06067 0.09824
# Poissons Ratio (z) = 0.14425 0.09407
#
# Static dielectric constant tensor:
#      x y z
#    x 3.815300 0.000000 -0.022440 
#    y 0.000000 4.776030 0.000000 
#    z -0.022440 0.000000 4.266540 
# 
# 
# High freq. dielectric constant tensor:
#      x y z
#    x 1.825660 0.000000 -0.006390 
#    y 0.000000 1.906000 0.000000 
#    z -0.006390 0.000000 1.871090 
# 
# From -- ./inp_files/6537.got.cif
#   From: 2010.03.12/outbox.cif.g09.slc.cpg/sg3_4_cif.got.tgz:6537.got - 2010.03.31 09:20:49.
