data_PCOD8045292
_publ_section_title
;
Structure prediction by ZEFSAII (Michael W. Deem and Ramdas Pophale) SiO2 
 PCOD8045292
Probable space group: P 2
;
_chemical_formula_sum "Si O2"
_cell_formula_units_Z 12
_cell_length_a 14.375608
_cell_length_b 6.199154
_cell_length_c 6.161986
_cell_angle_alpha 90.000000
_cell_angle_beta 105.254170
_cell_angle_gamma 90.000000
_cell_volume 529.788253
_symmetry_space_group_name_H-M "P 2"
_symmetry_group_IT_number 3
_symmetry_cell_setting 'monoclinic'
loop_
_space_group_symop_operation_xyz
x,y,z
-x,y,-z
loop_
_atom_site_type_symbol
_atom_site_label
_atom_site_fract_x
_atom_site_fract_y
_atom_site_fract_z
Si Si1 0.577783 0.104110 0.873017
Si Si2 0.077395 0.897254 0.710490
Si Si3 0.500000 0.758108 0.500000
Si Si4 0.249094 0.180916 0.736235
Si Si5 0.343024 0.432690 0.407505
Si Si6 0.168590 0.511406 0.014891
Si Si7 0.000000 0.218852 0.000000
O O1 0.590571 0.302332 0.718602
O O2 0.541503 0.893669 0.725341
O O3 0.500000 0.180974 0.000000
O O4 0.678491 0.056389 0.056331
O O5 0.118195 0.731609 0.911519
O O6 0.000000 0.785941 0.500000
O O7 0.165279 0.008086 0.631271
O O8 0.016659 0.079025 0.796559
O O9 0.412544 0.616407 0.548471
O O10 0.304685 0.259143 0.556961
O O11 0.205380 0.392394 0.822031
O O12 0.255493 0.555513 0.234120
O O13 0.093024 0.366474 0.102043
#
# Coordination Sequence:
#
# PCOD8045292 Si02
#       7
#     2   2   1   2   2   2   1
#     4  11  24  43  64  92 128 164 212 262 316 378
#     4  11  23  40  66  95 127 169 214 261 316 375
#     4  12  24  38  66  96 124 166 210 264 320 376
#     4  10  23  42  64  93 129 168 211 263 315 375
#     4  11  24  44  66  92 128 169 212 261 318 377
#     4  10  23  40  64  96 129 166 213 264 314 374
#     4  10  22  42  62  90 130 170 208 260 314 370
#
# _framework density 22.650561
#
# number of rings (size 3 to 8) (size 9 to 14) (size 15 to 20)
#    0.000    1.333    0.000    5.000    0.000   11.333 
#    0.000    0.000    0.000    0.000    0.000    0.000 
#    0.000    0.000    0.000    0.000    0.000    0.000 
#
# Total GULP energy -148835.696468 kJ/mol
# GULP energy per Si atom -12402.974706 kJ/mol
# Density = 2.259901 g / cm^3
# Si number density = 22.650561 Si / 1000 Ang^3
#
#
#
# Elastic Constant Matrix: (Units=GPa)
#
#
# Indices 1 2 3 4 5 6 
#
# 1 144.4558 69.5679 61.4312 0.0000 1.0606 0.0000
# 2 69.5679 113.3483 60.4907 0.0000 15.9244 0.0000
# 3 61.4312 60.4907 113.9072 0.0000 17.9852 0.0000
# 4 0.0000 0.0000 0.0000 29.9756 0.0000 13.8113
# 5 1.0606 15.9244 17.9852 0.0000 52.1559 0.0000
# 6 0.0000 0.0000 0.0000 13.8113 0.0000 30.1306
#
#
#
# Elastic Compliance Matrix: (Units=1/GPa)
#
#
# Indices 1 2 3 4 5 6 
#
# 1 0.010894 -0.005157 -0.003543 0.000000 0.002575 0.000000
# 2 -0.005157 0.014879 -0.004674 0.000000 -0.002826 0.000000
# 3 -0.003543 -0.004674 0.013680 0.000000 -0.003218 0.000000
# 4 0.000000 0.000000 0.000000 0.042293 0.000000 -0.019386
# 5 0.002575 -0.002826 -0.003218 0.000000 0.021094 0.000000
# 6 0.000000 0.000000 0.000000 -0.019386 0.000000 0.042075
#
#
# Mechanical properties :
#
#
# Convention : Reuss Voigt Hill
#
# Bulk Modulus (GPa) = 78.71056 83.85453 81.28255
# Shear Modulus (GPa) = 28.42563 34.46720 31.44642
#
# Velocity S-wave (km/s) = 3.54639 3.90512 3.73007
# Velocity P-wave (km/s) = 7.18293 7.57856 7.38340
#
# Compressibility (1/GPa) = 0.01270478
#
# Stress axis : x y z
#
# Youngs Moduli (GPa) = 91.79422 67.20883 73.09854
#
# Poissons Ratio (x) = 0.34660 0.25899
# Poissons Ratio (y) = 0.47339 0.34166
# Poissons Ratio (z) = 0.32523 0.31413
#
# Static dielectric constant tensor:
#      x y z
#    x 4.432280 0.000000 0.183310 
#    y 0.000000 3.867960 0.000000 
#    z 0.183310 0.000000 3.931000 
# 
# 
# High freq. dielectric constant tensor:
#      x y z
#    x 1.919480 0.000000 0.012260 
#    y 0.000000 1.883870 0.000000 
#    z 0.012260 0.000000 1.886490 
# 
# From -- ./inp_files/2707.got.cif
#   From: 2010.03.12/outbox.cif.g09.slc.cpg/sg3_2_cif.got.tgz:2707.got - 2010.03.31 09:20:49.
