data_PCOD8045826
_publ_section_title
;
Structure prediction by ZEFSAII (Michael W. Deem and Ramdas Pophale) SiO2 
 PCOD8045826
Probable space group: P 21
;
_chemical_formula_sum "Si O2"
_cell_formula_units_Z 16
_cell_length_a 8.385592
_cell_length_b 5.098031
_cell_length_c 17.902815
_cell_angle_alpha 90.000000
_cell_angle_beta 123.647322
_cell_angle_gamma 90.000000
_cell_volume 637.122484
_symmetry_space_group_name_H-M "P 21"
_symmetry_group_IT_number 4
_symmetry_cell_setting 'monoclinic'
loop_
_space_group_symop_operation_xyz
x,y,z
-x,1/2+y,-z
loop_
_atom_site_type_symbol
_atom_site_label
_atom_site_fract_x
_atom_site_fract_y
_atom_site_fract_z
Si Si1 0.516117 0.856480 0.956264
Si Si2 0.816772 0.483814 0.218195
Si Si3 0.711641 0.449164 0.435240
Si Si4 0.832805 0.124523 0.774623
Si Si5 0.607130 0.616861 0.688828
Si Si6 0.010615 0.687627 0.601380
Si Si7 0.338333 0.325055 0.706060
Si Si8 0.120461 0.542503 0.044605
O O1 0.329052 0.777468 0.857482
O O2 0.701395 0.950450 0.958812
O O3 0.564072 0.597372 0.014862
O O4 0.961360 0.354068 0.315836
O O5 0.659827 0.681514 0.214437
O O6 0.945377 0.641399 0.192105
O O7 0.906717 0.345110 0.447856
O O8 0.600399 0.632098 0.346467
O O9 0.786072 0.611546 0.527495
O O10 0.558796 0.214177 0.413714
O O11 0.766955 0.833690 0.737848
O O12 0.811196 0.162162 0.857975
O O13 0.718754 0.348259 0.698172
O O14 0.488817 0.566999 0.736967
O O15 0.120467 0.414394 0.638440
O O16 0.012787 0.785745 0.976148
#
# Coordination Sequence:
#
# PCOD8045826 Si02
#       8
#     2   2   2   2   2   2   2   2
#     4  12  28  49  78 111 151 191 249 312 366 438
#     4  11  27  43  73 109 148 194 251 307 369 437
#     4  10  19  39  69 107 139 186 243 310 363 433
#     4  12  26  46  71 103 149 194 247 301 371 443
#     4  11  24  42  70 101 139 193 241 302 363 442
#     4  10  21  37  71 106 146 182 249 306 369 425
#     4  10  21  41  70 102 139 180 250 295 369 421
#     4  12  26  49  76 109 151 200 240 299 380 449
#
# _framework density 25.112912999999999
#
# number of rings (size 3 to 8) (size 9 to 14) (size 15 to 20)
#    0.000    1.000    2.500    3.750    7.000    0.000 
#    0.000    0.000    5.500    0.000    0.000    0.000 
#    0.000    0.000    0.000    0.000    0.000    0.000 
#
# Total GULP energy -198251.515008 kJ/mol
# GULP energy per Si atom -12390.719688 kJ/mol
# Density = 2.505576 g / cm^3
# Si number density = 25.112913 Si / 1000 Ang^3
#
#
#
# Elastic Constant Matrix: (Units=GPa)
#
#
# Indices 1 2 3 4 5 6 
#
# 1 83.2026 14.1575 20.6891 0.0000 11.1276 0.0000
# 2 14.1575 113.0674 16.2021 0.0000 6.6436 0.0000
# 3 20.6891 16.2021 71.3405 0.0000 5.9484 0.0000
# 4 0.0000 0.0000 0.0000 36.5435 0.0000 15.2343
# 5 11.1276 6.6436 5.9484 0.0000 26.0216 0.0000
# 6 0.0000 0.0000 0.0000 15.2343 0.0000 26.8458
#
#
#
# Elastic Compliance Matrix: (Units=1/GPa)
#
#
# Indices 1 2 3 4 5 6 
#
# 1 0.013658 -0.000947 -0.003343 0.000000 -0.004835 0.000000
# 2 -0.000947 0.009300 -0.001706 0.000000 -0.001579 0.000000
# 3 -0.003343 -0.001706 0.015514 0.000000 -0.001682 0.000000
# 4 0.000000 0.000000 0.000000 0.035844 0.000000 -0.020341
# 5 -0.004835 -0.001579 -0.001682 0.000000 0.041285 0.000000
# 6 0.000000 0.000000 0.000000 -0.020341 0.000000 0.048793
#
#
# Mechanical properties :
#
#
# Convention : Reuss Voigt Hill
#
# Bulk Modulus (GPa) = 37.76270 41.07867 39.42068
# Shear Modulus (GPa) = 26.99611 32.31962 29.65787
#
# Velocity S-wave (km/s) = 3.28226 3.59133 3.44027
# Velocity P-wave (km/s) = 5.42532 5.79569 5.61356
#
# Compressibility (1/GPa) = 0.02648116
#
# Stress axis : x y z
#
# Youngs Moduli (GPa) = 73.21844 107.52568 64.45672
#
# Poissons Ratio (x) = 0.10184 0.21545
# Poissons Ratio (y) = 0.06934 0.10995
# Poissons Ratio (z) = 0.24474 0.18342
#
# Static dielectric constant tensor:
#      x y z
#    x 4.318080 0.000000 0.102190 
#    y 0.000000 4.639360 0.000000 
#    z 0.102190 0.000000 4.422730 
# 
# 
# High freq. dielectric constant tensor:
#      x y z
#    x 1.989390 0.000000 0.023620 
#    y 0.000000 2.010160 0.000000 
#    z 0.023620 0.000000 1.986010 
# 
# From -- ./inp_files/13455.got.cif
#   From: 2010.03.12/outbox.cif.g09.slc.cpg/sg4_7_cif.got.tgz:13455.got - 2010.03.31 09:31:35.
