data_PCOD8045447
_publ_section_title
;
Structure prediction by ZEFSAII (Michael W. Deem and Ramdas Pophale) SiO2 
 PCOD8045447
Probable space group: P 2
;
_chemical_formula_sum "Si O2"
_cell_formula_units_Z 11
_cell_length_a 7.676706
_cell_length_b 5.217414
_cell_length_c 11.478452
_cell_angle_alpha 90.000000
_cell_angle_beta 83.411364
_cell_angle_gamma 90.000000
_cell_volume 456.704969
_symmetry_space_group_name_H-M "P 2"
_symmetry_group_IT_number 3
_symmetry_cell_setting 'monoclinic'
loop_
_space_group_symop_operation_xyz
x,y,z
-x,y,-z
loop_
_atom_site_type_symbol
_atom_site_label
_atom_site_fract_x
_atom_site_fract_y
_atom_site_fract_z
Si Si1 0.777618 0.423150 0.196417
Si Si2 0.386599 0.365711 0.274733
Si Si3 0.074522 0.727363 0.604322
Si Si4 0.081332 0.059280 0.198859
Si Si5 0.355777 0.869157 0.423581
Si Si6 0.000000 0.733303 0.000000
O O1 0.570696 0.386646 0.190661
O O2 0.806854 0.573174 0.314984
O O3 0.881033 0.156742 0.201480
O O4 0.858644 0.566064 0.079552
O O5 0.225416 0.284280 0.200611
O O6 0.331322 0.637218 0.332146
O O7 0.415002 0.136475 0.363369
O O8 0.189554 0.927023 0.519951
O O9 0.000000 0.552826 0.500000
O O10 0.918174 0.880226 0.685103
O O11 0.119487 0.899885 0.079155
O O12 0.500000 0.762021 0.500000
#
# Coordination Sequence:
#
# PCOD8045447 Si02
#       6
#     2   2   2   2   2   1
#     4  11  25  48  74 106 149 200 251 323 375 453
#     4  12  27  45  78 110 155 195 258 305 382 450
#     4  11  22  41  70 109 159 199 241 299 382 455
#     4  11  25  47  75 107 146 200 256 315 379 454
#     4  12  24  44  67 115 158 200 238 303 370 469
#     4  10  26  52  76 104 148 198 268 324 396 432
#
# _framework density 24.085570000000001
#
# number of rings (size 3 to 8) (size 9 to 14) (size 15 to 20)
#    0.000    0.727    3.636    3.273    7.636    0.727 
#    0.000    5.455    0.000    0.000    0.000    0.000 
#    0.000    0.000    0.000    0.000    0.000    0.000 
#
# Total GULP energy -136308.017168 kJ/mol
# GULP energy per Si atom -12391.637924 kJ/mol
# Density = 2.403075 g / cm^3
# Si number density = 24.085570 Si / 1000 Ang^3
#
#
#
# Elastic Constant Matrix: (Units=GPa)
#
#
# Indices 1 2 3 4 5 6 
#
# 1 138.5336 29.7379 52.2270 0.0000 -25.2036 0.0000
# 2 29.7379 104.1460 47.9450 0.0000 -10.4716 0.0000
# 3 52.2270 47.9450 166.1038 0.0000 -5.2447 0.0000
# 4 0.0000 0.0000 0.0000 26.2640 0.0000 5.3216
# 5 -25.2036 -10.4716 -5.2447 0.0000 36.7958 0.0000
# 6 0.0000 0.0000 0.0000 5.3216 0.0000 42.8599
#
#
#
# Elastic Compliance Matrix: (Units=1/GPa)
#
#
# Indices 1 2 3 4 5 6 
#
# 1 0.009428 -0.000953 -0.002505 0.000000 0.005830 0.000000
# 2 -0.000953 0.011445 -0.002935 0.000000 0.002186 0.000000
# 3 -0.002505 -0.002935 0.007609 0.000000 -0.001467 0.000000
# 4 0.000000 0.000000 0.000000 0.039057 0.000000 -0.004849
# 5 0.005830 0.002186 -0.001467 0.000000 0.031583 0.000000
# 6 0.000000 0.000000 0.000000 -0.004849 0.000000 0.023934
#
#
# Mechanical properties :
#
#
# Convention : Reuss Voigt Hill
#
# Bulk Modulus (GPa) = 63.71027 74.28924 68.99975
# Shear Modulus (GPa) = 35.44232 39.77553 37.60892
#
# Velocity S-wave (km/s) = 3.84020 4.06818 3.95583
# Velocity P-wave (km/s) = 6.79499 7.27857 7.04093
#
# Compressibility (1/GPa) = 0.01569606
#
# Stress axis : x y z
#
# Youngs Moduli (GPa) = 106.06632 87.37543 131.42438
#
# Poissons Ratio (x) = 0.08323 0.32927
# Poissons Ratio (y) = 0.10103 0.38573
# Poissons Ratio (z) = 0.26574 0.25644
#
# Static dielectric constant tensor:
#      x y z
#    x 4.819650 0.000000 0.038250 
#    y 0.000000 4.134550 0.000000 
#    z 0.038250 0.000000 4.439980 
# 
# 
# High freq. dielectric constant tensor:
#      x y z
#    x 1.971170 0.000000 0.004070 
#    y 0.000000 1.946350 0.000000 
#    z 0.004070 0.000000 1.959350 
# 
# From -- ./inp_files/10094.got.cif
#   From: 2010.03.12/outbox.cif.g09.slc.cpg/sg3_6_cif.got.tgz:10094.got - 2010.03.31 09:20:49.
