data_PCOD8045383
_publ_section_title
;
Structure prediction by ZEFSAII (Michael W. Deem and Ramdas Pophale) SiO2 
 PCOD8045383
Probable space group: P 2
;
_chemical_formula_sum "Si O2"
_cell_formula_units_Z 15
_cell_length_a 10.012447
_cell_length_b 5.161997
_cell_length_c 20.898825
_cell_angle_alpha 90.000000
_cell_angle_beta 35.203099
_cell_angle_gamma 90.000000
_cell_volume 622.675051
_symmetry_space_group_name_H-M "P 2"
_symmetry_group_IT_number 3
_symmetry_cell_setting 'monoclinic'
loop_
_space_group_symop_operation_xyz
x,y,z
-x,y,-z
loop_
_atom_site_type_symbol
_atom_site_label
_atom_site_fract_x
_atom_site_fract_y
_atom_site_fract_z
Si Si1 0.500000 0.669190 0.500000
Si Si2 0.819971 0.541745 0.923085
Si Si3 0.689543 0.650437 0.839080
Si Si4 0.091107 0.058486 0.828374
Si Si5 0.595255 0.094179 0.669107
Si Si6 0.237511 0.347228 0.513519
Si Si7 0.921219 0.041037 0.308511
Si Si8 0.209608 0.588110 0.343983
O O1 0.466649 0.494579 0.448993
O O2 0.735647 0.824863 0.400942
O O3 0.795820 0.478603 0.855990
O O4 0.905794 0.277596 0.924774
O O5 0.585198 0.661544 0.043334
O O6 0.002889 0.766583 0.865035
O O7 0.731659 0.538401 0.752931
O O8 0.815200 0.930882 0.795257
O O9 0.320686 0.052781 0.781700
O O10 0.152141 0.145037 0.732172
O O11 0.683743 0.101685 0.560563
O O12 0.638837 0.382389 0.677285
O O13 0.732659 0.879135 0.655723
O O14 0.066533 0.534786 0.538978
O O15 0.091778 0.261927 0.633015
#
# Coordination Sequence:
#
# PCOD8045383 Si02
#       8
#     1   2   2   2   2   2   2   2
#     4  12  24  42  72 112 136 192 240 310 362 430
#     4  10  24  44  77 106 131 177 226 317 358 429
#     4  10  23  46  72 104 139 174 238 288 378 417
#     4  11  24  46  70 104 140 177 240 290 367 405
#     4  12  29  46  69  98 146 195 241 279 340 426
#     4  12  27  44  70 104 146 193 242 297 359 430
#     4  11  24  43  73 105 147 183 233 314 364 428
#     4  12  27  47  68  99 143 194 233 283 340 435
#
# _framework density 24.089611000000001
#
# number of rings (size 3 to 8) (size 9 to 14) (size 15 to 20)
#    0.000    0.800    1.333    4.800    9.333    9.600 
#    0.000    4.000    0.000    0.000    0.000    0.000 
#    0.000    0.000    0.000    0.000    0.000    0.000 
#
# Total GULP energy -185966.283849 kJ/mol
# GULP energy per Si atom -12397.752257 kJ/mol
# Density = 2.403478 g / cm^3
# Si number density = 24.089611 Si / 1000 Ang^3
#
#
#
# Elastic Constant Matrix: (Units=GPa)
#
#
# Indices 1 2 3 4 5 6 
#
# 1 102.9389 33.4287 29.2811 0.0000 -28.7808 0.0000
# 2 33.4287 90.9211 12.1135 0.0000 -6.9620 0.0000
# 3 29.2811 12.1135 68.0578 0.0000 -15.2767 0.0000
# 4 0.0000 0.0000 0.0000 19.7843 0.0000 -5.6846
# 5 -28.7808 -6.9620 -15.2767 0.0000 33.5042 0.0000
# 6 0.0000 0.0000 0.0000 -5.6846 0.0000 39.0647
#
#
#
# Elastic Compliance Matrix: (Units=1/GPa)
#
#
# Indices 1 2 3 4 5 6 
#
# 1 0.014969 -0.004259 -0.003336 0.000000 0.010453 0.000000
# 2 -0.004259 0.012554 -0.000711 0.000000 -0.001374 0.000000
# 3 -0.003336 -0.000711 0.017355 0.000000 0.004900 0.000000
# 4 0.000000 0.000000 0.000000 0.052751 0.000000 0.007676
# 5 0.010453 -0.001374 0.004900 0.000000 0.040775 0.000000
# 6 0.000000 0.000000 0.000000 0.007676 0.000000 0.026716
#
#
# Mechanical properties :
#
#
# Convention : Reuss Voigt Hill
#
# Bulk Modulus (GPa) = 35.37656 45.72939 40.55298
# Shear Modulus (GPa) = 26.15728 30.94360 28.55044
#
# Velocity S-wave (km/s) = 3.29877 3.58791 3.44637
# Velocity P-wave (km/s) = 5.40615 6.01568 5.71904
#
# Compressibility (1/GPa) = 0.02826730
#
# Stress axis : x y z
#
# Youngs Moduli (GPa) = 66.80541 79.65696 57.62038
#
# Poissons Ratio (x) = 0.33924 0.19222
# Poissons Ratio (y) = 0.28451 0.04094
# Poissons Ratio (z) = 0.22286 0.05660
#
# Static dielectric constant tensor:
#      x y z
#    x 4.501060 0.000000 -0.004890 
#    y 0.000000 4.150980 0.000000 
#    z -0.004890 0.000000 4.331290 
# 
# 
# High freq. dielectric constant tensor:
#      x y z
#    x 1.964030 0.000000 -0.013000 
#    y 0.000000 1.955240 0.000000 
#    z -0.013000 0.000000 1.946340 
# 
# From -- ./inp_files/15663.got.cif
#   From: 2010.03.12/outbox.cif.g09.slc.cpg/sg3_8_cif.got.tgz:15663.got - 2010.03.31 09:20:49.
