data_PCOD8045705
_publ_section_title
;
Structure prediction by ZEFSAII (Michael W. Deem and Ramdas Pophale) SiO2 
 PCOD8045705
Probable space group: P 21
;
_chemical_formula_sum "Si O2"
_cell_formula_units_Z 16
_cell_length_a 8.826202
_cell_length_b 9.579446
_cell_length_c 11.384359
_cell_angle_alpha 90.000000
_cell_angle_beta 115.637160
_cell_angle_gamma 90.000000
_cell_volume 867.788057
_symmetry_space_group_name_H-M "P 21"
_symmetry_group_IT_number 4
_symmetry_cell_setting 'monoclinic'
loop_
_space_group_symop_operation_xyz
x,y,z
-x,1/2+y,-z
loop_
_atom_site_type_symbol
_atom_site_label
_atom_site_fract_x
_atom_site_fract_y
_atom_site_fract_z
Si Si1 0.644845 0.474960 0.375610
Si Si2 0.292089 0.596632 0.237254
Si Si3 0.008107 0.099968 0.548507
Si Si4 0.045813 0.591929 0.730264
Si Si5 0.833917 0.327708 0.633940
Si Si6 0.351877 0.918294 0.884641
Si Si7 0.640166 0.127137 0.009399
Si Si8 0.973408 0.905311 0.742554
O O1 0.474205 0.555768 0.348241
O O2 0.793175 0.589446 0.411933
O O3 0.684188 0.368181 0.494384
O O4 0.626397 0.390080 0.247581
O O5 0.237612 0.738101 0.283401
O O6 0.164192 0.469109 0.216436
O O7 0.291416 0.624978 0.099414
O O8 0.907824 0.098507 0.392224
O O9 0.974004 0.241565 0.608486
O O10 0.944617 0.965755 0.601534
O O11 0.216989 0.565520 0.857888
O O12 0.918558 0.466148 0.716046
O O13 0.958807 0.737816 0.738834
O O14 0.410613 0.782546 0.973288
O O15 0.157989 0.953793 0.848571
O O16 0.468552 0.042780 0.967449
#
# Coordination Sequence:
#
# PCOD8045705 Si02
#       8
#     2   2   2   2   2   2   2   2
#     4   9  19  36  56  79 108 137 175 221 268 305
#     4  10  22  37  53  77 113 146 167 213 272 317
#     4   9  17  34  58  80 105 136 175 223 265 305
#     4  10  19  32  55  82 104 137 183 220 253 312
#     4  10  20  35  57  82 104 136 182 219 259 314
#     4   9  19  37  57  77 103 141 180 219 258 310
#     4  10  21  37  55  78 108 138 178 218 262 316
#     4   9  19  36  55  75 109 143 170 215 277 311
#
# _framework density 18.437681000000001
#
# number of rings (size 3 to 8) (size 9 to 14) (size 15 to 20)
#    0.000    2.500    0.000    3.000    0.000    8.000 
#    0.000    8.750    0.000    1.500    0.000    0.000 
#    0.000    0.000    0.000    0.000    0.000    0.000 
#
# Total GULP energy -198399.551828 kJ/mol
# GULP energy per Si atom -12399.971989 kJ/mol
# Density = 1.839572 g / cm^3
# Si number density = 18.437681 Si / 1000 Ang^3
#
#
#
# Elastic Constant Matrix: (Units=GPa)
#
#
# Indices 1 2 3 4 5 6 
#
# 1 111.2233 64.9845 54.7193 0.0000 3.1599 0.0000
# 2 64.9845 114.4344 57.5450 0.0000 1.7287 0.0000
# 3 54.7193 57.5450 118.5917 0.0000 5.5518 0.0000
# 4 0.0000 0.0000 0.0000 32.1283 0.0000 1.9393
# 5 3.1599 1.7287 5.5518 0.0000 19.4761 0.0000
# 6 0.0000 0.0000 0.0000 1.9393 0.0000 25.9485
#
#
#
# Elastic Compliance Matrix: (Units=1/GPa)
#
#
# Indices 1 2 3 4 5 6 
#
# 1 0.014525 -0.006461 -0.003530 0.000000 -0.000777 0.000000
# 2 -0.006461 0.014440 -0.004069 0.000000 0.000926 0.000000
# 3 -0.003530 -0.004069 0.012154 0.000000 -0.002531 0.000000
# 4 0.000000 0.000000 0.000000 0.031266 0.000000 -0.002337
# 5 -0.000777 0.000926 -0.002531 0.000000 0.052110 0.000000
# 6 0.000000 0.000000 0.000000 -0.002337 0.000000 0.038713
#
#
# Mechanical properties :
#
#
# Convention : Reuss Voigt Hill
#
# Bulk Modulus (GPa) = 76.93519 77.63855 77.28687
# Shear Modulus (GPa) = 25.55430 26.64395 26.09912
#
# Velocity S-wave (km/s) = 3.72692 3.80555 3.76644
# Velocity P-wave (km/s) = 7.76773 7.84281 7.80536
#
# Compressibility (1/GPa) = 0.01299795
#
# Stress axis : x y z
#
# Youngs Moduli (GPa) = 68.84672 69.25220 82.27728
#
# Poissons Ratio (x) = 0.44747 0.29046
# Poissons Ratio (y) = 0.44485 0.33477
# Poissons Ratio (z) = 0.24305 0.28178
#
# Static dielectric constant tensor:
#      x y z
#    x 3.300830 0.000000 0.052200 
#    y 0.000000 3.430470 0.000000 
#    z 0.052200 0.000000 3.497630 
# 
# 
# High freq. dielectric constant tensor:
#      x y z
#    x 1.702860 0.000000 0.002720 
#    y 0.000000 1.716110 0.000000 
#    z 0.002720 0.000000 1.720310 
# 
# From -- ./inp_files/7771.got.cif
#   From: 2010.03.12/outbox.cif.g09.slc.cpg/sg4_4_cif.got.tgz:7771.got - 2010.03.31 09:31:35.
