data_PCOD8045250
_publ_section_title
;
Structure prediction by ZEFSAII (Michael W. Deem and Ramdas Pophale) SiO2 
 PCOD8045250
Probable space group: P 2
;
_chemical_formula_sum "Si O2"
_cell_formula_units_Z 10
_cell_length_a 5.156184
_cell_length_b 5.274090
_cell_length_c 15.416425
_cell_angle_alpha 90.000000
_cell_angle_beta 104.412806
_cell_angle_gamma 90.000000
_cell_volume 406.042598
_symmetry_space_group_name_H-M "P 2"
_symmetry_group_IT_number 3
_symmetry_cell_setting 'monoclinic'
loop_
_space_group_symop_operation_xyz
x,y,z
-x,y,-z
loop_
_atom_site_type_symbol
_atom_site_label
_atom_site_fract_x
_atom_site_fract_y
_atom_site_fract_z
Si Si1 0.152156 0.909220 0.102544
Si Si2 0.468894 0.551807 0.660715
Si Si3 0.298956 0.408907 0.060427
Si Si4 0.205173 0.040174 0.593006
Si Si5 0.042594 0.758827 0.736374
O O1 0.362642 0.675474 0.113693
O O2 0.947857 0.865516 0.164813
O O3 0.314662 0.173746 0.130018
O O4 0.000000 0.959518 0.000000
O O5 0.782885 0.581292 0.702987
O O6 0.408440 0.277342 0.615193
O O7 0.302878 0.585156 0.737613
O O8 0.371457 0.780205 0.587982
O O9 0.500000 0.351971 0.000000
O O10 0.000000 0.454764 0.000000
O O11 0.000000 0.100194 0.500000
O O12 0.041950 0.998302 0.669817
#
# Coordination Sequence:
#
# PCOD8045250 Si02
#       5
#     2   2   2   2   2
#     4  10  23  42  67  94 133 180 222 274 332 399
#     4  10  25  42  69 100 138 176 230 281 347 408
#     4  10  22  39  60  90 121 165 221 265 320 384
#     4  10  24  47  70 103 138 183 224 289 347 422
#     4  10  26  44  67 103 139 179 231 284 341 409
#
# _framework density 24.627956000000001
#
# number of rings (size 3 to 8) (size 9 to 14) (size 15 to 20)
#    1.200    0.800    0.000    1.200    5.600    7.200 
#    3.600    0.000    0.000    0.000    0.000    0.000 
#    0.000    0.000    0.000    0.000    0.000    0.000 
#
# Total GULP energy -123888.495298 kJ/mol
# GULP energy per Si atom -12388.849530 kJ/mol
# Density = 2.457190 g / cm^3
# Si number density = 24.627956 Si / 1000 Ang^3
#
#
#
# Elastic Constant Matrix: (Units=GPa)
#
#
# Indices 1 2 3 4 5 6 
#
# 1 99.0715 15.0703 -1.1293 0.0000 7.4569 0.0000
# 2 15.0703 181.3894 -1.0102 0.0000 -12.3607 0.0000
# 3 -1.1293 -1.0102 84.1114 0.0000 -2.5106 0.0000
# 4 0.0000 0.0000 0.0000 10.3099 0.0000 -9.7862
# 5 7.4569 -12.3607 -2.5106 0.0000 20.2469 0.0000
# 6 0.0000 0.0000 0.0000 -9.7862 0.0000 14.0515
#
#
#
# Elastic Compliance Matrix: (Units=1/GPa)
#
#
# Indices 1 2 3 4 5 6 
#
# 1 0.010626 -0.001200 -0.000010 0.000000 -0.004647 0.000000
# 2 -0.001200 0.005890 0.000176 0.000000 0.004060 0.000000
# 3 -0.000010 0.000176 0.011938 0.000000 0.001592 0.000000
# 4 0.000000 0.000000 0.000000 0.286175 0.000000 0.199306
# 5 -0.004647 0.004060 0.001592 0.000000 0.053778 0.000000
# 6 0.000000 0.000000 0.000000 0.199306 0.000000 0.209973
#
#
# Mechanical properties :
#
#
# Convention : Reuss Voigt Hill
#
# Bulk Modulus (GPa) = 37.89858 43.38154 40.64006
# Shear Modulus (GPa) = 8.48545 32.36443 20.42494
#
# Velocity S-wave (km/s) = 1.85821 3.62903 2.88295
# Velocity P-wave (km/s) = 4.47501 5.93404 5.25541
#
# Compressibility (1/GPa) = 0.02638621
#
# Stress axis : x y z
#
# Youngs Moduli (GPa) = 94.11009 169.77105 83.76286
#
# Poissons Ratio (x) = 0.20365 0.00088
# Poissons Ratio (y) = 0.11289 -0.01473
# Poissons Ratio (z) = 0.00098 -0.02985
#
# Static dielectric constant tensor:
#      x y z
#    x 4.172330 0.000000 -0.124240 
#    y 0.000000 5.173580 0.000000 
#    z -0.124240 0.000000 4.116870 
# 
# 
# High freq. dielectric constant tensor:
#      x y z
#    x 1.969480 0.000000 -0.006010 
#    y 0.000000 1.997820 0.000000 
#    z -0.006010 0.000000 1.954750 
# 
# From -- ./inp_files/2862.got.cif
#   From: 2010.03.12/outbox.cif.g09.slc.cpg/sg3_2_cif.got.tgz:2862.got - 2010.03.31 09:20:49.
