data_PCOD8045608
_publ_section_title
;
Structure prediction by ZEFSAII (Michael W. Deem and Ramdas Pophale) SiO2 
 PCOD8045608
Probable space group: P 21
;
_chemical_formula_sum "Si O2"
_cell_formula_units_Z 16
_cell_length_a 15.952034
_cell_length_b 8.287235
_cell_length_c 7.537691
_cell_angle_alpha 90.000000
_cell_angle_beta 144.264080
_cell_angle_gamma 90.000000
_cell_volume 581.988275
_symmetry_space_group_name_H-M "P 21"
_symmetry_group_IT_number 4
_symmetry_cell_setting 'monoclinic'
loop_
_space_group_symop_operation_xyz
x,y,z
-x,1/2+y,-z
loop_
_atom_site_type_symbol
_atom_site_label
_atom_site_fract_x
_atom_site_fract_y
_atom_site_fract_z
Si Si1 0.116866 0.172190 0.038025
Si Si2 0.292915 0.733742 0.434732
Si Si3 0.890531 0.447322 0.656705
Si Si4 0.325820 0.373757 0.608242
Si Si5 0.824546 0.741899 0.308632
Si Si6 0.448660 0.177107 0.340873
Si Si7 0.406511 0.835684 0.115659
Si Si8 0.868925 0.370886 0.171766
O O1 0.267692 0.247025 0.361218
O O2 0.051648 0.060852 0.083941
O O3 0.008772 0.316236 0.809727
O O4 0.139736 0.061240 0.900229
O O5 0.256874 0.858195 0.533152
O O6 0.276033 0.553191 0.476402
O O7 0.452877 0.764983 0.639085
O O8 0.179115 0.762891 0.078698
O O9 0.855291 0.556779 0.422853
O O10 0.255199 0.336124 0.672775
O O11 0.502384 0.352638 0.912401
O O12 0.968691 0.830785 0.497233
O O13 0.712443 0.750388 0.951724
O O14 0.522129 0.186707 0.658789
O O15 0.447515 0.987321 0.307478
O O16 0.231492 0.824927 0.825249
#
# Coordination Sequence:
#
# PCOD8045608 Si02
#       8
#     2   2   2   2   2   2   2   2
#     4  10  17  30  55  88 123 166 207 244 305 375
#     4   9  18  34  59  88 124 165 205 242 304 375
#     4  10  18  31  54  89 129 162 197 256 311 359
#     4  10  19  35  64  95 123 162 210 259 305 360
#     4  11  23  38  62  98 130 152 202 271 309 344
#     4  10  23  43  64  89 122 164 208 255 306 369
#     4  10  22  44  67  86 123 171 209 239 306 390
#     4  10  20  37  61  91 126 166 208 254 302 366
#
# _framework density 27.491963999999999
#
# number of rings (size 3 to 8) (size 9 to 14) (size 15 to 20)
#    0.000    2.000    0.000    6.000    0.000    3.000 
#    0.000    8.750    0.000    3.000    0.000    0.000 
#    0.000    0.000    0.000    0.000    0.000    0.000 
#
# Total GULP energy -198316.659939 kJ/mol
# GULP energy per Si atom -12394.791246 kJ/mol
# Density = 2.742939 g / cm^3
# Si number density = 27.491964 Si / 1000 Ang^3
#
#
#
# Elastic Constant Matrix: (Units=GPa)
#
#
# Indices 1 2 3 4 5 6 
#
# 1 141.4118 33.6934 38.9317 0.0000 24.8425 0.0000
# 2 33.6934 97.6925 18.8664 0.0000 10.1295 0.0000
# 3 38.9317 18.8664 95.8543 0.0000 33.6722 0.0000
# 4 0.0000 0.0000 0.0000 33.2128 0.0000 5.3625
# 5 24.8425 10.1295 33.6722 0.0000 45.6022 0.0000
# 6 0.0000 0.0000 0.0000 5.3625 0.0000 42.9493
#
#
#
# Elastic Compliance Matrix: (Units=1/GPa)
#
#
# Indices 1 2 3 4 5 6 
#
# 1 0.008673 -0.002304 -0.002146 0.000000 -0.002629 0.000000
# 2 -0.002304 0.011294 -0.001143 0.000000 -0.000409 0.000000
# 3 -0.002146 -0.001143 0.014892 0.000000 -0.009573 0.000000
# 4 0.000000 0.000000 0.000000 0.030728 0.000000 -0.003837
# 5 -0.002629 -0.000409 -0.009573 0.000000 0.030520 0.000000
# 6 0.000000 0.000000 0.000000 -0.003837 0.000000 0.023762
#
#
# Mechanical properties :
#
#
# Convention : Reuss Voigt Hill
#
# Bulk Modulus (GPa) = 42.24306 57.54909 49.89608
# Shear Modulus (GPa) = 35.98477 40.58400 38.28439
#
# Velocity S-wave (km/s) = 3.62182 3.84632 3.73576
# Velocity P-wave (km/s) = 5.73490 6.37997 6.06602
#
# Compressibility (1/GPa) = 0.02367253
#
# Stress axis : x y z
#
# Youngs Moduli (GPa) = 115.29907 88.54118 67.15055
#
# Poissons Ratio (x) = 0.20403 0.14408
# Poissons Ratio (y) = 0.26569 0.07677
# Poissons Ratio (z) = 0.24740 0.10123
#
# Static dielectric constant tensor:
#      x y z
#    x 5.224350 0.000000 0.213290 
#    y 0.000000 5.017880 0.000000 
#    z 0.213290 0.000000 4.935530 
# 
# 
# High freq. dielectric constant tensor:
#      x y z
#    x 2.140810 0.000000 0.010100 
#    y 0.000000 2.107680 0.000000 
#    z 0.010100 0.000000 2.107310 
# 
# From -- ./inp_files/9675.got.cif
#   From: 2010.03.12/outbox.cif.g09.slc.cpg/sg4_5_cif.got.tgz:9675.got - 2010.03.31 09:31:35.
