data_PCOD8045672
_publ_section_title
;
Structure prediction by ZEFSAII (Michael W. Deem and Ramdas Pophale) SiO2 
 PCOD8045672
Probable space group: P 21
;
_chemical_formula_sum "Si O2"
_cell_formula_units_Z 16
_cell_length_a 9.010219
_cell_length_b 11.783446
_cell_length_c 13.298715
_cell_angle_alpha 90.000000
_cell_angle_beta 34.096269
_cell_angle_gamma 90.000000
_cell_volume 791.514491
_symmetry_space_group_name_H-M "P 21"
_symmetry_group_IT_number 4
_symmetry_cell_setting 'monoclinic'
loop_
_space_group_symop_operation_xyz
x,y,z
-x,1/2+y,-z
loop_
_atom_site_type_symbol
_atom_site_label
_atom_site_fract_x
_atom_site_fract_y
_atom_site_fract_z
Si Si1 0.689593 0.861480 0.756921
Si Si2 0.305614 0.549383 0.087207
Si Si3 0.879332 0.523234 0.824197
Si Si4 0.331562 0.241457 0.759627
Si Si5 0.110345 0.744153 0.631322
Si Si6 0.911811 0.880550 0.934426
Si Si7 0.665641 0.492080 0.167661
Si Si8 0.875703 0.280478 0.856901
O O1 0.616410 0.926230 0.693495
O O2 0.933545 0.772625 0.629417
O O3 0.778974 0.962227 0.780345
O O4 0.420938 0.797218 0.936426
O O5 0.229003 0.497190 0.021364
O O6 0.141656 0.665924 0.199461
O O7 0.619511 0.569826 0.913711
O O8 0.955528 0.393438 0.748267
O O9 0.108230 0.609920 0.661815
O O10 0.828160 0.515856 0.973168
O O11 0.591983 0.285918 0.555672
O O12 0.075464 0.260972 0.835989
O O13 0.388083 0.109990 0.748251
O O14 0.297830 0.308770 0.882699
O O15 0.991645 0.806611 0.794096
O O16 0.168732 0.909260 0.854664
#
# Coordination Sequence:
#
# PCOD8045672 Si02
#       8
#     2   2   2   2   2   2   2   2
#     4   9  20  38  62  86 127 161 200 259 305 368
#     4   9  18  33  63  89 114 166 207 240 312 374
#     4  10  20  36  62  89 123 163 202 255 306 372
#     4  12  23  38  65  96 123 161 214 259 312 381
#     4  11  24  40  62  93 130 160 209 260 317 366
#     4  11  21  40  64  89 122 169 198 264 315 368
#     4  10  20  38  66  87 124 167 210 251 315 373
#     4  10  18  35  62  89 121 161 208 244 308 376
#
# _framework density 20.214410999999998
#
# number of rings (size 3 to 8) (size 9 to 14) (size 15 to 20)
#    0.000    2.000    6.250    0.000    0.000    1.000 
#    2.250    0.000    8.250    0.000    0.000    0.000 
#    0.000    0.000    0.000    0.000    0.000    0.000 
#
# Total GULP energy -198216.727592 kJ/mol
# GULP energy per Si atom -12388.545474 kJ/mol
# Density = 2.016840 g / cm^3
# Si number density = 20.214411 Si / 1000 Ang^3
#
#
#
# Elastic Constant Matrix: (Units=GPa)
#
#
# Indices 1 2 3 4 5 6 
#
# 1 120.6972 47.8377 16.7985 0.0000 -4.1197 0.0000
# 2 47.8377 119.4090 25.3016 0.0000 -3.2328 0.0000
# 3 16.7985 25.3016 58.9788 0.0000 -1.0212 0.0000
# 4 0.0000 0.0000 0.0000 7.5851 0.0000 -1.0612
# 5 -4.1197 -3.2328 -1.0212 0.0000 10.7059 0.0000
# 6 0.0000 0.0000 0.0000 -1.0612 0.0000 39.5721
#
#
#
# Elastic Compliance Matrix: (Units=1/GPa)
#
#
# Indices 1 2 3 4 5 6 
#
# 1 0.010002 -0.003676 -0.001226 0.000000 0.002622 0.000000
# 2 -0.003676 0.010626 -0.003486 0.000000 0.001461 0.000000
# 3 -0.001226 -0.003486 0.018805 0.000000 0.000269 0.000000
# 4 0.000000 0.000000 0.000000 0.132333 0.000000 0.003549
# 5 0.002622 0.001461 0.000269 0.000000 0.094882 0.000000
# 6 0.000000 0.000000 0.000000 0.003549 0.000000 0.025366
#
#
# Mechanical properties :
#
#
# Convention : Reuss Voigt Hill
#
# Bulk Modulus (GPa) = 44.13959 53.21785 48.67872
# Shear Modulus (GPa) = 15.80563 25.51578 20.66071
#
# Velocity S-wave (km/s) = 2.79928 3.55668 3.20046
# Velocity P-wave (km/s) = 5.68604 6.57651 6.14742
#
# Compressibility (1/GPa) = 0.02265540
#
# Stress axis : x y z
#
# Youngs Moduli (GPa) = 99.97529 94.11232 53.17834
#
# Poissons Ratio (x) = 0.34599 0.06522
# Poissons Ratio (y) = 0.36754 0.18538
# Poissons Ratio (z) = 0.12261 0.32807
#
# Static dielectric constant tensor:
#      x y z
#    x 3.962790 0.000000 -0.046310 
#    y 0.000000 4.138080 0.000000 
#    z -0.046310 0.000000 3.090580 
# 
# 
# High freq. dielectric constant tensor:
#      x y z
#    x 1.803580 0.000000 -0.009880 
#    y 0.000000 1.810490 0.000000 
#    z -0.009880 0.000000 1.729400 
# 
# From -- ./inp_files/11331.got.cif
#   From: 2010.03.12/outbox.cif.g09.slc.cpg/sg4_6_cif.got.tgz:11331.got - 2010.03.31 09:31:35.
