data_PCOD8045693
_publ_section_title
;
Structure prediction by ZEFSAII (Michael W. Deem and Ramdas Pophale) SiO2 
 PCOD8045693
Probable space group: P 21
;
_chemical_formula_sum "Si O2"
_cell_formula_units_Z 16
_cell_length_a 8.803951
_cell_length_b 8.518735
_cell_length_c 11.192416
_cell_angle_alpha 90.000000
_cell_angle_beta 62.589185
_cell_angle_gamma 90.000000
_cell_volume 745.172353
_symmetry_space_group_name_H-M "P 21"
_symmetry_group_IT_number 4
_symmetry_cell_setting 'monoclinic'
loop_
_space_group_symop_operation_xyz
x,y,z
-x,1/2+y,-z
loop_
_atom_site_type_symbol
_atom_site_label
_atom_site_fract_x
_atom_site_fract_y
_atom_site_fract_z
Si Si1 0.655494 0.515090 0.034100
Si Si2 0.405579 0.234244 0.141194
Si Si3 0.971411 0.807875 0.728639
Si Si4 0.376279 0.948748 0.326813
Si Si5 0.966166 0.295439 0.573582
Si Si6 0.802116 0.564761 0.389471
Si Si7 0.006659 0.472356 0.789793
Si Si8 0.717974 0.764841 0.209051
O O1 0.545277 0.367274 0.121990
O O2 0.734138 0.620990 0.111235
O O3 0.537340 0.626420 0.992199
O O4 0.809123 0.446807 0.897840
O O5 0.229101 0.322271 0.167657
O O6 0.367460 0.118767 0.266008
O O7 0.987284 0.822251 0.579883
O O8 0.050497 0.655797 0.765028
O O9 0.092658 0.946162 0.735945
O O10 0.237703 0.819703 0.332924
O O11 0.557631 0.872111 0.236987
O O12 0.343466 0.981450 0.478688
O O13 0.044701 0.127511 0.579675
O O14 0.049618 0.414179 0.639870
O O15 0.702764 0.691633 0.346608
O O16 0.118059 0.380871 0.849623
#
# Coordination Sequence:
#
# PCOD8045693 Si02
#       8
#     2   2   2   2   2   2   2   2
#     4  11  25  42  66  94 134 175 224 266 328 388
#     4  11  23  42  67 100 123 168 228 282 317 377
#     4  10  19  38  68  96 121 166 221 274 329 376
#     4  11  22  42  65  98 131 169 219 278 329 380
#     4  10  18  40  68  94 126 161 220 271 321 388
#     4  10  23  39  63 100 130 171 214 265 345 389
#     4  10  23  44  64  92 138 172 219 269 328 398
#     4  11  27  41  61  96 137 180 211 265 335 398
#
# _framework density 21.471541999999999
#
# number of rings (size 3 to 8) (size 9 to 14) (size 15 to 20)
#    0.000    1.500    3.750    1.500    1.750    8.000 
#    0.000    0.000    0.000    0.000    0.000    0.000 
#    0.000    0.000    0.000    0.000    0.000    0.000 
#
# Total GULP energy -198233.198335 kJ/mol
# GULP energy per Si atom -12389.574896 kJ/mol
# Density = 2.142267 g / cm^3
# Si number density = 21.471542 Si / 1000 Ang^3
#
#
#
# Elastic Constant Matrix: (Units=GPa)
#
#
# Indices 1 2 3 4 5 6 
#
# 1 70.3993 31.6558 13.7939 0.0000 0.4451 0.0000
# 2 31.6558 87.1659 25.1008 0.0000 -9.3327 0.0000
# 3 13.7939 25.1008 64.2077 0.0000 -4.9325 0.0000
# 4 0.0000 0.0000 0.0000 37.0224 0.0000 1.0184
# 5 0.4451 -9.3327 -4.9325 0.0000 24.7762 0.0000
# 6 0.0000 0.0000 0.0000 1.0184 0.0000 44.0315
#
#
#
# Elastic Compliance Matrix: (Units=1/GPa)
#
#
# Indices 1 2 3 4 5 6 
#
# 1 0.017290 -0.006151 -0.001535 0.000000 -0.002933 0.000000
# 2 -0.006151 0.015503 -0.004349 0.000000 0.005084 0.000000
# 3 -0.001535 -0.004349 0.017752 0.000000 0.001924 0.000000
# 4 0.000000 0.000000 0.000000 0.027028 0.000000 -0.000625
# 5 -0.002933 0.005084 0.001924 0.000000 0.042712 0.000000
# 6 0.000000 0.000000 0.000000 -0.000625 0.000000 0.022725
#
#
# Mechanical properties :
#
#
# Convention : Reuss Voigt Hill
#
# Bulk Modulus (GPa) = 37.77106 40.31934 39.04520
# Shear Modulus (GPa) = 28.42443 31.24750 29.83597
#
# Velocity S-wave (km/s) = 3.64238 3.81898 3.73172
# Velocity P-wave (km/s) = 5.94295 6.18586 6.06562
#
# Compressibility (1/GPa) = 0.02647530
#
# Stress axis : x y z
#
# Youngs Moduli (GPa) = 57.83703 64.50414 56.33173
#
# Poissons Ratio (x) = 0.39677 0.08648
# Poissons Ratio (y) = 0.35576 0.24496
# Poissons Ratio (z) = 0.08879 0.28050
#
# Static dielectric constant tensor:
#      x y z
#    x 3.754510 0.000000 0.058140 
#    y 0.000000 4.246610 0.000000 
#    z 0.058140 0.000000 3.758820 
# 
# 
# High freq. dielectric constant tensor:
#      x y z
#    x 1.828180 0.000000 0.004590 
#    y 0.000000 1.851120 0.000000 
#    z 0.004590 0.000000 1.834620 
# 
# From -- ./inp_files/7655.got.cif
#   From: 2010.03.12/outbox.cif.g09.slc.cpg/sg4_4_cif.got.tgz:7655.got - 2010.03.31 09:31:35.
