data_PCOD8045601
_publ_section_title
;
Structure prediction by ZEFSAII (Michael W. Deem and Ramdas Pophale) SiO2 
 PCOD8045601
Probable space group: P 21
;
_chemical_formula_sum "Si O2"
_cell_formula_units_Z 14
_cell_length_a 15.412891
_cell_length_b 5.035434
_cell_length_c 27.995955
_cell_angle_alpha 90.000000
_cell_angle_beta 156.361659
_cell_angle_gamma 90.000000
_cell_volume 871.203640
_symmetry_space_group_name_H-M "P 21"
_symmetry_group_IT_number 4
_symmetry_cell_setting 'monoclinic'
loop_
_space_group_symop_operation_xyz
x,y,z
-x,1/2+y,-z
loop_
_atom_site_type_symbol
_atom_site_label
_atom_site_fract_x
_atom_site_fract_y
_atom_site_fract_z
Si Si1 0.636247 0.054910 0.566436
Si Si2 0.715549 0.571472 0.350612
Si Si3 0.002809 0.665331 0.064725
Si Si4 0.611343 0.157954 0.451675
Si Si5 0.757998 0.165543 0.911559
Si Si6 0.833029 0.071631 0.466780
Si Si7 0.683627 0.158340 0.692127
O O1 0.422428 0.243407 0.461840
O O2 0.741631 0.121644 0.567863
O O3 0.776327 0.126558 0.684356
O O4 0.496638 0.618165 0.210829
O O5 0.707403 0.283159 0.370603
O O6 0.909779 0.596928 0.410604
O O7 0.744797 0.784346 0.407564
O O8 0.184724 0.642497 0.115547
O O9 0.115007 0.611052 0.171726
O O10 0.814287 0.452543 0.960853
O O11 0.893131 0.952748 0.009998
O O12 0.786663 0.118573 0.498851
O O13 0.508192 0.448760 0.395392
O O14 0.414371 0.949334 0.348523
#
# Coordination Sequence:
#
# PCOD8045601 Si02
#       7
#     2   2   2   2   2   2   2
#     4   8  16  27  41  63  88 111 135 170 214 254
#     4  10  20  32  44  63  90 113 143 181 208 247
#     4  10  19  28  43  61  81 114 145 167 208 251
#     4  10  17  28  46  66  89 113 139 173 214 258
#     4  10  19  30  41  60  85 110 143 177 203 243
#     4  10  19  30  47  66  84 115 145 170 217 256
#     4  10  18  29  44  65  91 114 140 174 210 255
#
# _framework density 16.069721999999999
#
# number of rings (size 3 to 8) (size 9 to 14) (size 15 to 20)
#    0.000    2.286    0.000    4.286    0.000    2.286 
#    0.000    0.000    0.000    0.000    0.000    2.000 
#    0.000    0.000    0.000    0.000    0.000    0.000 
#
# Total GULP energy -173572.295862 kJ/mol
# GULP energy per Si atom -12398.021133 kJ/mol
# Density = 1.603315 g / cm^3
# Si number density = 16.069722 Si / 1000 Ang^3
#
#
#
# Elastic Constant Matrix: (Units=GPa)
#
#
# Indices 1 2 3 4 5 6 
#
# 1 105.6925 4.3720 37.8575 0.0000 -17.2266 0.0000
# 2 4.3720 61.1731 3.1020 0.0000 0.8516 0.0000
# 3 37.8575 3.1020 76.5651 0.0000 -11.0213 0.0000
# 4 0.0000 0.0000 0.0000 13.2473 0.0000 -0.1609
# 5 -17.2266 0.8516 -11.0213 0.0000 24.9127 0.0000
# 6 0.0000 0.0000 0.0000 -0.1609 0.0000 17.5542
#
#
#
# Elastic Compliance Matrix: (Units=1/GPa)
#
#
# Indices 1 2 3 4 5 6 
#
# 1 0.012372 -0.000709 -0.005184 0.000000 0.006286 0.000000
# 2 -0.000709 0.016441 -0.000499 0.000000 -0.001273 0.000000
# 3 -0.005184 -0.000499 0.016160 0.000000 0.003582 0.000000
# 4 0.000000 0.000000 0.000000 0.075495 0.000000 0.000692
# 5 0.006286 -0.001273 0.003582 0.000000 0.046115 0.000000
# 6 0.000000 0.000000 0.000000 0.000692 0.000000 0.056973
#
#
# Mechanical properties :
#
#
# Convention : Reuss Voigt Hill
#
# Bulk Modulus (GPa) = 31.06603 37.12153 34.09378
# Shear Modulus (GPa) = 20.23736 24.34946 22.29341
#
# Velocity S-wave (km/s) = 3.55258 3.89683 3.72868
# Velocity P-wave (km/s) = 6.01679 6.58768 6.30869
#
# Compressibility (1/GPa) = 0.03218950
#
# Stress axis : x y z
#
# Youngs Moduli (GPa) = 80.82764 60.82457 61.88249
#
# Poissons Ratio (x) = 0.04312 0.32078
# Poissons Ratio (y) = 0.05730 0.03087
# Poissons Ratio (z) = 0.41899 0.03034
#
# Static dielectric constant tensor:
#      x y z
#    x 3.110820 0.000000 -0.167900 
#    y 0.000000 3.298170 0.000000 
#    z -0.167900 0.000000 2.745730 
# 
# 
# High freq. dielectric constant tensor:
#      x y z
#    x 1.600460 0.000000 -0.020370 
#    y 0.000000 1.646040 0.000000 
#    z -0.020370 0.000000 1.581260 
# 
# From -- ./inp_files/8664.got.cif
#   From: 2010.03.12/outbox.cif.g09.slc.cpg/sg4_5_cif.got.tgz:8664.got - 2010.03.31 09:31:35.
