data_PCOD8045699
_publ_section_title
;
Structure prediction by ZEFSAII (Michael W. Deem and Ramdas Pophale) SiO2 
 PCOD8045699
Probable space group: P 21
;
_chemical_formula_sum "Si O2"
_cell_formula_units_Z 14
_cell_length_a 13.114826
_cell_length_b 5.019031
_cell_length_c 20.083999
_cell_angle_alpha 90.000000
_cell_angle_beta 37.519945
_cell_angle_gamma 90.000000
_cell_volume 805.149785
_symmetry_space_group_name_H-M "P 21"
_symmetry_group_IT_number 4
_symmetry_cell_setting 'monoclinic'
loop_
_space_group_symop_operation_xyz
x,y,z
-x,1/2+y,-z
loop_
_atom_site_type_symbol
_atom_site_label
_atom_site_fract_x
_atom_site_fract_y
_atom_site_fract_z
Si Si1 0.760244 0.769950 0.472758
Si Si2 0.499962 0.932313 0.913819
Si Si3 0.106199 0.105709 0.454540
Si Si4 0.449485 0.663183 0.563433
Si Si5 0.131785 0.771086 0.662886
Si Si6 0.241575 0.153642 0.140258
Si Si7 0.647459 0.443573 0.786620
O O1 0.815163 0.712899 0.518665
O O2 0.555914 0.741515 0.574349
O O3 0.844700 0.566761 0.377287
O O4 0.818920 0.064441 0.421261
O O5 0.563746 0.155480 0.829366
O O6 0.631889 0.900292 0.907817
O O7 0.497979 0.661294 0.871534
O O8 0.317997 0.994174 0.037933
O O9 0.249616 0.987199 0.333527
O O10 0.019449 0.361113 0.464424
O O11 0.476650 0.351297 0.534085
O O12 0.249624 0.722937 0.667409
O O13 0.941388 0.749308 0.785848
O O14 0.228372 0.969579 0.213583
#
# Coordination Sequence:
#
# PCOD8045699 Si02
#       7
#     2   2   2   2   2   2   2
#     4  10  20  34  47  71 101 131 154 201 235 286
#     4  10  20  31  47  65  95 128 152 204 237 292
#     4  12  23  33  47  72  98 134 169 192 226 293
#     4   8  16  32  47  69  94 121 159 195 246 282
#     4  10  20  29  54  72  95 126 160 202 242 288
#     4  10  19  31  48  69  93 123 161 194 249 279
#     4  10  20  32  44  64  96 127 159 188 239 282
#
# _framework density 17.388068000000001
#
# number of rings (size 3 to 8) (size 9 to 14) (size 15 to 20)
#    0.857    1.143    1.429    3.429    4.000    0.000 
#    0.000    0.000    0.000    0.000    0.000    2.000 
#    0.000    0.000    0.000    0.000    0.000    0.000 
#
# Total GULP energy -173460.438661 kJ/mol
# GULP energy per Si atom -12390.031333 kJ/mol
# Density = 1.734849 g / cm^3
# Si number density = 17.388068 Si / 1000 Ang^3
#
#
#
# Elastic Constant Matrix: (Units=GPa)
#
#
# Indices 1 2 3 4 5 6 
#
# 1 67.3065 1.0891 24.2414 0.0000 -15.1145 0.0000
# 2 1.0891 72.2966 -1.5008 0.0000 1.2871 0.0000
# 3 24.2414 -1.5008 68.3149 0.0000 -11.5654 0.0000
# 4 0.0000 0.0000 0.0000 21.1434 0.0000 0.2809
# 5 -15.1145 1.2871 -11.5654 0.0000 25.6441 0.0000
# 6 0.0000 0.0000 0.0000 0.2809 0.0000 18.5728
#
#
#
# Elastic Compliance Matrix: (Units=1/GPa)
#
#
# Indices 1 2 3 4 5 6 
#
# 1 0.018683 -0.000544 -0.005167 0.000000 0.008708 0.000000
# 2 -0.000544 0.013863 0.000352 0.000000 -0.000857 0.000000
# 3 -0.005167 0.000352 0.017280 0.000000 0.004730 0.000000
# 4 0.000000 0.000000 0.000000 0.047306 0.000000 -0.000715
# 5 0.008708 -0.000857 0.004730 0.000000 0.046304 0.000000
# 6 0.000000 0.000000 0.000000 -0.000715 0.000000 0.053853
#
#
# Mechanical properties :
#
#
# Convention : Reuss Voigt Hill
#
# Bulk Modulus (GPa) = 25.56990 28.39750 26.98370
# Shear Modulus (GPa) = 22.62011 25.34460 23.98236
#
# Velocity S-wave (km/s) = 3.61071 3.82198 3.71784
# Velocity P-wave (km/s) = 5.66748 5.98696 5.82941
#
# Compressibility (1/GPa) = 0.03910848
#
# Stress axis : x y z
#
# Youngs Moduli (GPa) = 53.52509 72.13614 57.86973
#
# Poissons Ratio (x) = 0.03922 0.29902
# Poissons Ratio (y) = 0.02910 -0.02039
# Poissons Ratio (z) = 0.27657 -0.02542
#
# Static dielectric constant tensor:
#      x y z
#    x 3.152990 0.000000 -0.248350 
#    y 0.000000 3.427230 0.000000 
#    z -0.248350 0.000000 2.909800 
# 
# 
# High freq. dielectric constant tensor:
#      x y z
#    x 1.633730 0.000000 -0.021110 
#    y 0.000000 1.695870 0.000000 
#    z -0.021110 0.000000 1.639600 
# 
# From -- ./inp_files/11484.got.cif
#   From: 2010.03.12/outbox.cif.g09.slc.cpg/sg4_6_cif.got.tgz:11484.got - 2010.03.31 09:31:35.
