data_PCOD8045284
_publ_section_title
;
Structure prediction by ZEFSAII (Michael W. Deem and Ramdas Pophale) SiO2 
 PCOD8045284
Probable space group: P 2
;
_chemical_formula_sum "Si O2"
_cell_formula_units_Z 10
_cell_length_a 8.394296
_cell_length_b 5.231540
_cell_length_c 14.162388
_cell_angle_alpha 90.000000
_cell_angle_beta 132.245770
_cell_angle_gamma 90.000000
_cell_volume 460.404072
_symmetry_space_group_name_H-M "P 2"
_symmetry_group_IT_number 3
_symmetry_cell_setting 'monoclinic'
loop_
_space_group_symop_operation_xyz
x,y,z
-x,y,-z
loop_
_atom_site_type_symbol
_atom_site_label
_atom_site_fract_x
_atom_site_fract_y
_atom_site_fract_z
Si Si1 0.288981 0.317750 0.980605
Si Si2 0.232927 0.930970 0.629839
Si Si3 0.422779 0.431260 0.740416
Si Si4 0.441530 0.734738 0.369017
Si Si5 0.023286 0.807240 0.895482
O O1 0.136817 0.557215 0.896698
O O2 0.160975 0.054125 0.921021
O O3 0.500000 0.313994 0.000000
O O4 0.364523 0.359393 0.117935
O O5 0.310731 0.698806 0.730150
O O6 0.396694 0.951617 0.606464
O O7 0.000000 0.862718 0.500000
O O8 0.245181 0.207263 0.684382
O O9 0.503903 0.470286 0.664998
O O10 0.500000 0.686659 0.500000
O O11 0.201379 0.828066 0.249725
O O12 0.000000 0.791537 0.000000
#
# Coordination Sequence:
#
# PCOD8045284 Si02
#       5
#     2   2   2   2   2
#     4  12  26  44  71 103 140 182 237 291 345 420
#     4  10  22  41  66  92 136 181 220 278 350 407
#     4  10  22  43  64  97 136 174 232 279 344 404
#     4  10  25  43  69 102 136 177 236 281 347 414
#     4  12  24  46  74 100 140 188 232 290 353 411
#
# _framework density 21.720051000000002
#
# number of rings (size 3 to 8) (size 9 to 14) (size 15 to 20)
#    1.200    0.000    2.000    4.200    2.800    4.000 
#    0.000    0.000    0.000    0.000    0.000    0.000 
#    0.000    0.000    0.000    0.000    0.000    0.000 
#
# Total GULP energy -123893.993462 kJ/mol
# GULP energy per Si atom -12389.399346 kJ/mol
# Density = 2.167062 g / cm^3
# Si number density = 21.720051 Si / 1000 Ang^3
#
#
#
# Elastic Constant Matrix: (Units=GPa)
#
#
# Indices 1 2 3 4 5 6 
#
# 1 102.8219 41.0936 40.9521 0.0000 18.3243 0.0000
# 2 41.0936 174.1601 33.1356 0.0000 20.5972 0.0000
# 3 40.9521 33.1356 151.1022 0.0000 15.9866 0.0000
# 4 0.0000 0.0000 0.0000 16.1426 0.0000 6.4910
# 5 18.3243 20.5972 15.9866 0.0000 45.7407 0.0000
# 6 0.0000 0.0000 0.0000 6.4910 0.0000 25.2816
#
#
#
# Elastic Compliance Matrix: (Units=1/GPa)
#
#
# Indices 1 2 3 4 5 6 
#
# 1 0.012072 -0.002010 -0.002508 0.000000 -0.003055 0.000000
# 2 -0.002010 0.006574 -0.000695 0.000000 -0.001912 0.000000
# 3 -0.002508 -0.000695 0.007591 0.000000 -0.001336 0.000000
# 4 0.000000 0.000000 0.000000 0.069080 0.000000 -0.017736
# 5 -0.003055 -0.001912 -0.001336 0.000000 0.024414 0.000000
# 6 0.000000 0.000000 0.000000 -0.017736 0.000000 0.044108
#
#
# Mechanical properties :
#
#
# Convention : Reuss Voigt Hill
#
# Bulk Modulus (GPa) = 63.23955 73.16076 68.20016
# Shear Modulus (GPa) = 27.84960 38.29316 33.07138
#
# Velocity S-wave (km/s) = 3.58468 4.20340 3.90631
# Velocity P-wave (km/s) = 6.80530 7.57065 7.19816
#
# Compressibility (1/GPa) = 0.01581289
#
# Stress axis : x y z
#
# Youngs Moduli (GPa) = 82.83565 152.10374 131.72862
#
# Poissons Ratio (x) = 0.30574 0.33035
# Poissons Ratio (y) = 0.16650 0.09150
# Poissons Ratio (z) = 0.20774 0.10565
#
# Static dielectric constant tensor:
#      x y z
#    x 3.737910 0.000000 0.136220 
#    y 0.000000 4.021990 0.000000 
#    z 0.136220 0.000000 3.835480 
# 
# 
# High freq. dielectric constant tensor:
#      x y z
#    x 1.835190 0.000000 0.019690 
#    y 0.000000 1.865360 0.000000 
#    z 0.019690 0.000000 1.853130 
# 
# From -- ./inp_files/8671.got.cif
#   From: 2010.03.12/outbox.cif.g09.slc.cpg/sg3_5_cif.got.tgz:8671.got - 2010.03.31 09:20:49.
