data_PCOD8045760
_publ_section_title
;
Structure prediction by ZEFSAII (Michael W. Deem and Ramdas Pophale) SiO2 
 PCOD8045760
Probable space group: P 21
;
_chemical_formula_sum "Si O2"
_cell_formula_units_Z 14
_cell_length_a 10.798737
_cell_length_b 8.554872
_cell_length_c 12.581145
_cell_angle_alpha 90.000000
_cell_angle_beta 138.703557
_cell_angle_gamma 90.000000
_cell_volume 767.045258
_symmetry_space_group_name_H-M "P 21"
_symmetry_group_IT_number 4
_symmetry_cell_setting 'monoclinic'
loop_
_space_group_symop_operation_xyz
x,y,z
-x,1/2+y,-z
loop_
_atom_site_type_symbol
_atom_site_label
_atom_site_fract_x
_atom_site_fract_y
_atom_site_fract_z
Si Si1 0.092852 0.963980 0.874546
Si Si2 0.887977 0.472764 0.871530
Si Si3 0.481826 0.056802 0.108715
Si Si4 0.444947 0.192593 0.300124
Si Si5 0.691912 0.029389 0.853220
Si Si6 0.365407 0.731174 0.988862
Si Si7 0.748668 0.175063 0.673393
O O1 0.151203 0.804489 0.848882
O O2 0.113231 0.908254 0.009535
O O3 0.889339 0.038456 0.720373
O O4 0.256027 0.093466 0.955368
O O5 0.727405 0.603587 0.754383
O O6 0.863086 0.331345 0.773177
O O7 0.088557 0.548468 0.979239
O O8 0.543673 0.094080 0.269435
O O9 0.601934 0.157963 0.104836
O O10 0.512847 0.872648 0.104770
O O11 0.373294 0.352156 0.201639
O O12 0.599576 0.220881 0.488998
O O13 0.642699 0.118271 0.711551
O O14 0.591083 0.106331 0.889911
#
# Coordination Sequence:
#
# PCOD8045760 Si02
#       7
#     2   2   2   2   2   2   2
#     4   8  19  33  58  79 108 148 192 238 276 331
#     4  10  19  36  53  87 113 148 195 228 282 341
#     4   9  19  35  57  81 107 145 197 241 277 329
#     4  11  22  33  56  87 119 152 186 234 300 338
#     4  11  20  33  61  84 114 155 190 236 280 344
#     4  10  19  36  62  83 107 143 208 241 272 331
#     4  11  20  36  55  83 126 147 182 242 291 348
#
# _framework density 18.251856
#
# number of rings (size 3 to 8) (size 9 to 14) (size 15 to 20)
#    0.857    1.143    1.429    4.286    2.000    0.000 
#    0.000    0.000    6.286    0.000    0.000    0.000 
#    0.000    0.000    0.000    0.000    0.000    0.000 
#
# Total GULP energy -173455.490349 kJ/mol
# GULP energy per Si atom -12389.677882 kJ/mol
# Density = 1.821031 g / cm^3
# Si number density = 18.251856 Si / 1000 Ang^3
#
#
#
# Elastic Constant Matrix: (Units=GPa)
#
#
# Indices 1 2 3 4 5 6 
#
# 1 76.3922 31.2014 38.8012 0.0000 -8.6095 0.0000
# 2 31.2014 97.9625 33.4034 0.0000 -5.0576 0.0000
# 3 38.8012 33.4034 85.0879 0.0000 -0.7281 0.0000
# 4 0.0000 0.0000 0.0000 19.4927 0.0000 -3.7976
# 5 -8.6095 -5.0576 -0.7281 0.0000 18.0401 0.0000
# 6 0.0000 0.0000 0.0000 -3.7976 0.0000 43.5690
#
#
#
# Elastic Compliance Matrix: (Units=1/GPa)
#
#
# Indices 1 2 3 4 5 6 
#
# 1 0.019001 -0.003132 -0.007368 0.000000 0.007893 0.000000
# 2 -0.003132 0.012480 -0.003455 0.000000 0.001865 0.000000
# 3 -0.007368 -0.003455 0.016436 0.000000 -0.003822 0.000000
# 4 0.000000 0.000000 0.000000 0.052187 0.000000 0.004549
# 5 0.007893 0.001865 -0.003822 0.000000 0.059567 0.000000
# 6 0.000000 0.000000 0.000000 0.004549 0.000000 0.023349
#
#
# Mechanical properties :
#
#
# Convention : Reuss Voigt Hill
#
# Bulk Modulus (GPa) = 49.98155 51.80607 50.89381
# Shear Modulus (GPa) = 22.97796 26.62281 24.80038
#
# Velocity S-wave (km/s) = 3.55200 3.82335 3.69017
# Velocity P-wave (km/s) = 6.65328 6.92361 6.78979
#
# Compressibility (1/GPa) = 0.02000738
#
# Stress axis : x y z
#
# Youngs Moduli (GPa) = 52.62756 80.12827 60.84208
#
# Poissons Ratio (x) = 0.25098 0.44827
# Poissons Ratio (y) = 0.16484 0.21021
# Poissons Ratio (z) = 0.38775 0.27684
#
# Static dielectric constant tensor:
#      x y z
#    x 3.388880 0.000000 -0.018770 
#    y 0.000000 3.401700 0.000000 
#    z -0.018770 0.000000 2.994350 
# 
# 
# High freq. dielectric constant tensor:
#      x y z
#    x 1.698070 0.000000 -0.009010 
#    y 0.000000 1.718910 0.000000 
#    z -0.009010 0.000000 1.666920 
# 
# From -- ./inp_files/7639.got.cif
#   From: 2010.03.12/outbox.cif.g09.slc.cpg/sg4_4_cif.got.tgz:7639.got - 2010.03.31 09:31:35.
