data_PCOD8045034
_publ_section_title
;
Structure prediction by ZEFSAII (Michael W. Deem and Ramdas Pophale) SiO2 
 PCOD8045034
Probable space group: P 2
;
_chemical_formula_sum "Si O2"
_cell_formula_units_Z 16
_cell_length_a 23.355784
_cell_length_b 6.637491
_cell_length_c 29.071687
_cell_angle_alpha 90.000000
_cell_angle_beta 10.946180
_cell_angle_gamma 90.000000
_cell_volume 855.782658
_symmetry_space_group_name_H-M "P 2"
_symmetry_group_IT_number 3
_symmetry_cell_setting 'monoclinic'
loop_
_space_group_symop_operation_xyz
x,y,z
-x,y,-z
loop_
_atom_site_type_symbol
_atom_site_label
_atom_site_fract_x
_atom_site_fract_y
_atom_site_fract_z
Si Si1 0.672199 0.241090 0.653548
Si Si2 0.220301 0.978410 0.187447
Si Si3 0.261783 0.126851 0.054806
Si Si4 0.164418 0.853485 0.667102
Si Si5 0.740198 0.977049 0.075404
Si Si6 0.751927 0.649852 0.545749
Si Si7 0.762049 0.454852 0.440091
Si Si8 0.695239 0.104690 0.213677
O O1 0.393858 0.185712 0.839004
O O2 0.729023 0.479158 0.603004
O O3 0.980470 0.130735 0.398149
O O4 0.574532 0.178094 0.782177
O O5 0.339382 0.069715 0.045625
O O6 0.500000 0.952644 0.000000
O O7 0.075326 0.758472 0.294512
O O8 0.060626 0.325515 0.210849
O O9 0.078549 0.941248 0.177315
O O10 0.188873 0.613128 0.640268
O O11 0.493440 0.947456 0.400884
O O12 0.061041 0.914061 0.800265
O O13 0.772524 0.000741 0.104141
O O14 0.508811 0.809803 0.240030
O O15 0.698614 0.569148 0.537006
O O16 0.474319 0.316586 0.656675
O O17 0.000000 0.148163 0.000000
#
# Coordination Sequence:
#
# PCOD8045034 Si02
#       8
#     2   2   2   2   2   2   2   2
#     4  10  20  37  61  84 112 148 198 242 287 341
#     4  11  23  37  56  83 122 157 188 240 303 352
#     4  10  20  36  61  86 110 150 194 243 286 348
#     4  10  20  37  61  84 112 148 198 242 287 341
#     4  10  20  36  61  86 110 150 194 243 286 348
#     4  11  18  37  62  87 111 149 201 244 283 341
#     4  11  18  37  62  87 111 149 201 244 283 341
#     4  11  23  37  56  83 122 157 188 240 303 352
#
# _framework density 18.696335000000001
#
# number of rings (size 3 to 8) (size 9 to 14) (size 15 to 20)
#    0.000    1.500    5.000    2.250    0.000    2.000 
#    0.000    0.000    0.000    0.000    0.000    0.000 
#    0.000    0.000    0.000    0.000    0.000    0.000 
#
# Total GULP energy -198417.065115 kJ/mol
# GULP energy per Si atom -12401.066570 kJ/mol
# Density = 1.865378 g / cm^3
# Si number density = 18.696335 Si / 1000 Ang^3
#
#
#
# Elastic Constant Matrix: (Units=GPa)
#
#
# Indices 1 2 3 4 5 6 
#
# 1 84.0743 34.4045 66.9282 0.0000 11.8037 0.0000
# 2 34.4045 111.8855 28.7296 0.0000 2.6385 0.0000
# 3 66.9282 28.7296 72.0623 0.0000 14.3765 0.0000
# 4 0.0000 0.0000 0.0000 11.2116 0.0000 2.4913
# 5 11.8037 2.6385 14.3765 0.0000 36.7362 0.0000
# 6 0.0000 0.0000 0.0000 2.4913 0.0000 21.9217
#
#
#
# Elastic Compliance Matrix: (Units=1/GPa)
#
#
# Indices 1 2 3 4 5 6 
#
# 1 0.047015 -0.003559 -0.042611 0.000000 0.001825 0.000000
# 2 -0.003559 0.010254 -0.000938 0.000000 0.000774 0.000000
# 3 -0.042611 -0.000938 0.055406 0.000000 -0.007924 0.000000
# 4 0.000000 0.000000 0.000000 0.091504 0.000000 -0.010399
# 5 0.001825 0.000774 -0.007924 0.000000 0.029680 0.000000
# 6 0.000000 0.000000 0.000000 -0.010399 0.000000 0.046799
#
#
# Mechanical properties :
#
#
# Convention : Reuss Voigt Hill
#
# Bulk Modulus (GPa) = 54.16446 58.68295 56.42371
# Shear Modulus (GPa) = 13.12246 23.17123 18.14684
#
# Velocity S-wave (km/s) = 2.65216 3.52425 3.11884
# Velocity P-wave (km/s) = 6.19775 6.92936 6.57374
#
# Compressibility (1/GPa) = 0.01846229
#
# Stress axis : x y z
#
# Youngs Moduli (GPa) = 21.26987 97.51862 18.04848
#
# Poissons Ratio (x) = 0.34703 0.76906
# Poissons Ratio (y) = 0.07569 0.01692
# Poissons Ratio (z) = 0.90632 0.09143
#
# Static dielectric constant tensor:
#      x y z
#    x 3.307450 0.000000 0.327590 
#    y 0.000000 3.670130 0.000000 
#    z 0.327590 0.000000 3.467160 
# 
# 
# High freq. dielectric constant tensor:
#      x y z
#    x 1.708420 0.000000 0.027350 
#    y 0.000000 1.737290 0.000000 
#    z 0.027350 0.000000 1.720860 
# 
# From -- ./inp_files/8899.got.cif
#   From: 2010.03.12/outbox.cif.g09.slc.cpg/sg3_5_cif.got.tgz:8899.got - 2010.03.31 09:20:49.
