data_PCOD8045189
_publ_section_title
;
Structure prediction by ZEFSAII (Michael W. Deem and Ramdas Pophale) SiO2 
 PCOD8045189
Probable space group: P 2
;
_chemical_formula_sum "Si O2"
_cell_formula_units_Z 11
_cell_length_a 5.180805
_cell_length_b 10.762710
_cell_length_c 9.511998
_cell_angle_alpha 90.000000
_cell_angle_beta 79.470449
_cell_angle_gamma 90.000000
_cell_volume 521.453016
_symmetry_space_group_name_H-M "P 2"
_symmetry_group_IT_number 3
_symmetry_cell_setting 'monoclinic'
loop_
_space_group_symop_operation_xyz
x,y,z
-x,y,-z
loop_
_atom_site_type_symbol
_atom_site_label
_atom_site_fract_x
_atom_site_fract_y
_atom_site_fract_z
Si Si1 0.574194 0.564180 0.835657
Si Si2 0.929595 0.405653 0.164297
Si Si3 0.536303 0.018065 0.153545
Si Si4 0.581663 0.806554 0.649796
Si Si5 0.000000 0.981611 0.500000
Si Si6 0.976479 0.140177 0.255119
O O1 0.358534 0.467047 0.800124
O O2 0.606920 0.679259 0.729136
O O3 0.861027 0.505655 0.804999
O O4 0.500000 0.609296 0.000000
O O5 0.951040 0.289007 0.267292
O O6 0.000000 0.360755 0.000000
O O7 0.797153 0.102321 0.139107
O O8 0.281651 0.100716 0.218477
O O9 0.606277 0.898531 0.243893
O O10 0.500000 0.968521 0.000000
O O11 0.500000 0.776287 0.500000
O O12 0.842747 0.888995 0.617063
O O13 0.847973 0.074916 0.407446
#
# Coordination Sequence:
#
# PCOD8045189 Si02
#       6
#     2   2   2   2   1   2
#     4  10  23  41  64  91 121 161 207 255 302 359
#     4  10  21  40  63  92 123 157 203 256 306 359
#     4  11  22  37  65  96 120 161 210 255 311 364
#     4  11  23  42  62  86 129 164 204 256 307 363
#     4  10  24  42  62  90 132 162 208 250 314 368
#     4  11  22  40  64  92 128 163 200 258 309 370
#
# _framework density 21.094901
#
# number of rings (size 3 to 8) (size 9 to 14) (size 15 to 20)
#    0.000    1.455    1.818    3.273    2.545    1.455 
#    3.273    3.636    0.000    0.000    0.000    0.000 
#    0.000    0.000    0.000    0.000    0.000    0.000 
#
# Total GULP energy -136309.710662 kJ/mol
# GULP energy per Si atom -12391.791878 kJ/mol
# Density = 2.104689 g / cm^3
# Si number density = 21.094901 Si / 1000 Ang^3
#
#
#
# Elastic Constant Matrix: (Units=GPa)
#
#
# Indices 1 2 3 4 5 6 
#
# 1 78.0147 17.0446 19.9367 0.0000 19.6775 0.0000
# 2 17.0446 135.0661 75.8912 0.0000 11.8232 0.0000
# 3 19.9367 75.8912 114.2870 0.0000 14.7416 0.0000
# 4 0.0000 0.0000 0.0000 67.0271 0.0000 9.7974
# 5 19.6775 11.8232 14.7416 0.0000 29.0216 0.0000
# 6 0.0000 0.0000 0.0000 9.7974 0.0000 25.4136
#
#
#
# Elastic Compliance Matrix: (Units=1/GPa)
#
#
# Indices 1 2 3 4 5 6 
#
# 1 0.015705 -0.000469 -0.001155 0.000000 -0.009871 0.000000
# 2 -0.000469 0.011846 -0.007708 0.000000 -0.000593 0.000000
# 3 -0.001155 -0.007708 0.014515 0.000000 -0.003449 0.000000
# 4 0.000000 0.000000 0.000000 0.015810 0.000000 -0.006095
# 5 -0.009871 -0.000593 -0.003449 0.000000 0.043144 0.000000
# 6 0.000000 0.000000 0.000000 -0.006095 0.000000 0.041699
#
#
# Mechanical properties :
#
#
# Convention : Reuss Voigt Hill
#
# Bulk Modulus (GPa) = 42.73091 61.45699 52.09395
# Shear Modulus (GPa) = 29.55384 38.59214 34.07299
#
# Velocity S-wave (km/s) = 3.74705 4.28185 4.02334
# Velocity P-wave (km/s) = 6.24668 7.32410 6.80674
#
# Compressibility (1/GPa) = 0.02340226
#
# Stress axis : x y z
#
# Youngs Moduli (GPa) = 63.67200 84.41877 68.89599
#
# Poissons Ratio (x) = 0.03958 0.07959
# Poissons Ratio (y) = 0.02985 0.53104
# Poissons Ratio (z) = 0.07355 0.65068
#
# Static dielectric constant tensor:
#      x y z
#    x 3.716770 0.000000 0.095930 
#    y 0.000000 3.707820 0.000000 
#    z 0.095930 0.000000 4.011700 
# 
# 
# High freq. dielectric constant tensor:
#      x y z
#    x 1.824600 0.000000 0.011850 
#    y 0.000000 1.829610 0.000000 
#    z 0.011850 0.000000 1.824580 
# 
# From -- ./inp_files/4262.got.cif
#   From: 2010.03.12/outbox.cif.g09.slc.cpg/sg3_3_cif.got.tgz:4262.got - 2010.03.31 09:20:49.
