data_PCOD8045363
_publ_section_title
;
Structure prediction by ZEFSAII (Michael W. Deem and Ramdas Pophale) SiO2 
 PCOD8045363
Probable space group: P 2
;
_chemical_formula_sum "Si O2"
_cell_formula_units_Z 11
_cell_length_a 13.496038
_cell_length_b 4.910838
_cell_length_c 18.942200
_cell_angle_alpha 90.000000
_cell_angle_beta 158.346015
_cell_angle_gamma 90.000000
_cell_volume 463.254025
_symmetry_space_group_name_H-M "P 2"
_symmetry_group_IT_number 3
_symmetry_cell_setting 'monoclinic'
loop_
_space_group_symop_operation_xyz
x,y,z
-x,y,-z
loop_
_atom_site_type_symbol
_atom_site_label
_atom_site_fract_x
_atom_site_fract_y
_atom_site_fract_z
Si Si1 0.554838 0.324780 0.301019
Si Si2 0.192755 0.828816 0.061663
Si Si3 0.879835 0.938462 0.135586
Si Si4 0.000000 0.165792 0.500000
Si Si5 0.994249 0.459631 0.300446
Si Si6 0.338212 0.818638 0.826156
O O1 0.300028 0.521481 0.124906
O O2 0.751476 0.350733 0.362373
O O3 0.718340 0.375453 0.480538
O O4 0.451663 0.018881 0.240440
O O5 0.000000 0.855359 0.000000
O O6 0.019173 0.928198 0.878284
O O7 0.054984 0.742274 0.300602
O O8 0.880129 0.239493 0.169436
O O9 0.577428 0.803263 0.927526
O O10 0.908648 0.989591 0.370562
O O11 0.782881 0.529830 0.224854
O O12 0.500000 0.960180 0.000000
#
# Coordination Sequence:
#
# PCOD8045363 Si02
#       6
#     2   2   2   1   2   2
#     4  12  26  45  73 109 146 186 250 302 367 441
#     4  12  27  51  75 102 144 200 254 299 353 439
#     4  11  24  46  68 102 145 196 240 292 372 432
#     4  12  24  42  76 114 152 200 234 312 382 448
#     4  11  25  43  70 105 147 185 238 304 368 443
#     4  10  23  41  67 106 156 192 233 292 372 456
#
# _framework density 23.745072
#
# number of rings (size 3 to 8) (size 9 to 14) (size 15 to 20)
#    0.000    0.727    1.818    6.000    2.545   10.182 
#    0.000    5.455    0.000    0.000    0.000    0.000 
#    0.000    0.000    0.000    0.000    0.000    0.000 
#
# Total GULP energy -136326.319821 kJ/mol
# GULP energy per Si atom -12393.301802 kJ/mol
# Density = 2.369103 g / cm^3
# Si number density = 23.745072 Si / 1000 Ang^3
#
#
#
# Elastic Constant Matrix: (Units=GPa)
#
#
# Indices 1 2 3 4 5 6 
#
# 1 137.2693 28.6740 24.1451 0.0000 7.2742 0.0000
# 2 28.6740 94.2277 14.9333 0.0000 -5.9611 0.0000
# 3 24.1451 14.9333 78.3473 0.0000 -21.2084 0.0000
# 4 0.0000 0.0000 0.0000 45.7838 0.0000 -6.6648
# 5 7.2742 -5.9611 -21.2084 0.0000 35.8140 0.0000
# 6 0.0000 0.0000 0.0000 -6.6648 0.0000 21.0527
#
#
#
# Elastic Compliance Matrix: (Units=1/GPa)
#
#
# Indices 1 2 3 4 5 6 
#
# 1 0.008572 -0.002344 -0.003301 0.000000 -0.004086 0.000000
# 2 -0.002344 0.011599 -0.000997 0.000000 0.001816 0.000000
# 3 -0.003301 -0.000997 0.016801 0.000000 0.010454 0.000000
# 4 0.000000 0.000000 0.000000 0.022897 0.000000 0.007249
# 5 -0.004086 0.001816 0.010454 0.000000 0.035245 0.000000
# 6 0.000000 0.000000 0.000000 0.007249 0.000000 0.049795
#
#
# Mechanical properties :
#
#
# Convention : Reuss Voigt Hill
#
# Bulk Modulus (GPa) = 42.21517 49.48322 45.84919
# Shear Modulus (GPa) = 30.10484 36.66956 33.38720
#
# Velocity S-wave (km/s) = 3.56453 3.93402 3.75383
# Velocity P-wave (km/s) = 5.89561 6.44360 6.17569
#
# Compressibility (1/GPa) = 0.02368817
#
# Stress axis : x y z
#
# Youngs Moduli (GPa) = 116.66334 86.21663 59.52129
#
# Poissons Ratio (x) = 0.20207 0.19647
# Poissons Ratio (y) = 0.27343 0.05933
# Poissons Ratio (z) = 0.38510 0.08594
#
# Static dielectric constant tensor:
#      x y z
#    x 4.396440 0.000000 -0.249710 
#    y 0.000000 4.243470 0.000000 
#    z -0.249710 0.000000 4.172780 
# 
# 
# High freq. dielectric constant tensor:
#      x y z
#    x 1.930760 0.000000 -0.033260 
#    y 0.000000 1.945270 0.000000 
#    z -0.033260 0.000000 1.930170 
# 
# From -- ./inp_files/15993.got.cif
#   From: 2010.03.12/outbox.cif.g09.slc.cpg/sg3_8_cif.got.tgz:15993.got - 2010.03.31 09:20:49.
