data_PCOD8045286
_publ_section_title
;
Structure prediction by ZEFSAII (Michael W. Deem and Ramdas Pophale) SiO2 
 PCOD8045286
Probable space group: P 2
;
_chemical_formula_sum "Si O2"
_cell_formula_units_Z 12
_cell_length_a 14.241712
_cell_length_b 5.297382
_cell_length_c 13.264332
_cell_angle_alpha 90.000000
_cell_angle_beta 28.718674
_cell_angle_gamma 90.000000
_cell_volume 480.851218
_symmetry_space_group_name_H-M "P 2"
_symmetry_group_IT_number 3
_symmetry_cell_setting 'monoclinic'
loop_
_space_group_symop_operation_xyz
x,y,z
-x,y,-z
loop_
_atom_site_type_symbol
_atom_site_label
_atom_site_fract_x
_atom_site_fract_y
_atom_site_fract_z
Si Si1 0.289583 0.899490 0.484341
Si Si2 0.765071 0.217393 0.902958
Si Si3 0.965486 0.563065 0.857695
Si Si4 0.000000 0.253036 0.500000
Si Si5 0.340046 0.396374 0.309514
Si Si6 0.000000 0.222298 0.000000
Si Si7 0.312239 0.926064 0.819709
O O1 0.088117 0.822665 0.728342
O O2 0.352183 0.663385 0.354989
O O3 0.263788 0.164638 0.451770
O O4 0.455273 0.930833 0.415521
O O5 0.912315 0.440311 0.800774
O O6 0.886901 0.091191 0.694384
O O7 0.555820 0.330247 0.063869
O O8 0.727824 0.028196 0.028979
O O9 0.074654 0.376357 0.831813
O O10 0.764431 0.638016 0.104430
O O11 0.178108 0.425508 0.374454
O O12 0.805134 0.067853 0.156635
#
# Coordination Sequence:
#
# PCOD8045286 Si02
#       7
#     2   2   2   1   2   1   2
#     4  11  24  44  75  96 140 187 234 281 364 415
#     4  10  22  41  67  97 145 183 234 288 354 410
#     4  11  21  43  70  98 135 186 232 292 351 423
#     4  12  22  42  68 106 142 184 246 286 350 416
#     4  11  24  44  66 105 137 190 232 293 345 420
#     4  10  24  42  72 104 140 180 244 292 366 416
#     4  10  22  45  69  97 142 186 225 299 350 426
#
# _framework density 24.955746999999999
#
# number of rings (size 3 to 8) (size 9 to 14) (size 15 to 20)
#    0.000    1.333    3.333    2.000    2.333    0.667 
#    3.000    6.667    0.000    0.000    0.000    0.000 
#    0.000    0.000    0.000    0.000    0.000    0.000 
#
# Total GULP energy -148672.357837 kJ/mol
# GULP energy per Si atom -12389.363153 kJ/mol
# Density = 2.489895 g / cm^3
# Si number density = 24.955747 Si / 1000 Ang^3
#
#
#
# Elastic Constant Matrix: (Units=GPa)
#
#
# Indices 1 2 3 4 5 6 
#
# 1 144.7917 24.6715 50.3341 0.0000 -45.8935 0.0000
# 2 24.6715 69.8270 0.4447 0.0000 -15.1373 0.0000
# 3 50.3341 0.4447 98.6897 0.0000 -24.4365 0.0000
# 4 0.0000 0.0000 0.0000 36.3474 0.0000 -0.7083
# 5 -45.8935 -15.1373 -24.4365 0.0000 47.7901 0.0000
# 6 0.0000 0.0000 0.0000 -0.7083 0.0000 20.8399
#
#
#
# Elastic Compliance Matrix: (Units=1/GPa)
#
#
# Indices 1 2 3 4 5 6 
#
# 1 0.011117 -0.002142 -0.003646 0.000000 0.008133 0.000000
# 2 -0.002142 0.015937 0.002016 0.000000 0.004022 0.000000
# 3 -0.003646 0.002016 0.012909 0.000000 0.003738 0.000000
# 4 0.000000 0.000000 0.000000 0.027531 0.000000 0.000936
# 5 0.008133 0.004022 0.003738 0.000000 0.031920 0.000000
# 6 0.000000 0.000000 0.000000 0.000936 0.000000 0.048017
#
#
# Mechanical properties :
#
#
# Convention : Reuss Voigt Hill
#
# Bulk Modulus (GPa) = 30.84558 51.57878 41.21218
# Shear Modulus (GPa) = 30.16053 36.85267 33.50660
#
# Velocity S-wave (km/s) = 3.48021 3.84698 3.66818
# Velocity P-wave (km/s) = 5.34192 6.35966 5.87288
#
# Compressibility (1/GPa) = 0.03241955
#
# Stress axis : x y z
#
# Youngs Moduli (GPa) = 89.95427 62.74732 77.46572
#
# Poissons Ratio (x) = 0.13438 0.28247
# Poissons Ratio (y) = 0.19264 -0.15620
# Poissons Ratio (z) = 0.32801 -0.12653
#
# Static dielectric constant tensor:
#      x y z
#    x 4.684630 0.000000 -0.447460 
#    y 0.000000 4.244460 0.000000 
#    z -0.447460 0.000000 4.622210 
# 
# 
# High freq. dielectric constant tensor:
#      x y z
#    x 2.001740 0.000000 -0.026300 
#    y 0.000000 1.972910 0.000000 
#    z -0.026300 0.000000 2.002660 
# 
# From -- ./inp_files/13834.got.cif
#   From: 2010.03.12/outbox.cif.g09.slc.cpg/sg3_7_cif.got.tgz:13834.got - 2010.03.31 09:20:49.
