data_PCOD8045708
_publ_section_title
;
Structure prediction by ZEFSAII (Michael W. Deem and Ramdas Pophale) SiO2 
 PCOD8045708
Probable space group: P 21
;
_chemical_formula_sum "Si O2"
_cell_formula_units_Z 12
_cell_length_a 10.470704
_cell_length_b 5.150492
_cell_length_c 19.642530
_cell_angle_alpha 90.000000
_cell_angle_beta 150.223449
_cell_angle_gamma 90.000000
_cell_volume 526.071967
_symmetry_space_group_name_H-M "P 21"
_symmetry_group_IT_number 4
_symmetry_cell_setting 'monoclinic'
loop_
_space_group_symop_operation_xyz
x,y,z
-x,1/2+y,-z
loop_
_atom_site_type_symbol
_atom_site_label
_atom_site_fract_x
_atom_site_fract_y
_atom_site_fract_z
Si Si1 0.427887 0.453710 0.110815
Si Si2 0.339005 0.932506 0.649892
Si Si3 0.664900 0.899026 0.572996
Si Si4 0.409177 0.434174 0.881951
Si Si5 0.177864 0.431121 0.503649
Si Si6 0.114228 0.673647 0.855039
O O1 0.407116 0.446919 0.183773
O O2 0.541812 0.178663 0.142919
O O3 0.660094 0.180652 0.397240
O O4 0.153846 0.524603 0.946598
O O5 0.368082 0.182620 0.815134
O O6 0.103643 0.925463 0.594526
O O7 0.336104 0.179484 0.600118
O O8 0.450100 0.678873 0.461187
O O9 0.838028 0.927245 0.585467
O O10 0.837971 0.806986 0.717878
O O11 0.158877 0.470713 0.813653
O O12 0.658930 0.390826 0.046727
#
# Coordination Sequence:
#
# PCOD8045708 Si02
#       6
#     2   2   2   2   2   2
#     4  10  19  32  58  93 122 149 195 273 336 373
#     4  10  20  38  64  96 124 161 202 282 333 361
#     4  12  28  43  64  90 135 189 212 254 305 403
#     4  10  19  32  57  95 120 156 193 285 332 359
#     4  10  22  39  61  91 130 166 217 253 318 396
#     4  10  22  36  60  93 127 161 221 261 330 372
#
# _framework density 22.810569999999998
#
# number of rings (size 3 to 8) (size 9 to 14) (size 15 to 20)
#    1.000    0.667    1.667    3.000    2.333    4.000 
#    0.000    0.000    0.000    4.000    0.000    0.000 
#    0.000    0.000    0.000    0.000    0.000    0.000 
#
# Total GULP energy -148708.022537 kJ/mol
# GULP energy per Si atom -12392.335211 kJ/mol
# Density = 2.275865 g / cm^3
# Si number density = 22.810570 Si / 1000 Ang^3
#
#
#
# Elastic Constant Matrix: (Units=GPa)
#
#
# Indices 1 2 3 4 5 6 
#
# 1 35.8926 10.0536 12.0846 0.0000 -11.6514 0.0000
# 2 10.0536 138.7234 6.0009 0.0000 -12.6132 0.0000
# 3 12.0846 6.0009 83.8668 0.0000 -24.8375 0.0000
# 4 0.0000 0.0000 0.0000 24.9468 0.0000 -9.1317
# 5 -11.6514 -12.6132 -24.8375 0.0000 33.4404 0.0000
# 6 0.0000 0.0000 0.0000 -9.1317 0.0000 30.8625
#
#
#
# Elastic Compliance Matrix: (Units=1/GPa)
#
#
# Indices 1 2 3 4 5 6 
#
# 1 0.031849 -0.001389 -0.001742 0.000000 0.009279 0.000000
# 2 -0.001389 0.007535 0.000461 0.000000 0.002700 0.000000
# 3 -0.001742 0.000461 0.015401 0.000000 0.011006 0.000000
# 4 0.000000 0.000000 0.000000 0.044954 0.000000 0.013301
# 5 0.009279 0.002700 0.011006 0.000000 0.042330 0.000000
# 6 0.000000 0.000000 0.000000 0.013301 0.000000 0.036337
#
#
# Mechanical properties :
#
#
# Convention : Reuss Voigt Hill
#
# Bulk Modulus (GPa) = 20.22475 34.97345 27.59910
# Shear Modulus (GPa) = 24.97157 33.20620 29.08888
#
# Velocity S-wave (km/s) = 3.31227 3.81955 3.57492
# Velocity P-wave (km/s) = 4.84911 5.90063 5.40052
#
# Compressibility (1/GPa) = 0.04944436
#
# Stress axis : x y z
#
# Youngs Moduli (GPa) = 31.39857 132.71675 64.93030
#
# Poissons Ratio (x) = 0.18436 0.11309
# Poissons Ratio (y) = 0.04362 -0.02991
# Poissons Ratio (z) = 0.05469 -0.06114
#
# Static dielectric constant tensor:
#      x y z
#    x 3.552830 0.000000 -0.366860 
#    y 0.000000 4.411260 0.000000 
#    z -0.366860 0.000000 3.964550 
# 
# 
# High freq. dielectric constant tensor:
#      x y z
#    x 1.849330 0.000000 -0.038590 
#    y 0.000000 1.920030 0.000000 
#    z -0.038590 0.000000 1.890340 
# 
# From -- ./inp_files/15665.got.cif
#   From: 2010.03.12/outbox.cif.g09.slc.cpg/sg4_8_cif.got.tgz:15665.got - 2010.03.31 09:31:35.
