data_PCOD8045977
_publ_section_title
;
Structure prediction by ZEFSAII (Michael W. Deem and Ramdas Pophale) SiO2 
 PCOD8045977
Probable space group: P 21
;
_chemical_formula_sum "Si O2"
_cell_formula_units_Z 16
_cell_length_a 27.692864
_cell_length_b 7.675366
_cell_length_c 9.900352
_cell_angle_alpha 90.000000
_cell_angle_beta 154.754459
_cell_angle_gamma 90.000000
_cell_volume 897.501035
_symmetry_space_group_name_H-M "P 21"
_symmetry_group_IT_number 4
_symmetry_cell_setting 'monoclinic'
loop_
_space_group_symop_operation_xyz
x,y,z
-x,1/2+y,-z
loop_
_atom_site_type_symbol
_atom_site_label
_atom_site_fract_x
_atom_site_fract_y
_atom_site_fract_z
Si Si1 0.988294 0.014160 0.623343
Si Si2 0.988298 0.632688 0.623349
Si Si3 0.526920 0.014554 0.718480
Si Si4 0.317326 0.823426 0.826439
Si Si5 0.473083 0.132293 0.281525
Si Si6 0.334590 0.823429 0.352948
Si Si7 0.189087 0.823428 0.231827
Si Si8 0.839516 0.323426 0.315744
O O1 0.916221 0.151694 0.527365
O O2 0.999999 0.073427 0.500000
O O3 0.927813 0.823423 0.474124
O O4 0.113567 0.995614 0.007347
O O5 0.916230 0.495149 0.527386
O O6 0.113572 0.651239 0.007352
O O7 0.413048 0.323422 0.134315
O O8 0.499998 0.573421 0.499997
O O9 0.591769 0.495577 0.499324
O O10 0.605997 0.151716 0.994845
O O11 0.221997 0.823425 0.471366
O O12 0.259343 0.823433 0.825342
O O13 0.394008 0.995130 0.005162
O O14 0.591771 0.151278 0.499327
O O15 0.303813 0.823433 0.433097
O O16 0.215980 0.823430 0.972791
#
# Coordination Sequence:
#
# PCOD8045977 Si02
#       8
#     2   2   2   2   2   2   2   2
#     4  10  20  38  63  91 115 152 209 237 286 372
#     4  10  20  38  63  91 115 152 209 237 286 372
#     4  10  20  38  63  92 114 154 209 237 282 374
#     4  12  24  42  60  85 133 152 192 261 293 341
#     4  10  20  38  63  92 114 154 209 237 282 374
#     4  10  20  38  64  90 115 156 207 237 296 357
#     4  10  24  42  58  91 123 154 196 257 297 339
#     4  12  20  38  66  86 119 160 193 249 294 349
#
# _framework density 17.827279000000001
#
# number of rings (size 3 to 8) (size 9 to 14) (size 15 to 20)
#    1.500    0.000    7.500    0.000    0.000    3.000 
#    4.500    1.250    0.000    0.000    0.000    0.000 
#    0.000    0.000    0.000    0.000    0.000    0.000 
#
# Total GULP energy -198295.482557 kJ/mol
# GULP energy per Si atom -12393.467660 kJ/mol
# Density = 1.778670 g / cm^3
# Si number density = 17.827279 Si / 1000 Ang^3
#
#
#
# Elastic Constant Matrix: (Units=GPa)
#
#
# Indices 1 2 3 4 5 6 
#
# 1 46.5764 23.3117 14.6572 0.0000 11.5932 0.0000
# 2 23.3117 148.1477 47.3760 0.0000 11.0906 0.0000
# 3 14.6572 47.3760 93.4463 0.0000 -5.8454 0.0000
# 4 0.0000 0.0000 0.0000 42.0454 0.0000 10.9215
# 5 11.5932 11.0906 -5.8454 0.0000 36.3434 0.0000
# 6 0.0000 0.0000 0.0000 10.9215 0.0000 24.5852
#
#
#
# Elastic Compliance Matrix: (Units=1/GPa)
#
#
# Indices 1 2 3 4 5 6 
#
# 1 0.025701 -0.002382 -0.003325 0.000000 -0.008006 0.000000
# 2 -0.002382 0.008650 -0.004171 0.000000 -0.002551 0.000000
# 3 -0.003325 -0.004171 0.013621 0.000000 0.004524 0.000000
# 4 0.000000 0.000000 0.000000 0.026886 0.000000 -0.011944
# 5 -0.008006 -0.002551 0.004524 0.000000 0.031575 0.000000
# 6 0.000000 0.000000 0.000000 -0.011944 0.000000 0.045981
#
#
# Mechanical properties :
#
#
# Convention : Reuss Voigt Hill
#
# Bulk Modulus (GPa) = 35.44040 50.98445 43.21242
# Shear Modulus (GPa) = 27.53696 34.11649 30.82672
#
# Velocity S-wave (km/s) = 3.93447 4.37936 4.16286
# Velocity P-wave (km/s) = 6.36892 7.36430 6.88462
#
# Compressibility (1/GPa) = 0.02821639
#
# Stress axis : x y z
#
# Youngs Moduli (GPa) = 38.90866 115.61157 73.41839
#
# Poissons Ratio (x) = 0.27535 0.24409
# Poissons Ratio (y) = 0.09267 0.30625
# Poissons Ratio (z) = 0.12936 0.48224
#
# Static dielectric constant tensor:
#      x y z
#    x 3.053250 0.000000 0.144600 
#    y 0.000000 3.624450 0.000000 
#    z 0.144600 0.000000 3.162010 
# 
# 
# High freq. dielectric constant tensor:
#      x y z
#    x 1.680290 0.000000 0.007630 
#    y 0.000000 1.687310 0.000000 
#    z 0.007630 0.000000 1.676850 
# 
# From -- ./inp_files/10080.got.cif
#   From: 2010.03.12/outbox.cif.g09.slc.cpg/sg4_6_cif.got.tgz:10080.got - 2010.03.31 09:31:35.
