data_PCOD8045571
_publ_section_title
;
Structure prediction by ZEFSAII (Michael W. Deem and Ramdas Pophale) SiO2 
 PCOD8045571
Probable space group: P 2
;
_chemical_formula_sum "Si O2"
_cell_formula_units_Z 8
_cell_length_a 7.715652
_cell_length_b 8.155001
_cell_length_c 8.313976
_cell_angle_alpha 90.000000
_cell_angle_beta 36.844623
_cell_angle_gamma 90.000000
_cell_volume 313.690316
_symmetry_space_group_name_H-M "P 2"
_symmetry_group_IT_number 3
_symmetry_cell_setting 'monoclinic'
loop_
_space_group_symop_operation_xyz
x,y,z
-x,y,-z
loop_
_atom_site_type_symbol
_atom_site_label
_atom_site_fract_x
_atom_site_fract_y
_atom_site_fract_z
Si Si1 0.897163 0.472580 0.333904
Si Si2 0.000000 0.218997 0.500000
Si Si3 0.575038 0.674890 0.127803
Si Si4 0.000000 0.244267 0.000000
Si Si5 0.488850 0.033360 0.699638
O O1 0.629440 0.541399 0.634631
O O2 0.791144 0.361344 0.262921
O O3 0.098628 0.348318 0.288770
O O4 0.093210 0.617867 0.116545
O O5 0.250036 0.103110 0.386490
O O6 0.546144 0.841958 0.245875
O O7 0.500000 0.707896 0.000000
O O8 0.800170 0.130756 0.032576
O O9 0.500000 0.063185 0.500000
#
# Coordination Sequence:
#
# PCOD8045571 Si02
#       5
#     2   1   2   1   2
#     4  12  28  52  84 118 162 219 278 338 408 487
#     4  12  26  56  84 114 162 218 276 338 400 486
#     4  12  29  50  81 119 166 217 272 338 415 486
#     4  12  30  52  82 122 166 216 276 342 408 488
#     4  12  31  52  81 122 168 217 271 337 416 491
#
# _framework density 25.502859999999998
#
# number of rings (size 3 to 8) (size 9 to 14) (size 15 to 20)
#    0.000    0.000    5.000    1.500   14.000    0.000 
#    0.000    0.000    0.000    0.000    0.000    0.000 
#    0.000    0.000    0.000    0.000    0.000    0.000 
#
# Total GULP energy -99124.883499 kJ/mol
# GULP energy per Si atom -12390.610437 kJ/mol
# Density = 2.544481 g / cm^3
# Si number density = 25.502860 Si / 1000 Ang^3
#
#
#
# Elastic Constant Matrix: (Units=GPa)
#
#
# Indices 1 2 3 4 5 6 
#
# 1 108.5899 43.7414 13.0785 0.0000 -6.4189 0.0000
# 2 43.7414 139.3338 25.3910 0.0000 3.6424 0.0000
# 3 13.0785 25.3910 94.6718 0.0000 -0.5734 0.0000
# 4 0.0000 0.0000 0.0000 38.2869 0.0000 7.8090
# 5 -6.4189 3.6424 -0.5734 0.0000 42.4632 0.0000
# 6 0.0000 0.0000 0.0000 7.8090 0.0000 45.5800
#
#
#
# Elastic Compliance Matrix: (Units=1/GPa)
#
#
# Indices 1 2 3 4 5 6 
#
# 1 0.010725 -0.003310 -0.000582 0.000000 0.001897 0.000000
# 2 -0.003310 0.008587 -0.001853 0.000000 -0.001262 0.000000
# 3 -0.000582 -0.001853 0.011142 0.000000 0.000221 0.000000
# 4 0.000000 0.000000 0.000000 0.027064 0.000000 -0.004637
# 5 0.001897 -0.001262 0.000221 0.000000 0.023948 0.000000
# 6 0.000000 0.000000 0.000000 -0.004637 0.000000 0.022734
#
#
# Mechanical properties :
#
#
# Convention : Reuss Voigt Hill
#
# Bulk Modulus (GPa) = 52.73862 56.33525 54.53694
# Shear Modulus (GPa) = 40.97972 42.62500 41.80236
#
# Velocity S-wave (km/s) = 4.01292 4.09269 4.05300
# Velocity P-wave (km/s) = 6.49583 6.66867 6.58282
#
# Compressibility (1/GPa) = 0.01896144
#
# Stress axis : x y z
#
# Youngs Moduli (GPa) = 93.24291 116.45568 89.75330
#
# Poissons Ratio (x) = 0.38551 0.05226
# Poissons Ratio (y) = 0.30866 0.16635
# Poissons Ratio (z) = 0.05429 0.21583
#
# Static dielectric constant tensor:
#      x y z
#    x 4.960510 0.000000 0.430020 
#    y 0.000000 4.757400 0.000000 
#    z 0.430020 0.000000 4.637940 
# 
# 
# High freq. dielectric constant tensor:
#      x y z
#    x 2.028920 0.000000 0.018500 
#    y 0.000000 2.041570 0.000000 
#    z 0.018500 0.000000 2.016410 
# 
# From -- ./inp_files/5029.got.cif
#   From: 2010.03.12/outbox.cif.g09.slc.cpg/sg3_3_cif.got.tgz:5029.got - 2010.03.31 09:20:49.
