data_PCOD8045299
_publ_section_title
;
Structure prediction by ZEFSAII (Michael W. Deem and Ramdas Pophale) SiO2 
 PCOD8045299
Probable space group: P 2
;
_chemical_formula_sum "Si O2"
_cell_formula_units_Z 16
_cell_length_a 8.911915
_cell_length_b 8.786437
_cell_length_c 19.335655
_cell_angle_alpha 90.000000
_cell_angle_beta 27.729623
_cell_angle_gamma 90.000000
_cell_volume 704.491150
_symmetry_space_group_name_H-M "P 2"
_symmetry_group_IT_number 3
_symmetry_cell_setting 'monoclinic'
loop_
_space_group_symop_operation_xyz
x,y,z
-x,y,-z
loop_
_atom_site_type_symbol
_atom_site_label
_atom_site_fract_x
_atom_site_fract_y
_atom_site_fract_z
Si Si1 0.773013 0.516130 0.531240
Si Si2 0.067560 0.341572 0.297940
Si Si3 0.529174 0.838602 0.667859
Si Si4 0.749680 0.029756 0.455424
Si Si5 0.239686 0.206723 0.962088
Si Si6 0.932963 0.393173 0.193410
Si Si7 0.412706 0.901203 0.200552
Si Si8 0.902260 0.671584 0.962116
O O1 0.720287 0.695595 0.558700
O O2 0.442370 0.421569 0.666749
O O3 0.000000 0.453821 0.500000
O O4 0.959974 0.491714 0.383080
O O5 0.430153 0.302400 0.171796
O O6 0.029718 0.381173 0.233358
O O7 0.820932 0.209414 0.423356
O O8 0.591978 0.983707 0.593154
O O9 0.669212 0.882684 0.685202
O O10 0.154274 0.794097 0.828330
O O11 0.500000 0.977949 0.500000
O O12 0.078538 0.943127 0.300869
O O13 0.315040 0.029721 0.921582
O O14 0.000000 0.265527 0.000000
O O15 0.046458 0.234288 0.112624
O O16 0.132337 0.527254 0.073772
O O17 0.550303 0.748500 0.109743
O O18 0.000000 0.621129 0.000000
#
# Coordination Sequence:
#
# PCOD8045299 Si02
#       8
#     2   2   2   2   2   2   2   2
#     4  11  23  41  67  95 127 167 214 265 317 375
#     4  11  26  43  62  94 132 169 211 262 317 378
#     4  10  22  42  66  93 126 161 207 266 316 368
#     4  11  24  41  62  90 130 169 207 255 316 380
#     4  11  23  41  67  94 125 167 214 262 318 379
#     4  11  23  42  64  91 133 172 207 260 318 376
#     4  10  22  42  67  95 125 161 212 265 314 374
#     4   9  20  40  67  98 126 162 211 263 315 372
#
# _framework density 22.711428000000002
#
# number of rings (size 3 to 8) (size 9 to 14) (size 15 to 20)
#    0.000    1.500    0.000    4.875    0.000   11.000 
#    0.000    4.375    0.000    0.000    0.000    0.000 
#    0.000    0.000    0.000    0.000    0.000    0.000 
#
# Total GULP energy -198422.453999 kJ/mol
# GULP energy per Si atom -12401.403375 kJ/mol
# Density = 2.265974 g / cm^3
# Si number density = 22.711428 Si / 1000 Ang^3
#
#
#
# Elastic Constant Matrix: (Units=GPa)
#
#
# Indices 1 2 3 4 5 6 
#
# 1 155.0383 58.2288 77.5591 0.0000 4.6053 0.0000
# 2 58.2288 96.8713 62.8846 0.0000 13.4442 0.0000
# 3 77.5591 62.8846 107.6148 0.0000 21.0769 0.0000
# 4 0.0000 0.0000 0.0000 58.4145 0.0000 4.2327
# 5 4.6053 13.4442 21.0769 0.0000 46.3453 0.0000
# 6 0.0000 0.0000 0.0000 4.2327 0.0000 24.4880
#
#
#
# Elastic Compliance Matrix: (Units=1/GPa)
#
#
# Indices 1 2 3 4 5 6 
#
# 1 0.010685 -0.002345 -0.006867 0.000000 0.002742 0.000000
# 2 -0.002345 0.017155 -0.008129 0.000000 -0.001046 0.000000
# 3 -0.006867 -0.008129 0.020195 0.000000 -0.006144 0.000000
# 4 0.000000 0.000000 0.000000 0.017336 0.000000 -0.002997
# 5 0.002742 -0.001046 -0.006144 0.000000 0.024402 0.000000
# 6 0.000000 0.000000 0.000000 -0.002997 0.000000 0.041354
#
#
# Mechanical properties :
#
#
# Convention : Reuss Voigt Hill
#
# Bulk Modulus (GPa) = 74.89706 84.09660 79.49683
# Shear Modulus (GPa) = 29.36645 36.57301 32.96973
#
# Velocity S-wave (km/s) = 3.59977 4.01725 3.81423
# Velocity P-wave (km/s) = 7.09416 7.65679 7.38084
#
# Compressibility (1/GPa) = 0.01335166
#
# Stress axis : x y z
#
# Youngs Moduli (GPa) = 93.59165 58.29144 49.51628
#
# Poissons Ratio (x) = 0.13670 0.34004
# Poissons Ratio (y) = 0.21949 0.40254
# Poissons Ratio (z) = 0.64271 0.47388
#
# Static dielectric constant tensor:
#      x y z
#    x 3.936000 0.000000 -0.065780 
#    y 0.000000 4.071700 0.000000 
#    z -0.065780 0.000000 4.308300 
# 
# 
# High freq. dielectric constant tensor:
#      x y z
#    x 1.885630 0.000000 -0.008420 
#    y 0.000000 1.892410 0.000000 
#    z -0.008420 0.000000 1.919310 
# 
# From -- ./inp_files/15042.got.cif
#   From: 2010.03.12/outbox.cif.g09.slc.cpg/sg3_8_cif.got.tgz:15042.got - 2010.03.31 09:20:49.
