data_PCOD8045969
_publ_section_title
;
Structure prediction by ZEFSAII (Michael W. Deem and Ramdas Pophale) SiO2 
 PCOD8045969
Probable space group: P 21
;
_chemical_formula_sum "Si O2"
_cell_formula_units_Z 6
_cell_length_a 14.524375
_cell_length_b 4.893332
_cell_length_c 8.644719
_cell_angle_alpha 90.000000
_cell_angle_beta 28.254756
_cell_angle_gamma 90.000000
_cell_volume 290.853740
_symmetry_space_group_name_H-M "P 21"
_symmetry_group_IT_number 4
_symmetry_cell_setting 'monoclinic'
loop_
_space_group_symop_operation_xyz
x,y,z
-x,1/2+y,-z
loop_
_atom_site_type_symbol
_atom_site_label
_atom_site_fract_x
_atom_site_fract_y
_atom_site_fract_z
Si Si1 0.904233 0.718590 0.213382
Si Si2 0.494261 0.841782 0.902606
Si Si3 0.907705 0.561596 0.562307
O O1 0.677279 0.789168 0.518659
O O2 0.935648 0.607902 0.339294
O O3 0.965057 0.486584 0.002139
O O4 0.434046 0.560976 0.075931
O O5 0.310031 0.952630 0.079464
O O6 0.065445 0.341036 0.383818
#
# Coordination Sequence:
#
# PCOD8045969 Si02
#       3
#     2   2   2
#     4  11  22  39  63  90 118 155 199 245 291 348
#     4  10  20  38  62  86 116 162 200 228 288 372
#     4  11  22  39  63  90 118 155 199 245 291 348
#
# _framework density 20.628927000000001
#
# number of rings (size 3 to 8) (size 9 to 14) (size 15 to 20)
#    0.000    1.333    0.000   10.000    0.000    0.000 
#    0.000    6.667    0.000    8.000    0.000    0.000 
#    0.000    0.000    0.000    0.000    0.000    0.000 
#
# Total GULP energy -74421.242775 kJ/mol
# GULP energy per Si atom -12403.540462 kJ/mol
# Density = 2.058197 g / cm^3
# Si number density = 20.628927 Si / 1000 Ang^3
#
#
#
# Elastic Constant Matrix: (Units=GPa)
#
#
# Indices 1 2 3 4 5 6 
#
# 1 53.6549 -6.6001 35.2907 0.0000 -11.8291 0.0000
# 2 -6.6001 88.5937 40.1553 0.0000 8.3662 0.0000
# 3 35.2907 40.1553 142.7431 0.0000 0.1543 0.0000
# 4 0.0000 0.0000 0.0000 45.9935 0.0000 2.3059
# 5 -11.8291 8.3662 0.1543 0.0000 18.4174 0.0000
# 6 0.0000 0.0000 0.0000 2.3059 0.0000 46.6625
#
#
#
# Elastic Compliance Matrix: (Units=1/GPa)
#
#
# Indices 1 2 3 4 5 6 
#
# 1 0.028099 0.004266 -0.008165 0.000000 0.016178 0.000000
# 2 0.004266 0.014246 -0.005058 0.000000 -0.003689 0.000000
# 3 -0.008165 -0.005058 0.010450 0.000000 -0.003034 0.000000
# 4 0.000000 0.000000 0.000000 0.021796 0.000000 -0.001077
# 5 0.016178 -0.003689 -0.003034 0.000000 0.066388 0.000000
# 6 0.000000 0.000000 0.000000 -0.001077 0.000000 0.021484
#
#
# Mechanical properties :
#
#
# Convention : Reuss Voigt Hill
#
# Bulk Modulus (GPa) = 28.66769 46.96484 37.81626
# Shear Modulus (GPa) = 26.04087 36.62439 31.33263
#
# Velocity S-wave (km/s) = 3.55681 4.21811 3.90149
# Velocity P-wave (km/s) = 5.54931 6.82196 6.21828
#
# Compressibility (1/GPa) = 0.03488248
#
# Stress axis : x y z
#
# Youngs Moduli (GPa) = 35.58801 70.19290 95.68957
#
# Poissons Ratio (x) = -0.29946 0.78128
# Poissons Ratio (y) = -0.15183 0.48404
# Poissons Ratio (z) = 0.29057 0.35507
#
# Static dielectric constant tensor:
#      x y z
#    x 3.426200 0.000000 -0.175240 
#    y 0.000000 4.144060 0.000000 
#    z -0.175240 0.000000 3.841220 
# 
# 
# High freq. dielectric constant tensor:
#      x y z
#    x 1.771650 0.000000 -0.016280 
#    y 0.000000 1.840540 0.000000 
#    z -0.016280 0.000000 1.809430 
# 
# From -- ./inp_files/856.got.cif
#   From: 2010.03.12/outbox.cif.g09.slc.cpg/sg4_1_cif.got.tgz:856.got - 2010.03.31 09:31:35.
