data_PCOD8045898
_publ_section_title
;
Structure prediction by ZEFSAII (Michael W. Deem and Ramdas Pophale) SiO2 
 PCOD8045898
Probable space group: P 21
;
_chemical_formula_sum "Si O2"
_cell_formula_units_Z 14
_cell_length_a 12.493241
_cell_length_b 4.999900
_cell_length_c 13.859358
_cell_angle_alpha 90.000000
_cell_angle_beta 46.587477
_cell_angle_gamma 90.000000
_cell_volume 628.883238
_symmetry_space_group_name_H-M "P 21"
_symmetry_group_IT_number 4
_symmetry_cell_setting 'monoclinic'
loop_
_space_group_symop_operation_xyz
x,y,z
-x,1/2+y,-z
loop_
_atom_site_type_symbol
_atom_site_label
_atom_site_fract_x
_atom_site_fract_y
_atom_site_fract_z
Si Si1 0.535309 0.051980 0.853079
Si Si2 0.951212 0.632023 0.474892
Si Si3 0.841690 0.167420 0.299687
Si Si4 0.645348 0.053059 0.994273
Si Si5 0.026007 0.658991 0.211305
Si Si6 0.547177 0.008187 0.413548
Si Si7 0.323690 0.823405 0.407891
O O1 0.398339 0.256482 0.945993
O O2 0.633891 0.106542 0.698443
O O3 0.469813 0.755385 0.884713
O O4 0.638784 0.084359 0.882582
O O5 0.779862 0.549281 0.575424
O O6 0.960429 0.933587 0.508484
O O7 0.027646 0.609876 0.324311
O O8 0.717208 0.101678 0.296521
O O9 0.972737 0.954278 0.218077
O O10 0.760632 0.167731 0.453980
O O11 0.914103 0.451552 0.229912
O O12 0.809420 0.116493 0.929545
O O13 0.548300 0.731560 0.472189
O O14 0.471945 0.964514 0.356263
#
# Coordination Sequence:
#
# PCOD8045898 Si02
#       7
#     2   2   2   2   2   2   2
#     4  10  22  37  56  81 113 152 195 228 266 326
#     4  11  22  33  51  84 118 146 180 228 284 338
#     4  10  21  36  59  88 110 142 182 234 291 337
#     4  10  22  38  55  79 113 157 193 227 266 322
#     4  11  21  37  57  79 114 150 186 226 282 338
#     4  10  20  36  57  85 118 144 180 228 284 343
#     4  10  22  37  59  86 116 147 184 231 285 332
#
# _framework density 22.261682
#
# number of rings (size 3 to 8) (size 9 to 14) (size 15 to 20)
#    0.000    1.714    0.000    6.000    0.000   10.286 
#    0.000    0.000    0.000    3.429    0.000    0.000 
#    0.000    0.000    0.000    0.000    0.000    0.000 
#
# Total GULP energy -173662.803651 kJ/mol
# GULP energy per Si atom -12404.485975 kJ/mol
# Density = 2.221101 g / cm^3
# Si number density = 22.261682 Si / 1000 Ang^3
#
#
#
# Elastic Constant Matrix: (Units=GPa)
#
#
# Indices 1 2 3 4 5 6 
#
# 1 76.8511 2.7577 8.8072 0.0000 -18.8737 0.0000
# 2 2.7577 67.8351 -7.0432 0.0000 3.4040 0.0000
# 3 8.8072 -7.0432 44.8115 0.0000 -14.1377 0.0000
# 4 0.0000 0.0000 0.0000 20.1289 0.0000 -8.9641
# 5 -18.8737 3.4040 -14.1377 0.0000 30.4416 0.0000
# 6 0.0000 0.0000 0.0000 -8.9641 0.0000 34.2721
#
#
#
# Elastic Compliance Matrix: (Units=1/GPa)
#
#
# Indices 1 2 3 4 5 6 
#
# 1 0.015434 -0.001128 -0.000178 0.000000 0.009612 0.000000
# 2 -0.001128 0.015081 0.002155 0.000000 -0.001385 0.000000
# 3 -0.000178 0.002155 0.026455 0.000000 0.011935 0.000000
# 4 0.000000 0.000000 0.000000 0.056229 0.000000 0.014707
# 5 0.009612 -0.001385 0.011935 0.000000 0.044507 0.000000
# 6 0.000000 0.000000 0.000000 0.014707 0.000000 0.033025
#
#
# Mechanical properties :
#
#
# Convention : Reuss Voigt Hill
#
# Bulk Modulus (GPa) = 17.04541 22.06013 19.55277
# Shear Modulus (GPa) = 23.97060 29.30024 26.63542
#
# Velocity S-wave (km/s) = 3.28497 3.63185 3.46275
# Velocity P-wave (km/s) = 4.69697 5.24577 4.97893
#
# Compressibility (1/GPa) = 0.05866681
#
# Stress axis : x y z
#
# Youngs Moduli (GPa) = 64.79311 66.30969 37.80044
#
# Poissons Ratio (x) = 0.07481 0.00673
# Poissons Ratio (y) = 0.07310 -0.08146
# Poissons Ratio (z) = 0.01154 -0.14290
#
# Static dielectric constant tensor:
#      x y z
#    x 4.046150 0.000000 -0.217530 
#    y 0.000000 4.077560 0.000000 
#    z -0.217530 0.000000 3.568330 
# 
# 
# High freq. dielectric constant tensor:
#      x y z
#    x 1.871370 0.000000 -0.027600 
#    y 0.000000 1.889700 0.000000 
#    z -0.027600 0.000000 1.844450 
# 
# From -- ./inp_files/9454.got.cif
#   From: 2010.03.12/outbox.cif.g09.slc.cpg/sg4_5_cif.got.tgz:9454.got - 2010.03.31 09:31:35.
