data_PCOD8045997
_publ_section_title
;
Structure prediction by ZEFSAII (Michael W. Deem and Ramdas Pophale) SiO2 
 PCOD8045997
Probable space group: P 21
;
_chemical_formula_sum "Si O2"
_cell_formula_units_Z 14
_cell_length_a 6.246330
_cell_length_b 15.851649
_cell_length_c 7.395145
_cell_angle_alpha 90.000000
_cell_angle_beta 137.902510
_cell_angle_gamma 90.000000
_cell_volume 490.881040
_symmetry_space_group_name_H-M "P 21"
_symmetry_group_IT_number 4
_symmetry_cell_setting 'monoclinic'
loop_
_space_group_symop_operation_xyz
x,y,z
-x,1/2+y,-z
loop_
_atom_site_type_symbol
_atom_site_label
_atom_site_fract_x
_atom_site_fract_y
_atom_site_fract_z
Si Si1 0.178832 0.674990 0.461251
Si Si2 0.035164 0.525242 0.882429
Si Si3 0.255413 0.861604 0.419391
Si Si4 0.658196 0.568648 0.992638
Si Si5 0.587612 0.393534 0.108149
Si Si6 0.739827 0.813382 0.415696
Si Si7 0.566608 0.630960 0.361732
O O1 0.124826 0.776797 0.446787
O O2 0.304996 0.667039 0.336390
O O3 0.854695 0.618517 0.273446
O O4 0.425067 0.637178 0.758114
O O5 0.039212 0.424780 0.823825
O O6 0.777504 0.560106 0.583698
O O7 0.911827 0.531908 0.008560
O O8 0.359682 0.584004 0.071328
O O9 0.486318 0.900607 0.720297
O O10 0.449602 0.840148 0.363598
O O11 0.489487 0.485214 0.964830
O O12 0.964346 0.370249 0.331380
O O13 0.377339 0.327879 0.863882
O O14 0.797013 0.711603 0.458994
#
# Coordination Sequence:
#
# PCOD8045997 Si02
#       7
#     2   2   2   2   2   2   2
#     4   9  21  40  67  93 138 181 221 280 353 404
#     4  10  20  38  69  95 135 177 228 280 343 412
#     4  11  26  46  73 106 138 186 236 290 348 420
#     4  10  20  42  66  96 137 182 221 285 347 406
#     4  12  26  44  73 104 137 183 240 281 353 424
#     4  11  25  47  72  98 146 181 226 300 347 414
#     4   9  20  39  66  98 129 182 224 274 357 406
#
# _framework density 28.520150000000001
#
# number of rings (size 3 to 8) (size 9 to 14) (size 15 to 20)
#    0.000    1.714    1.429    1.714    4.000    8.000 
#    7.714    0.000    0.000    0.000    0.000    0.000 
#    0.000    0.000    0.000    0.000    0.000    0.000 
#
# Total GULP energy -173621.657155 kJ/mol
# GULP energy per Si atom -12401.546940 kJ/mol
# Density = 2.845524 g / cm^3
# Si number density = 28.520150 Si / 1000 Ang^3
#
#
#
# Elastic Constant Matrix: (Units=GPa)
#
#
# Indices 1 2 3 4 5 6 
#
# 1 84.5723 54.4449 -0.4929 0.0000 -1.9182 0.0000
# 2 54.4449 185.6602 69.0306 0.0000 -0.3775 0.0000
# 3 -0.4929 69.0306 145.6003 0.0000 -2.3697 0.0000
# 4 0.0000 0.0000 0.0000 52.6184 0.0000 6.1132
# 5 -1.9182 -0.3775 -2.3697 0.0000 47.2349 0.0000
# 6 0.0000 0.0000 0.0000 6.1132 0.0000 64.2977
#
#
#
# Elastic Compliance Matrix: (Units=1/GPa)
#
#
# Indices 1 2 3 4 5 6 
#
# 1 0.015404 -0.005511 0.002677 0.000000 0.000716 0.000000
# 2 -0.005511 0.008511 -0.004060 0.000000 -0.000359 0.000000
# 3 0.002677 -0.004060 0.008810 0.000000 0.000518 0.000000
# 4 0.000000 0.000000 0.000000 0.019217 0.000000 -0.001827
# 5 0.000716 -0.000359 0.000518 0.000000 0.021223 0.000000
# 6 0.000000 0.000000 0.000000 -0.001827 0.000000 0.015726
#
#
# Mechanical properties :
#
#
# Convention : Reuss Voigt Hill
#
# Bulk Modulus (GPa) = 52.80632 73.53310 63.16971
# Shear Modulus (GPa) = 45.87507 52.35355 49.11431
#
# Velocity S-wave (km/s) = 4.01498 4.28912 4.15431
# Velocity P-wave (km/s) = 6.32843 7.09701 6.72371
#
# Compressibility (1/GPa) = 0.01893713
#
# Stress axis : x y z
#
# Youngs Moduli (GPa) = 64.91925 117.49593 113.50320
#
# Poissons Ratio (x) = 0.64750 -0.30380
# Poissons Ratio (y) = 0.35776 0.46078
# Poissons Ratio (z) = -0.17376 0.47699
#
# Static dielectric constant tensor:
#      x y z
#    x 6.230900 0.000000 -0.121060 
#    y 0.000000 5.662360 0.000000 
#    z -0.121060 0.000000 5.024090 
# 
# 
# High freq. dielectric constant tensor:
#      x y z
#    x 2.233210 0.000000 0.000590 
#    y 0.000000 2.182870 0.000000 
#    z 0.000590 0.000000 2.156800 
# 
# From -- ./inp_files/6935.got.cif
#   From: 2010.03.12/outbox.cif.g09.slc.cpg/sg4_4_cif.got.tgz:6935.got - 2010.03.31 09:31:35.
