data_PCOD8045874
_publ_section_title
;
Structure prediction by ZEFSAII (Michael W. Deem and Ramdas Pophale) SiO2 
 PCOD8045874
Probable space group: P 21
;
_chemical_formula_sum "Si O2"
_cell_formula_units_Z 12
_cell_length_a 12.994599
_cell_length_b 5.087203
_cell_length_c 12.976398
_cell_angle_alpha 90.000000
_cell_angle_beta 134.030690
_cell_angle_gamma 90.000000
_cell_volume 616.744709
_symmetry_space_group_name_H-M "P 21"
_symmetry_group_IT_number 4
_symmetry_cell_setting 'monoclinic'
loop_
_space_group_symop_operation_xyz
x,y,z
-x,1/2+y,-z
loop_
_atom_site_type_symbol
_atom_site_label
_atom_site_fract_x
_atom_site_fract_y
_atom_site_fract_z
Si Si1 0.560762 0.951990 0.763977
Si Si2 0.674172 0.678384 0.525165
Si Si3 0.574395 0.893657 0.011502
Si Si4 0.118032 0.357344 0.688073
Si Si5 0.937207 0.857032 0.584156
Si Si6 0.608453 0.439926 0.681784
O O1 0.618490 0.668070 0.773586
O O2 0.394735 0.994467 0.612774
O O3 0.658891 0.173342 0.774669
O O4 0.570861 0.991085 0.892226
O O5 0.819879 0.811349 0.590276
O O6 0.705097 0.507133 0.649646
O O7 0.557439 0.905677 0.472925
O O8 0.731579 0.803275 0.153892
O O9 0.472531 0.640496 0.951504
O O10 0.138381 0.334140 0.579479
O O11 0.062381 0.643229 0.681496
O O12 0.004356 0.142954 0.648860
#
# Coordination Sequence:
#
# PCOD8045874 Si02
#       6
#     2   2   2   2   2   2
#     4  10  21  34  55  88 121 147 186 262 289 340
#     4  10  20  35  61  90 116 154 193 246 311 332
#     4  12  24  39  62  84 119 161 202 244 296 359
#     4  10  23  40  52  92 115 160 198 235 294 358
#     4  10  22  36  62  78 127 154 193 245 290 361
#     4  10  20  34  56  94 118 142 204 250 296 344
#
# _framework density 19.456996
#
# number of rings (size 3 to 8) (size 9 to 14) (size 15 to 20)
#    1.000    0.667    1.667    3.000    4.667    1.333 
#    0.000    0.000    0.000    4.000    0.000    0.000 
#    0.000    0.000    0.000    0.000    0.000    0.000 
#
# Total GULP energy -148789.585199 kJ/mol
# GULP energy per Si atom -12399.132100 kJ/mol
# Density = 1.941271 g / cm^3
# Si number density = 19.456996 Si / 1000 Ang^3
#
#
#
# Elastic Constant Matrix: (Units=GPa)
#
#
# Indices 1 2 3 4 5 6 
#
# 1 97.1582 15.1972 33.5546 0.0000 -12.1574 0.0000
# 2 15.1972 97.8562 15.6488 0.0000 -9.2224 0.0000
# 3 33.5546 15.6488 84.5865 0.0000 -11.0968 0.0000
# 4 0.0000 0.0000 0.0000 24.1032 0.0000 -6.9556
# 5 -12.1574 -9.2224 -11.0968 0.0000 22.4302 0.0000
# 6 0.0000 0.0000 0.0000 -6.9556 0.0000 28.1820
#
#
#
# Elastic Compliance Matrix: (Units=1/GPa)
#
#
# Indices 1 2 3 4 5 6 
#
# 1 0.012415 -0.000851 -0.004204 0.000000 0.004300 0.000000
# 2 -0.000851 0.010868 -0.001227 0.000000 0.003400 0.000000
# 3 -0.004204 -0.001227 0.014278 0.000000 0.004281 0.000000
# 4 0.000000 0.000000 0.000000 0.044670 0.000000 0.011025
# 5 0.004300 0.003400 0.004281 0.000000 0.050429 0.000000
# 6 0.000000 0.000000 0.000000 0.011025 0.000000 0.038205
#
#
# Mechanical properties :
#
#
# Convention : Reuss Voigt Hill
#
# Bulk Modulus (GPa) = 40.00163 45.37801 42.68982
# Shear Modulus (GPa) = 26.07412 29.28977 27.68194
#
# Velocity S-wave (km/s) = 3.66469 3.88411 3.77599
# Velocity P-wave (km/s) = 6.20566 6.59453 6.40305
#
# Compressibility (1/GPa) = 0.02499898
#
# Stress axis : x y z
#
# Youngs Moduli (GPa) = 80.54556 92.01436 70.03606
#
# Poissons Ratio (x) = 0.07827 0.29440
# Poissons Ratio (y) = 0.06852 0.08594
# Poissons Ratio (z) = 0.33858 0.11291
#
# Static dielectric constant tensor:
#      x y z
#    x 3.272950 0.000000 -0.150010 
#    y 0.000000 3.666520 0.000000 
#    z -0.150010 0.000000 3.187540 
# 
# 
# High freq. dielectric constant tensor:
#      x y z
#    x 1.741960 0.000000 -0.022200 
#    y 0.000000 1.776270 0.000000 
#    z -0.022200 0.000000 1.724890 
# 
# From -- ./inp_files/11653.got.cif
#   From: 2010.03.12/outbox.cif.g09.slc.cpg/sg4_6_cif.got.tgz:11653.got - 2010.03.31 09:31:35.
