data_PCOD8045109
_publ_section_title
;
Structure prediction by ZEFSAII (Michael W. Deem and Ramdas Pophale) SiO2 
 PCOD8045109
Probable space group: P 2
;
_chemical_formula_sum "Si O2"
_cell_formula_units_Z 13
_cell_length_a 8.184785
_cell_length_b 8.652898
_cell_length_c 11.302250
_cell_angle_alpha 90.000000
_cell_angle_beta 43.140518
_cell_angle_gamma 90.000000
_cell_volume 547.339114
_symmetry_space_group_name_H-M "P 2"
_symmetry_group_IT_number 3
_symmetry_cell_setting 'monoclinic'
loop_
_space_group_symop_operation_xyz
x,y,z
-x,y,-z
loop_
_atom_site_type_symbol
_atom_site_label
_atom_site_fract_x
_atom_site_fract_y
_atom_site_fract_z
Si Si1 0.043452 0.636450 0.341869
Si Si2 0.868046 0.296302 0.735450
Si Si3 0.000000 0.042290 0.500000
Si Si4 0.500000 0.771911 0.000000
Si Si5 0.728934 0.709661 0.315577
Si Si6 0.472748 0.936059 0.778071
Si Si7 0.362710 0.266579 0.898057
Si Si8 0.000000 0.498500 0.000000
O O1 0.980469 0.455417 0.349908
O O2 0.000000 0.678374 0.500000
O O3 0.883636 0.758770 0.349719
O O4 0.316596 0.657800 0.160485
O O5 0.020763 0.154400 0.602955
O O6 0.629592 0.321494 0.783933
O O7 0.800118 0.242129 0.901368
O O8 0.763057 0.935302 0.628255
O O9 0.387348 0.873292 0.952143
O O10 0.500000 0.628376 0.500000
O O11 0.638819 0.841980 0.273388
O O12 0.924520 0.600896 0.150850
O O13 0.368805 0.108235 0.820014
O O14 0.239194 0.400245 0.888970
#
# Coordination Sequence:
#
# PCOD8045109 Si02
#       8
#     2   2   1   1   2   2   2   1
#     4  12  26  45  79 110 148 201 252 326 382 450
#     4  10  20  43  76 109 141 185 260 317 370 449
#     4  10  22  44  78 108 148 202 252 314 386 450
#     4  12  26  44  76 110 148 206 256 302 386 460
#     4  12  29  48  69 114 159 200 254 312 383 463
#     4  11  26  48  73 110 158 202 256 311 380 468
#     4  10  23  45  73 108 141 196 252 309 382 450
#     4  12  26  48  74 104 154 200 244 320 388 440
#
# _framework density 23.751272
#
# number of rings (size 3 to 8) (size 9 to 14) (size 15 to 20)
#    0.000    0.923    2.308    4.615    7.538    1.846 
#    5.538    0.000    0.000    0.000    0.000    0.000 
#    0.000    0.000    0.000    0.000    0.000    0.000 
#
# Total GULP energy -161100.359992 kJ/mol
# GULP energy per Si atom -12392.335384 kJ/mol
# Density = 2.369721 g / cm^3
# Si number density = 23.751272 Si / 1000 Ang^3
#
#
#
# Elastic Constant Matrix: (Units=GPa)
#
#
# Indices 1 2 3 4 5 6 
#
# 1 131.7597 47.1929 40.4515 0.0000 22.5588 0.0000
# 2 47.1929 110.0474 35.2649 0.0000 8.3608 0.0000
# 3 40.4515 35.2649 142.4937 0.0000 15.4280 0.0000
# 4 0.0000 0.0000 0.0000 34.8647 0.0000 -9.7811
# 5 22.5588 8.3608 15.4280 0.0000 32.4130 0.0000
# 6 0.0000 0.0000 0.0000 -9.7811 0.0000 28.0360
#
#
#
# Elastic Compliance Matrix: (Units=1/GPa)
#
#
# Indices 1 2 3 4 5 6 
#
# 1 0.010235 -0.003508 -0.001438 0.000000 -0.005534 0.000000
# 2 -0.003508 0.011138 -0.001807 0.000000 0.000429 0.000000
# 3 -0.001438 -0.001807 0.008134 0.000000 -0.002404 0.000000
# 4 0.000000 0.000000 0.000000 0.031794 0.000000 0.011092
# 5 -0.005534 0.000429 -0.002404 0.000000 0.035737 0.000000
# 6 0.000000 0.000000 0.000000 0.011092 0.000000 0.039538
#
#
# Mechanical properties :
#
#
# Convention : Reuss Voigt Hill
#
# Bulk Modulus (GPa) = 62.49892 70.01328 66.25610
# Shear Modulus (GPa) = 32.17177 36.48885 34.33031
#
# Velocity S-wave (km/s) = 3.68438 3.92381 3.80598
# Velocity P-wave (km/s) = 6.66863 7.07602 6.87534
#
# Compressibility (1/GPa) = 0.01600028
#
# Stress axis : x y z
#
# Youngs Moduli (GPa) = 97.70359 89.78420 122.94564
#
# Poissons Ratio (x) = 0.31495 0.17682
# Poissons Ratio (y) = 0.34273 0.22216
# Poissons Ratio (z) = 0.14052 0.16224
#
# Static dielectric constant tensor:
#      x y z
#    x 4.308460 0.000000 0.097650 
#    y 0.000000 4.325850 0.000000 
#    z 0.097650 0.000000 4.539120 
# 
# 
# High freq. dielectric constant tensor:
#      x y z
#    x 1.928650 0.000000 0.009480 
#    y 0.000000 1.936680 0.000000 
#    z 0.009480 0.000000 1.962500 
# 
# From -- ./inp_files/10665.got.cif
#   From: 2010.03.12/outbox.cif.g09.slc.cpg/sg3_6_cif.got.tgz:10665.got - 2010.03.31 09:20:49.
