data_PCOD8045313
_publ_section_title
;
Structure prediction by ZEFSAII (Michael W. Deem and Ramdas Pophale) SiO2 
 PCOD8045313
Probable space group: P 2
;
_chemical_formula_sum "Si O2"
_cell_formula_units_Z 12
_cell_length_a 15.125966
_cell_length_b 7.225499
_cell_length_c 7.106544
_cell_angle_alpha 90.000000
_cell_angle_beta 46.487496
_cell_angle_gamma 90.000000
_cell_volume 563.276536
_symmetry_space_group_name_H-M "P 2"
_symmetry_group_IT_number 3
_symmetry_cell_setting 'monoclinic'
loop_
_space_group_symop_operation_xyz
x,y,z
-x,y,-z
loop_
_atom_site_type_symbol
_atom_site_label
_atom_site_fract_x
_atom_site_fract_y
_atom_site_fract_z
Si Si1 0.268953 0.955910 0.072374
Si Si2 0.500000 0.427737 0.500000
Si Si3 0.475091 0.113873 0.252364
Si Si4 0.903741 0.283085 0.795088
Si Si5 0.743145 0.617845 0.163257
Si Si6 0.754973 0.869961 0.464868
Si Si7 0.000000 0.065807 0.000000
O O1 0.252333 0.861055 0.300171
O O2 0.192442 0.144363 0.162280
O O3 0.220101 0.808135 0.994529
O O4 0.411037 0.001451 0.827788
O O5 0.457496 0.306036 0.385495
O O6 0.612386 0.555713 0.276660
O O7 0.351173 0.000695 0.462551
O O8 0.500000 0.161584 0.000000
O O9 0.000000 0.352556 0.500000
O O10 0.979426 0.189593 0.848526
O O11 0.840267 0.460990 0.977236
O O12 0.738718 0.666030 0.394004
O O13 0.884959 0.939437 0.208243
#
# Coordination Sequence:
#
# PCOD8045313 Si02
#       7
#     2   1   2   2   2   2   1
#     4  11  23  48  70  95 140 182 228 286 350 408
#     4  12  22  40  68 104 142 168 232 286 344 408
#     4  10  22  42  73  98 134 185 226 278 350 406
#     4  12  26  46  71  99 136 188 230 286 346 412
#     4  12  26  41  70 107 133 180 230 288 348 404
#     4  11  24  43  71 100 137 182 228 283 340 409
#     4  12  24  44  70  94 138 178 234 276 342 410
#
# _framework density 21.303923999999999
#
# number of rings (size 3 to 8) (size 9 to 14) (size 15 to 20)
#    0.000    0.667    5.000    3.000    0.000    5.333 
#    0.000    0.000    0.000    0.000    0.000    0.000 
#    0.000    0.000    0.000    0.000    0.000    0.000 
#
# Total GULP energy -148860.351411 kJ/mol
# GULP energy per Si atom -12405.029284 kJ/mol
# Density = 2.125544 g / cm^3
# Si number density = 21.303924 Si / 1000 Ang^3
#
#
#
# Elastic Constant Matrix: (Units=GPa)
#
#
# Indices 1 2 3 4 5 6 
#
# 1 93.2177 26.9129 25.7885 0.0000 -9.4474 0.0000
# 2 26.9129 100.3192 37.6929 0.0000 -4.7380 0.0000
# 3 25.7885 37.6929 116.0601 0.0000 -26.0453 0.0000
# 4 0.0000 0.0000 0.0000 36.5549 0.0000 3.7769
# 5 -9.4474 -4.7380 -26.0453 0.0000 28.9286 0.0000
# 6 0.0000 0.0000 0.0000 3.7769 0.0000 16.6833
#
#
#
# Elastic Compliance Matrix: (Units=1/GPa)
#
#
# Indices 1 2 3 4 5 6 
#
# 1 0.012088 -0.002643 -0.001302 0.000000 0.002343 0.000000
# 2 -0.002643 0.012009 -0.003841 0.000000 -0.002355 0.000000
# 3 -0.001302 -0.003841 0.012427 0.000000 0.010134 0.000000
# 4 0.000000 0.000000 0.000000 0.028011 0.000000 -0.006341
# 5 0.002343 -0.002355 0.010134 0.000000 0.044072 0.000000
# 6 0.000000 0.000000 0.000000 -0.006341 0.000000 0.061376
#
#
# Mechanical properties :
#
#
# Convention : Reuss Voigt Hill
#
# Bulk Modulus (GPa) = 47.72780 54.48728 51.10754
# Shear Modulus (GPa) = 25.96855 31.04688 28.50771
#
# Velocity S-wave (km/s) = 3.49514 3.82164 3.66203
# Velocity P-wave (km/s) = 6.22414 6.71602 6.47476
#
# Compressibility (1/GPa) = 0.02095215
#
# Stress axis : x y z
#
# Youngs Moduli (GPa) = 82.72489 83.26819 80.46757
#
# Poissons Ratio (x) = 0.22009 0.10476
# Poissons Ratio (y) = 0.21865 0.30911
# Poissons Ratio (z) = 0.10769 0.31987
#
# Static dielectric constant tensor:
#      x y z
#    x 4.106390 0.000000 0.094630 
#    y 0.000000 3.785630 0.000000 
#    z 0.094630 0.000000 4.024290 
# 
# 
# High freq. dielectric constant tensor:
#      x y z
#    x 1.850290 0.000000 0.000310 
#    y 0.000000 1.826450 0.000000 
#    z 0.000310 0.000000 1.851760 
# 
# From -- ./inp_files/8173.got.cif
#   From: 2010.03.12/outbox.cif.g09.slc.cpg/sg3_5_cif.got.tgz:8173.got - 2010.03.31 09:20:49.
