data_PCOD8045700
_publ_section_title
;
Structure prediction by ZEFSAII (Michael W. Deem and Ramdas Pophale) SiO2 
 PCOD8045700
Probable space group: P 21
;
_chemical_formula_sum "Si O2"
_cell_formula_units_Z 12
_cell_length_a 24.598406
_cell_length_b 5.325024
_cell_length_c 8.755546
_cell_angle_alpha 90.000000
_cell_angle_beta 28.139541
_cell_angle_gamma 90.000000
_cell_volume 540.884434
_symmetry_space_group_name_H-M "P 21"
_symmetry_group_IT_number 4
_symmetry_cell_setting 'monoclinic'
loop_
_space_group_symop_operation_xyz
x,y,z
-x,1/2+y,-z
loop_
_atom_site_type_symbol
_atom_site_label
_atom_site_fract_x
_atom_site_fract_y
_atom_site_fract_z
Si Si1 0.244967 0.112140 0.325687
Si Si2 0.127336 0.112140 0.292113
Si Si3 0.743857 0.112140 0.531290
Si Si4 0.509754 0.612140 0.189070
Si Si5 0.531378 0.612140 0.787929
Si Si6 0.859906 0.112140 0.923826
O O1 0.187858 0.112140 0.304027
O O2 0.205225 0.362782 0.513732
O O3 0.384769 0.112140 0.954083
O O4 0.205225 0.861498 0.513732
O O5 0.167095 0.361327 0.104815
O O6 0.990997 0.112140 0.656791
O O7 0.167095 0.862953 0.104815
O O8 0.606745 0.112140 0.881437
O O9 0.777032 0.112140 0.273312
O O10 0.428139 0.364384 0.402098
O O11 0.428139 0.859895 0.402098
O O12 0.570700 0.612140 0.866981
#
# Coordination Sequence:
#
# PCOD8045700 Si02
#       6
#     2   2   2   2   2   2
#     4  10  19  31  51  76  96 120 160 204 235 267
#     4  10  21  36  51  68  96 132 160 188 239 296
#     4  10  19  31  51  76  96 120 160 204 235 267
#     4   8  14  25  42  66  94 120 148 186 232 277
#     4   8  14  25  42  66  94 120 148 186 232 277
#     4  10  21  36  51  68  96 132 160 188 239 296
#
# _framework density 22.185887000000001
#
# number of rings (size 3 to 8) (size 9 to 14) (size 15 to 20)
#    0.000    2.667    0.000    2.000    0.000    1.333 
#    0.000    0.000    0.000    2.000    0.000    0.000 
#    0.000    0.000    0.000    0.000    0.000    0.000 
#
# Total GULP energy -148707.934281 kJ/mol
# GULP energy per Si atom -12392.327857 kJ/mol
# Density = 2.213539 g / cm^3
# Si number density = 22.185887 Si / 1000 Ang^3
#
#
#
# Elastic Constant Matrix: (Units=GPa)
#
#
# Indices 1 2 3 4 5 6 
#
# 1 186.5035 44.4122 -7.5641 0.0000 47.5900 0.0000
# 2 44.4122 248.9249 25.3764 0.0000 23.6951 0.0000
# 3 -7.5641 25.3764 62.1527 0.0000 7.2696 0.0000
# 4 0.0000 0.0000 0.0000 -3.7124 0.0000 28.5844
# 5 47.5900 23.6951 7.2696 0.0000 26.3391 0.0000
# 6 0.0000 0.0000 0.0000 28.5844 0.0000 8.4131
#
#
#
# Elastic Compliance Matrix: (Units=1/GPa)
#
#
# Indices 1 2 3 4 5 6 
#
# 1 0.010741 -0.000392 0.003819 0.000000 -0.020109 0.000000
# 2 -0.000392 0.004525 -0.001552 0.000000 -0.002935 0.000000
# 3 0.003819 -0.001552 0.018426 0.000000 -0.010590 0.000000
# 4 0.000000 0.000000 0.000000 -0.009918 0.000000 0.033696
# 5 -0.020109 -0.002935 -0.010590 0.000000 0.079863 0.000000
# 6 0.000000 0.000000 0.000000 0.033696 0.000000 0.004376
#
#
# Mechanical properties :
#
#
# Convention : Reuss Voigt Hill
#
# Bulk Modulus (GPa) = 26.70661 69.11444 47.91052
# Shear Modulus (GPa) = 42.82889 35.23175 39.03032
#
# Velocity S-wave (km/s) = 4.39846 3.98933 4.19888
# Velocity P-wave (km/s) = 6.15297 7.24153 6.71933
#
# Compressibility (1/GPa) = 0.03744392
#
# Stress axis : x y z
#
# Youngs Moduli (GPa) = 93.09932 221.00978 54.26989
#
# Poissons Ratio (x) = 0.08654 -0.20726
# Poissons Ratio (y) = 0.03645 0.08422
# Poissons Ratio (z) = -0.35556 0.34296
#
# Static dielectric constant tensor:
#      x y z
#    x 3.865260 0.000000 -0.029220 
#    y 0.000000 5.166620 0.000000 
#    z -0.029220 0.000000 3.327650 
# 
# 
# High freq. dielectric constant tensor:
#      x y z
#    x 1.875290 0.000000 0.000820 
#    y 0.000000 1.920870 0.000000 
#    z 0.000820 0.000000 1.806910 
# 
# From -- ./inp_files/3828.got.cif
#   From: 2010.03.12/outbox.cif.g09.slc.cpg/sg4_2_cif.got.tgz:3828.got - 2010.03.31 09:31:35.
