data_PCOD8045865
_publ_section_title
;
Structure prediction by ZEFSAII (Michael W. Deem and Ramdas Pophale) SiO2 
 PCOD8045865
Probable space group: P 21
;
_chemical_formula_sum "Si O2"
_cell_formula_units_Z 14
_cell_length_a 10.638386
_cell_length_b 4.898950
_cell_length_c 16.900339
_cell_angle_alpha 90.000000
_cell_angle_beta 51.173585
_cell_angle_gamma 90.000000
_cell_volume 686.181400
_symmetry_space_group_name_H-M "P 21"
_symmetry_group_IT_number 4
_symmetry_cell_setting 'monoclinic'
loop_
_space_group_symop_operation_xyz
x,y,z
-x,1/2+y,-z
loop_
_atom_site_type_symbol
_atom_site_label
_atom_site_fract_x
_atom_site_fract_y
_atom_site_fract_z
Si Si1 0.858774 0.474630 0.290811
Si Si2 0.416885 0.782433 0.000853
Si Si3 0.055015 0.949696 0.176651
Si Si4 0.943878 0.022554 0.057201
Si Si5 0.403722 0.610986 0.825415
Si Si6 0.414059 0.780413 0.499872
Si Si7 0.560749 0.587396 0.290138
O O1 0.766096 0.374325 0.406143
O O2 0.725571 0.533299 0.274840
O O3 0.960258 0.746079 0.273556
O O4 0.998473 0.259291 0.212814
O O5 0.246632 0.906516 0.098081
O O6 0.458155 0.532995 0.043081
O O7 0.435072 0.657108 0.905650
O O8 0.986142 0.857659 0.119230
O O9 0.780277 0.194596 0.118779
O O10 0.072227 0.270392 0.997973
O O11 0.424248 0.301681 0.787817
O O12 0.503006 0.814594 0.728652
O O13 0.461258 0.531134 0.539250
O O14 0.422119 0.684930 0.405628
#
# Coordination Sequence:
#
# PCOD8045865 Si02
#       7
#     2   2   2   2   2   2   2
#     4  11  20  35  57  91 125 158 194 236 306 374
#     4  12  28  46  60  84 122 168 220 262 304 362
#     4  12  23  37  60  86 117 162 202 249 302 365
#     4  12  22  34  56  88 122 154 192 246 310 366
#     4  12  23  37  60  86 117 162 202 249 302 365
#     4  10  20  34  52  86 134 168 186 230 300 390
#     4  11  20  35  57  91 125 158 194 236 306 374
#
# _framework density 20.402768999999999
#
# number of rings (size 3 to 8) (size 9 to 14) (size 15 to 20)
#    0.000    0.571    4.286    6.857    2.000    0.000 
#    0.000    0.000    0.000    0.000    0.000   20.000 
#    0.000    0.000    0.000    0.000    0.000    0.000 
#
# Total GULP energy -173457.843291 kJ/mol
# GULP energy per Si atom -12389.845949 kJ/mol
# Density = 2.035633 g / cm^3
# Si number density = 20.402769 Si / 1000 Ang^3
#
#
#
# Elastic Constant Matrix: (Units=GPa)
#
#
# Indices 1 2 3 4 5 6 
#
# 1 71.5987 24.3674 33.5212 0.0000 -1.3848 0.0000
# 2 24.3674 120.7608 27.7559 0.0000 -2.8116 0.0000
# 3 33.5212 27.7559 99.5368 0.0000 -9.6304 0.0000
# 4 0.0000 0.0000 0.0000 42.4102 0.0000 -0.5488
# 5 -1.3848 -2.8116 -9.6304 0.0000 1.6119 0.0000
# 6 0.0000 0.0000 0.0000 -0.5488 0.0000 35.4450
#
#
#
# Elastic Compliance Matrix: (Units=1/GPa)
#
#
# Indices 1 2 3 4 5 6 
#
# 1 0.018817 -0.002559 -0.010644 0.000000 -0.051890 0.000000
# 2 -0.002559 0.009198 -0.000862 0.000000 0.008697 0.000000
# 3 -0.010644 -0.000862 0.030433 0.000000 0.171170 0.000000
# 4 0.000000 0.000000 0.000000 0.023584 0.000000 0.000365
# 5 -0.051890 0.008697 0.171170 0.000000 1.613613 0.000000
# 6 0.000000 0.000000 0.000000 0.000365 0.000000 0.028218
#
#
# Mechanical properties :
#
#
# Convention : Reuss Voigt Hill
#
# Bulk Modulus (GPa) = 32.98287 51.46501 42.22394
# Shear Modulus (GPa) = 2.83753 29.64354 16.24053
#
# Velocity S-wave (km/s) = 1.18058 3.81585 2.82440
# Velocity P-wave (km/s) = 4.24963 6.68533 5.60147
#
# Compressibility (1/GPa) = 0.03031877
#
# Stress axis : x y z
#
# Youngs Moduli (GPa) = 53.14263 108.72337 32.85958
#
# Poissons Ratio (x) = 0.27819 0.34976
# Poissons Ratio (y) = 0.13597 0.02831
# Poissons Ratio (z) = 0.56565 0.09368
#
# Static dielectric constant tensor:
#      x y z
#    x 3.254110 0.000000 -0.045010 
#    y 0.000000 4.438460 0.000000 
#    z -0.045010 0.000000 3.790900 
# 
# 
# High freq. dielectric constant tensor:
#      x y z
#    x 1.729740 0.000000 -0.005070 
#    y 0.000000 1.833340 0.000000 
#    z -0.005070 0.000000 1.799150 
# 
# From -- ./inp_files/13542.got.cif
#   From: 2010.03.12/outbox.cif.g09.slc.cpg/sg4_7_cif.got.tgz:13542.got - 2010.03.31 09:31:35.
