data_PCOD8045788
_publ_section_title
;
Structure prediction by ZEFSAII (Michael W. Deem and Ramdas Pophale) SiO2 
 PCOD8045788
Probable space group: P 21
;
_chemical_formula_sum "Si O2"
_cell_formula_units_Z 14
_cell_length_a 32.097907
_cell_length_b 5.006309
_cell_length_c 25.496816
_cell_angle_alpha 90.000000
_cell_angle_beta 9.707001
_cell_angle_gamma 90.000000
_cell_volume 690.817269
_symmetry_space_group_name_H-M "P 21"
_symmetry_group_IT_number 4
_symmetry_cell_setting 'monoclinic'
loop_
_space_group_symop_operation_xyz
x,y,z
-x,1/2+y,-z
loop_
_atom_site_type_symbol
_atom_site_label
_atom_site_fract_x
_atom_site_fract_y
_atom_site_fract_z
Si Si1 0.661436 0.917270 0.304073
Si Si2 0.674588 0.293185 0.134271
Si Si3 0.082723 0.348527 0.547292
Si Si4 0.311537 0.845591 0.316470
Si Si5 0.152572 0.392445 0.816647
Si Si6 0.112052 0.287681 0.389012
Si Si7 0.891232 0.791510 0.915410
O O1 0.514418 0.647213 0.500170
O O2 0.771928 0.021110 0.221412
O O3 0.879259 0.861613 0.991745
O O4 0.383166 0.350092 0.491181
O O5 0.794748 0.489479 0.028521
O O6 0.808816 0.345910 0.912298
O O7 0.712142 0.987322 0.104774
O O8 0.222746 0.624777 0.385007
O O9 0.037844 0.312617 0.541677
O O10 0.259586 0.125768 0.352946
O O11 0.168372 0.820519 0.549565
O O12 0.595541 0.822788 0.979294
O O13 0.971796 0.608777 0.015547
O O14 0.965482 0.498787 0.535640
#
# Coordination Sequence:
#
# PCOD8045788 Si02
#       7
#     2   2   2   2   2   2   2
#     4  12  21  38  63  82 114 155 200 238 286 339
#     4  10  20  38  61  83 116 148 200 241 282 339
#     4  10  21  40  66  86 109 160 200 235 278 344
#     4  10  21  39  65  87 114 151 204 235 274 353
#     4  12  24  38  55  87 121 155 191 237 295 348
#     4  12  24  40  60  91 128 150 181 239 301 346
#     4  10  19  37  62  88 106 149 204 249 272 325
#
# _framework density 20.265848999999999
#
# number of rings (size 3 to 8) (size 9 to 14) (size 15 to 20)
#    0.000    1.143    2.857    4.286    0.000    0.000 
#    5.143    0.000    0.000    0.000    0.000    0.000 
#    0.000    0.000    0.000    0.000    0.000    0.000 
#
# Total GULP energy -173652.703175 kJ/mol
# GULP energy per Si atom -12403.764513 kJ/mol
# Density = 2.021972 g / cm^3
# Si number density = 20.265849 Si / 1000 Ang^3
#
#
#
# Elastic Constant Matrix: (Units=GPa)
#
#
# Indices 1 2 3 4 5 6 
#
# 1 81.3965 1.8865 36.8628 0.0000 13.0806 0.0000
# 2 1.8865 80.6064 20.1818 0.0000 3.6891 0.0000
# 3 36.8628 20.1818 140.2095 0.0000 11.5171 0.0000
# 4 0.0000 0.0000 0.0000 24.9521 0.0000 0.5797
# 5 13.0806 3.6891 11.5171 0.0000 25.1132 0.0000
# 6 0.0000 0.0000 0.0000 0.5797 0.0000 25.7152
#
#
#
# Elastic Compliance Matrix: (Units=1/GPa)
#
#
# Indices 1 2 3 4 5 6 
#
# 1 0.014861 0.000817 -0.003511 0.000000 -0.006250 0.000000
# 2 0.000817 0.012943 -0.001961 0.000000 -0.001428 0.000000
# 3 -0.003511 -0.001961 0.008483 0.000000 -0.001773 0.000000
# 4 0.000000 0.000000 0.000000 0.040098 0.000000 -0.000904
# 5 -0.006250 -0.001428 -0.001773 0.000000 0.044098 0.000000
# 6 0.000000 0.000000 0.000000 -0.000904 0.000000 0.038908
#
#
# Mechanical properties :
#
#
# Convention : Reuss Voigt Hill
#
# Bulk Modulus (GPa) = 37.06677 46.67497 41.87087
# Shear Modulus (GPa) = 28.13826 31.37484 29.75655
#
# Velocity S-wave (km/s) = 3.73024 3.93894 3.83601
# Velocity P-wave (km/s) = 6.07313 6.61576 6.35025
#
# Compressibility (1/GPa) = 0.02697834
#
# Stress axis : x y z
#
# Youngs Moduli (GPa) = 67.28868 77.26134 117.87883
#
# Poissons Ratio (x) = -0.06316 0.41393
# Poissons Ratio (y) = -0.05500 0.23112
# Poissons Ratio (z) = 0.23628 0.15148
#
# Static dielectric constant tensor:
#      x y z
#    x 3.450460 0.000000 0.336600 
#    y 0.000000 3.838560 0.000000 
#    z 0.336600 0.000000 3.762040 
# 
# 
# High freq. dielectric constant tensor:
#      x y z
#    x 1.774490 0.000000 0.025430 
#    y 0.000000 1.814330 0.000000 
#    z 0.025430 0.000000 1.792440 
# 
# From -- ./inp_files/15879.got.cif
#   From: 2010.03.12/outbox.cif.g09.slc.cpg/sg4_8_cif.got.tgz:15879.got - 2010.03.31 09:31:35.
