data_PCOD8045551
_publ_section_title
;
Structure prediction by ZEFSAII (Michael W. Deem and Ramdas Pophale) SiO2 
 PCOD8045551
Probable space group: P 2
;
_chemical_formula_sum "Si O2"
_cell_formula_units_Z 14
_cell_length_a 9.713103
_cell_length_b 5.422889
_cell_length_c 15.299382
_cell_angle_alpha 90.000000
_cell_angle_beta 45.216600
_cell_angle_gamma 90.000000
_cell_volume 571.983115
_symmetry_space_group_name_H-M "P 2"
_symmetry_group_IT_number 3
_symmetry_cell_setting 'monoclinic'
loop_
_space_group_symop_operation_xyz
x,y,z
-x,y,-z
loop_
_atom_site_type_symbol
_atom_site_label
_atom_site_fract_x
_atom_site_fract_y
_atom_site_fract_z
Si Si1 0.341042 0.170540 0.883158
Si Si2 0.250575 0.311526 0.300763
Si Si3 0.945381 0.804522 0.678513
Si Si4 0.699842 0.522106 0.537384
Si Si5 0.500000 0.199479 0.500000
Si Si6 0.065840 0.832644 0.109287
Si Si7 0.375103 0.874524 0.713533
Si Si8 0.000000 0.462515 0.000000
O O1 0.526912 0.321625 0.835186
O O2 0.460172 0.986719 0.765170
O O3 0.186417 0.303020 0.886658
O O4 0.219720 0.045818 0.016190
O O5 0.163303 0.553467 0.295993
O O6 0.225892 0.350795 0.416499
O O7 0.141009 0.057051 0.322666
O O8 0.939442 0.811783 0.785361
O O9 0.164053 0.760015 0.544010
O O10 0.678726 0.357570 0.459768
O O11 0.482081 0.613605 0.655757
O O12 0.400704 0.035374 0.616764
O O13 0.851599 0.858621 0.165072
O O14 0.113887 0.588971 0.031586
#
# Coordination Sequence:
#
# PCOD8045551 Si02
#       8
#     2   2   2   2   1   2   2   1
#     4  12  26  48  80 110 156 209 265 329 405 481
#     4  12  30  54  78 113 166 218 268 320 398 491
#     4  12  32  53  81 118 160 222 271 324 394 491
#     4  12  28  50  82 115 162 205 270 342 416 480
#     4  12  26  42  84 116 156 196 268 346 414 474
#     4  12  27  49  78 115 161 200 270 334 402 480
#     4  12  24  48  75 122 153 197 265 341 418 467
#     4  12  24  46  82 112 144 204 250 346 408 450
#
# _framework density 24.476244999999999
#
# number of rings (size 3 to 8) (size 9 to 14) (size 15 to 20)
#    0.000    0.000    4.286    4.286   10.000    2.857 
#    0.000    0.000    0.000    0.000    0.000    0.000 
#    0.000    0.000    0.000    0.000    0.000    0.000 
#
# Total GULP energy -173450.780475 kJ/mol
# GULP energy per Si atom -12389.341462 kJ/mol
# Density = 2.442054 g / cm^3
# Si number density = 24.476245 Si / 1000 Ang^3
#
#
#
# Elastic Constant Matrix: (Units=GPa)
#
#
# Indices 1 2 3 4 5 6 
#
# 1 97.6119 40.5632 26.8295 0.0000 22.2724 0.0000
# 2 40.5632 115.7855 19.5381 0.0000 13.0290 0.0000
# 3 26.8295 19.5381 106.5977 0.0000 11.8433 0.0000
# 4 0.0000 0.0000 0.0000 -31.4706 0.0000 -21.3310
# 5 22.2724 13.0290 11.8433 0.0000 48.2098 0.0000
# 6 0.0000 0.0000 0.0000 -21.3310 0.0000 32.9937
#
#
#
# Elastic Compliance Matrix: (Units=1/GPa)
#
#
# Indices 1 2 3 4 5 6 
#
# 1 0.013502 -0.003838 -0.002177 0.000000 -0.004666 0.000000
# 2 -0.003838 0.010208 -0.000818 0.000000 -0.000785 0.000000
# 3 -0.002177 -0.000818 0.010221 0.000000 -0.001284 0.000000
# 4 0.000000 0.000000 0.000000 -0.022094 0.000000 -0.014284
# 5 -0.004666 -0.000785 -0.001284 0.000000 0.023426 0.000000
# 6 0.000000 0.000000 0.000000 -0.014284 0.000000 0.021074
#
#
# Mechanical properties :
#
#
# Convention : Reuss Voigt Hill
#
# Bulk Modulus (GPa) = 49.34164 54.87294 52.10729
# Shear Modulus (GPa) = 65.13999 25.48418 45.31209
#
# Velocity S-wave (km/s) = 5.16443 3.23023 4.30730
# Velocity P-wave (km/s) = 7.46757 6.03159 6.78766
#
# Compressibility (1/GPa) = 0.02026686
#
# Stress axis : x y z
#
# Youngs Moduli (GPa) = 74.06052 97.96711 97.83323
#
# Poissons Ratio (x) = 0.37600 0.21294
# Poissons Ratio (y) = 0.28424 0.08000
# Poissons Ratio (z) = 0.16120 0.08011
#
# Static dielectric constant tensor:
#      x y z
#    x 4.728850 0.000000 -0.503620 
#    y 0.000000 4.730030 0.000000 
#    z -0.503620 0.000000 5.119360 
# 
# 
# High freq. dielectric constant tensor:
#      x y z
#    x 1.974560 0.000000 -0.008470 
#    y 0.000000 1.985130 0.000000 
#    z -0.008470 0.000000 1.984940 
# 
# From -- ./inp_files/10295.got.cif
#   From: 2010.03.12/outbox.cif.g09.slc.cpg/sg3_6_cif.got.tgz:10295.got - 2010.03.31 09:20:49.
