data_PCOD8045011
_publ_section_title
;
Structure prediction by ZEFSAII (Michael W. Deem and Ramdas Pophale) SiO2 
 PCOD8045011
Probable space group: P 2
;
_chemical_formula_sum "Si O2"
_cell_formula_units_Z 16
_cell_length_a 8.881454
_cell_length_b 11.860295
_cell_length_c 8.539839
_cell_angle_alpha 90.000000
_cell_angle_beta 57.937432
_cell_angle_gamma 90.000000
_cell_volume 762.347569
_symmetry_space_group_name_H-M "P 2"
_symmetry_group_IT_number 3
_symmetry_cell_setting 'monoclinic'
loop_
_space_group_symop_operation_xyz
x,y,z
-x,y,-z
loop_
_atom_site_type_symbol
_atom_site_label
_atom_site_fract_x
_atom_site_fract_y
_atom_site_fract_z
Si Si1 0.810068 0.333560 0.176428
Si Si2 0.674086 0.577779 0.305212
Si Si3 0.156214 0.196400 0.528273
Si Si4 0.959910 0.750789 0.201993
Si Si5 0.465669 0.177205 0.834836
Si Si6 0.534217 0.939174 0.294099
Si Si7 0.151621 0.938230 0.526419
Si Si8 0.342141 0.734578 0.965902
O O1 0.708658 0.445730 0.283081
O O2 0.847923 0.261796 0.308602
O O3 0.685919 0.268466 0.120229
O O4 0.000000 0.365298 0.000000
O O5 0.500000 0.605648 0.500000
O O6 0.646712 0.620791 0.142500
O O7 0.839580 0.640569 0.298229
O O8 0.349062 0.213064 0.345779
O O9 0.000000 0.241452 0.500000
O O10 0.116078 0.066864 0.593962
O O11 0.853119 0.861504 0.316103
O O12 0.157627 0.736666 0.167410
O O13 0.000000 0.767122 0.000000
O O14 0.391190 0.059173 0.806107
O O15 0.500000 0.167517 0.000000
O O16 0.500000 0.939574 0.500000
O O17 0.336296 0.925750 0.330762
O O18 0.653712 0.838245 0.161599
O O19 0.000000 0.889037 0.500000
O O20 0.500000 0.740079 0.000000
#
# Coordination Sequence:
#
# PCOD8045011 Si02
#       8
#     2   2   2   2   2   2   2   2
#     4  12  25  43  66  90 120 162 211 263 320 375
#     4  11  24  44  64  83 116 159 206 255 310 374
#     4  10  22  41  63  93 127 163 208 258 311 375
#     4  10  21  37  58  86 120 154 196 243 296 360
#     4  11  23  40  63  93 128 166 209 258 312 372
#     4  11  21  37  60  89 127 166 204 247 307 374
#     4  10  20  35  57  86 122 156 193 241 296 360
#     4  11  22  37  61  92 125 158 202 255 308 368
#
# _framework density 20.987801000000001
#
# number of rings (size 3 to 8) (size 9 to 14) (size 15 to 20)
#    0.000    1.250    0.000    8.250    0.000    4.000 
#    0.000    4.375    0.000    0.000    0.000    0.000 
#    0.000    0.000    0.000    0.000    0.000    0.000 
#
# Total GULP energy -198392.243865 kJ/mol
# GULP energy per Si atom -12399.515242 kJ/mol
# Density = 2.094003 g / cm^3
# Si number density = 20.987801 Si / 1000 Ang^3
#
#
#
# Elastic Constant Matrix: (Units=GPa)
#
#
# Indices 1 2 3 4 5 6 
#
# 1 109.7682 33.1330 27.8312 0.0000 -5.1095 0.0000
# 2 33.1330 105.3412 31.2095 0.0000 0.3865 0.0000
# 3 27.8312 31.2095 83.3841 0.0000 -10.7532 0.0000
# 4 0.0000 0.0000 0.0000 19.6762 0.0000 -13.2141
# 5 -5.1095 0.3865 -10.7532 0.0000 39.8882 0.0000
# 6 0.0000 0.0000 0.0000 -13.2141 0.0000 20.1417
#
#
#
# Elastic Compliance Matrix: (Units=1/GPa)
#
#
# Indices 1 2 3 4 5 6 
#
# 1 0.010549 -0.002592 -0.002459 0.000000 0.000714 0.000000
# 2 -0.002592 0.011372 -0.003572 0.000000 -0.001405 0.000000
# 3 -0.002459 -0.003572 0.014623 0.000000 0.003662 0.000000
# 4 0.000000 0.000000 0.000000 0.090851 0.000000 0.059603
# 5 0.000714 -0.001405 0.003662 0.000000 0.026162 0.000000
# 6 0.000000 0.000000 0.000000 0.059603 0.000000 0.088751
#
#
# Mechanical properties :
#
#
# Convention : Reuss Voigt Hill
#
# Bulk Modulus (GPa) = 51.82141 53.64899 52.73520
# Shear Modulus (GPa) = 18.79794 29.69587 24.24690
#
# Velocity S-wave (km/s) = 2.99600 3.76561 3.40264
# Velocity P-wave (km/s) = 6.05911 6.67262 6.37326
#
# Compressibility (1/GPa) = 0.01929704
#
# Stress axis : x y z
#
# Youngs Moduli (GPa) = 94.79421 87.93669 68.38705
#
# Poissons Ratio (x) = 0.22795 0.16815
# Poissons Ratio (y) = 0.24572 0.24430
# Poissons Ratio (z) = 0.23308 0.31414
#
# Static dielectric constant tensor:
#      x y z
#    x 4.599440 0.000000 -0.574800 
#    y 0.000000 3.683460 0.000000 
#    z -0.574800 0.000000 4.053100 
# 
# 
# High freq. dielectric constant tensor:
#      x y z
#    x 1.844100 0.000000 -0.014500 
#    y 0.000000 1.814010 0.000000 
#    z -0.014500 0.000000 1.821080 
# 
# From -- ./inp_files/5995.got.cif
#   From: 2010.03.12/outbox.cif.g09.slc.cpg/sg3_3_cif.got.tgz:5995.got - 2010.03.31 09:20:49.
