data_PCOD8045539
_publ_section_title
;
Structure prediction by ZEFSAII (Michael W. Deem and Ramdas Pophale) SiO2 
 PCOD8045539
Probable space group: P 2
;
_chemical_formula_sum "Si O2"
_cell_formula_units_Z 12
_cell_length_a 22.514252
_cell_length_b 5.054303
_cell_length_c 12.560136
_cell_angle_alpha 90.000000
_cell_angle_beta 21.460809
_cell_angle_gamma 90.000000
_cell_volume 522.918102
_symmetry_space_group_name_H-M "P 2"
_symmetry_group_IT_number 3
_symmetry_cell_setting 'monoclinic'
loop_
_space_group_symop_operation_xyz
x,y,z
-x,y,-z
loop_
_atom_site_type_symbol
_atom_site_label
_atom_site_fract_x
_atom_site_fract_y
_atom_site_fract_z
Si Si1 0.097205 0.465340 0.950203
Si Si2 0.393764 0.912572 0.784604
Si Si3 0.194455 0.445918 0.425010
Si Si4 0.295411 0.958912 0.598541
Si Si5 0.805747 0.409158 0.819927
Si Si6 0.321563 0.945546 0.311763
O O1 0.173473 0.748210 0.855292
O O2 0.244806 0.259066 0.704537
O O3 0.000000 0.464336 0.000000
O O4 0.986594 0.373851 0.234100
O O5 0.500000 0.916952 0.500000
O O6 0.518847 0.921996 0.674752
O O7 0.280267 0.656182 0.980115
O O8 0.267695 0.154968 0.998230
O O9 0.236383 0.394077 0.233585
O O10 0.211765 0.756334 0.422106
O O11 0.312867 0.252321 0.293201
O O12 0.270208 0.897950 0.517364
O O13 0.000000 0.426171 0.500000
O O14 0.500000 0.836368 0.000000
#
# Coordination Sequence:
#
# PCOD8045539 Si02
#       6
#     2   2   2   2   2   2
#     4  12  23  42  66 105 136 191 225 282 352 424
#     4  12  29  51  76 106 141 190 244 296 360 423
#     4  12  25  41  69  98 143 172 236 283 352 421
#     4  12  24  42  69  98 146 175 239 285 349 423
#     4  12  28  51  75 108 141 188 242 300 357 425
#     4  12  23  40  65  98 133 184 217 291 355 421
#
# _framework density 22.948143000000002
#
# number of rings (size 3 to 8) (size 9 to 14) (size 15 to 20)
#    0.000    0.000    3.333    7.000    4.667    0.000 
#    0.000    0.000    0.000    0.000    0.000    0.000 
#    0.000    0.000    0.000    0.000    0.000    0.000 
#
# Total GULP energy -148816.242009 kJ/mol
# GULP energy per Si atom -12401.353501 kJ/mol
# Density = 2.289591 g / cm^3
# Si number density = 22.948143 Si / 1000 Ang^3
#
#
#
# Elastic Constant Matrix: (Units=GPa)
#
#
# Indices 1 2 3 4 5 6 
#
# 1 72.4405 32.4743 39.3589 0.0000 13.2490 0.0000
# 2 32.4743 145.1967 52.9271 0.0000 -4.3807 0.0000
# 3 39.3589 52.9271 143.7435 0.0000 7.8219 0.0000
# 4 0.0000 0.0000 0.0000 51.7774 0.0000 2.1780
# 5 13.2490 -4.3807 7.8219 0.0000 47.9410 0.0000
# 6 0.0000 0.0000 0.0000 2.1780 0.0000 21.6532
#
#
#
# Elastic Compliance Matrix: (Units=1/GPa)
#
#
# Indices 1 2 3 4 5 6 
#
# 1 0.017870 -0.002822 -0.003603 0.000000 -0.004609 0.000000
# 2 -0.002822 0.008472 -0.002453 0.000000 0.001954 0.000000
# 3 -0.003603 -0.002453 0.008883 0.000000 -0.000678 0.000000
# 4 0.000000 0.000000 0.000000 0.019396 0.000000 -0.001951
# 5 -0.004609 0.001954 -0.000678 0.000000 0.022422 0.000000
# 6 0.000000 0.000000 0.000000 -0.001951 0.000000 0.046379
#
#
# Mechanical properties :
#
#
# Convention : Reuss Voigt Hill
#
# Bulk Modulus (GPa) = 57.24574 67.87793 62.56184
# Shear Modulus (GPa) = 34.01342 40.04900 37.03121
#
# Velocity S-wave (km/s) = 3.85409 4.18209 4.02144
# Velocity P-wave (km/s) = 6.69367 7.27756 6.99171
#
# Compressibility (1/GPa) = 0.01746855
#
# Stress axis : x y z
#
# Youngs Moduli (GPa) = 55.95884 118.04249 112.56923
#
# Poissons Ratio (x) = 0.33317 0.40560
# Poissons Ratio (y) = 0.15794 0.27611
# Poissons Ratio (z) = 0.20163 0.28953
#
# Static dielectric constant tensor:
#      x y z
#    x 4.080160 0.000000 0.112290 
#    y 0.000000 4.139260 0.000000 
#    z 0.112290 0.000000 4.269000 
# 
# 
# High freq. dielectric constant tensor:
#      x y z
#    x 1.893500 0.000000 0.008400 
#    y 0.000000 1.921190 0.000000 
#    z 0.008400 0.000000 1.925980 
# 
# From -- ./inp_files/12589.got.cif
#   From: 2010.03.12/outbox.cif.g09.slc.cpg/sg3_7_cif.got.tgz:12589.got - 2010.03.31 09:20:49.
