data_PCOD8045316
_publ_section_title
;
Structure prediction by ZEFSAII (Michael W. Deem and Ramdas Pophale) SiO2 
 PCOD8045316
Probable space group: P 2
;
_chemical_formula_sum "Si O2"
_cell_formula_units_Z 11
_cell_length_a 12.017076
_cell_length_b 7.228396
_cell_length_c 7.116240
_cell_angle_alpha 90.000000
_cell_angle_beta 107.231289
_cell_angle_gamma 90.000000
_cell_volume 590.401953
_symmetry_space_group_name_H-M "P 2"
_symmetry_group_IT_number 3
_symmetry_cell_setting 'monoclinic'
loop_
_space_group_symop_operation_xyz
x,y,z
-x,y,-z
loop_
_atom_site_type_symbol
_atom_site_label
_atom_site_fract_x
_atom_site_fract_y
_atom_site_fract_z
Si Si1 0.223318 0.393360 0.959428
Si Si2 0.500000 0.541253 0.500000
Si Si3 0.000000 0.252797 0.000000
Si Si4 0.222429 0.102650 0.257746
Si Si5 0.500000 0.008183 0.000000
Si Si6 0.647548 0.257790 0.335657
Si Si7 0.664668 0.760632 0.853044
O O1 0.266868 0.343085 0.775406
O O2 0.281326 0.249771 0.139498
O O3 0.257532 0.602645 0.016200
O O4 0.082461 0.377806 0.906075
O O5 0.588819 0.420422 0.423730
O O6 0.567141 0.675438 0.672696
O O7 0.081934 0.127487 0.176681
O O8 0.271229 0.135798 0.489443
O O9 0.250227 0.892158 0.221537
O O10 0.545553 0.134519 0.193991
O O11 0.394536 0.879302 0.012762
#
# Coordination Sequence:
#
# PCOD8045316 Si02
#       7
#     2   1   1   2   1   2   2
#     4  10  22  43  61  92 123 162 205 266 301 368
#     4  12  22  36  62  96 126 174 200 250 308 378
#     4   8  20  46  64  88 124 166 200 268 328 342
#     4  10  22  43  61  92 123 162 205 266 301 368
#     4  12  22  36  62  96 126 174 200 250 308 378
#     4  12  22  42  64  90 136 166 204 246 320 370
#     4  12  22  39  62  94 126 161 216 254 300 372
#
# _framework density 18.631374000000001
#
# number of rings (size 3 to 8) (size 9 to 14) (size 15 to 20)
#    1.091    0.000    3.636    4.364    0.000    1.455 
#    0.000    0.000    0.000    4.364    0.000    0.000 
#    0.000    0.000    0.000    0.000    0.000    0.000 
#
# Total GULP energy -136381.544476 kJ/mol
# GULP energy per Si atom -12398.322225 kJ/mol
# Density = 1.858897 g / cm^3
# Si number density = 18.631374 Si / 1000 Ang^3
#
#
#
# Elastic Constant Matrix: (Units=GPa)
#
#
# Indices 1 2 3 4 5 6 
#
# 1 105.0031 25.7407 27.7419 0.0000 -3.5346 0.0000
# 2 25.7407 90.4648 23.3396 0.0000 -0.8807 0.0000
# 3 27.7419 23.3396 94.3104 0.0000 0.6797 0.0000
# 4 0.0000 0.0000 0.0000 6.5527 0.0000 -24.5172
# 5 -3.5346 -0.8807 0.6797 0.0000 38.9476 0.0000
# 6 0.0000 0.0000 0.0000 -24.5172 0.0000 -5.7469
#
#
#
# Elastic Compliance Matrix: (Units=1/GPa)
#
#
# Indices 1 2 3 4 5 6 
#
# 1 0.010832 -0.002402 -0.002599 0.000000 0.000974 0.000000
# 2 -0.002402 0.012345 -0.002349 0.000000 0.000102 0.000000
# 3 -0.002599 -0.002349 0.011953 0.000000 -0.000498 0.000000
# 4 0.000000 0.000000 0.000000 0.008997 0.000000 -0.038383
# 5 0.000974 0.000102 -0.000498 0.000000 0.025775 0.000000
# 6 0.000000 0.000000 0.000000 -0.038383 0.000000 -0.010259
#
#
# Mechanical properties :
#
#
# Convention : Reuss Voigt Hill
#
# Bulk Modulus (GPa) = 48.95004 49.26918 49.10961
# Shear Modulus (GPa) = 61.61265 22.14774 41.88019
#
# Velocity S-wave (km/s) = 5.75683 3.45154 4.74627
# Velocity P-wave (km/s) = 8.39750 6.51044 7.51345
#
# Compressibility (1/GPa) = 0.02042899
#
# Stress axis : x y z
#
# Youngs Moduli (GPa) = 92.32101 81.00725 83.66326
#
# Poissons Ratio (x) = 0.19459 0.21742
# Poissons Ratio (y) = 0.22176 0.19654
# Poissons Ratio (z) = 0.23992 0.19030
#
# Static dielectric constant tensor:
#      x y z
#    x 3.325400 0.000000 -0.050690 
#    y 0.000000 3.441580 0.000000 
#    z -0.050690 0.000000 3.478400 
# 
# 
# High freq. dielectric constant tensor:
#      x y z
#    x 1.719010 0.000000 -0.001850 
#    y 0.000000 1.728760 0.000000 
#    z -0.001850 0.000000 1.722540 
# 
# From -- ./inp_files/2743.got.cif
#   From: 2010.03.12/outbox.cif.g09.slc.cpg/sg3_2_cif.got.tgz:2743.got - 2010.03.31 09:20:49.
