data_PCOD8045908
_publ_section_title
;
Structure prediction by ZEFSAII (Michael W. Deem and Ramdas Pophale) SiO2 
 PCOD8045908
Probable space group: P 21
;
_chemical_formula_sum "Si O2"
_cell_formula_units_Z 16
_cell_length_a 6.729130
_cell_length_b 17.069463
_cell_length_c 9.666607
_cell_angle_alpha 90.000000
_cell_angle_beta 128.559722
_cell_angle_gamma 90.000000
_cell_volume 868.233907
_symmetry_space_group_name_H-M "P 21"
_symmetry_group_IT_number 4
_symmetry_cell_setting 'monoclinic'
loop_
_space_group_symop_operation_xyz
x,y,z
-x,1/2+y,-z
loop_
_atom_site_type_symbol
_atom_site_label
_atom_site_fract_x
_atom_site_fract_y
_atom_site_fract_z
Si Si1 0.508637 0.458420 0.681166
Si Si2 0.977453 0.883055 0.038149
Si Si3 0.491533 0.626594 0.319213
Si Si4 0.740509 0.994045 0.152674
Si Si5 0.259479 0.090960 0.847084
Si Si6 0.805879 0.602494 0.713939
Si Si7 0.022168 0.201942 0.961457
Si Si8 0.194140 0.482468 0.286373
O O1 0.727353 0.393789 0.794663
O O2 0.310458 0.454654 0.721099
O O3 0.632238 0.545178 0.731549
O O4 0.362427 0.439402 0.475402
O O5 0.906302 0.792484 0.005491
O O6 0.794753 0.924619 0.068848
O O7 0.931898 0.917965 0.865994
O O8 0.689787 0.630257 0.279341
O O9 0.637735 0.645625 0.524983
O O10 0.273093 0.691312 0.205737
O O11 0.367510 0.539895 0.268721
O O12 0.980108 0.051502 0.269824
O O13 0.500265 0.042661 0.000099
O O14 0.204539 0.160426 0.930411
O O15 0.020447 0.033276 0.730227
O O16 0.932428 0.666898 0.866529
#
# Coordination Sequence:
#
# PCOD8045908 Si02
#       8
#     2   2   2   2   2   2   2   2
#     4  10  20  37  61  83 110 144 192 238 278 328
#     4  11  23  37  54  82 119 152 184 233 293 342
#     4  10  20  37  61  83 110 144 192 238 278 328
#     4  11  18  37  62  85 110 147 195 236 276 332
#     4  11  18  37  62  85 110 147 195 236 276 332
#     4  10  20  36  61  85 107 147 191 234 277 339
#     4  11  23  37  54  82 119 152 184 233 293 342
#     4  10  20  36  61  85 107 147 191 234 277 339
#
# _framework density 18.428214000000001
#
# number of rings (size 3 to 8) (size 9 to 14) (size 15 to 20)
#    0.000    1.500    5.000    2.250    0.000    2.000 
#    0.000    0.000    0.000    0.000    0.000    0.000 
#    0.000    0.000    0.000    0.000    0.000    0.000 
#
# Total GULP energy -198470.451344 kJ/mol
# GULP energy per Si atom -12404.403209 kJ/mol
# Density = 1.838627 g / cm^3
# Si number density = 18.428214 Si / 1000 Ang^3
#
#
#
# Elastic Constant Matrix: (Units=GPa)
#
#
# Indices 1 2 3 4 5 6 
#
# 1 116.8823 33.3874 31.7374 0.0000 -11.1888 0.0000
# 2 33.3874 91.9272 37.7107 0.0000 -4.1061 0.0000
# 3 31.7374 37.7107 103.8408 0.0000 5.8065 0.0000
# 4 0.0000 0.0000 0.0000 9.5940 0.0000 4.1172
# 5 -11.1888 -4.1061 5.8065 0.0000 28.5920 0.0000
# 6 0.0000 0.0000 0.0000 4.1172 0.0000 15.3298
#
#
#
# Elastic Compliance Matrix: (Units=1/GPa)
#
#
# Indices 1 2 3 4 5 6 
#
# 1 0.010359 -0.002562 -0.002470 0.000000 0.004187 0.000000
# 2 -0.002562 0.013643 -0.004274 0.000000 0.001825 0.000000
# 3 -0.002470 -0.004274 0.012163 0.000000 -0.004050 0.000000
# 4 0.000000 0.000000 0.000000 0.117810 0.000000 -0.031641
# 5 0.004187 0.001825 -0.004050 0.000000 0.037698 0.000000
# 6 0.000000 0.000000 0.000000 -0.031641 0.000000 0.073730
#
#
# Mechanical properties :
#
#
# Convention : Reuss Voigt Hill
#
# Bulk Modulus (GPa) = 56.96468 57.59124 57.27796
# Shear Modulus (GPa) = 17.24932 24.69082 20.97007
#
# Velocity S-wave (km/s) = 3.06278 3.66435 3.37699
# Velocity P-wave (km/s) = 6.59441 7.01590 6.80841
#
# Compressibility (1/GPa) = 0.01755474
#
# Stress axis : x y z
#
# Youngs Moduli (GPa) = 96.53494 73.29564 82.21334
#
# Poissons Ratio (x) = 0.18779 0.20305
# Poissons Ratio (y) = 0.24733 0.35135
# Poissons Ratio (z) = 0.23842 0.31324
#
# Static dielectric constant tensor:
#      x y z
#    x 3.698000 0.000000 0.006730 
#    y 0.000000 3.030200 0.000000 
#    z 0.006730 0.000000 3.479400 
# 
# 
# High freq. dielectric constant tensor:
#      x y z
#    x 1.725740 0.000000 -0.000350 
#    y 0.000000 1.679350 0.000000 
#    z -0.000350 0.000000 1.727010 
# 
# From -- ./inp_files/1878.got.cif
#   From: 2010.03.12/outbox.cif.g09.slc.cpg/sg4_1_cif.got.tgz:1878.got - 2010.03.31 09:31:35.
