data_PCOD8045506
_publ_section_title
;
Structure prediction by ZEFSAII (Michael W. Deem and Ramdas Pophale) SiO2 
 PCOD8045506
Probable space group: P 2
;
_chemical_formula_sum "Si O2"
_cell_formula_units_Z 15
_cell_length_a 12.491846
_cell_length_b 11.603871
_cell_length_c 6.300241
_cell_angle_alpha 90.000000
_cell_angle_beta 48.690796
_cell_angle_gamma 90.000000
_cell_volume 685.990390
_symmetry_space_group_name_H-M "P 2"
_symmetry_group_IT_number 3
_symmetry_cell_setting 'monoclinic'
loop_
_space_group_symop_operation_xyz
x,y,z
-x,y,-z
loop_
_atom_site_type_symbol
_atom_site_label
_atom_site_fract_x
_atom_site_fract_y
_atom_site_fract_z
Si Si1 0.366084 0.826960 0.309860
Si Si2 0.860951 0.143152 0.822589
Si Si3 0.841308 0.919995 0.113502
Si Si4 0.723207 0.510663 0.009924
Si Si5 0.332718 0.297072 0.197893
Si Si6 0.500000 0.674011 0.500000
Si Si7 0.154763 0.736230 0.237453
Si Si8 0.151529 0.340081 0.839908
O O1 0.269867 0.927981 0.542827
O O2 0.414317 0.748747 0.442649
O O3 0.266880 0.756178 0.278967
O O4 0.500000 0.877604 0.000000
O O5 0.727263 0.195225 0.870544
O O6 0.000000 0.120792 0.500000
O O7 0.901686 0.234149 0.947834
O O8 0.811793 0.024322 0.992089
O O9 0.804771 0.803184 0.031537
O O10 0.000000 0.921769 0.000000
O O11 0.592745 0.594001 0.227007
O O12 0.748800 0.433129 0.180990
O O13 0.692940 0.426155 0.853834
O O14 0.853420 0.597885 0.789517
O O15 0.244381 0.288615 0.529206
O O16 0.500000 0.273491 0.000000
O O17 0.000000 0.783293 0.500000
O O18 0.000000 0.403427 0.000000
#
# Coordination Sequence:
#
# PCOD8045506 Si02
#       8
#     2   2   2   2   2   1   2   2
#     4  12  25  46  71 102 153 194 243 301 362 436
#     4  11  25  48  78 103 136 188 250 299 369 438
#     4  12  26  47  77 105 141 193 248 305 371 438
#     4  11  26  38  71 105 148 188 244 288 363 440
#     4  11  26  47  73 106 145 188 238 303 367 433
#     4  12  24  46  68 102 146 210 234 290 364 440
#     4  12  26  43  68 110 149 192 248 304 362 434
#     4  11  24  44  72 106 141 189 242 301 364 431
#
# _framework density 21.866194
#
# number of rings (size 3 to 8) (size 9 to 14) (size 15 to 20)
#    0.000    0.533    5.333    1.600    5.600    2.133 
#    0.000    6.667    0.000    0.000    0.000    0.000 
#    0.000    0.000    0.000    0.000    0.000    0.000 
#
# Total GULP energy -185957.225632 kJ/mol
# GULP energy per Si atom -12397.148375 kJ/mol
# Density = 2.181643 g / cm^3
# Si number density = 21.866194 Si / 1000 Ang^3
#
#
#
# Elastic Constant Matrix: (Units=GPa)
#
#
# Indices 1 2 3 4 5 6 
#
# 1 126.7464 40.1191 50.1685 0.0000 -3.3469 0.0000
# 2 40.1191 114.8532 50.2421 0.0000 3.1811 0.0000
# 3 50.1685 50.2421 164.3739 0.0000 -16.9852 0.0000
# 4 0.0000 0.0000 0.0000 89.3974 0.0000 6.8650
# 5 -3.3469 3.1811 -16.9852 0.0000 41.2073 0.0000
# 6 0.0000 0.0000 0.0000 6.8650 0.0000 10.5227
#
#
#
# Elastic Compliance Matrix: (Units=1/GPa)
#
#
# Indices 1 2 3 4 5 6 
#
# 1 0.009500 -0.002372 -0.002168 0.000000 0.000061 0.000000
# 2 -0.002372 0.010825 -0.002811 0.000000 -0.002187 0.000000
# 3 -0.002168 -0.002811 0.007947 0.000000 0.003317 0.000000
# 4 0.000000 0.000000 0.000000 0.011776 0.000000 -0.007683
# 5 0.000061 -0.002187 0.003317 0.000000 0.025808 0.000000
# 6 0.000000 0.000000 0.000000 -0.007683 0.000000 0.100045
#
#
# Mechanical properties :
#
#
# Convention : Reuss Voigt Hill
#
# Bulk Modulus (GPa) = 73.68595 76.33697 75.01146
# Shear Modulus (GPa) = 27.00834 45.92176 36.46505
#
# Velocity S-wave (km/s) = 3.51830 4.58768 4.08811
# Velocity P-wave (km/s) = 7.09058 7.94035 7.52747
#
# Compressibility (1/GPa) = 0.01357111
#
# Stress axis : x y z
#
# Youngs Moduli (GPa) = 105.25899 92.37492 125.82683
#
# Poissons Ratio (x) = 0.21908 0.27284
# Poissons Ratio (y) = 0.24964 0.35370
# Poissons Ratio (z) = 0.22824 0.25967
#
# Static dielectric constant tensor:
#      x y z
#    x 4.033230 0.000000 0.080350 
#    y 0.000000 3.845490 0.000000 
#    z 0.080350 0.000000 3.644770 
# 
# 
# High freq. dielectric constant tensor:
#      x y z
#    x 1.869660 0.000000 0.001500 
#    y 0.000000 1.851600 0.000000 
#    z 0.001500 0.000000 1.880680 
# 
# From -- ./inp_files/2469.got.cif
#   From: 2010.03.12/outbox.cif.g09.slc.cpg/sg3_2_cif.got.tgz:2469.got - 2010.03.31 09:20:49.
