data_PCOD8045808
_publ_section_title
;
Structure prediction by ZEFSAII (Michael W. Deem and Ramdas Pophale) SiO2 
 PCOD8045808
Probable space group: P 21
;
_chemical_formula_sum "Si O2"
_cell_formula_units_Z 16
_cell_length_a 18.347168
_cell_length_b 5.047821
_cell_length_c 22.631326
_cell_angle_alpha 90.000000
_cell_angle_beta 21.837353
_cell_angle_gamma 90.000000
_cell_volume 779.640659
_symmetry_space_group_name_H-M "P 21"
_symmetry_group_IT_number 4
_symmetry_cell_setting 'monoclinic'
loop_
_space_group_symop_operation_xyz
x,y,z
-x,1/2+y,-z
loop_
_atom_site_type_symbol
_atom_site_label
_atom_site_fract_x
_atom_site_fract_y
_atom_site_fract_z
Si Si1 0.391609 0.030690 0.312850
Si Si2 0.088673 0.988097 0.209121
Si Si3 0.949208 0.983980 0.962743
Si Si4 0.183569 0.483334 0.061976
Si Si5 0.368500 0.932828 0.107091
Si Si6 0.246195 0.985298 0.835906
Si Si7 0.653830 0.030174 0.575857
Si Si8 0.127715 0.875694 0.404585
O O1 0.353593 0.326889 0.364155
O O2 0.375310 0.826925 0.378968
O O3 0.225366 0.971313 0.390970
O O4 0.601653 0.011818 0.125481
O O5 0.127345 0.743560 0.138511
O O6 0.187613 0.949676 0.198237
O O7 0.181516 0.243821 0.109087
O O8 0.857044 0.017535 0.388847
O O9 0.968385 0.940300 0.877933
O O10 0.164534 0.959150 0.830400
O O11 0.805139 0.770401 0.099408
O O12 0.853330 0.269369 0.046673
O O13 0.285396 0.857005 0.233575
O O14 0.521926 0.712626 0.970285
O O15 0.481085 0.957548 0.659383
O O16 0.042435 0.585331 0.482037
#
# Coordination Sequence:
#
# PCOD8045808 Si02
#       8
#     2   2   2   2   2   2   2   2
#     4  12  23  40  67  89 120 158 217 257 300 366
#     4  12  26  40  62  90 132 161 200 258 318 370
#     4  10  20  37  64  94 123 156 209 252 293 361
#     4  12  23  42  61  96 121 164 206 255 299 363
#     4  12  25  45  63  86 122 169 210 250 314 376
#     4  10  19  38  64  94 122 160 201 254 302 360
#     4  12  23  42  62  96 125 164 200 255 319 364
#     4  12  25  42  63  91 121 158 207 265 313 360
#
# _framework density 20.522273999999999
#
# number of rings (size 3 to 8) (size 9 to 14) (size 15 to 20)
#    0.000    0.500    2.500    7.500    0.000    0.000 
#    0.000    1.250    0.000    0.000    0.000    0.000 
#    0.000    0.000    0.000    0.000    0.000    0.000 
#
# Total GULP energy -198501.368934 kJ/mol
# GULP energy per Si atom -12406.335558 kJ/mol
# Density = 2.047556 g / cm^3
# Si number density = 20.522274 Si / 1000 Ang^3
#
#
#
# Elastic Constant Matrix: (Units=GPa)
#
#
# Indices 1 2 3 4 5 6 
#
# 1 80.3332 10.5051 -0.7622 0.0000 -20.9415 0.0000
# 2 10.5051 94.9054 11.5063 0.0000 3.6293 0.0000
# 3 -0.7622 11.5063 115.9680 0.0000 -7.5529 0.0000
# 4 0.0000 0.0000 0.0000 25.4858 0.0000 1.7120
# 5 -20.9415 3.6293 -7.5529 0.0000 28.1798 0.0000
# 6 0.0000 0.0000 0.0000 1.7120 0.0000 34.6255
#
#
#
# Elastic Compliance Matrix: (Units=1/GPa)
#
#
# Indices 1 2 3 4 5 6 
#
# 1 0.016042 -0.002396 0.001160 0.000000 0.012541 0.000000
# 2 -0.002396 0.011102 -0.001350 0.000000 -0.003572 0.000000
# 3 0.001160 -0.001350 0.008989 0.000000 0.003445 0.000000
# 4 0.000000 0.000000 0.000000 0.039368 0.000000 -0.001947
# 5 0.012541 -0.003572 0.003445 0.000000 0.046189 0.000000
# 6 0.000000 0.000000 0.000000 -0.001947 0.000000 0.028977
#
#
# Mechanical properties :
#
#
# Convention : Reuss Voigt Hill
#
# Bulk Modulus (GPa) = 32.29863 37.07832 34.68847
# Shear Modulus (GPa) = 30.09164 35.65538 32.87351
#
# Velocity S-wave (km/s) = 3.83337 4.17273 4.00665
# Velocity P-wave (km/s) = 5.94689 6.42823 6.19224
#
# Compressibility (1/GPa) = 0.03096106
#
# Stress axis : x y z
#
# Youngs Moduli (GPa) = 62.33808 90.07160 111.24687
#
# Poissons Ratio (x) = 0.21580 -0.12904
# Poissons Ratio (y) = 0.14935 0.15018
# Poissons Ratio (z) = -0.07231 0.12159
#
# Static dielectric constant tensor:
#      x y z
#    x 4.142340 0.000000 -0.185840 
#    y 0.000000 3.940930 0.000000 
#    z -0.185840 0.000000 3.556840 
# 
# 
# High freq. dielectric constant tensor:
#      x y z
#    x 1.815700 0.000000 -0.014840 
#    y 0.000000 1.824820 0.000000 
#    z -0.014840 0.000000 1.789430 
# 
# From -- ./inp_files/15864.got.cif
#   From: 2010.03.12/outbox.cif.g09.slc.cpg/sg4_8_cif.got.tgz:15864.got - 2010.03.31 09:31:35.
