data_PCOD8045978
_publ_section_title
;
Structure prediction by ZEFSAII (Michael W. Deem and Ramdas Pophale) SiO2 
 PCOD8045978
Probable space group: P 21
;
_chemical_formula_sum "Si O2"
_cell_formula_units_Z 12
_cell_length_a 8.279396
_cell_length_b 4.653957
_cell_length_c 21.582192
_cell_angle_alpha 90.000000
_cell_angle_beta 137.494129
_cell_angle_gamma 90.000000
_cell_volume 561.886347
_symmetry_space_group_name_H-M "P 21"
_symmetry_group_IT_number 4
_symmetry_cell_setting 'monoclinic'
loop_
_space_group_symop_operation_xyz
x,y,z
-x,1/2+y,-z
loop_
_atom_site_type_symbol
_atom_site_label
_atom_site_fract_x
_atom_site_fract_y
_atom_site_fract_z
Si Si1 0.383059 0.565920 0.809332
Si Si2 0.159421 0.075945 0.684019
Si Si3 0.470876 0.393978 0.032640
Si Si4 0.162155 0.357784 0.556680
Si Si5 0.631216 0.870459 0.510343
Si Si6 0.846266 0.240740 0.968007
O O1 0.188903 0.310588 0.747708
O O2 0.366109 0.731158 0.870311
O O3 0.335100 0.805328 0.743487
O O4 0.638246 0.407755 0.871944
O O5 0.247257 0.224672 0.645196
O O6 0.884435 0.985935 0.605995
O O7 0.623026 0.639524 0.039453
O O8 0.247921 0.567887 0.998576
O O9 0.376371 0.369529 0.566970
O O10 0.052519 0.673810 0.536366
O O11 0.589458 0.552908 0.524961
O O12 0.032782 0.492513 0.040554
#
# Coordination Sequence:
#
# PCOD8045978 Si02
#       6
#     2   2   2   2   2   2
#     4  12  22  40  67 100 125 167 218 264 332 366
#     4  11  22  39  66  92 130 168 217 269 306 386
#     4  12  22  41  68  96 125 172 222 264 313 410
#     4  10  20  38  63  96 118 174 219 247 302 391
#     4  11  22  39  66  94 129 170 212 259 316 371
#     4  12  22  41  68  96 125 165 218 267 325 384
#
# _framework density 21.356635000000001
#
# number of rings (size 3 to 8) (size 9 to 14) (size 15 to 20)
#    0.000    0.667    5.000    5.000    0.000    0.000 
#    0.000    0.000   18.333    0.000    0.000    0.000 
#    0.000    0.000    0.000    0.000    0.000    0.000 
#
# Total GULP energy -148688.578142 kJ/mol
# GULP energy per Si atom -12390.714845 kJ/mol
# Density = 2.130803 g / cm^3
# Si number density = 21.356635 Si / 1000 Ang^3
#
#
#
# Elastic Constant Matrix: (Units=GPa)
#
#
# Indices 1 2 3 4 5 6 
#
# 1 85.5958 35.8184 42.7714 0.0000 -2.7653 0.0000
# 2 35.8184 143.6058 53.1586 0.0000 2.2168 0.0000
# 3 42.7714 53.1586 94.9936 0.0000 -1.2288 0.0000
# 4 0.0000 0.0000 0.0000 55.6679 0.0000 3.2509
# 5 -2.7653 2.2168 -1.2288 0.0000 11.0827 0.0000
# 6 0.0000 0.0000 0.0000 3.2509 0.0000 60.3798
#
#
#
# Elastic Compliance Matrix: (Units=1/GPa)
#
#
# Indices 1 2 3 4 5 6 
#
# 1 0.015499 -0.001708 -0.005977 0.000000 0.003546 0.000000
# 2 -0.001708 0.009030 -0.004319 0.000000 -0.002711 0.000000
# 3 -0.005977 -0.004319 0.015650 0.000000 0.001108 0.000000
# 4 0.000000 0.000000 0.000000 0.018020 0.000000 -0.000970
# 5 0.003546 -0.002711 0.001108 0.000000 0.091781 0.000000
# 6 0.000000 0.000000 0.000000 -0.000970 0.000000 0.016614
#
#
# Mechanical properties :
#
#
# Convention : Reuss Voigt Hill
#
# Bulk Modulus (GPa) = 61.84193 65.29912 63.57052
# Shear Modulus (GPa) = 25.51128 38.25586 31.88357
#
# Velocity S-wave (km/s) = 3.45996 4.23695 3.86801
# Velocity P-wave (km/s) = 6.70681 7.38767 7.05546
#
# Compressibility (1/GPa) = 0.01617026
#
# Stress axis : x y z
#
# Youngs Moduli (GPa) = 64.52195 110.73836 63.89979
#
# Poissons Ratio (x) = 0.18915 0.38191
# Poissons Ratio (y) = 0.11021 0.27601
# Poissons Ratio (z) = 0.38562 0.47832
#
# Static dielectric constant tensor:
#      x y z
#    x 3.743030 0.000000 -0.156600 
#    y 0.000000 4.605600 0.000000 
#    z -0.156600 0.000000 3.743580 
# 
# 
# High freq. dielectric constant tensor:
#      x y z
#    x 1.809550 0.000000 -0.013550 
#    y 0.000000 1.889750 0.000000 
#    z -0.013550 0.000000 1.805230 
# 
# From -- ./inp_files/15560.got.cif
#   From: 2010.03.12/outbox.cif.g09.slc.cpg/sg4_8_cif.got.tgz:15560.got - 2010.03.31 09:31:35.
