data_PCOD8045053
_publ_section_title
;
Structure prediction by ZEFSAII (Michael W. Deem and Ramdas Pophale) SiO2 
 PCOD8045053
Probable space group: P 2
;
_chemical_formula_sum "Si O2"
_cell_formula_units_Z 14
_cell_length_a 13.223078
_cell_length_b 6.531941
_cell_length_c 8.491523
_cell_angle_alpha 90.000000
_cell_angle_beta 114.764912
_cell_angle_gamma 90.000000
_cell_volume 665.982167
_symmetry_space_group_name_H-M "P 2"
_symmetry_group_IT_number 3
_symmetry_cell_setting 'monoclinic'
loop_
_space_group_symop_operation_xyz
x,y,z
-x,y,-z
loop_
_atom_site_type_symbol
_atom_site_label
_atom_site_fract_x
_atom_site_fract_y
_atom_site_fract_z
Si Si1 0.724111 0.163420 0.024456
Si Si2 0.500000 0.828668 0.500000
Si Si3 0.884619 0.890225 0.264617
Si Si4 0.397103 0.496469 0.648315
Si Si5 0.169176 0.465157 0.664414
Si Si6 0.679925 0.162869 0.648464
Si Si7 0.500000 0.271197 0.000000
Si Si8 0.885253 0.105540 0.572190
O O1 0.798144 0.326086 0.166667
O O2 0.792310 0.947043 0.071608
O O3 0.706797 0.251250 0.838309
O O4 0.606416 0.128715 0.035736
O O5 0.456406 0.695886 0.617771
O O6 0.602134 0.966785 0.625090
O O7 0.902338 0.648420 0.303411
O O8 0.835254 0.973929 0.396785
O O9 0.999547 0.004969 0.295430
O O10 0.279279 0.553566 0.650125
O O11 0.381135 0.330331 0.498721
O O12 0.480240 0.409743 0.833693
O O13 0.098664 0.337616 0.486666
O O14 0.798053 0.094940 0.655442
#
# Coordination Sequence:
#
# PCOD8045053 Si02
#       8
#     2   1   2   2   2   2   1   2
#     4  10  22  36  58  86 119 156 193 241 297 348
#     4  12  22  36  60  86 116 158 198 240 292 352
#     4  10  20  37  63  88 112 153 205 242 286 350
#     4  10  22  38  59  87 118 156 196 240 297 349
#     4   9  20  40  61  86 116 153 200 246 289 348
#     4  11  23  40  59  87 125 157 191 241 298 355
#     4  10  20  40  60  82 120 154 194 248 294 344
#     4   9  21  39  61  86 118 154 194 247 299 343
#
# _framework density 21.021581999999999
#
# number of rings (size 3 to 8) (size 9 to 14) (size 15 to 20)
#    0.000    2.000    0.000    3.857    0.000    9.714 
#    0.000    1.429    0.000    6.857    0.000    0.000 
#    0.000    0.000    0.000    0.000    0.000    0.000 
#
# Total GULP energy -173539.957186 kJ/mol
# GULP energy per Si atom -12395.711228 kJ/mol
# Density = 2.097374 g / cm^3
# Si number density = 21.021582 Si / 1000 Ang^3
#
#
#
# Elastic Constant Matrix: (Units=GPa)
#
#
# Indices 1 2 3 4 5 6 
#
# 1 123.9869 55.1661 34.5642 0.0000 8.0694 0.0000
# 2 55.1661 110.2447 33.2554 0.0000 12.2804 0.0000
# 3 34.5642 33.2554 112.7878 0.0000 0.2107 0.0000
# 4 0.0000 0.0000 0.0000 18.6327 0.0000 -2.5545
# 5 8.0694 12.2804 0.2107 0.0000 33.5678 0.0000
# 6 0.0000 0.0000 0.0000 -2.5545 0.0000 36.6699
#
#
#
# Elastic Compliance Matrix: (Units=1/GPa)
#
#
# Indices 1 2 3 4 5 6 
#
# 1 0.010746 -0.004709 -0.001903 0.000000 -0.000849 0.000000
# 2 -0.004709 0.012481 -0.002231 0.000000 -0.003420 0.000000
# 3 -0.001903 -0.002231 0.010105 0.000000 0.001210 0.000000
# 4 0.000000 0.000000 0.000000 0.054187 0.000000 0.003775
# 5 -0.000849 -0.003420 0.001210 0.000000 0.031238 0.000000
# 6 0.000000 0.000000 0.000000 0.003775 0.000000 0.027533
#
#
# Mechanical properties :
#
#
# Convention : Reuss Voigt Hill
#
# Bulk Modulus (GPa) = 63.91077 65.88785 64.89931
# Shear Modulus (GPa) = 29.55247 32.70966 31.13107
#
# Velocity S-wave (km/s) = 3.75349 3.94890 3.85243
# Velocity P-wave (km/s) = 7.01807 7.22515 7.12236
#
# Compressibility (1/GPa) = 0.01564682
#
# Stress axis : x y z
#
# Youngs Moduli (GPa) = 93.05560 80.12323 98.96198
#
# Poissons Ratio (x) = 0.37728 0.18835
# Poissons Ratio (y) = 0.43817 0.22074
# Poissons Ratio (z) = 0.17711 0.17872
#
# Static dielectric constant tensor:
#      x y z
#    x 3.850380 0.000000 0.061120 
#    y 0.000000 3.766390 0.000000 
#    z 0.061120 0.000000 3.786620 
# 
# 
# High freq. dielectric constant tensor:
#      x y z
#    x 1.834090 0.000000 0.008420 
#    y 0.000000 1.809860 0.000000 
#    z 0.008420 0.000000 1.814670 
# 
# From -- ./inp_files/8096.got.cif
#   From: 2010.03.12/outbox.cif.g09.slc.cpg/sg3_5_cif.got.tgz:8096.got - 2010.03.31 09:20:49.
