data_PCOD8045822
_publ_section_title
;
Structure prediction by ZEFSAII (Michael W. Deem and Ramdas Pophale) SiO2 
 PCOD8045822
Probable space group: P 21
;
_chemical_formula_sum "Si O2"
_cell_formula_units_Z 16
_cell_length_a 8.603684
_cell_length_b 8.493374
_cell_length_c 14.223640
_cell_angle_alpha 90.000000
_cell_angle_beta 44.369505
_cell_angle_gamma 90.000000
_cell_volume 726.822569
_symmetry_space_group_name_H-M "P 21"
_symmetry_group_IT_number 4
_symmetry_cell_setting 'monoclinic'
loop_
_space_group_symop_operation_xyz
x,y,z
-x,1/2+y,-z
loop_
_atom_site_type_symbol
_atom_site_label
_atom_site_fract_x
_atom_site_fract_y
_atom_site_fract_z
Si Si1 0.044123 0.016430 0.546584
Si Si2 0.480973 0.839057 0.388291
Si Si3 0.681315 0.784370 0.649535
Si Si4 0.129987 0.238800 0.147179
Si Si5 0.749650 0.065962 0.827955
Si Si6 0.581629 0.766533 0.142335
Si Si7 0.522880 0.604892 0.885776
Si Si8 0.616699 0.182695 0.384215
O O1 0.130694 0.149489 0.439684
O O2 0.990248 0.095150 0.673493
O O3 0.224371 0.878061 0.477285
O O4 0.811335 0.948019 0.607190
O O5 0.603425 0.758751 0.245953
O O6 0.490223 0.711723 0.467470
O O7 0.606657 0.999636 0.362294
O O8 0.528655 0.740923 0.804773
O O9 0.524086 0.790391 0.626675
O O10 0.254077 0.379304 0.150170
O O11 0.256416 0.093297 0.142796
O O12 0.869168 0.239684 0.274223
O O13 0.180117 0.248557 0.013335
O O14 0.570211 0.124314 0.829089
O O15 0.693848 0.143947 0.953857
O O16 0.479628 0.936558 0.163167
#
# Coordination Sequence:
#
# PCOD8045822 Si02
#       8
#     2   2   2   2   2   2   2   2
#     4  11  21  39  62  92 117 164 212 257 306 364
#     4  11  23  44  61  89 131 168 209 260 309 377
#     4  11  23  39  64  88 124 160 210 259 309 370
#     4  10  21  41  65  92 128 164 201 264 323 371
#     4  10  20  35  68  90 120 155 212 257 305 366
#     4  10  21  40  66  93 124 161 220 261 298 374
#     4  10  19  39  63  91 121 162 207 262 304 365
#     4  11  24  43  59  91 133 168 205 256 324 375
#
# _framework density 22.013625000000001
#
# number of rings (size 3 to 8) (size 9 to 14) (size 15 to 20)
#    0.000    1.500    5.000    0.750    0.000    3.000 
#    2.250    6.250    0.000    0.000    0.000    0.000 
#    0.000    0.000    0.000    0.000    0.000    0.000 
#
# Total GULP energy -198230.530218 kJ/mol
# GULP energy per Si atom -12389.408139 kJ/mol
# Density = 2.196352 g / cm^3
# Si number density = 22.013625 Si / 1000 Ang^3
#
#
#
# Elastic Constant Matrix: (Units=GPa)
#
#
# Indices 1 2 3 4 5 6 
#
# 1 87.4671 25.9635 40.6578 0.0000 23.4666 0.0000
# 2 25.9635 41.4748 17.8926 0.0000 8.3687 0.0000
# 3 40.6578 17.8926 124.1415 0.0000 42.0414 0.0000
# 4 0.0000 0.0000 0.0000 27.2920 0.0000 4.7031
# 5 23.4666 8.3687 42.0414 0.0000 38.6594 0.0000
# 6 0.0000 0.0000 0.0000 4.7031 0.0000 32.3154
#
#
#
# Elastic Compliance Matrix: (Units=1/GPa)
#
#
# Indices 1 2 3 4 5 6 
#
# 1 0.016452 -0.008161 -0.002261 0.000000 -0.005761 0.000000
# 2 -0.008161 0.029903 -0.001777 0.000000 0.000413 0.000000
# 3 -0.002261 -0.001777 0.013387 0.000000 -0.012801 0.000000
# 4 0.000000 0.000000 0.000000 0.037583 0.000000 -0.005470
# 5 -0.005761 0.000413 -0.012801 0.000000 0.043196 0.000000
# 6 0.000000 0.000000 0.000000 -0.005470 0.000000 0.031741
#
#
# Mechanical properties :
#
#
# Convention : Reuss Voigt Hill
#
# Bulk Modulus (GPa) = 28.29314 46.90123 37.59719
# Shear Modulus (GPa) = 23.98745 30.89131 27.43938
#
# Velocity S-wave (km/s) = 3.30459 3.75010 3.53437
# Velocity P-wave (km/s) = 5.23840 6.33268 5.81135
#
# Compressibility (1/GPa) = 0.03534426
#
# Stress axis : x y z
#
# Youngs Moduli (GPa) = 60.78277 33.44115 74.69855
#
# Poissons Ratio (x) = 0.27292 0.16889
# Poissons Ratio (y) = 0.49606 0.13274
# Poissons Ratio (z) = 0.13742 0.05942
#
# Static dielectric constant tensor:
#      x y z
#    x 3.680710 0.000000 0.322790 
#    y 0.000000 3.771740 0.000000 
#    z 0.322790 0.000000 4.460000 
# 
# 
# High freq. dielectric constant tensor:
#      x y z
#    x 1.832520 0.000000 0.025350 
#    y 0.000000 1.851710 0.000000 
#    z 0.025350 0.000000 1.891620 
# 
# From -- ./inp_files/13652.got.cif
#   From: 2010.03.12/outbox.cif.g09.slc.cpg/sg4_7_cif.got.tgz:13652.got - 2010.03.31 09:31:35.
