data_PCOD8045956
_publ_section_title
;
Structure prediction by ZEFSAII (Michael W. Deem and Ramdas Pophale) SiO2 
 PCOD8045956
Probable space group: P 21
;
_chemical_formula_sum "Si O2"
_cell_formula_units_Z 14
_cell_length_a 10.876167
_cell_length_b 8.631575
_cell_length_c 14.485819
_cell_angle_alpha 90.000000
_cell_angle_beta 29.298473
_cell_angle_gamma 90.000000
_cell_volume 665.482649
_symmetry_space_group_name_H-M "P 21"
_symmetry_group_IT_number 4
_symmetry_cell_setting 'monoclinic'
loop_
_space_group_symop_operation_xyz
x,y,z
-x,1/2+y,-z
loop_
_atom_site_type_symbol
_atom_site_label
_atom_site_fract_x
_atom_site_fract_y
_atom_site_fract_z
Si Si1 0.908678 0.591250 0.645901
Si Si2 0.312385 0.219428 0.524311
Si Si3 0.009956 0.057241 0.867797
Si Si4 0.008055 0.990959 0.213962
Si Si5 0.887890 0.235559 0.655868
Si Si6 0.619278 0.214653 0.007354
Si Si7 0.097919 0.716773 0.878641
O O1 0.000600 0.604471 0.691328
O O2 0.124079 0.646207 0.433641
O O3 0.837595 0.415680 0.668900
O O4 0.676628 0.709109 0.781353
O O5 0.239843 0.085898 0.646020
O O6 0.155265 0.205818 0.532083
O O7 0.602250 0.208590 0.310200
O O8 0.239640 0.383079 0.619626
O O9 0.748962 0.083712 0.985186
O O10 0.009060 0.884906 0.906643
O O11 0.025271 0.179292 0.942189
O O12 0.258330 0.882953 0.051139
O O13 0.009289 0.091884 0.122124
O O14 0.668524 0.173347 0.866975
#
# Coordination Sequence:
#
# PCOD8045956 Si02
#       7
#     2   2   2   2   2   2   2
#     4  10  20  38  59  81 115 150 183 237 284 329
#     4   9  20  41  58  78 114 152 186 238 282 322
#     4  10  22  35  58  85 110 148 194 230 281 344
#     4   9  22  38  58  86 112 149 197 228 278 345
#     4   9  21  36  58  85 109 148 195 227 281 344
#     4   9  20  41  56  79 118 152 186 236 282 327
#     4  12  21  37  59  84 116 149 187 238 284 333
#
# _framework density 21.037362999999999
#
# number of rings (size 3 to 8) (size 9 to 14) (size 15 to 20)
#    0.000    2.857    0.000    3.429    0.000    6.857 
#    0.000   11.429    0.000    0.000    0.000    0.000 
#    0.000    0.000    0.000    0.000    0.000    0.000 
#
# Total GULP energy -173543.010928 kJ/mol
# GULP energy per Si atom -12395.929352 kJ/mol
# Density = 2.098948 g / cm^3
# Si number density = 21.037363 Si / 1000 Ang^3
#
#
#
# Elastic Constant Matrix: (Units=GPa)
#
#
# Indices 1 2 3 4 5 6 
#
# 1 55.4030 24.2747 31.1420 0.0000 14.4581 0.0000
# 2 24.2747 74.3502 21.8283 0.0000 4.1028 0.0000
# 3 31.1420 21.8283 62.7533 0.0000 13.7430 0.0000
# 4 0.0000 0.0000 0.0000 26.8404 0.0000 10.5242
# 5 14.4581 4.1028 13.7430 0.0000 26.2959 0.0000
# 6 0.0000 0.0000 0.0000 10.5242 0.0000 39.2553
#
#
#
# Elastic Compliance Matrix: (Units=1/GPa)
#
#
# Indices 1 2 3 4 5 6 
#
# 1 0.028864 -0.005910 -0.010157 0.000000 -0.009640 0.000000
# 2 -0.005910 0.016194 -0.003228 0.000000 0.002410 0.000000
# 3 -0.010157 -0.003228 0.023449 0.000000 -0.006167 0.000000
# 4 0.000000 0.000000 0.000000 0.041634 0.000000 -0.011162
# 5 -0.009640 0.002410 -0.006167 0.000000 0.046176 0.000000
# 6 0.000000 0.000000 0.000000 -0.011162 0.000000 0.028467
#
#
# Mechanical properties :
#
#
# Convention : Reuss Voigt Hill
#
# Bulk Modulus (GPa) = 33.42537 38.55518 35.99028
# Shear Modulus (GPa) = 21.42738 26.16242 23.79490
#
# Velocity S-wave (km/s) = 3.19492 3.53032 3.36680
# Velocity P-wave (km/s) = 5.43443 5.91476 5.67968
#
# Compressibility (1/GPa) = 0.02991740
#
# Stress axis : x y z
#
# Youngs Moduli (GPa) = 34.64533 61.75096 42.64490
#
# Poissons Ratio (x) = 0.36494 0.43316
# Poissons Ratio (y) = 0.20475 0.13765
# Poissons Ratio (z) = 0.35190 0.19933
#
# Static dielectric constant tensor:
#      x y z
#    x 3.789220 0.000000 0.290760 
#    y 0.000000 3.627010 0.000000 
#    z 0.290760 0.000000 3.686550 
# 
# 
# High freq. dielectric constant tensor:
#      x y z
#    x 1.820710 0.000000 0.024130 
#    y 0.000000 1.814710 0.000000 
#    z 0.024130 0.000000 1.818630 
# 
# From -- ./inp_files/13919.got.cif
#   From: 2010.03.12/outbox.cif.g09.slc.cpg/sg4_7_cif.got.tgz:13919.got - 2010.03.31 09:31:35.
