data_PCOD8045015
_publ_section_title
;
Structure prediction by ZEFSAII (Michael W. Deem and Ramdas Pophale) SiO2 
 PCOD8045015
Probable space group: P 2
;
_chemical_formula_sum "Si O2"
_cell_formula_units_Z 16
_cell_length_a 11.767369
_cell_length_b 7.414206
_cell_length_c 9.451227
_cell_angle_alpha 90.000000
_cell_angle_beta 76.573004
_cell_angle_gamma 90.000000
_cell_volume 802.040332
_symmetry_space_group_name_H-M "P 2"
_symmetry_group_IT_number 3
_symmetry_cell_setting 'monoclinic'
loop_
_space_group_symop_operation_xyz
x,y,z
-x,y,-z
loop_
_atom_site_type_symbol
_atom_site_label
_atom_site_fract_x
_atom_site_fract_y
_atom_site_fract_z
Si Si1 0.991856 0.835890 0.332396
Si Si2 0.229472 0.851159 0.773343
Si Si3 0.216365 0.863963 0.105204
Si Si4 0.758426 0.448858 0.893844
Si Si5 0.598303 0.156778 0.861214
Si Si6 0.736531 0.436286 0.220904
Si Si7 0.010140 0.477114 0.836490
Si Si8 0.569617 0.128658 0.341160
O O1 0.104803 0.931441 0.228558
O O2 0.988256 0.629871 0.283023
O O3 0.000000 0.852648 0.500000
O O4 0.871708 0.920648 0.304905
O O5 0.266697 0.644592 0.730595
O O6 0.342042 0.969930 0.717342
O O7 0.185401 0.869970 0.947748
O O8 0.246886 0.659478 0.143719
O O9 0.327436 0.986682 0.106076
O O10 0.680007 0.331669 0.811083
O O11 0.890796 0.366648 0.845358
O O12 0.707016 0.414575 0.064681
O O13 0.536437 0.114404 0.734996
O O14 0.500000 0.209176 0.000000
O O15 0.639589 0.318680 0.329978
O O16 0.869775 0.362421 0.211317
O O17 0.000000 0.561317 0.000000
O O18 0.500000 0.088422 0.500000
#
# Coordination Sequence:
#
# PCOD8045015 Si02
#       8
#     2   2   2   2   2   2   2   2
#     4  10  20  35  60  94 124 150 191 245 303 361
#     4  10  21  41  66  87 117 160 199 244 299 355
#     4  10  21  39  66  91 117 156 198 246 300 350
#     4   9  18  36  64  92 114 144 195 254 290 342
#     4  12  23  40  60  88 118 157 209 248 284 350
#     4   9  18  38  64  87 114 152 196 241 298 354
#     4   8  16  35  62  90 117 149 195 244 298 360
#     4  12  27  42  56  84 125 162 203 249 292 351
#
# _framework density 19.949121000000002
#
# number of rings (size 3 to 8) (size 9 to 14) (size 15 to 20)
#    0.000    2.000    2.500    2.625    1.750    3.000 
#    9.000    2.500    0.000    0.000    0.000    0.000 
#    0.000    0.000    0.000    0.000    0.000    0.000 
#
# Total GULP energy -198260.792862 kJ/mol
# GULP energy per Si atom -12391.299554 kJ/mol
# Density = 1.990372 g / cm^3
# Si number density = 19.949121 Si / 1000 Ang^3
#
#
#
# Elastic Constant Matrix: (Units=GPa)
#
#
# Indices 1 2 3 4 5 6 
#
# 1 148.8530 55.4304 46.0523 0.0000 17.3838 0.0000
# 2 55.4304 79.9436 21.0025 0.0000 2.7879 0.0000
# 3 46.0523 21.0025 105.5420 0.0000 9.2236 0.0000
# 4 0.0000 0.0000 0.0000 12.8044 0.0000 5.2121
# 5 17.3838 2.7879 9.2236 0.0000 30.7996 0.0000
# 6 0.0000 0.0000 0.0000 5.2121 0.0000 33.0715
#
#
#
# Elastic Compliance Matrix: (Units=1/GPa)
#
#
# Indices 1 2 3 4 5 6 
#
# 1 0.010520 -0.006368 -0.002931 0.000000 -0.004483 0.000000
# 2 -0.006368 0.017058 -0.000817 0.000000 0.002294 0.000000
# 3 -0.002931 -0.000817 0.011055 0.000000 -0.001582 0.000000
# 4 0.000000 0.000000 0.000000 0.083452 0.000000 -0.013152
# 5 -0.004483 0.002294 -0.001582 0.000000 0.035265 0.000000
# 6 0.000000 0.000000 0.000000 -0.013152 0.000000 0.032310
#
#
# Mechanical properties :
#
#
# Convention : Reuss Voigt Hill
#
# Bulk Modulus (GPa) = 54.34230 64.36768 59.35499
# Shear Modulus (GPa) = 23.14554 29.45867 26.30210
#
# Velocity S-wave (km/s) = 3.40991 3.84694 3.63500
# Velocity P-wave (km/s) = 6.54239 7.21581 6.88734
#
# Compressibility (1/GPa) = 0.01840187
#
# Stress axis : x y z
#
# Youngs Moduli (GPa) = 95.06013 58.62206 90.45925
#
# Poissons Ratio (x) = 0.37328 0.26516
# Poissons Ratio (y) = 0.60530 0.07387
# Poissons Ratio (z) = 0.27864 0.04787
#
# Static dielectric constant tensor:
#      x y z
#    x 4.078530 0.000000 -0.126590 
#    y 0.000000 3.404580 0.000000 
#    z -0.126590 0.000000 3.498300 
# 
# 
# High freq. dielectric constant tensor:
#      x y z
#    x 1.800880 0.000000 -0.002280 
#    y 0.000000 1.759670 0.000000 
#    z -0.002280 0.000000 1.753330 
# 
# From -- ./inp_files/7172.got.cif
#   From: 2010.03.12/outbox.cif.g09.slc.cpg/sg3_4_cif.got.tgz:7172.got - 2010.03.31 09:20:49.
