data_PCOD8045906
_publ_section_title
;
Structure prediction by ZEFSAII (Michael W. Deem and Ramdas Pophale) SiO2 
 PCOD8045906
Probable space group: P 21
;
_chemical_formula_sum "Si O2"
_cell_formula_units_Z 14
_cell_length_a 9.428480
_cell_length_b 5.207046
_cell_length_c 15.080827
_cell_angle_alpha 90.000000
_cell_angle_beta 54.608143
_cell_angle_gamma 90.000000
_cell_volume 603.570238
_symmetry_space_group_name_H-M "P 21"
_symmetry_group_IT_number 4
_symmetry_cell_setting 'monoclinic'
loop_
_space_group_symop_operation_xyz
x,y,z
-x,1/2+y,-z
loop_
_atom_site_type_symbol
_atom_site_label
_atom_site_fract_x
_atom_site_fract_y
_atom_site_fract_z
Si Si1 0.720875 0.766260 0.255974
Si Si2 0.463532 0.058745 0.457531
Si Si3 0.467716 0.172978 0.069669
Si Si4 0.080179 0.176292 0.268456
Si Si5 0.720698 0.423976 0.104090
Si Si6 0.105539 0.161029 0.624762
Si Si7 0.000345 0.129398 0.102588
O O1 0.627138 0.571839 0.219769
O O2 0.787205 0.633090 0.321678
O O3 0.583494 0.994204 0.328505
O O4 0.888732 0.867186 0.141920
O O5 0.546138 0.301148 0.478420
O O6 0.265427 0.128259 0.496854
O O7 0.283607 0.124369 0.182936
O O8 0.596456 0.209699 0.107097
O O9 0.468130 0.428101 0.009002
O O10 0.036500 0.435736 0.338662
O O11 0.993284 0.230362 0.205264
O O12 0.991956 0.932412 0.348768
O O13 0.906431 0.327122 0.072543
O O14 0.794064 0.599027 0.996217
#
# Coordination Sequence:
#
# PCOD8045906 Si02
#       7
#     2   2   2   2   2   2   2
#     4  10  22  35  59  96 130 167 206 270 329 375
#     4  10  20  36  60  98 135 164 208 272 333 383
#     4  12  28  43  61  91 132 182 221 262 312 386
#     4  11  22  41  61  91 126 170 218 259 317 381
#     4  12  24  38  61  91 136 174 217 264 319 384
#     4  10  20  38  63  91 127 164 211 267 320 381
#     4  11  22  37  59  90 128 173 209 262 316 382
#
# _framework density 23.195311
#
# number of rings (size 3 to 8) (size 9 to 14) (size 15 to 20)
#    0.000    1.143    4.286    3.429    8.000    0.000 
#    0.000    0.000    0.000    0.000    3.714    0.000 
#    0.000    0.000    0.000    0.000    0.000    0.000 
#
# Total GULP energy -173487.379855 kJ/mol
# GULP energy per Si atom -12391.955704 kJ/mol
# Density = 2.314252 g / cm^3
# Si number density = 23.195311 Si / 1000 Ang^3
#
#
#
# Elastic Constant Matrix: (Units=GPa)
#
#
# Indices 1 2 3 4 5 6 
#
# 1 42.5489 21.7809 27.1804 0.0000 -20.5151 0.0000
# 2 21.7809 130.1192 30.4600 0.0000 -12.9137 0.0000
# 3 27.1804 30.4600 92.2663 0.0000 -34.9027 0.0000
# 4 0.0000 0.0000 0.0000 41.2248 0.0000 -13.0089
# 5 -20.5151 -12.9137 -34.9027 0.0000 35.0449 0.0000
# 6 0.0000 0.0000 0.0000 -13.0089 0.0000 24.3033
#
#
#
# Elastic Compliance Matrix: (Units=1/GPa)
#
#
# Indices 1 2 3 4 5 6 
#
# 1 0.035068 -0.003553 -0.003028 0.000000 0.016204 0.000000
# 2 -0.003553 0.008695 -0.002244 0.000000 -0.001111 0.000000
# 3 -0.003028 -0.002244 0.018432 0.000000 0.015758 0.000000
# 4 0.000000 0.000000 0.000000 0.029187 0.000000 0.015623
# 5 0.016204 -0.001111 0.015758 0.000000 0.053305 0.000000
# 6 0.000000 0.000000 0.000000 0.015623 0.000000 0.049510
#
#
# Mechanical properties :
#
#
# Convention : Reuss Voigt Hill
#
# Bulk Modulus (GPa) = 22.44935 47.08634 34.76785
# Shear Modulus (GPa) = 22.05601 32.48212 27.26907
#
# Velocity S-wave (km/s) = 3.08698 3.74622 3.43246
# Velocity P-wave (km/s) = 4.73343 6.24950 5.54354
#
# Compressibility (1/GPa) = 0.04454471
#
# Stress axis : x y z
#
# Youngs Moduli (GPa) = 28.51578 115.00736 54.25396
#
# Poissons Ratio (x) = 0.40864 0.16428
# Poissons Ratio (y) = 0.10132 0.12175
# Poissons Ratio (z) = 0.08635 0.25808
#
# Static dielectric constant tensor:
#      x y z
#    x 3.796290 0.000000 -0.118010 
#    y 0.000000 4.250000 0.000000 
#    z -0.118010 0.000000 4.480820 
# 
# 
# High freq. dielectric constant tensor:
#      x y z
#    x 1.872730 0.000000 -0.021230 
#    y 0.000000 1.924760 0.000000 
#    z -0.021230 0.000000 1.924560 
# 
# From -- ./inp_files/12508.got.cif
#   From: 2010.03.12/outbox.cif.g09.slc.cpg/sg4_7_cif.got.tgz:12508.got - 2010.03.31 09:31:35.
