data_PCOD8045386
_publ_section_title
;
Structure prediction by ZEFSAII (Michael W. Deem and Ramdas Pophale) SiO2 
 PCOD8045386
Probable space group: P 2
;
_chemical_formula_sum "Si O2"
_cell_formula_units_Z 14
_cell_length_a 19.876759
_cell_length_b 5.383910
_cell_length_c 9.777021
_cell_angle_alpha 90.000000
_cell_angle_beta 36.186461
_cell_angle_gamma 90.000000
_cell_volume 617.742198
_symmetry_space_group_name_H-M "P 2"
_symmetry_group_IT_number 3
_symmetry_cell_setting 'monoclinic'
loop_
_space_group_symop_operation_xyz
x,y,z
-x,y,-z
loop_
_atom_site_type_symbol
_atom_site_label
_atom_site_fract_x
_atom_site_fract_y
_atom_site_fract_z
Si Si1 0.000000 0.541930 0.000000
Si Si2 0.210474 0.960345 0.928154
Si Si3 0.539653 0.554278 0.778535
Si Si4 0.232984 0.446271 0.727635
Si Si5 0.000000 0.371691 0.500000
Si Si6 0.446385 0.061069 0.937132
Si Si7 0.016964 0.756539 0.687093
Si Si8 0.205628 0.018690 0.233183
O O1 0.889024 0.382284 0.141249
O O2 0.960696 0.711016 0.190545
O O3 0.263915 0.196126 0.760846
O O4 0.228600 0.696275 0.824967
O O5 0.264260 0.948457 0.991795
O O6 0.072121 0.989399 0.177615
O O7 0.674798 0.509675 0.540712
O O8 0.482776 0.314026 0.798685
O O9 0.496109 0.812582 0.780800
O O10 0.500000 0.570424 0.000000
O O11 0.041836 0.531080 0.299575
O O12 0.886381 0.234270 0.635519
O O13 0.500000 0.075238 0.000000
O O14 0.309122 0.072016 0.167444
O O15 0.136960 0.795208 0.415539
#
# Coordination Sequence:
#
# PCOD8045386 Si02
#       8
#     1   2   2   2   1   2   2   2
#     4  10  26  40  68 112 140 196 222 314 380 430
#     4  11  23  45  66 106 142 188 231 302 372 441
#     4  10  23  47  67  98 134 192 241 297 355 429
#     4  11  25  45  71 100 154 180 245 305 372 439
#     4  12  22  44  72 108 150 202 242 308 366 452
#     4  10  25  43  69 102 138 184 251 297 355 415
#     4  11  24  42  67 107 154 186 242 292 380 450
#     4  12  24  41  75 105 145 195 247 301 358 455
#
# _framework density 22.663174999999999
#
# number of rings (size 3 to 8) (size 9 to 14) (size 15 to 20)
#    0.000    1.143    2.857    2.571    6.000    3.429 
#    2.571    4.286    0.000    0.000    0.000    0.000 
#    0.000    0.000    0.000    0.000    0.000    0.000 
#
# Total GULP energy -173436.577267 kJ/mol
# GULP energy per Si atom -12388.326948 kJ/mol
# Density = 2.261159 g / cm^3
# Si number density = 22.663175 Si / 1000 Ang^3
#
#
#
# Elastic Constant Matrix: (Units=GPa)
#
#
# Indices 1 2 3 4 5 6 
#
# 1 117.8979 33.6993 48.7007 0.0000 -3.0820 0.0000
# 2 33.6993 155.1534 34.7728 0.0000 -5.3454 0.0000
# 3 48.7007 34.7728 117.8502 0.0000 -4.0404 0.0000
# 4 0.0000 0.0000 0.0000 15.4085 0.0000 -6.7799
# 5 -3.0820 -5.3454 -4.0404 0.0000 48.5853 0.0000
# 6 0.0000 0.0000 0.0000 -6.7799 0.0000 14.8393
#
#
#
# Elastic Compliance Matrix: (Units=1/GPa)
#
#
# Indices 1 2 3 4 5 6 
#
# 1 0.010507 -0.001396 -0.003923 0.000000 0.000187 0.000000
# 2 -0.001396 0.007104 -0.001500 0.000000 0.000568 0.000000
# 3 -0.003923 -0.001500 0.010565 0.000000 0.000465 0.000000
# 4 0.000000 0.000000 0.000000 0.081229 0.000000 0.037112
# 5 0.000187 0.000568 0.000465 0.000000 0.020695 0.000000
# 6 0.000000 0.000000 0.000000 0.037112 0.000000 0.084345
#
#
# Mechanical properties :
#
#
# Convention : Reuss Voigt Hill
#
# Bulk Modulus (GPa) = 68.78921 69.47191 69.13056
# Shear Modulus (GPa) = 21.46577 34.01521 27.74049
#
# Velocity S-wave (km/s) = 3.08094 3.87835 3.50241
# Velocity P-wave (km/s) = 6.56316 7.12574 6.85022
#
# Compressibility (1/GPa) = 0.01453716
#
# Stress axis : x y z
#
# Youngs Moduli (GPa) = 95.17876 140.76198 94.65153
#
# Poissons Ratio (x) = 0.19654 0.37135
# Poissons Ratio (y) = 0.13290 0.14195
# Poissons Ratio (z) = 0.37342 0.21110
#
# Static dielectric constant tensor:
#      x y z
#    x 3.999330 0.000000 -0.019800 
#    y 0.000000 4.943970 0.000000 
#    z -0.019800 0.000000 4.258680 
# 
# 
# High freq. dielectric constant tensor:
#      x y z
#    x 1.870870 0.000000 0.000820 
#    y 0.000000 1.904620 0.000000 
#    z 0.000820 0.000000 1.893220 
# 
# From -- ./inp_files/8838.got.cif
#   From: 2010.03.12/outbox.cif.g09.slc.cpg/sg3_5_cif.got.tgz:8838.got - 2010.03.31 09:20:49.
