data_PCOD8045557
_publ_section_title
;
Structure prediction by ZEFSAII (Michael W. Deem and Ramdas Pophale) SiO2 
 PCOD8045557
Probable space group: P 2
;
_chemical_formula_sum "Si O2"
_cell_formula_units_Z 10
_cell_length_a 8.802474
_cell_length_b 5.709658
_cell_length_c 13.627374
_cell_angle_alpha 90.000000
_cell_angle_beta 148.974298
_cell_angle_gamma 90.000000
_cell_volume 353.012777
_symmetry_space_group_name_H-M "P 2"
_symmetry_group_IT_number 3
_symmetry_cell_setting 'monoclinic'
loop_
_space_group_symop_operation_xyz
x,y,z
-x,y,-z
loop_
_atom_site_type_symbol
_atom_site_label
_atom_site_fract_x
_atom_site_fract_y
_atom_site_fract_z
Si Si1 0.909681 0.075370 0.312006
Si Si2 0.500000 0.712331 0.000000
Si Si3 0.452746 0.811305 0.643368
Si Si4 0.090318 0.155738 0.187992
Si Si5 0.500000 0.518775 0.500000
Si Si6 0.547255 0.419803 0.856632
O O1 0.761886 0.299061 0.282831
O O2 0.999996 0.115555 0.249997
O O3 0.679957 0.862617 0.179354
O O4 0.204913 0.003826 0.538308
O O5 0.311793 0.544436 0.968335
O O6 0.311794 0.686672 0.468335
O O7 0.499999 0.615556 0.750000
O O8 0.761887 0.932046 0.782831
O O9 0.320046 0.368489 0.320647
O O10 0.795088 0.227284 0.961691
#
# Coordination Sequence:
#
# PCOD8045557 Si02
#       6
#     2   1   2   2   1   2
#     4  12  24  55  85 118 172 226 289 350 428 519
#     4  12  24  50  88 118 172 224 286 352 440 498
#     4  12  29  52  86 128 169 225 288 360 429 511
#     4  12  24  55  85 118 172 226 289 350 428 519
#     4  12  24  50  88 118 172 224 286 352 440 498
#     4  12  29  52  86 128 169 225 288 360 429 511
#
# _framework density 28.327589
#
# number of rings (size 3 to 8) (size 9 to 14) (size 15 to 20)
#    0.000    0.000    8.000    1.200    0.000    3.200 
#    7.200    2.000    0.000    0.000    0.000    0.000 
#    0.000    0.000    0.000    0.000    0.000    0.000 
#
# Total GULP energy -123951.400329 kJ/mol
# GULP energy per Si atom -12395.140033 kJ/mol
# Density = 2.826311 g / cm^3
# Si number density = 28.327589 Si / 1000 Ang^3
#
#
#
# Elastic Constant Matrix: (Units=GPa)
#
#
# Indices 1 2 3 4 5 6 
#
# 1 149.2478 109.9590 58.4369 0.0000 14.9012 0.0000
# 2 109.9590 169.9176 62.4202 0.0000 6.9245 0.0000
# 3 58.4369 62.4202 137.4792 0.0000 9.1557 0.0000
# 4 0.0000 0.0000 0.0000 59.8420 0.0000 -13.6660
# 5 14.9012 6.9245 9.1557 0.0000 42.5049 0.0000
# 6 0.0000 0.0000 0.0000 -13.6660 0.0000 76.0114
#
#
#
# Elastic Compliance Matrix: (Units=1/GPa)
#
#
# Indices 1 2 3 4 5 6 
#
# 1 0.013671 -0.007996 -0.001977 0.000000 -0.003064 0.000000
# 2 -0.007996 0.011749 -0.002024 0.000000 0.001325 0.000000
# 3 -0.001977 -0.002024 0.009095 0.000000 -0.000937 0.000000
# 4 0.000000 0.000000 0.000000 0.017426 0.000000 0.003133
# 5 -0.003064 0.001325 -0.000937 0.000000 0.024587 0.000000
# 6 0.000000 0.000000 0.000000 0.003133 0.000000 0.013719
#
#
# Mechanical properties :
#
#
# Convention : Reuss Voigt Hill
#
# Bulk Modulus (GPa) = 95.03376 102.03074 98.53225
# Shear Modulus (GPa) = 42.46321 50.72690 46.59506
#
# Velocity S-wave (km/s) = 3.87590 4.23629 4.06009
# Velocity P-wave (km/s) = 7.32469 7.74755 7.53908
#
# Compressibility (1/GPa) = 0.01052258
#
# Stress axis : x y z
#
# Youngs Moduli (GPa) = 73.14579 85.11148 109.94708
#
# Poissons Ratio (x) = 0.68057 0.21731
# Poissons Ratio (y) = 0.58489 0.22253
# Poissons Ratio (z) = 0.14457 0.17226
#
# Static dielectric constant tensor:
#      x y z
#    x 5.561870 0.000000 0.425830 
#    y 0.000000 5.794120 0.000000 
#    z 0.425830 0.000000 5.743070 
# 
# 
# High freq. dielectric constant tensor:
#      x y z
#    x 2.177310 0.000000 -0.008960 
#    y 0.000000 2.168150 0.000000 
#    z -0.008960 0.000000 2.124720 
# 
# From -- ./inp_files/13438.got.cif
#   From: 2010.03.12/outbox.cif.g09.slc.cpg/sg3_7_cif.got.tgz:13438.got - 2010.03.31 09:20:49.
