data_PCOD8045100
_publ_section_title
;
Structure prediction by ZEFSAII (Michael W. Deem and Ramdas Pophale) SiO2 
 PCOD8045100
Probable space group: P 2
;
_chemical_formula_sum "Si O2"
_cell_formula_units_Z 14
_cell_length_a 6.142513
_cell_length_b 6.426358
_cell_length_c 16.085678
_cell_angle_alpha 90.000000
_cell_angle_beta 93.243443
_cell_angle_gamma 90.000000
_cell_volume 633.948734
_symmetry_space_group_name_H-M "P 2"
_symmetry_group_IT_number 3
_symmetry_cell_setting 'monoclinic'
loop_
_space_group_symop_operation_xyz
x,y,z
-x,y,-z
loop_
_atom_site_type_symbol
_atom_site_label
_atom_site_fract_x
_atom_site_fract_y
_atom_site_fract_z
Si Si1 0.132733 0.969580 0.210486
Si Si2 0.527429 0.639886 0.723706
Si Si3 0.000000 0.154204 0.500000
Si Si4 0.804564 0.643574 0.147620
Si Si5 0.500000 0.559340 0.000000
Si Si6 0.390496 0.934858 0.582357
Si Si7 0.863552 0.318560 0.917644
Si Si8 0.739041 0.251443 0.645798
O O1 0.326379 0.805010 0.223992
O O2 0.903858 0.858738 0.184392
O O3 0.199179 0.116472 0.135838
O O4 0.106828 0.105660 0.293648
O O5 0.352495 0.547171 0.784815
O O6 0.393633 0.742662 0.645529
O O7 0.687748 0.463636 0.692262
O O8 0.861172 0.297258 0.560695
O O9 0.855208 0.001819 0.440613
O O10 0.668619 0.693586 0.059739
O O11 0.995721 0.479681 0.134040
O O12 0.364688 0.419183 0.061311
O O13 0.500000 0.855408 0.500000
O O14 0.514161 0.134304 0.622378
O O15 0.000000 0.245214 0.000000
#
# Coordination Sequence:
#
# PCOD8045100 Si02
#       8
#     2   2   1   2   1   2   2   2
#     4  11  23  41  64  93 125 164 211 255 309 369
#     4  11  24  41  65  94 128 164 206 258 310 367
#     4  10  20  42  68  88 124 168 210 256 306 368
#     4  11  23  40  64  93 126 164 206 257 310 370
#     4  10  22  44  64  88 130 164 202 258 312 370
#     4   9  21  40  62  93 128 163 208 258 309 365
#     4  10  24  43  64  92 125 163 206 254 312 373
#     4  10  22  40  62  94 128 164 208 258 311 364
#
# _framework density 22.083805000000002
#
# number of rings (size 3 to 8) (size 9 to 14) (size 15 to 20)
#    0.000    1.714    0.000    3.429    0.000   11.429 
#    0.000    8.571    0.000    0.000    0.000    0.000 
#    0.000    0.000    0.000    0.000    0.000    0.000 
#
# Total GULP energy -173631.373469 kJ/mol
# GULP energy per Si atom -12402.240962 kJ/mol
# Density = 2.203354 g / cm^3
# Si number density = 22.083805 Si / 1000 Ang^3
#
#
#
# Elastic Constant Matrix: (Units=GPa)
#
#
# Indices 1 2 3 4 5 6 
#
# 1 119.5740 56.8602 63.2675 0.0000 -7.1023 0.0000
# 2 56.8602 108.5097 71.9026 0.0000 -1.1892 0.0000
# 3 63.2675 71.9026 140.8396 0.0000 2.9827 0.0000
# 4 0.0000 0.0000 0.0000 45.2741 0.0000 -2.1694
# 5 -7.1023 -1.1892 2.9827 0.0000 54.9932 0.0000
# 6 0.0000 0.0000 0.0000 -2.1694 0.0000 15.3408
#
#
#
# Elastic Compliance Matrix: (Units=1/GPa)
#
#
# Indices 1 2 3 4 5 6 
#
# 1 0.012237 -0.004122 -0.003428 0.000000 0.001677 0.000000
# 2 -0.004122 0.015342 -0.005983 0.000000 0.000124 0.000000
# 3 -0.003428 -0.005983 0.011720 0.000000 -0.001208 0.000000
# 4 0.000000 0.000000 0.000000 0.022238 0.000000 0.003145
# 5 0.001677 0.000124 -0.001208 0.000000 0.018469 0.000000
# 6 0.000000 0.000000 0.000000 0.003145 0.000000 0.065630
#
#
# Mechanical properties :
#
#
# Convention : Reuss Voigt Hill
#
# Bulk Modulus (GPa) = 81.75288 83.66490 82.70889
# Shear Modulus (GPa) = 28.28357 34.91448 31.59902
#
# Velocity S-wave (km/s) = 3.58262 3.98049 3.78679
# Velocity P-wave (km/s) = 7.36297 7.68721 7.52684
#
# Compressibility (1/GPa) = 0.01223199
#
# Stress axis : x y z
#
# Youngs Moduli (GPa) = 81.72215 65.18026 85.32142
#
# Poissons Ratio (x) = 0.26869 0.29247
# Poissons Ratio (y) = 0.33688 0.51051
# Poissons Ratio (z) = 0.28013 0.39000
#
# Static dielectric constant tensor:
#      x y z
#    x 3.943540 0.000000 0.136530 
#    y 0.000000 3.644710 0.000000 
#    z 0.136530 0.000000 4.378680 
# 
# 
# High freq. dielectric constant tensor:
#      x y z
#    x 1.871700 0.000000 0.006710 
#    y 0.000000 1.840500 0.000000 
#    z 0.006710 0.000000 1.897860 
# 
# From -- ./inp_files/14608.got.cif
#   From: 2010.03.12/outbox.cif.g09.slc.cpg/sg3_8_cif.got.tgz:14608.got - 2010.03.31 09:20:49.
