data_PCOD8045128
_publ_section_title
;
Structure prediction by ZEFSAII (Michael W. Deem and Ramdas Pophale) SiO2 
 PCOD8045128
Probable space group: P 2
;
_chemical_formula_sum "Si O2"
_cell_formula_units_Z 16
_cell_length_a 19.389027
_cell_length_b 8.467923
_cell_length_c 5.310823
_cell_angle_alpha 90.000000
_cell_angle_beta 123.217861
_cell_angle_gamma 90.000000
_cell_volume 729.473081
_symmetry_space_group_name_H-M "P 2"
_symmetry_group_IT_number 3
_symmetry_cell_setting 'monoclinic'
loop_
_space_group_symop_operation_xyz
x,y,z
-x,y,-z
loop_
_atom_site_type_symbol
_atom_site_label
_atom_site_fract_x
_atom_site_fract_y
_atom_site_fract_z
Si Si1 0.781094 0.667560 0.247334
Si Si2 0.326396 0.891254 0.283519
Si Si3 0.281092 0.167557 0.877034
Si Si4 0.690440 0.447916 0.389269
Si Si5 0.551699 0.627968 0.359426
Si Si6 0.948299 0.127971 0.152621
Si Si7 0.190443 0.947911 0.372485
Si Si8 0.826394 0.391260 0.022055
O O1 0.698220 0.586718 0.197289
O O2 0.830616 0.777804 0.545561
O O3 0.842106 0.535302 0.249361
O O4 0.745227 0.775178 0.955763
O O5 0.411227 0.801051 0.508245
O O6 0.284633 0.952556 0.456167
O O7 0.342102 0.035298 0.119052
O O8 0.330616 0.277808 0.776910
O O9 0.245220 0.275177 0.025114
O O10 0.198220 0.086717 0.595576
O O11 0.622088 0.494943 0.458695
O O12 0.784623 0.452576 0.682360
O O13 0.500000 0.572311 0.500000
O O14 0.500000 0.638785 0.000000
O O15 0.911221 0.301056 0.136612
O O16 0.000000 0.072326 0.500000
O O17 0.000000 0.138783 0.000000
O O18 0.877909 0.994942 0.970342
#
# Coordination Sequence:
#
# PCOD8045128 Si02
#       8
#     2   2   2   2   2   2   2   2
#     4  10  21  36  74 101 132 168 258 280 337 408
#     4  11  21  41  70 102 131 189 237 291 342 437
#     4  10  21  36  74 101 132 168 258 280 337 408
#     4  11  21  41  70 102 131 189 237 291 342 437
#     4  12  27  44  70 105 146 188 232 304 379 418
#     4  12  27  44  70 105 146 188 232 304 379 418
#     4  11  21  41  70 102 131 189 237 291 342 437
#     4  11  21  41  70 102 131 189 237 291 342 437
#
# _framework density 21.933641000000001
#
# number of rings (size 3 to 8) (size 9 to 14) (size 15 to 20)
#    0.000    1.000    5.000    1.500    7.000    0.000 
#    0.000    0.000   11.000    0.000    0.000    0.000 
#    0.000    0.000    0.000    0.000    0.000    0.000 
#
# Total GULP energy -198335.613832 kJ/mol
# GULP energy per Si atom -12395.975865 kJ/mol
# Density = 2.188372 g / cm^3
# Si number density = 21.933641 Si / 1000 Ang^3
#
#
#
# Elastic Constant Matrix: (Units=GPa)
#
#
# Indices 1 2 3 4 5 6 
#
# 1 87.6528 32.0433 13.2629 0.0000 -14.6139 0.0000
# 2 32.0433 135.8290 36.0759 0.0000 -7.5315 0.0000
# 3 13.2629 36.0759 99.5881 0.0000 -7.6816 0.0000
# 4 0.0000 0.0000 0.0000 37.8068 0.0000 -6.5253
# 5 -14.6139 -7.5315 -7.6816 0.0000 28.1597 0.0000
# 6 0.0000 0.0000 0.0000 -6.5253 0.0000 34.3120
#
#
#
# Elastic Compliance Matrix: (Units=1/GPa)
#
#
# Indices 1 2 3 4 5 6 
#
# 1 0.013495 -0.002755 -0.000323 0.000000 0.006178 0.000000
# 2 -0.002755 0.008763 -0.002796 0.000000 0.000151 0.000000
# 3 -0.000323 -0.002796 0.011264 0.000000 0.002157 0.000000
# 4 0.000000 0.000000 0.000000 0.027348 0.000000 0.005201
# 5 0.006178 0.000151 0.002157 0.000000 0.039347 0.000000
# 6 0.000000 0.000000 0.000000 0.005201 0.000000 0.030133
#
#
# Mechanical properties :
#
#
# Convention : Reuss Voigt Hill
#
# Bulk Modulus (GPa) = 45.92610 53.98156 49.95383
# Shear Modulus (GPa) = 33.47723 36.16821 34.82272
#
# Velocity S-wave (km/s) = 3.91102 4.06517 3.98884
# Velocity P-wave (km/s) = 6.43264 6.83366 6.63618
#
# Compressibility (1/GPa) = 0.02177411
#
# Stress axis : x y z
#
# Youngs Moduli (GPa) = 74.10262 114.11415 88.78211
#
# Poissons Ratio (x) = 0.31442 0.02864
# Poissons Ratio (y) = 0.20417 0.24822
# Poissons Ratio (z) = 0.02390 0.31905
#
# Static dielectric constant tensor:
#      x y z
#    x 3.765930 0.000000 -0.313660 
#    y 0.000000 4.166260 0.000000 
#    z -0.313660 0.000000 3.933810 
# 
# 
# High freq. dielectric constant tensor:
#      x y z
#    x 1.836900 0.000000 -0.040620 
#    y 0.000000 1.873380 0.000000 
#    z -0.040620 0.000000 1.858640 
# 
# From -- ./inp_files/3935.got.cif
#   From: 2010.03.12/outbox.cif.g09.slc.cpg/sg3_2_cif.got.tgz:3935.got - 2010.03.31 09:20:49.
