data_PCOD8045501
_publ_section_title
;
Structure prediction by ZEFSAII (Michael W. Deem and Ramdas Pophale) SiO2 
 PCOD8045501
Probable space group: P 2
;
_chemical_formula_sum "Si O2"
_cell_formula_units_Z 16
_cell_length_a 12.415593
_cell_length_b 8.766138
_cell_length_c 8.656553
_cell_angle_alpha 90.000000
_cell_angle_beta 129.474650
_cell_angle_gamma 90.000000
_cell_volume 727.252366
_symmetry_space_group_name_H-M "P 2"
_symmetry_group_IT_number 3
_symmetry_cell_setting 'monoclinic'
loop_
_space_group_symop_operation_xyz
x,y,z
-x,y,-z
loop_
_atom_site_type_symbol
_atom_site_label
_atom_site_fract_x
_atom_site_fract_y
_atom_site_fract_z
Si Si1 0.383016 0.840800 0.278358
Si Si2 0.872157 0.963098 0.781309
Si Si3 0.639437 0.998582 0.048979
Si Si4 0.944716 0.308045 0.782568
Si Si5 0.554765 0.499151 0.708210
Si Si6 0.266536 0.483393 0.611815
Si Si7 0.236126 0.310885 0.896099
Si Si8 0.850931 0.807654 0.441443
O O1 0.500000 0.901355 0.500000
O O2 0.250993 0.935122 0.212379
O O3 0.372552 0.657920 0.274986
O O4 0.413249 0.881925 0.129110
O O5 0.858845 0.848751 0.627369
O O6 0.883637 0.137168 0.734589
O O7 0.000000 0.910950 0.000000
O O8 0.736985 0.913857 0.259110
O O9 0.724536 0.135023 0.049661
O O10 0.500000 0.064562 0.000000
O O11 0.820601 0.417651 0.612470
O O12 0.071449 0.323642 0.777424
O O13 0.000000 0.361661 0.000000
O O14 0.500000 0.419200 0.500000
O O15 0.424085 0.521732 0.704267
O O16 0.675034 0.401040 0.896222
O O17 0.269704 0.361607 0.752768
O O18 0.194726 0.633121 0.615772
O O19 0.000000 0.833540 0.500000
#
# Coordination Sequence:
#
# PCOD8045501 Si02
#       8
#     2   2   2   2   2   2   2   2
#     4  11  24  44  67  95 129 170 218 272 329 390
#     4  11  24  44  67  95 129 170 218 272 329 390
#     4  12  24  41  65  95 129 172 219 271 326 388
#     4  11  24  44  66  95 131 172 217 271 326 389
#     4  11  24  44  66  95 131 172 217 271 326 389
#     4  12  25  43  66  97 133 174 218 268 327 391
#     4  12  25  43  66  97 133 174 218 268 327 391
#     4  12  24  41  65  95 129 172 219 271 326 388
#
# _framework density 22.000616000000001
#
# number of rings (size 3 to 8) (size 9 to 14) (size 15 to 20)
#    0.000    0.500    0.000   10.500    0.000    3.000 
#    0.000    0.000    0.000    0.000    0.000    0.000 
#    0.000    0.000    0.000    0.000    0.000    0.000 
#
# Total GULP energy -198482.350423 kJ/mol
# GULP energy per Si atom -12405.146901 kJ/mol
# Density = 2.195054 g / cm^3
# Si number density = 22.000616 Si / 1000 Ang^3
#
#
#
# Elastic Constant Matrix: (Units=GPa)
#
#
# Indices 1 2 3 4 5 6 
#
# 1 106.2888 23.4424 21.4903 0.0000 10.4509 0.0000
# 2 23.4424 90.1408 45.2939 0.0000 10.8519 0.0000
# 3 21.4903 45.2939 119.9632 0.0000 2.5641 0.0000
# 4 0.0000 0.0000 0.0000 40.1284 0.0000 -3.2129
# 5 10.4509 10.8519 2.5641 0.0000 42.3366 0.0000
# 6 0.0000 0.0000 0.0000 -3.2129 0.0000 41.6313
#
#
#
# Elastic Compliance Matrix: (Units=1/GPa)
#
#
# Indices 1 2 3 4 5 6 
#
# 1 0.010236 -0.001880 -0.001081 0.000000 -0.001979 0.000000
# 2 -0.001880 0.014484 -0.005069 0.000000 -0.002941 0.000000
# 3 -0.001081 -0.005069 0.010423 0.000000 0.000935 0.000000
# 4 0.000000 0.000000 0.000000 0.025075 0.000000 0.001935
# 5 -0.001979 -0.002941 0.000935 0.000000 0.024806 0.000000
# 6 0.000000 0.000000 0.000000 0.001935 0.000000 0.024170
#
#
# Mechanical properties :
#
#
# Convention : Reuss Voigt Hill
#
# Bulk Modulus (GPa) = 52.40480 55.20509 53.80494
# Shear Modulus (GPa) = 37.98907 39.89701 38.94304
#
# Velocity S-wave (km/s) = 4.15990 4.26308 4.21181
# Velocity P-wave (km/s) = 6.85160 7.02701 6.93986
#
# Compressibility (1/GPa) = 0.01908222
#
# Stress axis : x y z
#
# Youngs Moduli (GPa) = 97.69118 69.04217 95.93730
#
# Poissons Ratio (x) = 0.12983 0.10375
# Poissons Ratio (y) = 0.18370 0.48630
# Poissons Ratio (z) = 0.10565 0.34997
#
# Static dielectric constant tensor:
#      x y z
#    x 4.007980 0.000000 -0.015470 
#    y 0.000000 3.874450 0.000000 
#    z -0.015470 0.000000 4.183590 
# 
# 
# High freq. dielectric constant tensor:
#      x y z
#    x 1.879810 0.000000 -0.001420 
#    y 0.000000 1.864630 0.000000 
#    z -0.001420 0.000000 1.886430 
# 
# From -- ./inp_files/7508.got.cif
#   From: 2010.03.12/outbox.cif.g09.slc.cpg/sg3_4_cif.got.tgz:7508.got - 2010.03.31 09:20:49.
