data_PCOD8045940
_publ_section_title
;
Structure prediction by ZEFSAII (Michael W. Deem and Ramdas Pophale) SiO2 
 PCOD8045940
Probable space group: P 21
;
_chemical_formula_sum "Si O2"
_cell_formula_units_Z 16
_cell_length_a 12.564621
_cell_length_b 8.113641
_cell_length_c 9.423468
_cell_angle_alpha 90.000000
_cell_angle_beta 133.476192
_cell_angle_gamma 90.000000
_cell_volume 697.122866
_symmetry_space_group_name_H-M "P 21"
_symmetry_group_IT_number 4
_symmetry_cell_setting 'monoclinic'
loop_
_space_group_symop_operation_xyz
x,y,z
-x,1/2+y,-z
loop_
_atom_site_type_symbol
_atom_site_label
_atom_site_fract_x
_atom_site_fract_y
_atom_site_fract_z
Si Si1 0.377032 0.493320 0.435094
Si Si2 0.814328 0.117769 0.975746
Si Si3 0.067684 0.209106 0.656901
Si Si4 0.914236 0.508521 0.609375
Si Si5 0.327353 0.113787 0.408647
Si Si6 0.350455 0.428265 0.948643
Si Si7 0.511095 0.114014 0.182053
Si Si8 0.211662 0.998487 0.014616
O O1 0.231080 0.555664 0.222014
O O2 0.363108 0.304215 0.467985
O O3 0.522857 0.511567 0.472403
O O4 0.390832 0.606760 0.586748
O O5 0.831073 0.312946 0.990734
O O6 0.968889 0.037047 0.157804
O O7 0.685483 0.058110 0.961494
O O8 0.044397 0.126192 0.483770
O O9 0.207760 0.326788 0.773416
O O10 0.924911 0.319998 0.563503
O O11 0.085708 0.076815 0.800102
O O12 0.753761 0.543601 0.525740
O O13 0.226411 0.099395 0.175178
O O14 0.400997 0.535030 0.864180
O O15 0.476145 0.304567 0.118018
O O16 0.363943 0.007258 0.069037
#
# Coordination Sequence:
#
# PCOD8045940 Si02
#       8
#     2   2   2   2   2   2   2   2
#     4  11  22  42  66  98 137 173 223 279 328 398
#     4  11  23  41  64  94 134 174 218 277 331 394
#     4  10  22  43  64  94 133 171 227 281 326 398
#     4  11  24  44  69  96 131 179 222 273 336 398
#     4  11  24  43  68  97 131 177 223 273 337 397
#     4  10  21  38  63  95 130 174 224 277 334 394
#     4  10  20  37  63  95 133 176 220 275 335 395
#     4  10  22  40  61  93 133 172 219 279 331 394
#
# _framework density 22.951477000000001
#
# number of rings (size 3 to 8) (size 9 to 14) (size 15 to 20)
#    0.000    1.500    0.000    6.750    0.000    4.000 
#    0.000   20.000    0.000    0.000    0.000    0.000 
#    0.000    0.000    0.000    0.000    0.000    0.000 
#
# Total GULP energy -198470.940661 kJ/mol
# GULP energy per Si atom -12404.433791 kJ/mol
# Density = 2.289924 g / cm^3
# Si number density = 22.951477 Si / 1000 Ang^3
#
#
#
# Elastic Constant Matrix: (Units=GPa)
#
#
# Indices 1 2 3 4 5 6 
#
# 1 76.4717 41.4046 18.7758 0.0000 -10.1238 0.0000
# 2 41.4046 115.8187 32.1532 0.0000 1.6003 0.0000
# 3 18.7758 32.1532 110.1545 0.0000 -10.3975 0.0000
# 4 0.0000 0.0000 0.0000 37.3222 0.0000 -1.1367
# 5 -10.1238 1.6003 -10.3975 0.0000 16.8156 0.0000
# 6 0.0000 0.0000 0.0000 -1.1367 0.0000 33.0683
#
#
#
# Elastic Compliance Matrix: (Units=1/GPa)
#
#
# Indices 1 2 3 4 5 6 
#
# 1 0.018230 -0.006657 -0.000073 0.000000 0.011564 0.000000
# 2 -0.006657 0.011948 -0.003014 0.000000 -0.007008 0.000000
# 3 -0.000073 -0.003014 0.010613 0.000000 0.006805 0.000000
# 4 0.000000 0.000000 0.000000 0.026822 0.000000 0.000922
# 5 0.011564 -0.007008 0.006805 0.000000 0.071305 0.000000
# 6 0.000000 0.000000 0.000000 0.000922 0.000000 0.030272
#
#
# Mechanical properties :
#
#
# Convention : Reuss Voigt Hill
#
# Bulk Modulus (GPa) = 46.94256 54.12360 50.53308
# Shear Modulus (GPa) = 25.53922 31.44863 28.49393
#
# Velocity S-wave (km/s) = 3.33941 3.70567 3.52729
# Velocity P-wave (km/s) = 5.94695 6.47628 6.21725
#
# Compressibility (1/GPa) = 0.02130263
#
# Stress axis : x y z
#
# Youngs Moduli (GPa) = 54.85594 83.69923 94.22624
#
# Poissons Ratio (x) = 0.55715 0.00685
# Poissons Ratio (y) = 0.36515 0.28403
# Poissons Ratio (z) = 0.00399 0.25230
#
# Static dielectric constant tensor:
#      x y z
#    x 4.001630 0.000000 -0.077550 
#    y 0.000000 4.244360 0.000000 
#    z -0.077550 0.000000 4.203100 
# 
# 
# High freq. dielectric constant tensor:
#      x y z
#    x 1.894390 0.000000 -0.009890 
#    y 0.000000 1.914010 0.000000 
#    z -0.009890 0.000000 1.912040 
# 
# From -- ./inp_files/8066.got.cif
#   From: 2010.03.12/outbox.cif.g09.slc.cpg/sg4_5_cif.got.tgz:8066.got - 2010.03.31 09:31:35.
