data_PCOD8045812
_publ_section_title
;
Structure prediction by ZEFSAII (Michael W. Deem and Ramdas Pophale) SiO2 
 PCOD8045812
Probable space group: P 21
;
_chemical_formula_sum "Si O2"
_cell_formula_units_Z 16
_cell_length_a 8.768809
_cell_length_b 5.093545
_cell_length_c 18.649888
_cell_angle_alpha 90.000000
_cell_angle_beta 125.344342
_cell_angle_gamma 90.000000
_cell_volume 679.457341
_symmetry_space_group_name_H-M "P 21"
_symmetry_group_IT_number 4
_symmetry_cell_setting 'monoclinic'
loop_
_space_group_symop_operation_xyz
x,y,z
-x,1/2+y,-z
loop_
_atom_site_type_symbol
_atom_site_label
_atom_site_fract_x
_atom_site_fract_y
_atom_site_fract_z
Si Si1 0.377041 0.932010 0.963977
Si Si2 0.830159 0.514122 0.228576
Si Si3 0.720363 0.469653 0.433809
Si Si4 0.837564 0.175077 0.767424
Si Si5 0.597577 0.660303 0.694163
Si Si6 0.017930 0.692851 0.600644
Si Si7 0.340870 0.336165 0.704449
Si Si8 0.966040 0.609487 0.035770
O O1 0.267801 0.848349 0.861332
O O2 0.234116 0.020308 0.987208
O O3 0.488701 0.675802 0.019025
O O4 0.949309 0.332920 0.314697
O O5 0.663099 0.679309 0.221823
O O6 0.981075 0.703400 0.233131
O O7 0.906279 0.369399 0.443918
O O8 0.601105 0.650581 0.346439
O O9 0.798279 0.621548 0.525607
O O10 0.567745 0.239338 0.408397
O O11 0.749212 0.885873 0.743184
O O12 0.702976 0.397824 0.698813
O O13 0.896135 0.224160 0.865557
O O14 0.485550 0.583933 0.739219
O O15 0.127475 0.419606 0.633303
O O16 0.061227 0.352803 0.025913
#
# Coordination Sequence:
#
# PCOD8045812 Si02
#       8
#     2   2   2   2   2   2   2   2
#     4  11  26  47  70 103 146 175 227 303 348 404
#     4  10  26  42  70 102 136 189 229 273 360 417
#     4  10  19  38  66 101 137 172 227 290 336 386
#     4  11  25  45  68  95 144 180 225 287 344 414
#     4  11  23  41  67  99 134 178 225 287 337 395
#     4  10  20  37  68 100 137 177 230 281 337 411
#     4  10  21  40  67 100 132 171 236 276 338 399
#     4  11  24  46  70 100 134 190 233 273 354 430
#
# _framework density 23.548204999999999
#
# number of rings (size 3 to 8) (size 9 to 14) (size 15 to 20)
#    0.000    1.500    2.500    1.500    3.500    5.000 
#    4.500    0.000    5.500    0.000    0.000    0.000 
#    0.000    0.000    0.000    0.000    0.000    0.000 
#
# Total GULP energy -198246.128650 kJ/mol
# GULP energy per Si atom -12390.383041 kJ/mol
# Density = 2.349461 g / cm^3
# Si number density = 23.548205 Si / 1000 Ang^3
#
#
#
# Elastic Constant Matrix: (Units=GPa)
#
#
# Indices 1 2 3 4 5 6 
#
# 1 62.2868 19.2299 32.1464 0.0000 2.8159 0.0000
# 2 19.2299 109.7141 31.6302 0.0000 1.8187 0.0000
# 3 32.1464 31.6302 102.5355 0.0000 -2.3604 0.0000
# 4 0.0000 0.0000 0.0000 38.0779 0.0000 15.5585
# 5 2.8159 1.8187 -2.3604 0.0000 25.6958 0.0000
# 6 0.0000 0.0000 0.0000 15.5585 0.0000 30.0261
#
#
#
# Elastic Compliance Matrix: (Units=1/GPa)
#
#
# Indices 1 2 3 4 5 6 
#
# 1 0.019642 -0.001765 -0.005672 0.000000 -0.002549 0.000000
# 2 -0.001765 0.010188 -0.002607 0.000000 -0.000767 0.000000
# 3 -0.005672 -0.002607 0.012380 0.000000 0.001943 0.000000
# 4 0.000000 0.000000 0.000000 0.033316 0.000000 -0.017263
# 5 -0.002549 -0.000767 0.001943 0.000000 0.039429 0.000000
# 6 0.000000 0.000000 0.000000 -0.017263 0.000000 0.042250
#
#
# Mechanical properties :
#
#
# Convention : Reuss Voigt Hill
#
# Bulk Modulus (GPa) = 45.20494 48.94993 47.07744
# Shear Modulus (GPa) = 27.07560 31.52863 29.30212
#
# Velocity S-wave (km/s) = 3.39454 3.66306 3.53136
# Velocity P-wave (km/s) = 5.88237 6.22278 6.05497
#
# Compressibility (1/GPa) = 0.02212148
#
# Stress axis : x y z
#
# Youngs Moduli (GPa) = 50.91006 98.15145 80.77499
#
# Poissons Ratio (x) = 0.17326 0.45818
# Poissons Ratio (y) = 0.08987 0.21059
# Poissons Ratio (z) = 0.28878 0.25589
#
# Static dielectric constant tensor:
#      x y z
#    x 4.299000 0.000000 0.086490 
#    y 0.000000 4.288200 0.000000 
#    z 0.086490 0.000000 4.103100 
# 
# 
# High freq. dielectric constant tensor:
#      x y z
#    x 1.919990 0.000000 0.016880 
#    y 0.000000 1.941690 0.000000 
#    z 0.016880 0.000000 1.915650 
# 
# From -- ./inp_files/14852.got.cif
#   From: 2010.03.12/outbox.cif.g09.slc.cpg/sg4_8_cif.got.tgz:14852.got - 2010.03.31 09:31:35.
