data_PCOD8045598
_publ_section_title
;
Structure prediction by ZEFSAII (Michael W. Deem and Ramdas Pophale) SiO2 
 PCOD8045598
Probable space group: P 21
;
_chemical_formula_sum "Si O2"
_cell_formula_units_Z 16
_cell_length_a 13.527748
_cell_length_b 9.036061
_cell_length_c 11.420848
_cell_angle_alpha 90.000000
_cell_angle_beta 33.675233
_cell_angle_gamma 90.000000
_cell_volume 774.092067
_symmetry_space_group_name_H-M "P 21"
_symmetry_group_IT_number 4
_symmetry_cell_setting 'monoclinic'
loop_
_space_group_symop_operation_xyz
x,y,z
-x,1/2+y,-z
loop_
_atom_site_type_symbol
_atom_site_label
_atom_site_fract_x
_atom_site_fract_y
_atom_site_fract_z
Si Si1 0.634760 0.294390 0.224092
Si Si2 0.929170 0.124631 0.806803
Si Si3 0.346010 0.110011 0.899473
Si Si4 0.253437 0.086457 0.242037
Si Si5 0.007767 0.786273 0.738849
Si Si6 0.364531 0.810658 0.506539
Si Si7 0.948348 0.289565 0.558435
Si Si8 0.663850 0.613543 0.586395
O O1 0.674143 0.461561 0.153251
O O2 0.586891 0.284091 0.407185
O O3 0.464331 0.249009 0.315262
O O4 0.803772 0.189287 0.031577
O O5 0.861140 0.192815 0.749275
O O6 0.133749 0.169248 0.632329
O O7 0.919072 0.948156 0.813675
O O8 0.506891 0.208289 0.695783
O O9 0.381717 0.083258 0.002977
O O10 0.152245 0.179714 0.071076
O O11 0.363843 0.056703 0.252036
O O12 0.160404 0.248552 0.348162
O O13 0.097333 0.962502 0.377618
O O14 0.156381 0.771905 0.692602
O O15 0.111384 0.745972 0.515110
O O16 0.393399 0.980885 0.442750
#
# Coordination Sequence:
#
# PCOD8045598 Si02
#       8
#     2   2   2   2   2   2   2   2
#     4  12  25  40  64  91 129 172 221 268 307 379
#     4  10  21  40  67  91 123 168 209 262 332 380
#     4  11  25  40  63 101 125 163 220 268 316 388
#     4  10  20  38  67  96 130 162 206 268 331 387
#     4  10  22  41  66  91 126 170 206 264 330 378
#     4  11  24  44  62  88 131 175 217 267 312 374
#     4  10  16  37  63  95 125 158 201 258 328 383
#     4  10  23  44  64  91 129 170 210 265 332 377
#
# _framework density 20.669376
#
# number of rings (size 3 to 8) (size 9 to 14) (size 15 to 20)
#    0.000    1.500    5.000    1.500    0.000    6.000 
#    2.250    1.250    0.000    0.000    0.000    0.000 
#    0.000    0.000    0.000    0.000    0.000    0.000 
#
# Total GULP energy -198309.103085 kJ/mol
# GULP energy per Si atom -12394.318943 kJ/mol
# Density = 2.062233 g / cm^3
# Si number density = 20.669376 Si / 1000 Ang^3
#
#
#
# Elastic Constant Matrix: (Units=GPa)
#
#
# Indices 1 2 3 4 5 6 
#
# 1 92.8438 47.8555 45.7052 0.0000 9.3928 0.0000
# 2 47.8555 107.4356 57.4867 0.0000 -7.5303 0.0000
# 3 45.7052 57.4867 108.4901 0.0000 13.0914 0.0000
# 4 0.0000 0.0000 0.0000 34.4665 0.0000 2.0629
# 5 9.3928 -7.5303 13.0914 0.0000 36.0197 0.0000
# 6 0.0000 0.0000 0.0000 2.0629 0.0000 26.2157
#
#
#
# Elastic Compliance Matrix: (Units=1/GPa)
#
#
# Indices 1 2 3 4 5 6 
#
# 1 0.015589 -0.005556 -0.003130 0.000000 -0.004089 0.000000
# 2 -0.005556 0.016085 -0.007073 0.000000 0.007382 0.000000
# 3 -0.003130 -0.007073 0.015023 0.000000 -0.006123 0.000000
# 4 0.000000 0.000000 0.000000 0.029151 0.000000 -0.002294
# 5 -0.004089 0.007382 -0.006123 0.000000 0.032597 0.000000
# 6 0.000000 0.000000 0.000000 -0.002294 0.000000 0.038326
#
#
# Mechanical properties :
#
#
# Convention : Reuss Voigt Hill
#
# Bulk Modulus (GPa) = 65.88259 67.87378 66.87818
# Shear Modulus (GPa) = 27.27049 29.85518 28.56284
#
# Velocity S-wave (km/s) = 3.63625 3.80467 3.72141
# Velocity P-wave (km/s) = 7.04084 7.22564 7.13384
#
# Compressibility (1/GPa) = 0.01517852
#
# Stress axis : x y z
#
# Youngs Moduli (GPa) = 64.14808 62.17064 66.56469
#
# Poissons Ratio (x) = 0.34539 0.20836
# Poissons Ratio (y) = 0.35638 0.47083
# Poissons Ratio (z) = 0.20080 0.43975
#
# Static dielectric constant tensor:
#      x y z
#    x 3.720950 0.000000 0.214430 
#    y 0.000000 3.775650 0.000000 
#    z 0.214430 0.000000 3.724610 
# 
# 
# High freq. dielectric constant tensor:
#      x y z
#    x 1.800670 0.000000 0.015780 
#    y 0.000000 1.810040 0.000000 
#    z 0.015780 0.000000 1.805770 
# 
# From -- ./inp_files/12625.got.cif
#   From: 2010.03.12/outbox.cif.g09.slc.cpg/sg4_7_cif.got.tgz:12625.got - 2010.03.31 09:31:35.
