data_PCOD8045739
_publ_section_title
;
Structure prediction by ZEFSAII (Michael W. Deem and Ramdas Pophale) SiO2 
 PCOD8045739
Probable space group: P 21
;
_chemical_formula_sum "Si O2"
_cell_formula_units_Z 16
_cell_length_a 11.260146
_cell_length_b 8.527752
_cell_length_c 10.055143
_cell_angle_alpha 90.000000
_cell_angle_beta 138.768561
_cell_angle_gamma 90.000000
_cell_volume 636.384525
_symmetry_space_group_name_H-M "P 21"
_symmetry_group_IT_number 4
_symmetry_cell_setting 'monoclinic'
loop_
_space_group_symop_operation_xyz
x,y,z
-x,1/2+y,-z
loop_
_atom_site_type_symbol
_atom_site_label
_atom_site_fract_x
_atom_site_fract_y
_atom_site_fract_z
Si Si1 0.306585 0.213850 0.671781
Si Si2 0.367874 0.863731 0.708932
Si Si3 0.202601 0.935533 0.082907
Si Si4 0.272865 0.348122 0.366558
Si Si5 0.721713 0.229898 0.093851
Si Si6 0.003298 0.237643 0.918277
Si Si7 0.780306 0.878039 0.136224
Si Si8 0.538722 0.146955 0.440394
O O1 0.235667 0.319499 0.490946
O O2 0.517274 0.228171 0.874363
O O3 0.201865 0.277147 0.713601
O O4 0.273902 0.031978 0.607129
O O5 0.342763 0.750109 0.562287
O O6 0.262865 0.797417 0.746235
O O7 0.582324 0.866046 0.908153
O O8 0.025134 0.049751 0.932246
O O9 0.383781 0.040594 0.236933
O O10 0.177828 0.841668 0.925102
O O11 0.190883 0.813912 0.200946
O O12 0.115795 0.291297 0.141566
O O13 0.454500 0.250868 0.485470
O O14 0.312785 0.531414 0.371853
O O15 0.819213 0.062012 0.187010
O O16 0.071423 0.311687 0.838981
#
# Coordination Sequence:
#
# PCOD8045739 Si02
#       8
#     2   2   2   2   2   2   2   2
#     4  10  20  34  61  91 124 154 197 257 317 354
#     4  10  19  34  58  94 120 155 202 258 301 366
#     4  11  22  40  58  90 121 169 207 252 299 376
#     4  11  22  36  59  90 123 158 196 266 313 366
#     4  10  20  32  62  90 120 153 207 254 304 356
#     4  11  24  39  62  86 126 162 212 252 306 371
#     4  10  19  36  57  92 119 162 203 250 299 371
#     4  11  22  37  59  91 127 155 210 255 319 362
#
# _framework density 25.142030999999999
#
# number of rings (size 3 to 8) (size 9 to 14) (size 15 to 20)
#    0.000    1.500    3.750    3.000    5.250    1.000 
#    0.000    0.000    0.000   13.500    0.000    0.000 
#    0.000    0.000    0.000    0.000    0.000    0.000 
#
# Total GULP energy -198384.601569 kJ/mol
# GULP energy per Si atom -12399.037598 kJ/mol
# Density = 2.508481 g / cm^3
# Si number density = 25.142031 Si / 1000 Ang^3
#
#
#
# Elastic Constant Matrix: (Units=GPa)
#
#
# Indices 1 2 3 4 5 6 
#
# 1 109.1802 30.7354 26.8725 0.0000 -37.8166 0.0000
# 2 30.7354 146.0467 -1.1068 0.0000 -25.1298 0.0000
# 3 26.8725 -1.1068 47.3564 0.0000 -26.3458 0.0000
# 4 0.0000 0.0000 0.0000 31.4807 0.0000 -22.7083
# 5 -37.8166 -25.1298 -26.3458 0.0000 45.5351 0.0000
# 6 0.0000 0.0000 0.0000 -22.7083 0.0000 47.4223
#
#
#
# Elastic Compliance Matrix: (Units=1/GPa)
#
#
# Indices 1 2 3 4 5 6 
#
# 1 0.013195 -0.001303 -0.002686 0.000000 0.008686 0.000000
# 2 -0.001303 0.008157 0.004177 0.000000 0.005837 0.000000
# 3 -0.002686 0.004177 0.033593 0.000000 0.019510 0.000000
# 4 0.000000 0.000000 0.000000 0.048528 0.000000 0.023238
# 5 0.008686 0.005837 0.019510 0.000000 0.043684 0.000000
# 6 0.000000 0.000000 0.000000 0.023238 0.000000 0.032215
#
#
# Mechanical properties :
#
#
# Convention : Reuss Voigt Hill
#
# Bulk Modulus (GPa) = 18.07621 46.17616 32.12619
# Shear Modulus (GPa) = 25.32464 41.29308 33.30886
#
# Velocity S-wave (km/s) = 3.17718 4.05704 3.64377
# Velocity P-wave (km/s) = 4.54583 6.35233 5.52344
#
# Compressibility (1/GPa) = 0.05532133
#
# Stress axis : x y z
#
# Youngs Moduli (GPa) = 75.78346 122.59049 29.76841
#
# Poissons Ratio (x) = 0.15972 0.07996
# Poissons Ratio (y) = 0.09873 -0.12434
# Poissons Ratio (z) = 0.20357 -0.51206
#
# Static dielectric constant tensor:
#      x y z
#    x 4.683470 0.000000 -0.123850 
#    y 0.000000 5.168610 0.000000 
#    z -0.123850 0.000000 4.187260 
# 
# 
# High freq. dielectric constant tensor:
#      x y z
#    x 2.006060 0.000000 -0.007460 
#    y 0.000000 2.026140 0.000000 
#    z -0.007460 0.000000 1.991940 
# 
# From -- ./inp_files/7754.got.cif
#   From: 2010.03.12/outbox.cif.g09.slc.cpg/sg4_4_cif.got.tgz:7754.got - 2010.03.31 09:31:35.
