data_PCOD8045885
_publ_section_title
;
Structure prediction by ZEFSAII (Michael W. Deem and Ramdas Pophale) SiO2 
 PCOD8045885
Probable space group: P 21
;
_chemical_formula_sum "Si O2"
_cell_formula_units_Z 12
_cell_length_a 11.580812
_cell_length_b 5.108127
_cell_length_c 11.609345
_cell_angle_alpha 90.000000
_cell_angle_beta 124.471190
_cell_angle_gamma 90.000000
_cell_volume 566.176886
_symmetry_space_group_name_H-M "P 21"
_symmetry_group_IT_number 4
_symmetry_cell_setting 'monoclinic'
loop_
_space_group_symop_operation_xyz
x,y,z
-x,1/2+y,-z
loop_
_atom_site_type_symbol
_atom_site_label
_atom_site_fract_x
_atom_site_fract_y
_atom_site_fract_z
Si Si1 0.299183 0.170070 0.605652
Si Si2 0.852707 0.467437 0.279924
Si Si3 0.538609 0.024824 0.589631
Si Si4 0.132042 0.875408 0.968127
Si Si5 0.140276 0.683655 0.495821
Si Si6 0.179338 0.378221 0.137571
O O1 0.460232 0.116490 0.663058
O O2 0.252618 0.454686 0.536161
O O3 0.272890 0.132313 0.728498
O O4 0.203533 0.955675 0.483492
O O5 0.885777 0.213165 0.379392
O O6 0.993522 0.639371 0.350513
O O7 0.805728 0.395493 0.125287
O O8 0.542863 0.276496 0.509242
O O9 0.695644 0.930020 0.703307
O O10 0.181120 0.594785 0.039366
O O11 0.197694 0.097279 0.087360
O O12 0.963651 0.896532 0.870394
#
# Coordination Sequence:
#
# PCOD8045885 Si02
#       6
#     2   2   2   2   2   2
#     4  10  22  37  56  96 120 156 205 262 302 376
#     4  10  21  35  64  90 122 167 197 264 316 350
#     4  12  26  43  68  90 129 172 205 263 324 375
#     4  10  23  40  67  85 129 167 208 261 313 363
#     4  10  20  35  58  95 127 149 208 264 297 378
#     4  10  24  44  57  96 123 165 219 254 298 396
#
# _framework density 21.194789
#
# number of rings (size 3 to 8) (size 9 to 14) (size 15 to 20)
#    1.000    0.667    1.667    2.000    7.000    0.000 
#    0.000    1.667    0.000    0.000    0.000    0.000 
#    0.000    0.000    0.000    0.000    0.000    0.000 
#
# Total GULP energy -148740.022255 kJ/mol
# GULP energy per Si atom -12395.001855 kJ/mol
# Density = 2.114655 g / cm^3
# Si number density = 21.194789 Si / 1000 Ang^3
#
#
#
# Elastic Constant Matrix: (Units=GPa)
#
#
# Indices 1 2 3 4 5 6 
#
# 1 59.2465 -3.9406 14.7119 0.0000 -0.0039 0.0000
# 2 -3.9406 83.7737 -8.3089 0.0000 2.9257 0.0000
# 3 14.7119 -8.3089 53.0510 0.0000 -1.1373 0.0000
# 4 0.0000 0.0000 0.0000 23.1233 0.0000 -1.1210
# 5 -0.0039 2.9257 -1.1373 0.0000 30.0152 0.0000
# 6 0.0000 0.0000 0.0000 -1.1210 0.0000 30.8062
#
#
#
# Elastic Compliance Matrix: (Units=1/GPa)
#
#
# Indices 1 2 3 4 5 6 
#
# 1 0.018139 0.000367 -0.004977 0.000000 -0.000222 0.000000
# 2 0.000367 0.012170 0.001780 0.000000 -0.001119 0.000000
# 3 -0.004977 0.001780 0.020522 0.000000 0.000603 0.000000
# 4 0.000000 0.000000 0.000000 0.043323 0.000000 0.001576
# 5 -0.000222 -0.001119 0.000603 0.000000 0.033448 0.000000
# 6 0.000000 0.000000 0.000000 0.001576 0.000000 0.032518
#
#
# Mechanical properties :
#
#
# Convention : Reuss Voigt Hill
#
# Bulk Modulus (GPa) = 22.13819 22.33290 22.23554
# Shear Modulus (GPa) = 27.64920 29.69621 28.67271
#
# Velocity S-wave (km/s) = 3.61574 3.74720 3.68206
# Velocity P-wave (km/s) = 5.28197 5.41127 5.34701
#
# Compressibility (1/GPa) = 0.04517081
#
# Stress axis : x y z
#
# Youngs Moduli (GPa) = 55.12972 82.17034 48.72850
#
# Poissons Ratio (x) = -0.03018 0.24255
# Poissons Ratio (y) = -0.02025 -0.08675
# Poissons Ratio (z) = 0.27441 -0.14628
#
# Static dielectric constant tensor:
#      x y z
#    x 3.794240 0.000000 -0.049770 
#    y 0.000000 3.944890 0.000000 
#    z -0.049770 0.000000 3.309070 
# 
# 
# High freq. dielectric constant tensor:
#      x y z
#    x 1.832850 0.000000 -0.008550 
#    y 0.000000 1.846110 0.000000 
#    z -0.008550 0.000000 1.784690 
# 
# From -- ./inp_files/11538.got.cif
#   From: 2010.03.12/outbox.cif.g09.slc.cpg/sg4_6_cif.got.tgz:11538.got - 2010.03.31 09:31:35.
