data_PCOD8045876
_publ_section_title
;
Structure prediction by ZEFSAII (Michael W. Deem and Ramdas Pophale) SiO2 
 PCOD8045876
Probable space group: P 21
;
_chemical_formula_sum "Si O2"
_cell_formula_units_Z 16
_cell_length_a 11.282695
_cell_length_b 9.088772
_cell_length_c 9.500417
_cell_angle_alpha 90.000000
_cell_angle_beta 123.655775
_cell_angle_gamma 90.000000
_cell_volume 810.930211
_symmetry_space_group_name_H-M "P 21"
_symmetry_group_IT_number 4
_symmetry_cell_setting 'monoclinic'
loop_
_space_group_symop_operation_xyz
x,y,z
-x,1/2+y,-z
loop_
_atom_site_type_symbol
_atom_site_label
_atom_site_fract_x
_atom_site_fract_y
_atom_site_fract_z
Si Si1 0.337284 0.461550 0.977483
Si Si2 0.033575 0.384759 0.861315
Si Si3 0.711244 0.887530 0.584331
Si Si4 0.721532 0.259488 0.926807
Si Si5 0.965643 0.720790 0.850253
Si Si6 0.515583 0.780166 0.706560
Si Si7 0.520415 0.965155 0.218283
Si Si8 0.761240 0.231554 0.628589
O O1 0.177225 0.396632 0.864236
O O2 0.383335 0.507978 0.851577
O O3 0.341639 0.600596 0.082213
O O4 0.451218 0.348063 0.118587
O O5 0.969898 0.543923 0.863315
O O6 0.916409 0.296997 0.691915
O O7 0.073796 0.290395 0.025162
O O8 0.847342 0.778642 0.662474
O O9 0.624036 0.848104 0.666377
O O10 0.613270 0.861251 0.383139
O O11 0.765300 0.055383 0.622585
O O12 0.618590 0.379989 0.927331
O O13 0.724543 0.281986 0.761731
O O14 0.878861 0.278017 0.096287
O O15 0.534566 0.605158 0.730791
O O16 0.352440 0.806671 0.551339
#
# Coordination Sequence:
#
# PCOD8045876 Si02
#       8
#     2   2   2   2   2   2   2   2
#     4  11  22  42  58  87 128 161 192 248 313 369
#     4  10  21  36  60  88 120 157 197 252 304 357
#     4  11  21  39  58  91 117 154 205 251 293 352
#     4  10  20  37  59  88 121 152 200 253 297 353
#     4  10  20  34  60  88 116 151 205 249 298 347
#     4  11  22  38  63  89 118 161 203 251 301 354
#     4  11  25  38  60  90 123 160 201 247 309 370
#     4  10  21  36  60  93 115 150 205 257 291 350
#
# _framework density 19.730428
#
# number of rings (size 3 to 8) (size 9 to 14) (size 15 to 20)
#    0.000    1.500    3.750    2.250    3.500    2.000 
#    0.000    6.250    0.000    0.000    0.000    0.000 
#    0.000    0.000    0.000    0.000    0.000    0.000 
#
# Total GULP energy -198395.772260 kJ/mol
# GULP energy per Si atom -12399.735766 kJ/mol
# Density = 1.968552 g / cm^3
# Si number density = 19.730428 Si / 1000 Ang^3
#
#
#
# Elastic Constant Matrix: (Units=GPa)
#
#
# Indices 1 2 3 4 5 6 
#
# 1 75.3679 34.6640 30.1097 0.0000 6.8863 0.0000
# 2 34.6640 77.0417 30.0464 0.0000 15.2383 0.0000
# 3 30.1097 30.0464 79.8283 0.0000 17.0629 0.0000
# 4 0.0000 0.0000 0.0000 27.5714 0.0000 11.6721
# 5 6.8863 15.2383 17.0629 0.0000 29.9315 0.0000
# 6 0.0000 0.0000 0.0000 11.6721 0.0000 29.6438
#
#
#
# Elastic Compliance Matrix: (Units=1/GPa)
#
#
# Indices 1 2 3 4 5 6 
#
# 1 0.018036 -0.006660 -0.004708 0.000000 0.001925 0.000000
# 2 -0.006660 0.018389 -0.003115 0.000000 -0.006054 0.000000
# 3 -0.004708 -0.003115 0.016973 0.000000 -0.007006 0.000000
# 4 0.000000 0.000000 0.000000 0.043525 0.000000 -0.017138
# 5 0.001925 -0.006054 -0.007006 0.000000 0.040043 0.000000
# 6 0.000000 0.000000 0.000000 -0.017138 0.000000 0.040482
#
#
# Mechanical properties :
#
#
# Convention : Reuss Voigt Hill
#
# Bulk Modulus (GPa) = 40.92997 46.87535 43.90266
# Shear Modulus (GPa) = 23.30385 26.59051 24.94718
#
# Velocity S-wave (km/s) = 3.44046 3.67507 3.55970
# Velocity P-wave (km/s) = 6.04748 6.46666 6.26058
#
# Compressibility (1/GPa) = 0.02443197
#
# Stress axis : x y z
#
# Youngs Moduli (GPa) = 55.44414 54.38058 58.91814
#
# Poissons Ratio (x) = 0.36217 0.27736
# Poissons Ratio (y) = 0.36925 0.18356
# Poissons Ratio (z) = 0.26101 0.16942
#
# Static dielectric constant tensor:
#      x y z
#    x 3.557280 0.000000 0.377530 
#    y 0.000000 3.624130 0.000000 
#    z 0.377530 0.000000 3.614010 
# 
# 
# High freq. dielectric constant tensor:
#      x y z
#    x 1.759700 0.000000 0.028190 
#    y 0.000000 1.772180 0.000000 
#    z 0.028190 0.000000 1.758220 
# 
# From -- ./inp_files/7651.got.cif
#   From: 2010.03.12/outbox.cif.g09.slc.cpg/sg4_4_cif.got.tgz:7651.got - 2010.03.31 09:31:35.
