data_PCOD8045366
_publ_section_title
;
Structure prediction by ZEFSAII (Michael W. Deem and Ramdas Pophale) SiO2 
 PCOD8045366
Probable space group: P 2
;
_chemical_formula_sum "Si O2"
_cell_formula_units_Z 12
_cell_length_a 19.637617
_cell_length_b 7.076770
_cell_length_c 8.901221
_cell_angle_alpha 90.000000
_cell_angle_beta 156.942782
_cell_angle_gamma 90.000000
_cell_volume 484.475468
_symmetry_space_group_name_H-M "P 2"
_symmetry_group_IT_number 3
_symmetry_cell_setting 'monoclinic'
loop_
_space_group_symop_operation_xyz
x,y,z
-x,y,-z
loop_
_atom_site_type_symbol
_atom_site_label
_atom_site_fract_x
_atom_site_fract_y
_atom_site_fract_z
Si Si1 0.990706 0.820340 0.158166
Si Si2 0.355032 0.079946 0.308954
Si Si3 0.146658 0.170190 0.616721
Si Si4 0.353340 0.670189 0.383273
Si Si5 0.144967 0.579945 0.691043
Si Si6 0.490705 0.320340 0.158164
O O1 0.158866 0.710234 0.569644
O O2 0.005796 0.039158 0.244126
O O3 0.000000 0.811682 0.000000
O O4 0.817423 0.711962 0.861022
O O5 0.500000 0.181413 0.500000
O O6 0.341135 0.210233 0.430359
O O7 0.431702 0.875932 0.511069
O O8 0.183235 0.073696 0.855654
O O9 0.068296 0.375934 0.488921
O O10 0.317422 0.211962 0.861019
O O11 0.494203 0.539158 0.755872
O O12 0.316762 0.573691 0.144341
O O13 0.000000 0.681412 0.500000
O O14 0.500000 0.311686 0.000000
#
# Coordination Sequence:
#
# PCOD8045366 Si02
#       6
#     2   2   2   2   2   2
#     4  11  27  44  67 105 139 184 233 293 355 416
#     4  10  23  41  70  99 136 186 237 288 345 422
#     4  11  24  44  72  97 141 184 237 287 350 424
#     4  11  24  44  72  97 141 184 237 287 350 424
#     4  10  23  41  70  99 136 186 237 288 345 422
#     4  11  27  44  67 105 139 184 233 293 355 416
#
# _framework density 24.769055999999999
#
# number of rings (size 3 to 8) (size 9 to 14) (size 15 to 20)
#    0.000    1.333    3.333    0.000    9.333    1.333 
#    0.000    0.000    0.000    0.000    0.000    0.000 
#    0.000    0.000    0.000    0.000    0.000    0.000 
#
# Total GULP energy -148661.129879 kJ/mol
# GULP energy per Si atom -12388.427490 kJ/mol
# Density = 2.471268 g / cm^3
# Si number density = 24.769056 Si / 1000 Ang^3
#
#
#
# Elastic Constant Matrix: (Units=GPa)
#
#
# Indices 1 2 3 4 5 6 
#
# 1 107.5953 36.2507 43.8443 0.0000 -57.0241 0.0000
# 2 36.2507 144.0041 28.9370 0.0000 -31.6257 0.0000
# 3 43.8443 28.9370 77.6214 0.0000 -38.9309 0.0000
# 4 0.0000 0.0000 0.0000 38.1375 0.0000 -5.7367
# 5 -57.0241 -31.6257 -38.9309 0.0000 48.6118 0.0000
# 6 0.0000 0.0000 0.0000 -5.7367 0.0000 37.0226
#
#
#
# Elastic Compliance Matrix: (Units=1/GPa)
#
#
# Indices 1 2 3 4 5 6 
#
# 1 0.024614 0.000141 0.000955 0.000000 0.029730 0.000000
# 2 0.000141 0.008121 -0.000626 0.000000 0.004948 0.000000
# 3 0.000955 -0.000626 0.021618 0.000000 0.018026 0.000000
# 4 0.000000 0.000000 0.000000 0.026847 0.000000 0.004160
# 5 0.029730 0.004948 0.018026 0.000000 0.073102 0.000000
# 6 0.000000 0.000000 0.000000 0.004160 0.000000 0.027655
#
#
# Mechanical properties :
#
#
# Convention : Reuss Voigt Hill
#
# Bulk Modulus (GPa) = 18.08497 60.80942 39.44720
# Shear Modulus (GPa) = 25.06951 39.43363 32.25157
#
# Velocity S-wave (km/s) = 3.18485 3.99438 3.61236
# Velocity P-wave (km/s) = 4.56527 6.77328 5.77577
#
# Compressibility (1/GPa) = 0.05529454
#
# Stress axis : x y z
#
# Youngs Moduli (GPa) = 40.62765 123.13638 46.25842
#
# Poissons Ratio (x) = -0.01738 -0.04420
# Poissons Ratio (y) = -0.00573 0.02894
# Poissons Ratio (z) = -0.03882 0.07704
#
# Static dielectric constant tensor:
#      x y z
#    x 4.310560 0.000000 -0.128560 
#    y 0.000000 4.497450 0.000000 
#    z -0.128560 0.000000 4.358090 
# 
# 
# High freq. dielectric constant tensor:
#      x y z
#    x 1.981200 0.000000 -0.003370 
#    y 0.000000 1.998530 0.000000 
#    z -0.003370 0.000000 1.968960 
# 
# From -- ./inp_files/9299.got.cif
#   From: 2010.03.12/outbox.cif.g09.slc.cpg/sg3_5_cif.got.tgz:9299.got - 2010.03.31 09:20:49.
