data_PCOD8045291
_publ_section_title
;
Structure prediction by ZEFSAII (Michael W. Deem and Ramdas Pophale) SiO2 
 PCOD8045291
Probable space group: P 2
;
_chemical_formula_sum "Si O2"
_cell_formula_units_Z 14
_cell_length_a 6.141077
_cell_length_b 6.373905
_cell_length_c 16.237842
_cell_angle_alpha 90.000000
_cell_angle_beta 85.747848
_cell_angle_gamma 90.000000
_cell_volume 633.842496
_symmetry_space_group_name_H-M "P 2"
_symmetry_group_IT_number 3
_symmetry_cell_setting 'monoclinic'
loop_
_space_group_symop_operation_xyz
x,y,z
-x,y,-z
loop_
_atom_site_type_symbol
_atom_site_label
_atom_site_fract_x
_atom_site_fract_y
_atom_site_fract_z
Si Si1 0.500000 0.243201 0.500000
Si Si2 0.652676 0.359867 0.066197
Si Si3 0.182916 0.150090 0.642297
Si Si4 0.116827 0.746501 0.857720
Si Si5 0.000000 0.040332 0.000000
Si Si6 0.543810 0.076028 0.212859
Si Si7 0.137852 0.492887 0.418934
Si Si8 0.858677 0.824134 0.711514
O O1 0.342680 0.101831 0.560751
O O2 0.355957 0.382248 0.443071
O O3 0.813241 0.533062 0.099541
O O4 0.510386 0.247893 0.141783
O O5 0.500000 0.464048 0.000000
O O6 0.787194 0.182283 0.014719
O O7 0.320522 0.198814 0.720752
O O8 0.022580 0.341653 0.627567
O O9 0.053722 0.937422 0.658755
O O10 0.956556 0.695554 0.786168
O O11 0.331878 0.869945 0.822915
O O12 0.972103 0.892354 0.921461
O O13 0.314179 0.998464 0.255047
O O14 0.234666 0.665633 0.353733
O O15 0.000000 0.585859 0.500000
#
# Coordination Sequence:
#
# PCOD8045291 Si02
#       8
#     1   2   2   2   1   2   2   2
#     4  10  22  42  64  90 126 162 204 256 312 370
#     4  11  23  40  65  92 123 165 207 254 309 365
#     4  10  22  42  63  89 123 163 206 257 309 364
#     4  10  23  40  62  93 126 161 205 256 310 367
#     4  10  22  42  62  90 124 160 206 256 304 364
#     4  10  23  39  62  94 125 160 209 257 305 368
#     4  10  23  40  61  90 125 162 205 255 310 371
#     4  11  23  41  65  91 124 165 207 255 309 367
#
# _framework density 22.087506000000001
#
# number of rings (size 3 to 8) (size 9 to 14) (size 15 to 20)
#    0.000    1.714    0.000    3.000    0.000   14.286 
#    0.000    1.429    0.000    0.000    0.000    0.000 
#    0.000    0.000    0.000    0.000    0.000    0.000 
#
# Total GULP energy -173603.327324 kJ/mol
# GULP energy per Si atom -12400.237666 kJ/mol
# Density = 2.203723 g / cm^3
# Si number density = 22.087506 Si / 1000 Ang^3
#
#
#
# Elastic Constant Matrix: (Units=GPa)
#
#
# Indices 1 2 3 4 5 6 
#
# 1 114.0101 43.7615 69.8729 0.0000 8.6391 0.0000
# 2 43.7615 91.7157 69.5539 0.0000 5.4299 0.0000
# 3 69.8729 69.5539 153.4929 0.0000 8.1587 0.0000
# 4 0.0000 0.0000 0.0000 43.1918 0.0000 5.0387
# 5 8.6391 5.4299 8.1587 0.0000 45.9088 0.0000
# 6 0.0000 0.0000 0.0000 5.0387 0.0000 15.6189
#
#
#
# Elastic Compliance Matrix: (Units=1/GPa)
#
#
# Indices 1 2 3 4 5 6 
#
# 1 0.012609 -0.002498 -0.004540 0.000000 -0.001270 0.000000
# 2 -0.002498 0.017125 -0.006603 0.000000 -0.000382 0.000000
# 3 -0.004540 -0.006603 0.011596 0.000000 -0.000426 0.000000
# 4 0.000000 0.000000 0.000000 0.024058 0.000000 -0.007761
# 5 -0.001270 -0.000382 -0.000426 0.000000 0.022142 0.000000
# 6 0.000000 0.000000 0.000000 -0.007761 0.000000 0.066529
#
#
# Mechanical properties :
#
#
# Convention : Reuss Voigt Hill
#
# Bulk Modulus (GPa) = 71.18205 80.62168 75.90186
# Shear Modulus (GPa) = 26.87835 32.67928 29.77881
#
# Velocity S-wave (km/s) = 3.49220 3.85065 3.67579
# Velocity P-wave (km/s) = 6.96835 7.50668 7.24252
#
# Compressibility (1/GPa) = 0.01404849
#
# Stress axis : x y z
#
# Youngs Moduli (GPa) = 79.30968 58.39465 86.23363
#
# Poissons Ratio (x) = 0.14585 0.39154
# Poissons Ratio (y) = 0.19809 0.56937
# Poissons Ratio (z) = 0.36010 0.38556
#
# Static dielectric constant tensor:
#      x y z
#    x 3.897150 0.000000 -0.008120 
#    y 0.000000 3.667840 0.000000 
#    z -0.008120 0.000000 4.398450 
# 
# 
# High freq. dielectric constant tensor:
#      x y z
#    x 1.867730 0.000000 0.000300 
#    y 0.000000 1.849480 0.000000 
#    z 0.000300 0.000000 1.895840 
# 
# From -- ./inp_files/3539.got.cif
#   From: 2010.03.12/outbox.cif.g09.slc.cpg/sg3_2_cif.got.tgz:3539.got - 2010.03.31 09:20:49.
