data_PCOD8045091
_publ_section_title
;
Structure prediction by ZEFSAII (Michael W. Deem and Ramdas Pophale) SiO2 
 PCOD8045091
Probable space group: P 2
;
_chemical_formula_sum "Si O2"
_cell_formula_units_Z 13
_cell_length_a 14.104255
_cell_length_b 8.714921
_cell_length_c 15.531975
_cell_angle_alpha 90.000000
_cell_angle_beta 160.927889
_cell_angle_gamma 90.000000
_cell_volume 623.830188
_symmetry_space_group_name_H-M "P 2"
_symmetry_group_IT_number 3
_symmetry_cell_setting 'monoclinic'
loop_
_space_group_symop_operation_xyz
x,y,z
-x,y,-z
loop_
_atom_site_type_symbol
_atom_site_label
_atom_site_fract_x
_atom_site_fract_y
_atom_site_fract_z
Si Si1 0.500000 0.983081 0.500000
Si Si2 0.300180 0.292924 0.061606
Si Si3 0.687115 0.373537 0.237304
Si Si4 0.159961 0.777799 0.454370
Si Si5 0.748684 0.106886 0.548969
Si Si6 0.000000 0.790273 0.000000
Si Si7 0.000000 0.671658 0.500000
Si Si8 0.206779 0.634052 0.010088
O O1 0.704988 0.886702 0.739511
O O2 0.706216 0.081288 0.614643
O O3 0.550362 0.331440 0.209572
O O4 0.449119 0.181033 0.258520
O O5 0.201063 0.451625 0.018931
O O6 0.026379 0.216862 0.779042
O O7 0.718703 0.558917 0.254955
O O8 0.000000 0.291763 0.500000
O O9 0.500000 0.304491 0.000000
O O10 0.471286 0.699592 0.715726
O O11 0.029772 0.775524 0.439771
O O12 0.179054 0.952974 0.440975
O O13 0.947595 0.681164 0.211016
O O14 0.977634 0.692737 0.067509
#
# Coordination Sequence:
#
# PCOD8045091 Si02
#       8
#     1   2   2   2   2   1   1   2
#     4  12  24  46  70  96 138 194 218 278 364 416
#     4  12  25  44  67 102 143 176 223 291 348 405
#     4  10  20  40  67  96 128 184 227 273 348 394
#     4  12  24  45  70 103 131 184 235 277 337 411
#     4  12  26  44  68 100 145 181 222 284 353 418
#     4  12  22  42  74 100 128 178 242 290 334 400
#     4  10  24  40  76  96 136 180 240 284 334 404
#     4  12  23  43  73 101 130 176 240 285 329 414
#
# _framework density 20.839003999999999
#
# number of rings (size 3 to 8) (size 9 to 14) (size 15 to 20)
#    0.462    0.000    4.615    4.615    0.000    1.231 
#    4.154    0.000    0.000    0.000    0.000    0.000 
#    0.000    0.000    0.000    0.000    0.000    0.000 
#
# Total GULP energy -161213.462718 kJ/mol
# GULP energy per Si atom -12401.035594 kJ/mol
# Density = 2.079157 g / cm^3
# Si number density = 20.839004 Si / 1000 Ang^3
#
#
#
# Elastic Constant Matrix: (Units=GPa)
#
#
# Indices 1 2 3 4 5 6 
#
# 1 153.9732 17.0592 12.9438 0.0000 -3.3281 0.0000
# 2 17.0592 124.1245 35.4598 0.0000 -4.4086 0.0000
# 3 12.9438 35.4598 133.9632 0.0000 -1.3654 0.0000
# 4 0.0000 0.0000 0.0000 -1.5978 0.0000 -8.5786
# 5 -3.3281 -4.4086 -1.3654 0.0000 37.5345 0.0000
# 6 0.0000 0.0000 0.0000 -8.5786 0.0000 12.0812
#
#
#
# Elastic Compliance Matrix: (Units=1/GPa)
#
#
# Indices 1 2 3 4 5 6 
#
# 1 0.006627 -0.000770 -0.000431 0.000000 0.000481 0.000000
# 2 -0.000770 0.008838 -0.002256 0.000000 0.000888 0.000000
# 3 -0.000431 -0.002256 0.008104 0.000000 -0.000008 0.000000
# 4 0.000000 0.000000 0.000000 -0.130053 0.000000 -0.092347
# 5 0.000481 0.000888 -0.000008 0.000000 0.026789 0.000000
# 6 0.000000 0.000000 0.000000 -0.092347 0.000000 0.017200
#
#
# Mechanical properties :
#
#
# Convention : Reuss Voigt Hill
#
# Bulk Modulus (GPa) = 60.04996 60.33183 60.19090
# Shear Modulus (GPa) = -99.94215 32.71013 -33.61601
#
# Velocity S-wave (km/s) = -6.93277 3.96619 -4.02074
# Velocity P-wave (km/s) = 5.93344 7.07025 2.71871
#
# Compressibility (1/GPa) = 0.01665280
#
# Stress axis : x y z
#
# Youngs Moduli (GPa) = 150.90540 113.14357 123.40343
#
# Poissons Ratio (x) = 0.08716 0.05324
# Poissons Ratio (y) = 0.11626 0.27840
# Poissons Ratio (z) = 0.06511 0.25525
#
# Static dielectric constant tensor:
#      x y z
#    x 4.205330 0.000000 -0.181150 
#    y 0.000000 3.745680 0.000000 
#    z -0.181150 0.000000 3.900720 
# 
# 
# High freq. dielectric constant tensor:
#      x y z
#    x 1.827470 0.000000 0.001410 
#    y 0.000000 1.802480 0.000000 
#    z 0.001410 0.000000 1.833160 
# 
# From -- ./inp_files/14029.got.cif
#   From: 2010.03.12/outbox.cif.g09.slc.cpg/sg3_8_cif.got.tgz:14029.got - 2010.03.31 09:20:49.
