data_PCOD8045832
_publ_section_title
;
Structure prediction by ZEFSAII (Michael W. Deem and Ramdas Pophale) SiO2 
 PCOD8045832
Probable space group: P 21
;
_chemical_formula_sum "Si O2"
_cell_formula_units_Z 16
_cell_length_a 11.770385
_cell_length_b 9.057589
_cell_length_c 17.836126
_cell_angle_alpha 90.000000
_cell_angle_beta 26.815912
_cell_angle_gamma 90.000000
_cell_volume 857.829742
_symmetry_space_group_name_H-M "P 21"
_symmetry_group_IT_number 4
_symmetry_cell_setting 'monoclinic'
loop_
_space_group_symop_operation_xyz
x,y,z
-x,1/2+y,-z
loop_
_atom_site_type_symbol
_atom_site_label
_atom_site_fract_x
_atom_site_fract_y
_atom_site_fract_z
Si Si1 0.559030 0.946340 0.174740
Si Si2 0.230815 0.143867 0.265147
Si Si3 0.649512 0.220327 0.212733
Si Si4 0.051260 0.063810 0.209989
Si Si5 0.330747 0.643046 0.360261
Si Si6 0.066010 0.828996 0.823962
Si Si7 0.560269 0.402029 0.124550
Si Si8 0.570998 0.947091 0.562005
O O1 0.474888 0.790526 0.255129
O O2 0.360017 0.009954 0.233230
O O3 0.587323 0.051731 0.230622
O O4 0.822626 0.931372 0.975716
O O5 0.204384 0.094071 0.195295
O O6 0.393633 0.292925 0.171954
O O7 0.964868 0.174995 0.460955
O O8 0.894195 0.232631 0.122718
O O9 0.702970 0.308885 0.104589
O O10 0.412304 0.297891 0.396133
O O11 0.960467 0.220117 0.230609
O O12 0.808742 0.959636 0.367177
O O13 0.227993 0.978413 0.049277
O O14 0.378137 0.525063 0.266813
O O15 0.435891 0.587813 0.378478
O O16 0.309562 0.936602 0.668495
#
# Coordination Sequence:
#
# PCOD8045832 Si02
#       8
#     2   2   2   2   2   2   2   2
#     4  11  21  37  67  94 116 163 210 264 298 366
#     4  10  24  40  57  92 125 158 210 248 312 374
#     4   8  21  39  59  93 117 152 210 252 304 361
#     4  11  22  41  62  89 127 168 199 254 313 374
#     4  10  19  40  67  89 119 161 203 265 303 359
#     4  10  22  39  63  94 122 157 207 256 309 373
#     4  10  20  39  63  86 122 163 202 255 305 363
#     4   8  21  41  60  89 128 154 199 256 314 372
#
# _framework density 18.651720999999998
#
# number of rings (size 3 to 8) (size 9 to 14) (size 15 to 20)
#    0.750    1.500    1.250    0.750    5.250    1.000 
#    9.000    1.250    0.000    0.000    0.000    0.000 
#    0.000    0.000    0.000    0.000    0.000    0.000 
#
# Total GULP energy -198346.144839 kJ/mol
# GULP energy per Si atom -12396.634052 kJ/mol
# Density = 1.860927 g / cm^3
# Si number density = 18.651721 Si / 1000 Ang^3
#
#
#
# Elastic Constant Matrix: (Units=GPa)
#
#
# Indices 1 2 3 4 5 6 
#
# 1 57.4282 7.2477 11.1852 0.0000 -6.6950 0.0000
# 2 7.2477 69.2520 7.7665 0.0000 -7.2490 0.0000
# 3 11.1852 7.7665 91.7845 0.0000 -6.1355 0.0000
# 4 0.0000 0.0000 0.0000 31.9194 0.0000 -3.1159
# 5 -6.6950 -7.2490 -6.1355 0.0000 25.0763 0.0000
# 6 0.0000 0.0000 0.0000 -3.1159 0.0000 30.1842
#
#
#
# Elastic Compliance Matrix: (Units=1/GPa)
#
#
# Indices 1 2 3 4 5 6 
#
# 1 0.018415 -0.001291 -0.001862 0.000000 0.004088 0.000000
# 2 -0.001291 0.015070 -0.000864 0.000000 0.003800 0.000000
# 3 -0.001862 -0.000864 0.011330 0.000000 0.002026 0.000000
# 4 0.000000 0.000000 0.000000 0.031648 0.000000 0.003267
# 5 0.004088 0.003800 0.002026 0.000000 0.042564 0.000000
# 6 0.000000 0.000000 0.000000 0.003267 0.000000 0.033467
#
#
# Mechanical properties :
#
#
# Convention : Reuss Voigt Hill
#
# Bulk Modulus (GPa) = 27.18632 30.09596 28.64114
# Shear Modulus (GPa) = 28.93727 30.25366 29.59547
#
# Velocity S-wave (km/s) = 3.94312 4.03181 3.98771
# Velocity P-wave (km/s) = 5.94461 6.15181 6.04910
#
# Compressibility (1/GPa) = 0.03678320
#
# Stress axis : x y z
#
# Youngs Moduli (GPa) = 54.30326 66.35795 88.25781
#
# Poissons Ratio (x) = 0.08564 0.16430
# Poissons Ratio (y) = 0.07008 0.07624
# Poissons Ratio (z) = 0.10109 0.05732
#
# Static dielectric constant tensor:
#      x y z
#    x 3.418330 0.000000 -0.047080 
#    y 0.000000 3.404530 0.000000 
#    z -0.047080 0.000000 3.362940 
# 
# 
# High freq. dielectric constant tensor:
#      x y z
#    x 1.722810 0.000000 -0.003290 
#    y 0.000000 1.723740 0.000000 
#    z -0.003290 0.000000 1.719870 
# 
# From -- ./inp_files/9602.got.cif
#   From: 2010.03.12/outbox.cif.g09.slc.cpg/sg4_5_cif.got.tgz:9602.got - 2010.03.31 09:31:35.
