data_PCOD8045789
_publ_section_title
;
Structure prediction by ZEFSAII (Michael W. Deem and Ramdas Pophale) SiO2 
 PCOD8045789
Probable space group: P 21
;
_chemical_formula_sum "Si O2"
_cell_formula_units_Z 16
_cell_length_a 8.590207
_cell_length_b 8.275890
_cell_length_c 10.408314
_cell_angle_alpha 90.000000
_cell_angle_beta 74.482522
_cell_angle_gamma 90.000000
_cell_volume 712.972007
_symmetry_space_group_name_H-M "P 21"
_symmetry_group_IT_number 4
_symmetry_cell_setting 'monoclinic'
loop_
_space_group_symop_operation_xyz
x,y,z
-x,1/2+y,-z
loop_
_atom_site_type_symbol
_atom_site_label
_atom_site_fract_x
_atom_site_fract_y
_atom_site_fract_z
Si Si1 0.160669 0.522420 0.643526
Si Si2 0.052137 0.094005 0.911574
Si Si3 0.060425 0.161191 0.633311
Si Si4 0.789005 0.919708 0.096733
Si Si5 0.292915 0.980097 0.075940
Si Si6 0.160314 0.168023 0.339759
Si Si7 0.722679 0.023705 0.647859
Si Si8 0.482322 0.699634 0.112522
O O1 0.067607 0.353429 0.647129
O O2 0.238411 0.524716 0.767753
O O3 0.298988 0.531191 0.502715
O O4 0.030198 0.668351 0.658666
O O5 0.112377 0.062481 0.751057
O O6 0.068369 0.286177 0.925142
O O7 0.161220 0.004568 0.993894
O O8 0.863775 0.039583 0.971373
O O9 0.169745 0.106707 0.486732
O O10 0.874052 0.132546 0.648763
O O11 0.621622 0.832676 0.103833
O O12 0.248042 0.046216 0.225583
O O13 0.328115 0.790124 0.085447
O O14 0.459543 0.068200 0.001932
O O15 0.242544 0.343122 0.307511
O O16 0.564186 0.102612 0.747189
#
# Coordination Sequence:
#
# PCOD8045789 Si02
#       8
#     2   2   2   2   2   2   2   2
#     4   9  18  39  62  91 124 165 211 271 308 376
#     4  10  22  37  63  91 123 164 212 270 302 374
#     4   9  20  35  63  93 123 160 213 269 318 367
#     4  10  22  40  62  94 127 165 217 264 318 370
#     4  11  23  40  61  89 130 169 217 262 320 383
#     4  10  19  37  62  94 123 163 215 269 313 374
#     4  10  21  36  62  92 131 167 209 259 331 384
#     4  11  25  40  59  94 133 175 208 260 330 390
#
# _framework density 22.441274
#
# number of rings (size 3 to 8) (size 9 to 14) (size 15 to 20)
#    0.000    2.000    1.250    1.500    7.000    1.000 
#    0.000    5.000    0.000    1.500    0.000    0.000 
#    0.000    0.000    0.000    0.000    0.000    0.000 
#
# Total GULP energy -198225.190110 kJ/mol
# GULP energy per Si atom -12389.074382 kJ/mol
# Density = 2.239020 g / cm^3
# Si number density = 22.441274 Si / 1000 Ang^3
#
#
#
# Elastic Constant Matrix: (Units=GPa)
#
#
# Indices 1 2 3 4 5 6 
#
# 1 32.9423 32.4517 50.3772 0.0000 -0.6169 0.0000
# 2 32.4517 58.7732 53.5586 0.0000 -1.6107 0.0000
# 3 50.3772 53.5586 192.6862 0.0000 4.0976 0.0000
# 4 0.0000 0.0000 0.0000 39.8040 0.0000 -11.7441
# 5 -0.6169 -1.6107 4.0976 0.0000 33.3465 0.0000
# 6 0.0000 0.0000 0.0000 -11.7441 0.0000 40.2519
#
#
#
# Elastic Compliance Matrix: (Units=1/GPa)
#
#
# Indices 1 2 3 4 5 6 
#
# 1 0.083284 -0.034927 -0.012095 0.000000 0.001340 0.000000
# 2 -0.034927 0.037552 -0.001335 0.000000 0.001332 0.000000
# 3 -0.012095 -0.001335 0.008752 0.000000 -0.001364 0.000000
# 4 0.000000 0.000000 0.000000 0.027490 0.000000 0.008020
# 5 0.001340 0.001332 -0.001364 0.000000 0.030245 0.000000
# 6 0.000000 0.000000 0.000000 0.008020 0.000000 0.027184
#
#
# Mechanical properties :
#
#
# Convention : Reuss Voigt Hill
#
# Bulk Modulus (GPa) = 30.41788 61.90851 46.16320
# Shear Modulus (GPa) = 15.51945 32.54810 24.03377
#
# Velocity S-wave (km/s) = 2.63260 3.81250 3.27611
# Velocity P-wave (km/s) = 4.77752 6.85762 5.90981
#
# Compressibility (1/GPa) = 0.03287540
#
# Stress axis : x y z
#
# Youngs Moduli (GPa) = 12.00717 26.62957 114.26145
#
# Poissons Ratio (x) = 0.93009 1.38194
# Poissons Ratio (y) = 0.41937 0.15251
# Poissons Ratio (z) = 0.14522 0.03554
#
# Static dielectric constant tensor:
#      x y z
#    x 3.613230 0.000000 0.082290 
#    y 0.000000 4.045620 0.000000 
#    z 0.082290 0.000000 4.630750 
# 
# 
# High freq. dielectric constant tensor:
#      x y z
#    x 1.843930 0.000000 0.003910 
#    y 0.000000 1.881230 0.000000 
#    z 0.003910 0.000000 1.908870 
# 
# From -- ./inp_files/10926.got.cif
#   From: 2010.03.12/outbox.cif.g09.slc.cpg/sg4_6_cif.got.tgz:10926.got - 2010.03.31 09:31:35.
