data_PCOD8045578
_publ_section_title
;
Structure prediction by ZEFSAII (Michael W. Deem and Ramdas Pophale) SiO2 
 PCOD8045578
Probable space group: P 2
;
_chemical_formula_sum "Si O2"
_cell_formula_units_Z 8
_cell_length_a 31.216590
_cell_length_b 5.236951
_cell_length_c 23.588873
_cell_angle_alpha 90.000000
_cell_angle_beta 10.376403
_cell_angle_gamma 90.000000
_cell_volume 694.574374
_symmetry_space_group_name_H-M "P 2"
_symmetry_group_IT_number 3
_symmetry_cell_setting 'monoclinic'
loop_
_space_group_symop_operation_xyz
x,y,z
-x,y,-z
loop_
_atom_site_type_symbol
_atom_site_label
_atom_site_fract_x
_atom_site_fract_y
_atom_site_fract_z
Si Si1 0.555660 0.379060 0.335389
Si Si2 0.944084 0.879062 0.164982
Si Si3 0.610973 0.879061 0.497999
Si Si4 0.110725 0.379061 0.998357
O O1 0.548924 0.629044 0.304587
O O2 0.548918 0.129083 0.304592
O O3 0.333097 0.379058 0.666967
O O4 0.798990 0.379053 0.054478
O O5 0.700875 0.879053 0.445694
O O6 0.950786 0.629084 0.195840
O O7 0.950772 0.129048 0.195855
O O8 0.166588 0.879063 0.833462
#
# Coordination Sequence:
#
# PCOD8045578 Si02
#       4
#     2   2   2   2
#     4   9  15  21  27  33  39  45  51  57  63  69
#     4   9  15  21  27  33  39  45  51  57  63  69
#     4   9  15  21  27  33  39  45  51  57  63  69
#     4   9  15  21  27  33  39  45  51  57  63  69
#
# _framework density 11.517844
#
# number of rings (size 3 to 8) (size 9 to 14) (size 15 to 20)
#    0.000    3.000    0.000    3.000    0.000   12.000 
#    0.000    0.000    0.000    0.000    0.000    0.000 
#    0.000    0.000    0.000    0.000    0.000    0.000 
#
# Total GULP energy -99174.975522 kJ/mol
# GULP energy per Si atom -12396.871940 kJ/mol
# Density = 1.149163 g / cm^3
# Si number density = 11.517844 Si / 1000 Ang^3
#
#
#
# Elastic Constant Matrix: (Units=GPa)
#
#
# Indices 1 2 3 4 5 6 
#
# 1 87.3797 62.0029 22.5383 0.0000 -44.3807 0.0000
# 2 62.0029 138.2682 16.0078 0.0000 -31.4994 0.0000
# 3 22.5383 16.0078 5.8144 0.0000 -11.4607 0.0000
# 4 0.0000 0.0000 0.0000 6.1956 0.0000 -12.1642
# 5 -44.3807 -31.4994 -11.4607 0.0000 22.5418 0.0000
# 6 0.0000 0.0000 0.0000 -12.1642 0.0000 23.9620
#
#
#
# Elastic Compliance Matrix: (Units=1/GPa)
#
#
# Indices 1 2 3 4 5 6 
#
# 1 18.080004 -0.000202-37.313473 0.000000 16.625082 0.000000
# 2 -0.000202 0.010609 -0.005634 0.000000 0.011564 0.000000
# 3 -37.313473 -0.005634 -3.251699 0.000000-75.124522 0.000000
# 4 0.000000 0.000000 0.000000 48.788308 0.000000 24.767176
# 5 16.625082 0.011564-75.124522 0.000000 -5.402434 0.000000
# 6 0.000000 0.000000 0.000000 24.767176 0.000000 12.614684
#
#
# Mechanical properties :
#
#
# Convention : Reuss Voigt Hill
#
# Bulk Modulus (GPa) = -0.01672 48.06223 24.02275
# Shear Modulus (GPa) = 0.03983 19.26744 9.65363
#
# Velocity S-wave (km/s) = 0.18615 4.09447 2.89822
# Velocity P-wave (km/s) = 0.17792 8.01074 5.66585
#
# Compressibility (1/GPa) = -59.79970466
#
# Stress axis : x y z
#
# Youngs Moduli (GPa) = 0.05531 94.25583 -0.30753
#
# Poissons Ratio (x) = 0.01900 -11.47507
# Poissons Ratio (y) = 0.00001 -0.00173
# Poissons Ratio (z) = 2.06380 0.53108
#
# Static dielectric constant tensor:
#      x y z
#    x 2.443070 0.000000 -0.473290 
#    y 0.000000 2.685910 0.000000 
#    z -0.473290 0.000000 1.751400 
# 
# 
# High freq. dielectric constant tensor:
#      x y z
#    x 1.428540 0.000000 -0.066140 
#    y 0.000000 1.462220 0.000000 
#    z -0.066140 0.000000 1.331860 
# 
# From -- ./inp_files/4625.got.cif
#   From: 2010.03.12/outbox.cif.g09.slc.cpg/sg3_3_cif.got.tgz:4625.got - 2010.03.31 09:20:49.
