data_PCOD8045671
_publ_section_title
;
Structure prediction by ZEFSAII (Michael W. Deem and Ramdas Pophale) SiO2 
 PCOD8045671
Probable space group: P 21
;
_chemical_formula_sum "Si O2"
_cell_formula_units_Z 16
_cell_length_a 10.148671
_cell_length_b 14.777224
_cell_length_c 5.092987
_cell_angle_alpha 90.000000
_cell_angle_beta 88.683112
_cell_angle_gamma 90.000000
_cell_volume 763.589374
_symmetry_space_group_name_H-M "P 21"
_symmetry_group_IT_number 4
_symmetry_cell_setting 'monoclinic'
loop_
_space_group_symop_operation_xyz
x,y,z
-x,1/2+y,-z
loop_
_atom_site_type_symbol
_atom_site_label
_atom_site_fract_x
_atom_site_fract_y
_atom_site_fract_z
Si Si1 0.721574 0.399350 0.978013
Si Si2 0.111206 0.715917 0.985526
Si Si3 0.581456 0.871645 0.032916
Si Si4 0.896806 0.948050 0.453659
Si Si5 0.702174 0.794031 0.512779
Si Si6 0.834582 0.476991 0.469821
Si Si7 0.063253 0.174703 0.507444
Si Si8 0.783184 0.027959 0.974406
O O1 0.570100 0.378234 0.033645
O O2 0.732208 0.451588 0.701877
O O3 0.809952 0.309877 0.996261
O O4 0.762139 0.472206 0.196546
O O5 0.224686 0.637094 0.991312
O O6 0.024717 0.713016 0.725594
O O7 0.006618 0.705131 0.222722
O O8 0.589528 0.811097 0.298691
O O9 0.647636 0.972667 0.049097
O O10 0.650247 0.813538 0.804018
O O11 0.818176 0.857855 0.413483
O O12 0.041107 0.908678 0.522016
O O13 0.897290 0.998056 0.171514
O O14 0.826735 0.010031 0.675653
O O15 0.779430 0.699096 0.509114
O O16 0.922738 0.566923 0.507251
#
# Coordination Sequence:
#
# PCOD8045671 Si02
#       8
#     2   2   2   2   2   2   2   2
#     4  12  26  41  64  93 132 176 211 261 316 381
#     4  12  22  41  64  97 127 163 214 270 321 382
#     4  10  23  43  62  87 126 168 221 238 311 385
#     4  10  18  35  62  89 118 156 198 253 323 363
#     4  10  21  39  65  88 117 165 206 264 302 374
#     4  12  23  41  62  94 136 159 201 274 328 380
#     4  12  24  41  65 101 127 154 217 267 333 383
#     4  10  19  37  62  87 121 161 204 257 300 376
#
# _framework density 20.953671
#
# number of rings (size 3 to 8) (size 9 to 14) (size 15 to 20)
#    0.000    1.000    2.500    5.250    0.000    2.000 
#    4.500    0.000    0.000    0.000    0.000    0.000 
#    0.000    0.000    0.000    0.000    0.000    0.000 
#
# Total GULP energy -198283.342839 kJ/mol
# GULP energy per Si atom -12392.708927 kJ/mol
# Density = 2.090598 g / cm^3
# Si number density = 20.953671 Si / 1000 Ang^3
#
#
#
# Elastic Constant Matrix: (Units=GPa)
#
#
# Indices 1 2 3 4 5 6 
#
# 1 93.0127 30.8182 12.4172 0.0000 11.8642 0.0000
# 2 30.8182 59.1834 28.9891 0.0000 -1.5427 0.0000
# 3 12.4172 28.9891 109.5741 0.0000 3.1724 0.0000
# 4 0.0000 0.0000 0.0000 18.7541 0.0000 2.2431
# 5 11.8642 -1.5427 3.1724 0.0000 30.9126 0.0000
# 6 0.0000 0.0000 0.0000 2.2431 0.0000 24.1320
#
#
#
# Elastic Compliance Matrix: (Units=1/GPa)
#
#
# Indices 1 2 3 4 5 6 
#
# 1 0.013972 -0.007736 0.000632 0.000000 -0.005813 0.000000
# 2 -0.007736 0.023766 -0.005548 0.000000 0.004725 0.000000
# 3 0.000632 -0.005548 0.010569 0.000000 -0.001604 0.000000
# 4 0.000000 0.000000 0.000000 0.053921 0.000000 -0.005012
# 5 -0.005813 0.004725 -0.001604 0.000000 0.034981 0.000000
# 6 0.000000 0.000000 0.000000 -0.005012 0.000000 0.041905
#
#
# Mechanical properties :
#
#
# Convention : Reuss Voigt Hill
#
# Bulk Modulus (GPa) = 43.47502 45.13545 44.30524
# Shear Modulus (GPa) = 23.57553 27.39610 25.48581
#
# Velocity S-wave (km/s) = 3.35793 3.61980 3.49132
# Velocity P-wave (km/s) = 5.98560 6.24964 6.11905
#
# Compressibility (1/GPa) = 0.02300172
#
# Stress axis : x y z
#
# Youngs Moduli (GPa) = 71.57320 42.07762 94.61848
#
# Poissons Ratio (x) = 0.32553 -0.05977
# Poissons Ratio (y) = 0.55372 0.52490
# Poissons Ratio (z) = -0.04522 0.23343
#
# Static dielectric constant tensor:
#      x y z
#    x 3.883150 0.000000 0.303450 
#    y 0.000000 4.200920 0.000000 
#    z 0.303450 0.000000 4.129900 
# 
# 
# High freq. dielectric constant tensor:
#      x y z
#    x 1.806990 0.000000 0.002200 
#    y 0.000000 1.816440 0.000000 
#    z 0.002200 0.000000 1.841220 
# 
# From -- ./inp_files/1791.got.cif
#   From: 2010.03.12/outbox.cif.g09.slc.cpg/sg4_1_cif.got.tgz:1791.got - 2010.03.31 09:31:35.
