data_PCOD8045071
_publ_section_title
;
Structure prediction by ZEFSAII (Michael W. Deem and Ramdas Pophale) SiO2 
 PCOD8045071
Probable space group: P 2
;
_chemical_formula_sum "Si O2"
_cell_formula_units_Z 14
_cell_length_a 15.549500
_cell_length_b 8.620658
_cell_length_c 16.288612
_cell_angle_alpha 90.000000
_cell_angle_beta 17.794685
_cell_angle_gamma 90.000000
_cell_volume 667.273984
_symmetry_space_group_name_H-M "P 2"
_symmetry_group_IT_number 3
_symmetry_cell_setting 'monoclinic'
loop_
_space_group_symop_operation_xyz
x,y,z
-x,y,-z
loop_
_atom_site_type_symbol
_atom_site_label
_atom_site_fract_x
_atom_site_fract_y
_atom_site_fract_z
Si Si1 0.887141 0.090820 0.289781
Si Si2 0.401758 0.587898 0.335308
Si Si3 0.500000 0.169392 0.500000
Si Si4 0.703922 0.438463 0.737786
Si Si5 0.025426 0.446389 0.153461
Si Si6 0.000000 0.373173 0.000000
Si Si7 0.522869 0.942729 0.215497
Si Si8 0.697081 0.086823 0.744151
O O1 0.697407 0.065011 0.380208
O O2 0.967482 0.269158 0.228168
O O3 0.709286 0.046231 0.529827
O O4 0.167860 0.988208 0.034008
O O5 0.360145 0.555834 0.277345
O O6 0.132499 0.556438 0.638183
O O7 0.487470 0.764434 0.270252
O O8 0.644439 0.473187 0.143435
O O9 0.715531 0.269745 0.247300
O O10 0.718268 0.262443 0.689782
O O11 0.000000 0.495674 0.500000
O O12 0.500000 0.459412 0.000000
O O13 0.943945 0.477514 0.132001
O O14 0.457974 0.973316 0.178879
O O15 0.000000 0.024210 0.500000
O O16 0.500000 0.091536 0.000000
#
# Coordination Sequence:
#
# PCOD8045071 Si02
#       8
#     2   2   1   2   2   1   2   2
#     4  11  22  41  67  91 121 164 213 260 307 370
#     4  12  25  40  61  95 132 165 203 254 319 377
#     4  10  20  38  66  98 120 154 216 272 310 358
#     4  10  21  38  61  88 119 160 210 257 303 362
#     4  11  22  41  67  91 121 164 213 260 307 370
#     4  10  20  38  66  98 120 154 216 272 310 358
#     4  12  25  40  61  95 132 165 203 254 319 377
#     4  10  21  38  61  88 119 160 210 257 303 362
#
# _framework density 20.980888
#
# number of rings (size 3 to 8) (size 9 to 14) (size 15 to 20)
#    0.000    1.143    0.000    8.571    0.000    3.429 
#    0.000    2.857    0.000    1.714    0.000    0.000 
#    0.000    0.000    0.000    0.000    0.000    0.000 
#
# Total GULP energy -173587.674378 kJ/mol
# GULP energy per Si atom -12399.119598 kJ/mol
# Density = 2.093313 g / cm^3
# Si number density = 20.980888 Si / 1000 Ang^3
#
#
#
# Elastic Constant Matrix: (Units=GPa)
#
#
# Indices 1 2 3 4 5 6 
#
# 1 118.9916 35.4120 21.2860 0.0000 -3.8754 0.0000
# 2 35.4120 106.6078 29.9991 0.0000 -2.8549 0.0000
# 3 21.2860 29.9991 100.8468 0.0000 -6.3886 0.0000
# 4 0.0000 0.0000 0.0000 26.4017 0.0000 -4.2718
# 5 -3.8754 -2.8549 -6.3886 0.0000 42.0814 0.0000
# 6 0.0000 0.0000 0.0000 -4.2718 0.0000 12.5277
#
#
#
# Elastic Compliance Matrix: (Units=1/GPa)
#
#
# Indices 1 2 3 4 5 6 
#
# 1 0.009459 -0.002811 -0.001128 0.000000 0.000509 0.000000
# 2 -0.002811 0.011075 -0.002696 0.000000 0.000083 0.000000
# 3 -0.001128 -0.002696 0.011044 0.000000 0.001390 0.000000
# 4 0.000000 0.000000 0.000000 0.040088 0.000000 0.013669
# 5 0.000509 0.000083 0.001390 0.000000 0.024027 0.000000
# 6 0.000000 0.000000 0.000000 0.013669 0.000000 0.084484
#
#
# Mechanical properties :
#
#
# Convention : Reuss Voigt Hill
#
# Bulk Modulus (GPa) = 54.62078 55.53782 55.07930
# Shear Modulus (GPa) = 25.05643 32.18543 28.62093
#
# Velocity S-wave (km/s) = 3.45954 3.92093 3.69744
# Velocity P-wave (km/s) = 6.48444 6.85758 6.67362
#
# Compressibility (1/GPa) = 0.01830805
#
# Stress axis : x y z
#
# Youngs Moduli (GPa) = 105.72101 90.29589 90.54591
#
# Poissons Ratio (x) = 0.25381 0.10214
# Poissons Ratio (y) = 0.29717 0.24410
# Poissons Ratio (z) = 0.11926 0.24342
#
# Static dielectric constant tensor:
#      x y z
#    x 3.847430 0.000000 -0.035160 
#    y 0.000000 3.604270 0.000000 
#    z -0.035160 0.000000 4.056200 
# 
# 
# High freq. dielectric constant tensor:
#      x y z
#    x 1.833460 0.000000 -0.001280 
#    y 0.000000 1.793390 0.000000 
#    z -0.001280 0.000000 1.847860 
# 
# From -- ./inp_files/14002.got.cif
#   From: 2010.03.12/outbox.cif.g09.slc.cpg/sg3_8_cif.got.tgz:14002.got - 2010.03.31 09:20:49.
