data_PCOD8045893
_publ_section_title
;
Structure prediction by ZEFSAII (Michael W. Deem and Ramdas Pophale) SiO2 
 PCOD8045893
Probable space group: P 21
;
_chemical_formula_sum "Si O2"
_cell_formula_units_Z 10
_cell_length_a 8.300796
_cell_length_b 5.074645
_cell_length_c 15.317932
_cell_angle_alpha 90.000000
_cell_angle_beta 45.014689
_cell_angle_gamma 90.000000
_cell_volume 456.375013
_symmetry_space_group_name_H-M "P 21"
_symmetry_group_IT_number 4
_symmetry_cell_setting 'monoclinic'
loop_
_space_group_symop_operation_xyz
x,y,z
-x,1/2+y,-z
loop_
_atom_site_type_symbol
_atom_site_label
_atom_site_fract_x
_atom_site_fract_y
_atom_site_fract_z
Si Si1 0.353235 0.614300 0.062254
Si Si2 0.734270 0.312461 0.552999
Si Si3 0.494750 0.823422 0.686666
Si Si4 0.010418 0.948874 0.938764
Si Si5 0.832604 0.038494 0.682145
O O1 0.208825 0.649433 0.205965
O O2 0.196434 0.513687 0.044891
O O3 0.551523 0.399903 0.000051
O O4 0.544608 0.539735 0.627412
O O5 0.854611 0.278750 0.603137
O O6 0.931199 0.374264 0.407750
O O7 0.597314 0.045390 0.581276
O O8 0.226166 0.854562 0.800439
O O9 0.620610 0.853824 0.732810
O O10 0.075596 0.210437 0.967491
#
# Coordination Sequence:
#
# PCOD8045893 Si02
#       5
#     2   2   2   2   2
#     4  12  28  43  67 101 130 175 224 283 321 393
#     4  10  20  35  66  96 120 177 206 271 314 398
#     4  10  20  36  62  91 125 168 218 251 334 376
#     4  12  25  45  64  93 135 182 217 267 340 395
#     4  10  21  39  65  95 132 162 229 256 327 386
#
# _framework density 21.911802999999999
#
# number of rings (size 3 to 8) (size 9 to 14) (size 15 to 20)
#    1.200    0.000    2.000    4.800    5.600    0.000 
#    0.000    2.000    0.000    0.000    0.000    0.000 
#    0.000    0.000    0.000    0.000    0.000    0.000 
#
# Total GULP energy -123984.393313 kJ/mol
# GULP energy per Si atom -12398.439331 kJ/mol
# Density = 2.186193 g / cm^3
# Si number density = 21.911803 Si / 1000 Ang^3
#
#
#
# Elastic Constant Matrix: (Units=GPa)
#
#
# Indices 1 2 3 4 5 6 
#
# 1 47.0088 -3.2629 12.2259 0.0000 -8.0809 0.0000
# 2 -3.2629 100.6296 15.0452 0.0000 2.6683 0.0000
# 3 12.2259 15.0452 111.3881 0.0000 -1.6178 0.0000
# 4 0.0000 0.0000 0.0000 31.8076 0.0000 -8.3983
# 5 -8.0809 2.6683 -1.6178 0.0000 35.2280 0.0000
# 6 0.0000 0.0000 0.0000 -8.3983 0.0000 27.1334
#
#
#
# Elastic Compliance Matrix: (Units=1/GPa)
#
#
# Indices 1 2 3 4 5 6 
#
# 1 0.022879 0.000992 -0.002572 0.000000 0.005055 0.000000
# 2 0.000992 0.010210 -0.001497 0.000000 -0.000614 0.000000
# 3 -0.002572 -0.001497 0.009461 0.000000 -0.000042 0.000000
# 4 0.000000 0.000000 0.000000 0.034237 0.000000 0.010597
# 5 0.005055 -0.000614 -0.000042 0.000000 0.029591 0.000000
# 6 0.000000 0.000000 0.000000 0.010597 0.000000 0.040135
#
#
# Mechanical properties :
#
#
# Convention : Reuss Voigt Hill
#
# Bulk Modulus (GPa) = 27.47423 34.11588 30.79506
# Shear Modulus (GPa) = 30.34008 34.50167 32.42088
#
# Velocity S-wave (km/s) = 3.72512 3.97239 3.85074
# Velocity P-wave (km/s) = 5.57385 6.05337 5.81855
#
# Compressibility (1/GPa) = 0.03639774
#
# Stress axis : x y z
#
# Youngs Moduli (GPa) = 43.70760 97.94601 105.69172
#
# Poissons Ratio (x) = -0.09720 0.27182
# Poissons Ratio (y) = -0.04337 0.15821
# Poissons Ratio (z) = 0.11241 0.14661
#
# Static dielectric constant tensor:
#      x y z
#    x 3.515370 0.000000 -0.129030 
#    y 0.000000 4.043200 0.000000 
#    z -0.129030 0.000000 3.742650 
# 
# 
# High freq. dielectric constant tensor:
#      x y z
#    x 1.826620 0.000000 -0.022250 
#    y 0.000000 1.869870 0.000000 
#    z -0.022250 0.000000 1.861760 
# 
# From -- ./inp_files/8881.got.cif
#   From: 2010.03.12/outbox.cif.g09.slc.cpg/sg4_5_cif.got.tgz:8881.got - 2010.03.31 09:31:35.
