data_PCOD8045145
_publ_section_title
;
Structure prediction by ZEFSAII (Michael W. Deem and Ramdas Pophale) SiO2 
 PCOD8045145
Probable space group: P 2
;
_chemical_formula_sum "Si O2"
_cell_formula_units_Z 14
_cell_length_a 8.531430
_cell_length_b 11.153244
_cell_length_c 9.078567
_cell_angle_alpha 90.000000
_cell_angle_beta 46.425009
_cell_angle_gamma 90.000000
_cell_volume 625.838715
_symmetry_space_group_name_H-M "P 2"
_symmetry_group_IT_number 3
_symmetry_cell_setting 'monoclinic'
loop_
_space_group_symop_operation_xyz
x,y,z
-x,y,-z
loop_
_atom_site_type_symbol
_atom_site_label
_atom_site_fract_x
_atom_site_fract_y
_atom_site_fract_z
Si Si1 0.296232 0.105260 0.225099
Si Si2 0.946486 0.871534 0.693994
Si Si3 0.610413 0.428456 0.080196
Si Si4 0.060490 0.640729 0.130832
Si Si5 0.026459 0.259816 0.205422
Si Si6 0.173434 0.477529 0.519882
Si Si7 0.725962 0.061212 0.427280
O O1 0.109216 0.198235 0.302504
O O2 0.328731 0.118299 0.377785
O O3 0.500000 0.146483 0.000000
O O4 0.236955 0.970751 0.214189
O O5 0.000000 0.813408 0.500000
O O6 0.861975 0.770029 0.860026
O O7 0.154887 0.934258 0.632681
O O8 0.423442 0.460090 0.316163
O O9 0.500000 0.388441 0.000000
O O10 0.745161 0.548988 0.967282
O O11 0.774144 0.317713 0.021329
O O12 0.854742 0.597821 0.362835
O O13 0.000000 0.649743 0.000000
O O14 0.871005 0.368407 0.343196
O O15 0.874520 0.154533 0.232825
O O16 0.000000 0.480159 0.500000
O O17 0.500000 0.033204 0.500000
#
# Coordination Sequence:
#
# PCOD8045145 Si02
#       7
#     2   2   2   2   2   2   2
#     4  10  21  37  66  98 124 168 223 267 315 391
#     4   9  21  44  67  89 129 172 223 270 317 395
#     4  11  23  40  69  98 126 178 226 264 319 384
#     4  11  25  44  65  97 134 167 217 281 337 387
#     4  10  21  39  67  98 131 170 223 263 315 390
#     4  11  21  42  68  97 129 172 224 270 312 395
#     4  10  22  42  64  98 136 174 209 272 341 384
#
# _framework density 22.369979000000001
#
# number of rings (size 3 to 8) (size 9 to 14) (size 15 to 20)
#    0.000    1.714    2.857    3.000    2.000    2.286 
#   10.286    2.143    0.000    0.000    0.000    0.000 
#    0.000    0.000    0.000    0.000    0.000    0.000 
#
# Total GULP energy -173472.169778 kJ/mol
# GULP energy per Si atom -12390.869270 kJ/mol
# Density = 2.231906 g / cm^3
# Si number density = 22.369979 Si / 1000 Ang^3
#
#
#
# Elastic Constant Matrix: (Units=GPa)
#
#
# Indices 1 2 3 4 5 6 
#
# 1 85.1365 32.0711 23.6551 0.0000 -14.4947 0.0000
# 2 32.0711 113.1275 30.4748 0.0000 -5.2720 0.0000
# 3 23.6551 30.4748 113.7070 0.0000 -20.9074 0.0000
# 4 0.0000 0.0000 0.0000 21.8941 0.0000 1.3303
# 5 -14.4947 -5.2720 -20.9074 0.0000 31.9997 0.0000
# 6 0.0000 0.0000 0.0000 1.3303 0.0000 8.6870
#
#
#
# Elastic Compliance Matrix: (Units=1/GPa)
#
#
# Indices 1 2 3 4 5 6 
#
# 1 0.014246 -0.003509 -0.001072 0.000000 0.005175 0.000000
# 2 -0.003509 0.010392 -0.002310 0.000000 -0.001387 0.000000
# 3 -0.001072 -0.002310 0.010771 0.000000 0.006172 0.000000
# 4 0.000000 0.000000 0.000000 0.046103 0.000000 -0.007060
# 5 0.005175 -0.001387 0.006172 0.000000 0.037398 0.000000
# 6 0.000000 0.000000 0.000000 -0.007060 0.000000 0.116196
#
#
# Mechanical properties :
#
#
# Convention : Reuss Voigt Hill
#
# Bulk Modulus (GPa) = 46.23627 53.81923 50.02775
# Shear Modulus (GPa) = 19.52371 27.56750 23.54560
#
# Velocity S-wave (km/s) = 2.95746 3.51428 3.24783
# Velocity P-wave (km/s) = 5.68998 6.37007 6.03961
#
# Compressibility (1/GPa) = 0.02162804
#
# Stress axis : x y z
#
# Youngs Moduli (GPa) = 70.19275 96.22738 92.83810
#
# Poissons Ratio (x) = 0.33765 0.09951
# Poissons Ratio (y) = 0.24630 0.21447
# Poissons Ratio (z) = 0.07524 0.22230
#
# Static dielectric constant tensor:
#      x y z
#    x 4.297280 0.000000 -0.555240 
#    y 0.000000 4.130030 0.000000 
#    z -0.555240 0.000000 4.429990 
# 
# 
# High freq. dielectric constant tensor:
#      x y z
#    x 1.865690 0.000000 -0.011560 
#    y 0.000000 1.887090 0.000000 
#    z -0.011560 0.000000 1.876340 
# 
# From -- ./inp_files/5939.got.cif
#   From: 2010.03.12/outbox.cif.g09.slc.cpg/sg3_3_cif.got.tgz:5939.got - 2010.03.31 09:20:49.
