data_PCOD8045017
_publ_section_title
;
Structure prediction by ZEFSAII (Michael W. Deem and Ramdas Pophale) SiO2 
 PCOD8045017
Probable space group: P 2
;
_chemical_formula_sum "Si O2"
_cell_formula_units_Z 14
_cell_length_a 21.123176
_cell_length_b 6.491270
_cell_length_c 15.891960
_cell_angle_alpha 90.000000
_cell_angle_beta 17.558528
_cell_angle_gamma 90.000000
_cell_volume 657.374248
_symmetry_space_group_name_H-M "P 2"
_symmetry_group_IT_number 3
_symmetry_cell_setting 'monoclinic'
loop_
_space_group_symop_operation_xyz
x,y,z
-x,y,-z
loop_
_atom_site_type_symbol
_atom_site_label
_atom_site_fract_x
_atom_site_fract_y
_atom_site_fract_z
Si Si1 0.809190 0.134580 0.086857
Si Si2 0.781799 0.664061 0.321445
Si Si3 0.645244 0.082741 0.735622
Si Si4 0.870699 0.446165 0.377331
Si Si5 0.462779 0.962145 0.794839
Si Si6 0.432584 0.267845 0.463747
Si Si7 0.064882 0.828806 0.205228
O O1 0.642812 0.282221 0.251525
O O2 0.733997 0.111244 0.278691
O O3 0.023615 0.259966 0.808470
O O4 0.832877 0.912118 0.012117
O O5 0.792479 0.602626 0.406133
O O6 0.626390 0.854601 0.524141
O O7 0.676096 0.488295 0.399813
O O8 0.000000 0.726620 0.000000
O O9 0.690995 0.324668 0.657258
O O10 0.519074 0.962165 0.821660
O O11 0.500000 0.076882 0.000000
O O12 0.857631 0.960209 0.488552
O O13 0.012450 0.585078 0.261811
O O14 0.493079 0.196519 0.723311
O O15 0.230719 0.867162 0.071383
#
# Coordination Sequence:
#
# PCOD8045017 Si02
#       7
#     2   2   2   2   2   2   2
#     4   9  20  35  58  86 129 174 216 254 313 386
#     4  12  23  34  61  97 132 174 215 257 316 393
#     4  11  25  45  71  93 122 168 224 284 337 387
#     4  11  21  40  61  93 130 166 211 271 325 387
#     4  11  24  42  65  92 133 172 218 270 327 388
#     4  10  20  36  55  88 127 175 216 258 308 381
#     4  10  23  43  65  93 132 169 216 274 333 393
#
# _framework density 21.296849000000002
#
# number of rings (size 3 to 8) (size 9 to 14) (size 15 to 20)
#    0.000    1.429    4.286    0.857    2.000    1.714 
#    0.000    0.000    0.000    0.000    0.000    0.000 
#    0.000    0.000    0.000    0.000    0.000    0.000 
#
# Total GULP energy -173483.982409 kJ/mol
# GULP energy per Si atom -12391.713029 kJ/mol
# Density = 2.124838 g / cm^3
# Si number density = 21.296849 Si / 1000 Ang^3
#
#
#
# Elastic Constant Matrix: (Units=GPa)
#
#
# Indices 1 2 3 4 5 6 
#
# 1 99.0725 29.8657 59.9370 0.0000 0.0716 0.0000
# 2 29.8657 67.4161 29.6556 0.0000 -2.2226 0.0000
# 3 59.9370 29.6556 105.8470 0.0000 10.1933 0.0000
# 4 0.0000 0.0000 0.0000 34.1376 0.0000 -5.9023
# 5 0.0716 -2.2226 10.1933 0.0000 35.2745 0.0000
# 6 0.0000 0.0000 0.0000 -5.9023 0.0000 23.4282
#
#
#
# Elastic Compliance Matrix: (Units=1/GPa)
#
#
# Indices 1 2 3 4 5 6 
#
# 1 0.016228 -0.003401 -0.008448 0.000000 0.002194 0.000000
# 2 -0.003401 0.017849 -0.003275 0.000000 0.002078 0.000000
# 3 -0.008448 -0.003275 0.015601 0.000000 -0.004698 0.000000
# 4 0.000000 0.000000 0.000000 0.030627 0.000000 0.007716
# 5 0.002194 0.002078 -0.004698 0.000000 0.029833 0.000000
# 6 0.000000 0.000000 0.000000 0.007716 0.000000 0.044627
#
#
# Mechanical properties :
#
#
# Convention : Reuss Voigt Hill
#
# Bulk Modulus (GPa) = 51.46462 56.80580 54.13521
# Shear Modulus (GPa) = 26.11100 28.75989 27.43544
#
# Velocity S-wave (km/s) = 3.50530 3.67881 3.59310
# Velocity P-wave (km/s) = 6.37186 6.69149 6.53363
#
# Compressibility (1/GPa) = 0.01943082
#
# Stress axis : x y z
#
# Youngs Moduli (GPa) = 61.62231 56.02544 64.09747
#
# Poissons Ratio (x) = 0.19052 0.54148
# Poissons Ratio (y) = 0.20956 0.20994
# Poissons Ratio (z) = 0.52057 0.18350
#
# Static dielectric constant tensor:
#      x y z
#    x 3.730730 0.000000 -0.205830 
#    y 0.000000 3.765810 0.000000 
#    z -0.205830 0.000000 3.802320 
# 
# 
# High freq. dielectric constant tensor:
#      x y z
#    x 1.826150 0.000000 -0.018020 
#    y 0.000000 1.832770 0.000000 
#    z -0.018020 0.000000 1.822230 
# 
# From -- ./inp_files/8856.got.cif
#   From: 2010.03.12/outbox.cif.g09.slc.cpg/sg3_5_cif.got.tgz:8856.got - 2010.03.31 09:20:49.
