data_PCOD8045272
_publ_section_title
;
Structure prediction by ZEFSAII (Michael W. Deem and Ramdas Pophale) SiO2 
 PCOD8045272
Probable space group: P 2
;
_chemical_formula_sum "Si O2"
_cell_formula_units_Z 15
_cell_length_a 10.892527
_cell_length_b 5.164404
_cell_length_c 19.807104
_cell_angle_alpha 90.000000
_cell_angle_beta 143.409903
_cell_angle_gamma 90.000000
_cell_volume 664.169359
_symmetry_space_group_name_H-M "P 2"
_symmetry_group_IT_number 3
_symmetry_cell_setting 'monoclinic'
loop_
_space_group_symop_operation_xyz
x,y,z
-x,y,-z
loop_
_atom_site_type_symbol
_atom_site_label
_atom_site_fract_x
_atom_site_fract_y
_atom_site_fract_z
Si Si1 0.370873 0.321330 0.509303
Si Si2 0.518621 0.824555 0.647342
Si Si3 0.562733 0.760948 0.817727
Si Si4 0.000000 0.916880 0.000000
Si Si5 0.057331 0.288640 0.746956
Si Si6 0.702624 0.610223 0.058807
Si Si7 0.025901 0.971945 0.155898
Si Si8 0.469847 0.265734 0.859857
O O1 0.500000 0.259515 0.500000
O O2 0.416278 0.607169 0.555835
O O3 0.128978 0.310684 0.386740
O O4 0.427850 0.106278 0.589439
O O5 0.457343 0.774566 0.697716
O O6 0.763383 0.810971 0.741901
O O7 0.449663 0.531741 0.808012
O O8 0.807053 0.718778 0.917025
O O9 0.547922 0.037674 0.847840
O O10 0.974347 0.096556 0.920322
O O11 0.140734 0.566993 0.809299
O O12 0.251367 0.165458 0.793376
O O13 0.989942 0.158227 0.787588
O O14 0.822353 0.790988 0.059783
O O15 0.500000 0.751803 0.000000
O O16 0.631491 0.338742 0.991587
#
# Coordination Sequence:
#
# PCOD8045272 Si02
#       8
#     2   2   2   1   2   2   2   2
#     4  12  24  46  69 105 136 183 239 300 349 411
#     4  11  26  44  72 100 141 180 236 299 353 413
#     4  11  24  47  67 102 141 186 231 289 354 424
#     4  10  22  40  72  98 144 182 228 278 356 432
#     4  11  26  41  71 100 138 189 236 294 354 419
#     4  10  23  39  65  99 139 177 223 286 346 426
#     4  11  22  42  66 105 135 186 227 288 359 423
#     4  11  25  45  70 101 143 183 234 287 354 429
#
# _framework density 22.584599999999998
#
# number of rings (size 3 to 8) (size 9 to 14) (size 15 to 20)
#    0.000    1.067    2.667    2.800    5.600    1.067 
#    2.400    4.000    0.000    0.000    0.000    0.000 
#    0.000    0.000    0.000    0.000    0.000    0.000 
#
# Total GULP energy -185887.281751 kJ/mol
# GULP energy per Si atom -12392.485450 kJ/mol
# Density = 2.253320 g / cm^3
# Si number density = 22.584600 Si / 1000 Ang^3
#
#
#
# Elastic Constant Matrix: (Units=GPa)
#
#
# Indices 1 2 3 4 5 6 
#
# 1 116.7307 28.6031 55.2811 0.0000 -6.7903 0.0000
# 2 28.6031 83.0381 28.0936 0.0000 3.1608 0.0000
# 3 55.2811 28.0936 127.7116 0.0000 0.4142 0.0000
# 4 0.0000 0.0000 0.0000 26.9474 0.0000 -5.7060
# 5 -6.7903 3.1608 0.4142 0.0000 33.1681 0.0000
# 6 0.0000 0.0000 0.0000 -5.7060 0.0000 29.8419
#
#
#
# Elastic Compliance Matrix: (Units=1/GPa)
#
#
# Indices 1 2 3 4 5 6 
#
# 1 0.011425 -0.002550 -0.004393 0.000000 0.002637 0.000000
# 2 -0.002550 0.013628 -0.001888 0.000000 -0.001797 0.000000
# 3 -0.004393 -0.001888 0.010150 0.000000 -0.000846 0.000000
# 4 0.000000 0.000000 0.000000 0.038675 0.000000 0.007395
# 5 0.002637 -0.001797 -0.000846 0.000000 0.030871 0.000000
# 6 0.000000 0.000000 0.000000 0.007395 0.000000 0.034924
#
#
# Mechanical properties :
#
#
# Convention : Reuss Voigt Hill
#
# Bulk Modulus (GPa) = 57.00953 61.27067 59.14010
# Shear Modulus (GPa) = 30.64038 32.35834 31.49936
#
# Velocity S-wave (km/s) = 3.68733 3.78929 3.73866
# Velocity P-wave (km/s) = 6.58984 6.80685 6.69922
#
# Compressibility (1/GPa) = 0.01754093
#
# Stress axis : x y z
#
# Youngs Moduli (GPa) = 87.52411 73.37725 98.52246
#
# Poissons Ratio (x) = 0.18708 0.43284
# Poissons Ratio (y) = 0.22315 0.18605
# Poissons Ratio (z) = 0.38452 0.13857
#
# Static dielectric constant tensor:
#      x y z
#    x 4.441240 0.000000 -0.041480 
#    y 0.000000 3.700690 0.000000 
#    z -0.041480 0.000000 4.364900 
# 
# 
# High freq. dielectric constant tensor:
#      x y z
#    x 1.909840 0.000000 -0.007410 
#    y 0.000000 1.865710 0.000000 
#    z -0.007410 0.000000 1.895340 
# 
# From -- ./inp_files/15910.got.cif
#   From: 2010.03.12/outbox.cif.g09.slc.cpg/sg3_8_cif.got.tgz:15910.got - 2010.03.31 09:20:49.
