data_PCOD8045354
_publ_section_title
;
Structure prediction by ZEFSAII (Michael W. Deem and Ramdas Pophale) SiO2 
 PCOD8045354
Probable space group: P 2
;
_chemical_formula_sum "Si O2"
_cell_formula_units_Z 9
_cell_length_a 13.092119
_cell_length_b 5.229953
_cell_length_c 6.587048
_cell_angle_alpha 90.000000
_cell_angle_beta 109.930235
_cell_angle_gamma 90.000000
_cell_volume 424.010373
_symmetry_space_group_name_H-M "P 2"
_symmetry_group_IT_number 3
_symmetry_cell_setting 'monoclinic'
loop_
_space_group_symop_operation_xyz
x,y,z
-x,y,-z
loop_
_atom_site_type_symbol
_atom_site_label
_atom_site_fract_x
_atom_site_fract_y
_atom_site_fract_z
Si Si1 0.093910 0.262680 0.213174
Si Si2 0.268723 0.224183 0.014348
Si Si3 0.815724 0.546274 0.375230
Si Si4 0.624391 0.715370 0.029482
Si Si5 0.000000 0.908117 0.500000
O O1 0.147363 0.499938 0.369245
O O2 0.047517 0.067477 0.345590
O O3 0.192129 0.144137 0.149072
O O4 0.000000 0.364189 0.000000
O O5 0.191991 0.281127 0.762981
O O6 0.338480 0.486413 0.099205
O O7 0.353846 0.994381 0.047105
O O8 0.906334 0.730300 0.336471
O O9 0.697935 0.685441 0.284232
O O10 0.500000 0.684074 0.000000
#
# Coordination Sequence:
#
# PCOD8045354 Si02
#       5
#     2   2   2   2   1
#     4  12  24  40  65 103 137 182 220 274 335 406
#     4  10  24  44  70 100 133 177 226 273 334 401
#     4  10  24  42  66 100 135 181 219 279 330 401
#     4  10  22  46  75  96 134 180 224 279 338 391
#     4  12  24  40  66 100 144 178 222 274 340 396
#
# _framework density 21.225894
#
# number of rings (size 3 to 8) (size 9 to 14) (size 15 to 20)
#    1.333    0.000    0.000    6.667    3.111    0.889 
#    0.000    1.111    0.000    0.000    0.000    0.000 
#    0.000    0.000    0.000    0.000    0.000    0.000 
#
# Total GULP energy -111499.531009 kJ/mol
# GULP energy per Si atom -12388.836779 kJ/mol
# Density = 2.117758 g / cm^3
# Si number density = 21.225894 Si / 1000 Ang^3
#
#
#
# Elastic Constant Matrix: (Units=GPa)
#
#
# Indices 1 2 3 4 5 6 
#
# 1 182.7017 53.6910 68.0839 0.0000 6.7802 0.0000
# 2 53.6910 121.2676 35.8692 0.0000 -0.6595 0.0000
# 3 68.0839 35.8692 83.8821 0.0000 -6.4034 0.0000
# 4 0.0000 0.0000 0.0000 12.5199 0.0000 -0.6952
# 5 6.7802 -0.6595 -6.4034 0.0000 33.0104 0.0000
# 6 0.0000 0.0000 0.0000 -0.6952 0.0000 38.8734
#
#
#
# Elastic Compliance Matrix: (Units=1/GPa)
#
#
# Indices 1 2 3 4 5 6 
#
# 1 0.008498 -0.001913 -0.006309 0.000000 -0.003008 0.000000
# 2 -0.001913 0.009883 -0.002668 0.000000 0.000073 0.000000
# 3 -0.006309 -0.002668 0.018553 0.000000 0.004842 0.000000
# 4 0.000000 0.000000 0.000000 0.079952 0.000000 0.001430
# 5 -0.003008 0.000073 0.004842 0.000000 0.031852 0.000000
# 6 0.000000 0.000000 0.000000 0.001430 0.000000 0.025750
#
#
# Mechanical properties :
#
#
# Convention : Reuss Voigt Hill
#
# Bulk Modulus (GPa) = 65.98994 78.12663 72.05829
# Shear Modulus (GPa) = 24.83616 32.22791 28.53203
#
# Velocity S-wave (km/s) = 3.42437 3.90080 3.67032
# Velocity P-wave (km/s) = 6.84046 7.56145 7.20997
#
# Compressibility (1/GPa) = 0.01515382
#
# Stress axis : x y z
#
# Youngs Moduli (GPa) = 117.66996 101.18787 53.89942
#
# Poissons Ratio (x) = 0.19355 0.34008
# Poissons Ratio (y) = 0.22507 0.14380
# Poissons Ratio (z) = 0.74243 0.26996
#
# Static dielectric constant tensor:
#      x y z
#    x 3.736550 0.000000 0.098500 
#    y 0.000000 3.814280 0.000000 
#    z 0.098500 0.000000 3.774510 
# 
# 
# High freq. dielectric constant tensor:
#      x y z
#    x 1.833490 0.000000 0.008420 
#    y 0.000000 1.837790 0.000000 
#    z 0.008420 0.000000 1.803080 
# 
# From -- ./inp_files/1837.got.cif
#   From: 2010.03.12/outbox.cif.g09.slc.cpg/sg3_1_cif.got.tgz:1837.got - 2010.03.31 09:20:49.
