data_PCOD8045395
_publ_section_title
;
Structure prediction by ZEFSAII (Michael W. Deem and Ramdas Pophale) SiO2 
 PCOD8045395
Probable space group: P 2
;
_chemical_formula_sum "Si O2"
_cell_formula_units_Z 12
_cell_length_a 19.261547
_cell_length_b 6.935869
_cell_length_c 8.416876
_cell_angle_alpha 90.000000
_cell_angle_beta 150.922251
_cell_angle_gamma 90.000000
_cell_volume 546.481772
_symmetry_space_group_name_H-M "P 2"
_symmetry_group_IT_number 3
_symmetry_cell_setting 'monoclinic'
loop_
_space_group_symop_operation_xyz
x,y,z
-x,y,-z
loop_
_atom_site_type_symbol
_atom_site_label
_atom_site_fract_x
_atom_site_fract_y
_atom_site_fract_z
Si Si1 0.855437 0.654140 0.117958
Si Si2 0.516058 0.123009 0.713439
Si Si3 0.016046 0.348723 0.850765
Si Si4 0.644568 0.817612 0.196215
Si Si5 0.276902 0.466740 0.856194
Si Si6 0.776907 0.004998 0.751426
O O1 0.883374 0.504518 0.032525
O O2 0.737914 0.565242 0.001243
O O3 0.000000 0.705243 0.500000
O O4 0.790424 0.848054 0.916596
O O5 0.500000 0.058867 0.500000
O O6 0.362818 0.133797 0.492939
O O7 0.583687 0.334436 0.863039
O O8 0.616654 0.967230 0.999071
O O9 0.862805 0.337915 0.458313
O O10 0.000000 0.412857 0.000000
O O11 0.083687 0.137308 0.971698
O O12 0.709568 0.623680 0.254887
O O13 0.762097 0.906501 0.549603
O O14 0.500000 0.766538 0.000000
#
# Coordination Sequence:
#
# PCOD8045395 Si02
#       6
#     2   2   2   2   2   2
#     4  10  24  42  65  97 132 172 217 266 321 383
#     4  11  24  41  66  95 127 169 217 268 325 382
#     4  11  24  41  66  95 127 169 217 268 325 382
#     4  10  24  42  65  97 132 172 217 266 321 383
#     4  11  24  43  67  96 131 171 216 268 323 383
#     4  11  24  43  67  96 131 171 216 268 323 383
#
# _framework density 21.958644
#
# number of rings (size 3 to 8) (size 9 to 14) (size 15 to 20)
#    0.000    1.333    0.000    4.000    0.000   18.667 
#    0.000    0.000    0.000    0.000    0.000    0.000 
#    0.000    0.000    0.000    0.000    0.000    0.000 
#
# Total GULP energy -148896.440909 kJ/mol
# GULP energy per Si atom -12408.036742 kJ/mol
# Density = 2.190867 g / cm^3
# Si number density = 21.958644 Si / 1000 Ang^3
#
#
#
# Elastic Constant Matrix: (Units=GPa)
#
#
# Indices 1 2 3 4 5 6 
#
# 1 140.2337 81.2290 53.7502 0.0000 -14.1801 0.0000
# 2 81.2290 141.6534 84.3505 0.0000 2.7984 0.0000
# 3 53.7502 84.3505 110.4226 0.0000 -12.7499 0.0000
# 4 0.0000 0.0000 0.0000 34.4205 0.0000 -0.9495
# 5 -14.1801 2.7984 -12.7499 0.0000 36.6923 0.0000
# 6 0.0000 0.0000 0.0000 -0.9495 0.0000 35.4447
#
#
#
# Elastic Compliance Matrix: (Units=1/GPa)
#
#
# Indices 1 2 3 4 5 6 
#
# 1 0.011515 -0.006807 0.000175 0.000000 0.005030 0.000000
# 2 -0.006807 0.017769 -0.011168 0.000000 -0.007867 0.000000
# 3 0.000175 -0.011168 0.018344 0.000000 0.007294 0.000000
# 4 0.000000 0.000000 0.000000 0.029074 0.000000 0.000779
# 5 0.005030 -0.007867 0.007294 0.000000 0.032332 0.000000
# 6 0.000000 0.000000 0.000000 0.000779 0.000000 0.028234
#
#
# Mechanical properties :
#
#
# Convention : Reuss Voigt Hill
#
# Bulk Modulus (GPa) = 83.13613 92.32991 87.73302
# Shear Modulus (GPa) = 28.26827 32.84349 30.55588
#
# Velocity S-wave (km/s) = 3.59185 3.87162 3.73435
# Velocity P-wave (km/s) = 7.42592 7.88190 7.65731
#
# Compressibility (1/GPa) = 0.01202846
#
# Stress axis : x y z
#
# Youngs Moduli (GPa) = 86.84067 56.27919 54.51371
#
# Poissons Ratio (x) = 0.38310 -0.00956
# Poissons Ratio (y) = 0.59114 0.60881
# Poissons Ratio (z) = -0.01523 0.62853
#
# Static dielectric constant tensor:
#      x y z
#    x 4.106610 0.000000 -0.111650 
#    y 0.000000 3.757910 0.000000 
#    z -0.111650 0.000000 3.982720 
# 
# 
# High freq. dielectric constant tensor:
#      x y z
#    x 1.877910 0.000000 -0.007300 
#    y 0.000000 1.861180 0.000000 
#    z -0.007300 0.000000 1.869820 
# 
# From -- ./inp_files/8135.got.cif
#   From: 2010.03.12/outbox.cif.g09.slc.cpg/sg3_5_cif.got.tgz:8135.got - 2010.03.31 09:20:49.
