data_PCOD8045440
_publ_section_title
;
Structure prediction by ZEFSAII (Michael W. Deem and Ramdas Pophale) SiO2 
 PCOD8045440
Probable space group: P 2
;
_chemical_formula_sum "Si O2"
_cell_formula_units_Z 13
_cell_length_a 14.248872
_cell_length_b 6.339748
_cell_length_c 14.248974
_cell_angle_alpha 90.000000
_cell_angle_beta 151.490611
_cell_angle_gamma 90.000000
_cell_volume 614.370034
_symmetry_space_group_name_H-M "P 2"
_symmetry_group_IT_number 3
_symmetry_cell_setting 'monoclinic'
loop_
_space_group_symop_operation_xyz
x,y,z
-x,y,-z
loop_
_atom_site_type_symbol
_atom_site_label
_atom_site_fract_x
_atom_site_fract_y
_atom_site_fract_z
Si Si1 0.544944 0.920360 0.139796
Si Si2 0.000000 0.755415 0.000000
Si Si3 0.851072 0.755406 0.148900
Si Si4 0.060520 0.071069 0.209504
Si Si5 0.373387 0.255414 0.626620
Si Si6 0.209489 0.439746 0.060505
Si Si7 0.860228 0.590455 0.455082
O O1 0.720406 0.755424 0.279649
O O2 0.571020 0.083278 0.247021
O O3 0.500000 0.036607 0.000000
O O4 0.367548 0.766811 0.006750
O O5 0.821504 0.614768 0.885492
O O6 0.885481 0.896053 0.821496
O O7 0.006649 0.743984 0.367482
O O8 0.861196 0.540872 0.098780
O O9 0.901220 0.969936 0.138803
O O10 0.252755 0.150292 0.434799
O O11 0.945398 0.255416 0.054643
O O12 0.565221 0.360494 0.747254
O O13 0.247028 0.427609 0.570997
O O14 0.000000 0.474173 0.500000
#
# Coordination Sequence:
#
# PCOD8045440 Si02
#       7
#     2   1   2   2   2   2   2
#     4  12  25  41  67 104 142 185 236 282 329 395
#     4  10  26  48  74  98 136 178 222 288 362 408
#     4  11  22  41  70  94 136 184 224 279 340 397
#     4  11  23  45  73 100 135 175 228 286 346 417
#     4  12  26  42  75 104 138 184 230 281 348 404
#     4  11  23  45  73 100 135 175 228 286 346 417
#     4  12  25  41  67 104 142 185 236 282 329 395
#
# _framework density 21.159887000000001
#
# number of rings (size 3 to 8) (size 9 to 14) (size 15 to 20)
#    0.000    0.615    7.692    0.462    0.000    3.692 
#    0.000    4.615    0.000    0.000    0.000    0.000 
#    0.000    0.000    0.000    0.000    0.000    0.000 
#
# Total GULP energy -161142.269388 kJ/mol
# GULP energy per Si atom -12395.559184 kJ/mol
# Density = 2.111173 g / cm^3
# Si number density = 21.159887 Si / 1000 Ang^3
#
#
#
# Elastic Constant Matrix: (Units=GPa)
#
#
# Indices 1 2 3 4 5 6 
#
# 1 131.8133 59.2879 71.3385 0.0000 -0.5379 0.0000
# 2 59.2879 111.2813 62.2343 0.0000 0.8463 0.0000
# 3 71.3385 62.2343 141.1304 0.0000 3.2113 0.0000
# 4 0.0000 0.0000 0.0000 42.5043 0.0000 -3.8812
# 5 -0.5379 0.8463 3.2113 0.0000 30.4033 0.0000
# 6 0.0000 0.0000 0.0000 -3.8812 0.0000 56.0001
#
#
#
# Elastic Compliance Matrix: (Units=1/GPa)
#
#
# Indices 1 2 3 4 5 6 
#
# 1 0.011576 -0.003837 -0.004176 0.000000 0.000753 0.000000
# 2 -0.003837 0.013201 -0.003881 0.000000 -0.000025 0.000000
# 3 -0.004176 -0.003881 0.010934 0.000000 -0.001121 0.000000
# 4 0.000000 0.000000 0.000000 0.023677 0.000000 0.001641
# 5 0.000753 -0.000025 -0.001121 0.000000 0.033024 0.000000
# 6 0.000000 0.000000 0.000000 0.001641 0.000000 0.017971
#
#
# Mechanical properties :
#
#
# Convention : Reuss Voigt Hill
#
# Bulk Modulus (GPa) = 83.88396 85.54959 84.71677
# Shear Modulus (GPa) = 36.19371 38.53916 37.36643
#
# Velocity S-wave (km/s) = 4.14029 4.27234 4.20683
# Velocity P-wave (km/s) = 7.91107 8.05326 7.98248
#
# Compressibility (1/GPa) = 0.01192123
#
# Stress axis : x y z
#
# Youngs Moduli (GPa) = 86.38701 75.74927 91.46100
#
# Poissons Ratio (x) = 0.29068 0.38197
# Poissons Ratio (y) = 0.33150 0.35497
# Poissons Ratio (z) = 0.36077 0.29399
#
# Static dielectric constant tensor:
#      x y z
#    x 3.944330 0.000000 -0.068170 
#    y 0.000000 3.917260 0.000000 
#    z -0.068170 0.000000 3.708400 
# 
# 
# High freq. dielectric constant tensor:
#      x y z
#    x 1.840170 0.000000 -0.002580 
#    y 0.000000 1.832570 0.000000 
#    z -0.002580 0.000000 1.831230 
# 
# From -- ./inp_files/13857.got.cif
#   From: 2010.03.12/outbox.cif.g09.slc.cpg/sg3_7_cif.got.tgz:13857.got - 2010.03.31 09:20:49.
