data_PCOD8045421
_publ_section_title
;
Structure prediction by ZEFSAII (Michael W. Deem and Ramdas Pophale) SiO2 
 PCOD8045421
Probable space group: P 2
;
_chemical_formula_sum "Si O2"
_cell_formula_units_Z 16
_cell_length_a 8.998490
_cell_length_b 7.157735
_cell_length_c 19.904246
_cell_angle_alpha 90.000000
_cell_angle_beta 143.260631
_cell_angle_gamma 90.000000
_cell_volume 766.866756
_symmetry_space_group_name_H-M "P 2"
_symmetry_group_IT_number 3
_symmetry_cell_setting 'monoclinic'
loop_
_space_group_symop_operation_xyz
x,y,z
-x,y,-z
loop_
_atom_site_type_symbol
_atom_site_label
_atom_site_fract_x
_atom_site_fract_y
_atom_site_fract_z
Si Si1 0.222598 0.720120 0.038212
Si Si2 0.464005 0.493649 0.622001
Si Si3 0.350482 0.914673 0.881573
Si Si4 0.871313 0.289586 0.242257
Si Si5 0.373509 0.535220 0.741322
Si Si6 0.698188 0.156818 0.522319
Si Si7 0.036464 0.585496 0.829901
Si Si8 0.066044 0.786033 0.447176
O O1 0.437692 0.861529 0.095124
O O2 0.345387 0.588332 0.138775
O O3 0.127944 0.601499 0.939755
O O4 0.000000 0.819373 0.000000
O O5 0.364673 0.466898 0.661708
O O6 0.442062 0.285464 0.583558
O O7 0.292301 0.640820 0.520083
O O8 0.738539 0.582320 0.718930
O O9 0.155985 0.751578 0.829413
O O10 0.185808 0.075362 0.791262
O O11 0.500000 0.987506 0.000000
O O12 0.679772 0.368410 0.226889
O O13 0.862024 0.396855 0.167667
O O14 0.140141 0.300084 0.374431
O O15 0.173149 0.704387 0.679670
O O16 0.500000 0.061001 0.500000
O O17 0.863855 0.992398 0.551916
O O18 0.000000 0.811457 0.500000
#
# Coordination Sequence:
#
# PCOD8045421 Si02
#       8
#     2   2   2   2   2   2   2   2
#     4  11  22  45  71  96 128 178 224 271 334 392
#     4  11  24  45  64 102 135 170 222 273 323 393
#     4  10  25  43  67  98 133 175 219 275 332 395
#     4  12  25  41  68  97 134 175 223 266 337 394
#     4  11  23  44  71  94 131 178 223 273 330 394
#     4  12  26  40  64 100 134 174 219 271 326 398
#     4  11  24  43  69  97 139 171 216 277 329 393
#     4  10  25  43  67  94 133 176 217 271 328 389
#
# _framework density 20.86412
#
# number of rings (size 3 to 8) (size 9 to 14) (size 15 to 20)
#    0.000    1.000    5.000    0.750    5.250    0.500 
#    0.000    3.125    0.000    0.000    0.000    0.000 
#    0.000    0.000    0.000    0.000    0.000    0.000 
#
# Total GULP energy -198342.731978 kJ/mol
# GULP energy per Si atom -12396.420749 kJ/mol
# Density = 2.081663 g / cm^3
# Si number density = 20.864120 Si / 1000 Ang^3
#
#
#
# Elastic Constant Matrix: (Units=GPa)
#
#
# Indices 1 2 3 4 5 6 
#
# 1 123.0102 44.3908 41.3337 0.0000 10.5502 0.0000
# 2 44.3908 101.6225 41.5632 0.0000 0.3731 0.0000
# 3 41.3337 41.5632 110.5115 0.0000 6.1528 0.0000
# 4 0.0000 0.0000 0.0000 27.2271 0.0000 1.2039
# 5 10.5502 0.3731 6.1528 0.0000 36.1985 0.0000
# 6 0.0000 0.0000 0.0000 1.2039 0.0000 16.3091
#
#
#
# Elastic Compliance Matrix: (Units=1/GPa)
#
#
# Indices 1 2 3 4 5 6 
#
# 1 0.010453 -0.003565 -0.002424 0.000000 -0.002598 0.000000
# 2 -0.003565 0.012859 -0.003587 0.000000 0.001516 0.000000
# 3 -0.002424 -0.003587 0.011371 0.000000 -0.001189 0.000000
# 4 0.000000 0.000000 0.000000 0.036848 0.000000 -0.002720
# 5 -0.002598 0.001516 -0.001189 0.000000 0.028569 0.000000
# 6 0.000000 0.000000 0.000000 -0.002720 0.000000 0.061516
#
#
# Mechanical properties :
#
#
# Convention : Reuss Voigt Hill
#
# Bulk Modulus (GPa) = 64.39128 65.52440 64.95784
# Shear Modulus (GPa) = 26.88926 29.80404 28.34665
#
# Velocity S-wave (km/s) = 3.59385 3.78363 3.68996
# Velocity P-wave (km/s) = 6.93904 7.11064 7.02537
#
# Compressibility (1/GPa) = 0.01553005
#
# Stress axis : x y z
#
# Youngs Moduli (GPa) = 95.66258 77.76451 87.94319
#
# Poissons Ratio (x) = 0.27725 0.21320
# Poissons Ratio (y) = 0.34106 0.31548
# Poissons Ratio (z) = 0.23191 0.27897
#
# Static dielectric constant tensor:
#      x y z
#    x 3.936710 0.000000 0.048320 
#    y 0.000000 3.461560 0.000000 
#    z 0.048320 0.000000 4.036710 
# 
# 
# High freq. dielectric constant tensor:
#      x y z
#    x 1.832060 0.000000 -0.000920 
#    y 0.000000 1.794520 0.000000 
#    z -0.000920 0.000000 1.835830 
# 
# From -- ./inp_files/15757.got.cif
#   From: 2010.03.12/outbox.cif.g09.slc.cpg/sg3_8_cif.got.tgz:15757.got - 2010.03.31 09:20:49.
