data_PCOD8045814
_publ_section_title
;
Structure prediction by ZEFSAII (Michael W. Deem and Ramdas Pophale) SiO2 
 PCOD8045814
Probable space group: P 21
;
_chemical_formula_sum "Si O2"
_cell_formula_units_Z 16
_cell_length_a 18.939864
_cell_length_b 8.659340
_cell_length_c 6.167530
_cell_angle_alpha 90.000000
_cell_angle_beta 46.798395
_cell_angle_gamma 90.000000
_cell_volume 737.344308
_symmetry_space_group_name_H-M "P 21"
_symmetry_group_IT_number 4
_symmetry_cell_setting 'monoclinic'
loop_
_space_group_symop_operation_xyz
x,y,z
-x,1/2+y,-z
loop_
_atom_site_type_symbol
_atom_site_label
_atom_site_fract_x
_atom_site_fract_y
_atom_site_fract_z
Si Si1 0.229651 0.005480 0.168114
Si Si2 0.604287 0.119559 0.204923
Si Si3 0.061308 0.208355 0.596664
Si Si4 0.078829 0.511241 0.838609
Si Si5 0.230901 0.578496 0.831358
Si Si6 0.090817 0.727420 0.424465
Si Si7 0.682970 0.309744 0.657976
Si Si8 0.586242 0.431162 0.479732
O O1 0.174582 0.168899 0.315811
O O2 0.149889 0.883360 0.258079
O O3 0.267357 0.949905 0.321896
O O4 0.318209 0.021863 0.810918
O O5 0.672673 0.026463 0.236159
O O6 0.569595 0.279160 0.376445
O O7 0.510208 0.026445 0.345859
O O8 0.658977 0.165058 0.866496
O O9 0.049685 0.359373 0.769848
O O10 0.015127 0.246915 0.458921
O O11 0.008125 0.058086 0.814296
O O12 0.181360 0.472651 0.747866
O O13 0.087997 0.667772 0.676293
O O14 0.251319 0.744277 0.675686
O O15 0.147330 0.592360 0.182727
O O16 0.592656 0.389195 0.722049
#
# Coordination Sequence:
#
# PCOD8045814 Si02
#       8
#     2   2   2   2   2   2   2   2
#     4  11  21  42  63  95 127 170 213 262 328 376
#     4  10  21  42  66  96 124 170 211 261 326 389
#     4  11  26  38  65  95 133 168 219 267 317 385
#     4  11  23  41  62  99 125 176 217 263 322 384
#     4  10  19  39  67  89 127 165 213 258 320 382
#     4  11  20  40  67  89 125 176 215 263 317 385
#     4  10  19  38  68  90 126 168 207 261 321 387
#     4  10  23  42  68  93 129 167 213 267 325 384
#
# _framework density 21.699494999999999
#
# number of rings (size 3 to 8) (size 9 to 14) (size 15 to 20)
#    0.000    1.500    5.000    1.500    1.750    6.000 
#    6.750    0.000    0.000    0.000    0.000    0.000 
#    0.000    0.000    0.000    0.000    0.000    0.000 
#
# Total GULP energy -198214.874954 kJ/mol
# GULP energy per Si atom -12388.429685 kJ/mol
# Density = 2.165011 g / cm^3
# Si number density = 21.699495 Si / 1000 Ang^3
#
#
#
# Elastic Constant Matrix: (Units=GPa)
#
#
# Indices 1 2 3 4 5 6 
#
# 1 162.2487 31.2494 57.4791 0.0000 -3.1975 0.0000
# 2 31.2494 38.4860 1.7748 0.0000 -6.0853 0.0000
# 3 57.4791 1.7748 47.4508 0.0000 6.6796 0.0000
# 4 0.0000 0.0000 0.0000 24.2994 0.0000 -11.6770
# 5 -3.1975 -6.0853 6.6796 0.0000 29.4337 0.0000
# 6 0.0000 0.0000 0.0000 -11.6770 0.0000 41.8192
#
#
#
# Elastic Compliance Matrix: (Units=1/GPa)
#
#
# Indices 1 2 3 4 5 6 
#
# 1 0.014483 -0.010405 -0.017637 0.000000 0.003425 0.000000
# 2 -0.010405 0.034494 0.010814 0.000000 0.003547 0.000000
# 3 -0.017637 0.010814 0.043375 0.000000 -0.009523 0.000000
# 4 0.000000 0.000000 0.000000 0.047531 0.000000 0.013272
# 5 0.003425 0.003547 -0.009523 0.000000 0.037241 0.000000
# 6 0.000000 0.000000 0.000000 0.013272 0.000000 0.027618
#
#
# Mechanical properties :
#
#
# Convention : Reuss Voigt Hill
#
# Bulk Modulus (GPa) = 17.27201 47.68800 32.48000
# Shear Modulus (GPa) = 19.34269 29.62261 24.48265
#
# Velocity S-wave (km/s) = 2.98885 3.69877 3.36260
# Velocity P-wave (km/s) = 4.45959 6.34551 5.48422
#
# Compressibility (1/GPa) = 0.05789715
#
# Stress axis : x y z
#
# Youngs Moduli (GPa) = 69.04687 28.99052 23.05496
#
# Poissons Ratio (x) = 0.30164 0.40661
# Poissons Ratio (y) = 0.71842 -0.24932
# Poissons Ratio (z) = 1.21776 -0.31351
#
# Static dielectric constant tensor:
#      x y z
#    x 4.290380 0.000000 0.225290 
#    y 0.000000 3.543810 0.000000 
#    z 0.225290 0.000000 4.035240 
# 
# 
# High freq. dielectric constant tensor:
#      x y z
#    x 1.873730 0.000000 0.012080 
#    y 0.000000 1.814790 0.000000 
#    z 0.012080 0.000000 1.847920 
# 
# From -- ./inp_files/3423.got.cif
#   From: 2010.03.12/outbox.cif.g09.slc.cpg/sg4_2_cif.got.tgz:3423.got - 2010.03.31 09:31:35.
