data_PCOD8045329
_publ_section_title
;
Structure prediction by ZEFSAII (Michael W. Deem and Ramdas Pophale) SiO2 
 PCOD8045329
Probable space group: P 2
;
_chemical_formula_sum "Si O2"
_cell_formula_units_Z 13
_cell_length_a 7.360061
_cell_length_b 6.675349
_cell_length_c 18.912535
_cell_angle_alpha 90.000000
_cell_angle_beta 39.865718
_cell_angle_gamma 90.000000
_cell_volume 595.602792
_symmetry_space_group_name_H-M "P 2"
_symmetry_group_IT_number 3
_symmetry_cell_setting 'monoclinic'
loop_
_space_group_symop_operation_xyz
x,y,z
-x,y,-z
loop_
_atom_site_type_symbol
_atom_site_label
_atom_site_fract_x
_atom_site_fract_y
_atom_site_fract_z
Si Si1 0.403429 0.707600 0.912745
Si Si2 0.151132 0.121576 0.526507
Si Si3 0.247783 0.376279 0.120729
Si Si4 0.169256 0.026030 0.245536
Si Si5 0.500000 0.457897 0.500000
Si Si6 0.146390 0.620755 0.848837
Si Si7 0.638975 0.797188 0.351134
O O1 0.643313 0.589989 0.883774
O O2 0.524821 0.922922 0.853591
O O3 0.325090 0.575204 0.866384
O O4 0.129369 0.749157 0.043793
O O5 0.277307 0.317090 0.526272
O O6 0.000000 0.189877 0.500000
O O7 0.380084 0.945403 0.446267
O O8 0.904378 0.036001 0.649898
O O9 0.972355 0.417950 0.153309
O O10 0.166218 0.244224 0.211793
O O11 0.500000 0.272179 0.000000
O O12 0.933361 0.903413 0.275276
O O13 0.640050 0.598059 0.398838
O O14 0.356923 0.737148 0.732635
#
# Coordination Sequence:
#
# PCOD8045329 Si02
#       7
#     2   2   2   2   1   2   2
#     4  10  23  43  65  98 133 171 215 267 318 390
#     4  12  27  45  68  99 130 172 224 269 326 387
#     4  10  23  40  66  96 131 171 214 267 325 383
#     4  12  23  43  68  97 131 171 219 267 324 389
#     4  12  24  48  64  98 128 174 216 276 326 384
#     4  10  22  44  66  95 135 172 216 264 325 382
#     4  12  24  44  70  93 134 174 214 271 329 384
#
# _framework density 21.826626000000001
#
# number of rings (size 3 to 8) (size 9 to 14) (size 15 to 20)
#    0.000    0.923    4.615    1.846    2.154    1.846 
#    2.769    1.538    0.000    0.000    0.000    0.000 
#    0.000    0.000    0.000    0.000    0.000    0.000 
#
# Total GULP energy -161172.489073 kJ/mol
# GULP energy per Si atom -12397.883775 kJ/mol
# Density = 2.177695 g / cm^3
# Si number density = 21.826626 Si / 1000 Ang^3
#
#
#
# Elastic Constant Matrix: (Units=GPa)
#
#
# Indices 1 2 3 4 5 6 
#
# 1 114.2335 32.3290 26.1368 0.0000 17.2014 0.0000
# 2 32.3290 90.0624 48.2077 0.0000 0.3644 0.0000
# 3 26.1368 48.2077 144.8321 0.0000 19.3946 0.0000
# 4 0.0000 0.0000 0.0000 35.6834 0.0000 3.0822
# 5 17.2014 0.3644 19.3946 0.0000 33.3894 0.0000
# 6 0.0000 0.0000 0.0000 3.0822 0.0000 18.6779
#
#
#
# Elastic Compliance Matrix: (Units=1/GPa)
#
#
# Indices 1 2 3 4 5 6 
#
# 1 0.010651 -0.003853 0.000097 0.000000 -0.005501 0.000000
# 2 -0.003853 0.015128 -0.004970 0.000000 0.004707 0.000000
# 3 0.000097 -0.004970 0.009261 0.000000 -0.005375 0.000000
# 4 0.000000 0.000000 0.000000 0.028429 0.000000 -0.004691
# 5 -0.005501 0.004707 -0.005375 0.000000 0.035855 0.000000
# 6 0.000000 0.000000 0.000000 -0.004691 0.000000 0.054313
#
#
# Mechanical properties :
#
#
# Convention : Reuss Voigt Hill
#
# Bulk Modulus (GPa) = 56.85886 62.49722 59.67804
# Shear Modulus (GPa) = 28.25625 33.71377 30.98501
#
# Velocity S-wave (km/s) = 3.60193 3.93442 3.77184
# Velocity P-wave (km/s) = 6.58827 7.02390 6.80957
#
# Compressibility (1/GPa) = 0.01758741
#
# Stress axis : x y z
#
# Youngs Moduli (GPa) = 93.89174 66.10309 107.97703
#
# Poissons Ratio (x) = 0.25469 -0.01048
# Poissons Ratio (y) = 0.36175 0.53668
# Poissons Ratio (z) = -0.00912 0.32856
#
# Static dielectric constant tensor:
#      x y z
#    x 4.012840 0.000000 0.148680 
#    y 0.000000 3.758410 0.000000 
#    z 0.148680 0.000000 4.288850 
# 
# 
# High freq. dielectric constant tensor:
#      x y z
#    x 1.858660 0.000000 0.013130 
#    y 0.000000 1.835110 0.000000 
#    z 0.013130 0.000000 1.882520 
# 
# From -- ./inp_files/15656.got.cif
#   From: 2010.03.12/outbox.cif.g09.slc.cpg/sg3_8_cif.got.tgz:15656.got - 2010.03.31 09:20:49.
