data_PCOD8045667
_publ_section_title
;
Structure prediction by ZEFSAII (Michael W. Deem and Ramdas Pophale) SiO2 
 PCOD8045667
Probable space group: P 21
;
_chemical_formula_sum "Si O2"
_cell_formula_units_Z 16
_cell_length_a 22.179059
_cell_length_b 6.418246
_cell_length_c 9.065243
_cell_angle_alpha 90.000000
_cell_angle_beta 35.473974
_cell_angle_gamma 90.000000
_cell_volume 748.886948
_symmetry_space_group_name_H-M "P 21"
_symmetry_group_IT_number 4
_symmetry_cell_setting 'monoclinic'
loop_
_space_group_symop_operation_xyz
x,y,z
-x,1/2+y,-z
loop_
_atom_site_type_symbol
_atom_site_label
_atom_site_fract_x
_atom_site_fract_y
_atom_site_fract_z
Si Si1 0.881185 0.773820 0.535821
Si Si2 0.050277 0.877791 0.738012
Si Si3 0.608517 0.167327 0.160772
Si Si4 0.934833 0.502242 0.971156
Si Si5 0.615620 0.495664 0.390673
Si Si6 0.248932 0.380453 0.935055
Si Si7 0.743211 0.209946 0.320607
Si Si8 0.241816 0.580739 0.390530
O O1 0.901948 0.526483 0.482687
O O2 0.992183 0.872260 0.281718
O O3 0.789123 0.848221 0.605561
O O4 0.849567 0.833578 0.764678
O O5 0.134017 0.700129 0.598091
O O6 0.944635 0.748321 0.903185
O O7 0.027522 0.005988 0.932465
O O8 0.611188 0.390631 0.237294
O O9 0.491472 0.105378 0.354242
O O10 0.657602 0.985037 0.160622
O O11 0.671299 0.189716 0.883438
O O12 0.821524 0.403425 0.185633
O O13 0.708302 0.663242 0.212801
O O14 0.638412 0.314424 0.465292
O O15 0.211366 0.537820 0.882115
O O16 0.716750 0.088243 0.524541
#
# Coordination Sequence:
#
# PCOD8045667 Si02
#       8
#     2   2   2   2   2   2   2   2
#     4  10  20  37  65  90 115 165 214 247 297 369
#     4  10  18  34  63  95 116 161 213 254 300 357
#     4  10  20  40  67  88 117 160 219 250 312 377
#     4  10  20  36  60  90 129 160 204 257 304 369
#     4  11  21  40  64  89 119 166 201 266 312 374
#     4  10  22  41  63  90 122 162 209 258 309 376
#     4  10  24  41  59  93 132 161 198 262 328 359
#     4   9  21  39  61  93 122 157 206 260 298 377
#
# _framework density 21.365041000000002
#
# number of rings (size 3 to 8) (size 9 to 14) (size 15 to 20)
#    0.000    2.000    2.500    0.750    0.000    4.000 
#    4.500    0.000    0.000    0.000    0.000    0.000 
#    0.000    0.000    0.000    0.000    0.000    0.000 
#
# Total GULP energy -198336.273522 kJ/mol
# GULP energy per Si atom -12396.017095 kJ/mol
# Density = 2.131641 g / cm^3
# Si number density = 21.365041 Si / 1000 Ang^3
#
#
#
# Elastic Constant Matrix: (Units=GPa)
#
#
# Indices 1 2 3 4 5 6 
#
# 1 67.8318 33.4008 25.5926 0.0000 22.6654 0.0000
# 2 33.4008 108.4715 23.2512 0.0000 9.8481 0.0000
# 3 25.5926 23.2512 97.9791 0.0000 14.4864 0.0000
# 4 0.0000 0.0000 0.0000 35.4345 0.0000 -2.4913
# 5 22.6654 9.8481 14.4864 0.0000 28.3858 0.0000
# 6 0.0000 0.0000 0.0000 -2.4913 0.0000 27.9976
#
#
#
# Elastic Compliance Matrix: (Units=1/GPa)
#
#
# Indices 1 2 3 4 5 6 
#
# 1 0.023544 -0.005275 -0.002584 0.000000 -0.015651 0.000000
# 2 -0.005275 0.011045 -0.001405 0.000000 0.001097 0.000000
# 3 -0.002584 -0.001405 0.011722 0.000000 -0.003431 0.000000
# 4 0.000000 0.000000 0.000000 0.028399 0.000000 0.002527
# 5 -0.015651 0.001097 -0.003431 0.000000 0.049096 0.000000
# 6 0.000000 0.000000 0.000000 0.002527 0.000000 0.035942
#
#
# Mechanical properties :
#
#
# Convention : Reuss Voigt Hill
#
# Bulk Modulus (GPa) = 35.99420 48.75239 42.37330
# Shear Modulus (GPa) = 26.66126 31.16610 28.91368
#
# Velocity S-wave (km/s) = 3.53638 3.82349 3.68274
# Velocity P-wave (km/s) = 5.79297 6.50849 6.16113
#
# Compressibility (1/GPa) = 0.02778225
#
# Stress axis : x y z
#
# Youngs Moduli (GPa) = 42.47315 90.53927 85.30906
#
# Poissons Ratio (x) = 0.47759 0.22045
# Poissons Ratio (y) = 0.22405 0.11990
# Poissons Ratio (z) = 0.10975 0.12725
#
# Static dielectric constant tensor:
#      x y z
#    x 3.695810 0.000000 0.154200 
#    y 0.000000 4.107440 0.000000 
#    z 0.154200 0.000000 3.780050 
# 
# 
# High freq. dielectric constant tensor:
#      x y z
#    x 1.814890 0.000000 0.004590 
#    y 0.000000 1.847410 0.000000 
#    z 0.004590 0.000000 1.833890 
# 
# From -- ./inp_files/9840.got.cif
#   From: 2010.03.12/outbox.cif.g09.slc.cpg/sg4_5_cif.got.tgz:9840.got - 2010.03.31 09:31:35.
