data_PCOD8045338
_publ_section_title
;
Structure prediction by ZEFSAII (Michael W. Deem and Ramdas Pophale) SiO2 
 PCOD8045338
Probable space group: P 2
;
_chemical_formula_sum "Si O2"
_cell_formula_units_Z 13
_cell_length_a 16.795326
_cell_length_b 6.795536
_cell_length_c 5.352931
_cell_angle_alpha 90.000000
_cell_angle_beta 83.887435
_cell_angle_gamma 90.000000
_cell_volume 607.473902
_symmetry_space_group_name_H-M "P 2"
_symmetry_group_IT_number 3
_symmetry_cell_setting 'monoclinic'
loop_
_space_group_symop_operation_xyz
x,y,z
-x,y,-z
loop_
_atom_site_type_symbol
_atom_site_label
_atom_site_fract_x
_atom_site_fract_y
_atom_site_fract_z
Si Si1 0.726768 0.644550 0.267187
Si Si2 0.933700 0.225673 0.207393
Si Si3 0.781457 0.302570 0.976088
Si Si4 0.409074 0.872141 0.495968
Si Si5 0.000000 0.877400 0.500000
Si Si6 0.663051 0.976480 0.985780
Si Si7 0.130784 0.570226 0.444324
O O1 0.650144 0.683110 0.472049
O O2 0.717860 0.783468 0.022892
O O3 0.811027 0.682519 0.380108
O O4 0.726121 0.415475 0.195417
O O5 0.919843 0.390331 0.421433
O O6 0.964019 0.016646 0.298666
O O7 0.851886 0.182580 0.087209
O O8 0.000000 0.315391 0.000000
O O9 0.816431 0.472828 0.789145
O O10 0.722955 0.146292 0.868841
O O11 0.500000 0.802951 0.500000
O O12 0.384668 0.019655 0.735497
O O13 0.399130 0.959747 0.221930
O O14 0.930196 0.736990 0.636369
#
# Coordination Sequence:
#
# PCOD8045338 Si02
#       7
#     2   2   2   2   1   2   2
#     4   9  23  39  68 100 129 180 218 287 325 408
#     4  11  25  41  60  92 128 176 226 284 337 398
#     4  11  23  42  66  96 132 174 231 276 337 402
#     4  10  22  44  72 100 139 180 221 275 338 402
#     4  12  24  40  62  92 126 178 218 284 340 396
#     4  10  23  41  71  97 136 180 222 275 334 401
#     4  11  24  42  65  93 134 173 227 282 336 399
#
# _framework density 21.400096999999999
#
# number of rings (size 3 to 8) (size 9 to 14) (size 15 to 20)
#    0.923    0.615    0.000    4.615    4.308    6.769 
#    0.000    0.769    6.769    0.000    0.000    0.000 
#    0.000    0.000    0.000    0.000    0.000    0.000 
#
# Total GULP energy -161058.400575 kJ/mol
# GULP energy per Si atom -12389.107737 kJ/mol
# Density = 2.135139 g / cm^3
# Si number density = 21.400097 Si / 1000 Ang^3
#
#
#
# Elastic Constant Matrix: (Units=GPa)
#
#
# Indices 1 2 3 4 5 6 
#
# 1 138.2858 72.7333 40.0774 0.0000 9.4999 0.0000
# 2 72.7333 83.9963 27.5754 0.0000 3.4946 0.0000
# 3 40.0774 27.5754 103.8651 0.0000 11.6380 0.0000
# 4 0.0000 0.0000 0.0000 20.1615 0.0000 -8.8639
# 5 9.4999 3.4946 11.6380 0.0000 39.5830 0.0000
# 6 0.0000 0.0000 0.0000 -8.8639 0.0000 22.6698
#
#
#
# Elastic Compliance Matrix: (Units=1/GPa)
#
#
# Indices 1 2 3 4 5 6 
#
# 1 0.013896 -0.011244 -0.002186 0.000000 -0.001699 0.000000
# 2 -0.011244 0.022141 -0.001678 0.000000 0.001237 0.000000
# 3 -0.002186 -0.001678 0.011211 0.000000 -0.002623 0.000000
# 4 0.000000 0.000000 0.000000 0.059895 0.000000 0.023419
# 5 -0.001699 0.001237 -0.002623 0.000000 0.026333 0.000000
# 6 0.000000 0.000000 0.000000 0.023419 0.000000 0.053268
#
#
# Mechanical properties :
#
#
# Convention : Reuss Voigt Hill
#
# Bulk Modulus (GPa) = 58.71728 67.43549 63.07639
# Shear Modulus (GPa) = 22.45792 28.86695 25.66244
#
# Velocity S-wave (km/s) = 3.24301 3.67674 3.46667
# Velocity P-wave (km/s) = 6.44362 7.04307 6.75000
#
# Compressibility (1/GPa) = 0.01703076
#
# Stress axis : x y z
#
# Youngs Moduli (GPa) = 71.96488 45.16491 89.19851
#
# Poissons Ratio (x) = 0.50783 0.19500
# Poissons Ratio (y) = 0.80917 0.14970
# Poissons Ratio (z) = 0.15733 0.07580
#
# Static dielectric constant tensor:
#      x y z
#    x 3.845490 0.000000 0.029850 
#    y 0.000000 3.563930 0.000000 
#    z 0.029850 0.000000 3.810120 
# 
# 
# High freq. dielectric constant tensor:
#      x y z
#    x 1.843470 0.000000 0.006520 
#    y 0.000000 1.818820 0.000000 
#    z 0.006520 0.000000 1.837190 
# 
# From -- ./inp_files/3415.got.cif
#   From: 2010.03.12/outbox.cif.g09.slc.cpg/sg3_2_cif.got.tgz:3415.got - 2010.03.31 09:20:49.
