data_PCOD8045818
_publ_section_title
;
Structure prediction by ZEFSAII (Michael W. Deem and Ramdas Pophale) SiO2 
 PCOD8045818
Probable space group: P 21
;
_chemical_formula_sum "Si O2"
_cell_formula_units_Z 16
_cell_length_a 11.916341
_cell_length_b 13.068057
_cell_length_c 7.119829
_cell_angle_alpha 90.000000
_cell_angle_beta 130.814250
_cell_angle_gamma 90.000000
_cell_volume 839.118490
_symmetry_space_group_name_H-M "P 21"
_symmetry_group_IT_number 4
_symmetry_cell_setting 'monoclinic'
loop_
_space_group_symop_operation_xyz
x,y,z
-x,1/2+y,-z
loop_
_atom_site_type_symbol
_atom_site_label
_atom_site_fract_x
_atom_site_fract_y
_atom_site_fract_z
Si Si1 0.554670 0.320320 0.579541
Si Si2 0.864936 0.233744 0.027908
Si Si3 0.406597 0.979202 0.065451
Si Si4 0.612017 0.624986 0.618695
Si Si5 0.946695 0.581786 0.956974
Si Si6 0.072095 0.944555 0.715749
Si Si7 0.541617 0.980156 0.809958
Si Si8 0.126791 0.516352 0.830704
O O1 0.414793 0.245784 0.402820
O O2 0.555218 0.391643 0.395411
O O3 0.710356 0.261414 0.759664
O O4 0.532325 0.385102 0.744577
O O5 0.940779 0.331873 0.207585
O O6 0.848806 0.140664 0.163902
O O7 0.970423 0.191465 0.974612
O O8 0.237623 0.959698 0.817170
O O9 0.507276 0.989924 0.992610
O O10 0.418276 0.080518 0.206267
O O11 0.774467 0.597439 0.721936
O O12 0.496988 0.585164 0.337222
O O13 0.019502 0.499533 0.892861
O O14 0.965594 0.535257 0.182057
O O15 0.950564 0.958815 0.424618
O O16 0.716095 0.960281 0.971913
#
# Coordination Sequence:
#
# PCOD8045818 Si02
#       8
#     2   2   2   2   2   2   2   2
#     4  10  21  40  59  88 122 159 201 251 308 362
#     4   9  21  42  58  89 124 159 206 244 308 365
#     4   9  22  38  59  89 116 160 203 244 308 357
#     4  10  19  39  61  82 123 155 201 251 300 359
#     4   9  21  39  61  90 116 162 202 249 298 365
#     4  10  20  42  61  83 127 160 199 254 304 359
#     4  11  22  38  62  87 122 158 198 260 299 360
#     4  10  22  40  59  92 120 157 208 245 301 365
#
# _framework density 19.067629
#
# number of rings (size 3 to 8) (size 9 to 14) (size 15 to 20)
#    0.750    1.500    1.250    1.500    0.000    6.000 
#   11.250    0.000    0.000    0.000    0.000    0.000 
#    0.000    0.000    0.000    0.000    0.000    0.000 
#
# Total GULP energy -198305.974611 kJ/mol
# GULP energy per Si atom -12394.123413 kJ/mol
# Density = 1.902423 g / cm^3
# Si number density = 19.067629 Si / 1000 Ang^3
#
#
#
# Elastic Constant Matrix: (Units=GPa)
#
#
# Indices 1 2 3 4 5 6 
#
# 1 111.2882 21.2464 46.5429 0.0000 -1.5933 0.0000
# 2 21.2464 79.4997 22.4688 0.0000 1.2156 0.0000
# 3 46.5429 22.4688 89.3782 0.0000 6.5368 0.0000
# 4 0.0000 0.0000 0.0000 27.6706 0.0000 8.4118
# 5 -1.5933 1.2156 6.5368 0.0000 25.3608 0.0000
# 6 0.0000 0.0000 0.0000 8.4118 0.0000 30.0076
#
#
#
# Elastic Compliance Matrix: (Units=1/GPa)
#
#
# Indices 1 2 3 4 5 6 
#
# 1 0.011787 -0.001510 -0.005930 0.000000 0.002341 0.000000
# 2 -0.001510 0.013736 -0.002662 0.000000 -0.000067 0.000000
# 3 -0.005930 -0.002662 0.015251 0.000000 -0.004176 0.000000
# 4 0.000000 0.000000 0.000000 0.039506 0.000000 -0.011075
# 5 0.002341 -0.000067 -0.004176 0.000000 0.040658 0.000000
# 6 0.000000 0.000000 0.000000 -0.011075 0.000000 0.036429
#
#
# Mechanical properties :
#
#
# Convention : Reuss Voigt Hill
#
# Bulk Modulus (GPa) = 48.61305 51.18692 49.89998
# Shear Modulus (GPa) = 27.11098 29.26831 28.18965
#
# Velocity S-wave (km/s) = 3.77481 3.92212 3.84917
# Velocity P-wave (km/s) = 6.67453 6.88578 6.78098
#
# Compressibility (1/GPa) = 0.02057061
#
# Stress axis : x y z
#
# Youngs Moduli (GPa) = 84.83592 72.80388 65.57008
#
# Poissons Ratio (x) = 0.10994 0.38882
# Poissons Ratio (y) = 0.12811 0.17453
# Poissons Ratio (z) = 0.50306 0.19378
#
# Static dielectric constant tensor:
#      x y z
#    x 3.372180 0.000000 0.115170 
#    y 0.000000 3.487430 0.000000 
#    z 0.115170 0.000000 3.345530 
# 
# 
# High freq. dielectric constant tensor:
#      x y z
#    x 1.734730 0.000000 0.011900 
#    y 0.000000 1.738350 0.000000 
#    z 0.011900 0.000000 1.738760 
# 
# From -- ./inp_files/3186.got.cif
#   From: 2010.03.12/outbox.cif.g09.slc.cpg/sg4_2_cif.got.tgz:3186.got - 2010.03.31 09:31:35.
