data_PCOD8045300
_publ_section_title
;
Structure prediction by ZEFSAII (Michael W. Deem and Ramdas Pophale) SiO2 
 PCOD8045300
Probable space group: P 2
;
_chemical_formula_sum "Si O2"
_cell_formula_units_Z 13
_cell_length_a 9.147975
_cell_length_b 13.441367
_cell_length_c 5.106422
_cell_angle_alpha 90.000000
_cell_angle_beta 98.872558
_cell_angle_gamma 90.000000
_cell_volume 620.378781
_symmetry_space_group_name_H-M "P 2"
_symmetry_group_IT_number 3
_symmetry_cell_setting 'monoclinic'
loop_
_space_group_symop_operation_xyz
x,y,z
-x,y,-z
loop_
_atom_site_type_symbol
_atom_site_label
_atom_site_fract_x
_atom_site_fract_y
_atom_site_fract_z
Si Si1 0.748593 0.336200 0.120318
Si Si2 0.848220 0.052566 0.596249
Si Si3 0.324907 0.456261 0.413937
Si Si4 0.409972 0.150575 0.740707
Si Si5 0.000000 0.206172 0.000000
Si Si6 0.102340 0.628090 0.274092
Si Si7 0.098037 0.847672 0.272904
O O1 0.752871 0.422927 0.336672
O O2 0.619890 0.262615 0.178331
O O3 0.906199 0.278328 0.164439
O O4 0.707207 0.375504 0.820891
O O5 0.739979 0.090671 0.342489
O O6 0.000000 0.026572 0.500000
O O7 0.790934 0.943968 0.682634
O O8 0.876800 0.138323 0.819887
O O9 0.500000 0.473456 0.500000
O O10 0.246594 0.558960 0.316726
O O11 0.500000 0.150754 0.500000
O O12 0.500000 0.096664 0.000000
O O13 0.172790 0.739224 0.256553
O O14 0.000000 0.616191 0.500000
O O15 0.000000 0.599155 0.000000
O O16 0.000000 0.834554 0.500000
O O17 0.000000 0.875293 0.000000
#
# Coordination Sequence:
#
# PCOD8045300 Si02
#       7
#     2   2   2   2   1   2   2
#     4  12  26  41  63  90 128 169 214 255 314 363
#     4  11  22  40  64  94 127 164 215 262 316 371
#     4  12  26  43  64  90 128 171 210 257 318 375
#     4  12  25  42  61  89 133 176 212 256 313 382
#     4  12  24  38  64 102 124 164 218 282 292 372
#     4  10  22  42  66  95 119 160 208 267 312 371
#     4   9  19  37  65  91 124 155 203 258 323 373
#
# _framework density 20.954941999999999
#
# number of rings (size 3 to 8) (size 9 to 14) (size 15 to 20)
#    0.000    0.923    2.308    5.538    3.231    0.000 
#    0.000    0.769    0.000    1.846    0.000    0.000 
#    0.000    0.000    0.000    0.000    0.000    0.000 
#
# Total GULP energy -161134.915092 kJ/mol
# GULP energy per Si atom -12394.993469 kJ/mol
# Density = 2.090725 g / cm^3
# Si number density = 20.954942 Si / 1000 Ang^3
#
#
#
# Elastic Constant Matrix: (Units=GPa)
#
#
# Indices 1 2 3 4 5 6 
#
# 1 87.9351 58.6588 43.1726 0.0000 13.8851 0.0000
# 2 58.6588 142.5274 42.0455 0.0000 24.3518 0.0000
# 3 43.1726 42.0455 144.0688 0.0000 13.5865 0.0000
# 4 0.0000 0.0000 0.0000 30.4647 0.0000 10.9522
# 5 13.8851 24.3518 13.5865 0.0000 40.0417 0.0000
# 6 0.0000 0.0000 0.0000 10.9522 0.0000 70.4546
#
#
#
# Elastic Compliance Matrix: (Units=1/GPa)
#
#
# Indices 1 2 3 4 5 6 
#
# 1 0.017088 -0.005847 -0.003296 0.000000 -0.001251 0.000000
# 2 -0.005847 0.010366 -0.000899 0.000000 -0.003972 0.000000
# 3 -0.003296 -0.000899 0.008297 0.000000 -0.001126 0.000000
# 4 0.000000 0.000000 0.000000 0.034768 0.000000 -0.005405
# 5 -0.001251 -0.003972 -0.001126 0.000000 0.028205 0.000000
# 6 0.000000 0.000000 0.000000 -0.005405 0.000000 0.015034
#
#
# Mechanical properties :
#
#
# Convention : Reuss Voigt Hill
#
# Bulk Modulus (GPa) = 63.82311 73.58720 68.70516
# Shear Modulus (GPa) = 35.95444 43.56916 39.76180
#
# Velocity S-wave (km/s) = 4.14671 4.56475 4.36075
# Velocity P-wave (km/s) = 7.31098 7.93573 7.62975
#
# Compressibility (1/GPa) = 0.01566831
#
# Stress axis : x y z
#
# Youngs Moduli (GPa) = 58.52029 96.46776 120.51963
#
# Poissons Ratio (x) = 0.56400 0.39729
# Poissons Ratio (y) = 0.34214 0.10831
# Poissons Ratio (z) = 0.19291 0.08670
#
# Static dielectric constant tensor:
#      x y z
#    x 3.436540 0.000000 -0.050320 
#    y 0.000000 4.195320 0.000000 
#    z -0.050320 0.000000 3.835310 
# 
# 
# High freq. dielectric constant tensor:
#      x y z
#    x 1.790750 0.000000 -0.002770 
#    y 0.000000 1.828920 0.000000 
#    z -0.002770 0.000000 1.843760 
# 
# From -- ./inp_files/1303.got.cif
#   From: 2010.03.12/outbox.cif.g09.slc.cpg/sg3_1_cif.got.tgz:1303.got - 2010.03.31 09:20:49.
