data_PCOD8045646
_publ_section_title
;
Structure prediction by ZEFSAII (Michael W. Deem and Ramdas Pophale) SiO2 
 PCOD8045646
Probable space group: P 21
;
_chemical_formula_sum "Si O2"
_cell_formula_units_Z 16
_cell_length_a 18.238597
_cell_length_b 9.462416
_cell_length_c 11.606117
_cell_angle_alpha 90.000000
_cell_angle_beta 153.216030
_cell_angle_gamma 90.000000
_cell_volume 902.606357
_symmetry_space_group_name_H-M "P 21"
_symmetry_group_IT_number 4
_symmetry_cell_setting 'monoclinic'
loop_
_space_group_symop_operation_xyz
x,y,z
-x,1/2+y,-z
loop_
_atom_site_type_symbol
_atom_site_label
_atom_site_fract_x
_atom_site_fract_y
_atom_site_fract_z
Si Si1 0.555518 0.778850 0.139021
Si Si2 0.363568 0.550179 0.603776
Si Si3 0.363577 0.419796 0.366532
Si Si4 0.627878 0.780143 0.988224
Si Si5 0.856724 0.773599 0.105145
Si Si6 0.361804 0.008497 0.599824
Si Si7 0.783270 0.275948 0.456679
Si Si8 0.643084 0.607232 0.651808
O O1 0.664572 0.767648 0.175844
O O2 0.610463 0.658442 0.302329
O O3 0.579887 0.930927 0.228528
O O4 0.365663 0.762396 0.841085
O O5 0.295950 0.484785 0.390539
O O6 0.220632 0.642571 0.461605
O O7 0.517424 0.649555 0.790989
O O8 0.506892 0.513469 0.518849
O O9 0.433626 0.261385 0.486684
O O10 0.214433 0.408883 0.065719
O O11 0.794397 0.778524 0.149476
O O12 0.532514 0.925904 0.830782
O O13 0.050793 0.777192 0.382063
O O14 0.793610 0.630651 0.951885
O O15 0.292455 0.033214 0.374176
O O16 0.230672 0.919306 0.488382
#
# Coordination Sequence:
#
# PCOD8045646 Si02
#       8
#     2   2   2   2   2   2   2   2
#     4  10  19  36  57  79  99 142 188 213 247 318
#     4  10  18  36  57  79 100 143 184 212 253 316
#     4  10  19  34  59  80 104 137 180 216 254 321
#     4  10  18  32  56  75 107 140 174 212 263 319
#     4  10  21  34  52  82 108 137 172 216 280 299
#     4  10  18  36  57  79 100 143 184 212 253 316
#     4  10  22  34  53  78 112 139 170 221 272 304
#     4  10  19  34  59  80 104 137 180 216 254 321
#
# _framework density 17.726443
#
# number of rings (size 3 to 8) (size 9 to 14) (size 15 to 20)
#    0.750    1.500    3.750    3.000    1.750    1.000 
#    0.000    5.000    2.750    0.000    0.000    0.000 
#    0.000    0.000    0.000    0.000    0.000    0.000 
#
# Total GULP energy -198298.107106 kJ/mol
# GULP energy per Si atom -12393.631694 kJ/mol
# Density = 1.768610 g / cm^3
# Si number density = 17.726443 Si / 1000 Ang^3
#
#
#
# Elastic Constant Matrix: (Units=GPa)
#
#
# Indices 1 2 3 4 5 6 
#
# 1 122.7308 17.2821 46.5210 0.0000 15.6661 0.0000
# 2 17.2821 77.5926 7.6209 0.0000 9.2124 0.0000
# 3 46.5210 7.6209 52.0252 0.0000 12.2058 0.0000
# 4 0.0000 0.0000 0.0000 14.6308 0.0000 -3.7328
# 5 15.6661 9.2124 12.2058 0.0000 34.4654 0.0000
# 6 0.0000 0.0000 0.0000 -3.7328 0.0000 29.8852
#
#
#
# Elastic Compliance Matrix: (Units=1/GPa)
#
#
# Indices 1 2 3 4 5 6 
#
# 1 0.012619 -0.001579 -0.010694 0.000000 -0.001526 0.000000
# 2 -0.001579 0.013579 0.000116 0.000000 -0.002953 0.000000
# 3 -0.010694 0.000116 0.030138 0.000000 -0.005843 0.000000
# 4 0.000000 0.000000 0.000000 0.070599 0.000000 0.008818
# 5 -0.001526 -0.002953 -0.005843 0.000000 0.032567 0.000000
# 6 0.000000 0.000000 0.000000 0.008818 0.000000 0.034563
#
#
# Mechanical properties :
#
#
# Convention : Reuss Voigt Hill
#
# Bulk Modulus (GPa) = 31.23008 43.91072 37.57040
# Shear Modulus (GPa) = 21.82901 27.85792 24.84347
#
# Velocity S-wave (km/s) = 3.51299 3.96857 3.74771
# Velocity P-wave (km/s) = 5.84045 6.76938 6.32200
#
# Compressibility (1/GPa) = 0.03202041
#
# Stress axis : x y z
#
# Youngs Moduli (GPa) = 79.24708 73.64457 33.18040
#
# Poissons Ratio (x) = 0.11628 0.35484
# Poissons Ratio (y) = 0.12513 -0.00384
# Poissons Ratio (z) = 0.84749 -0.00851
#
# Static dielectric constant tensor:
#      x y z
#    x 3.372660 0.000000 -0.194300 
#    y 0.000000 3.399200 0.000000 
#    z -0.194300 0.000000 2.836060 
# 
# 
# High freq. dielectric constant tensor:
#      x y z
#    x 1.696680 0.000000 -0.017310 
#    y 0.000000 1.694380 0.000000 
#    z -0.017310 0.000000 1.638720 
# 
# From -- ./inp_files/7644.got.cif
#   From: 2010.03.12/outbox.cif.g09.slc.cpg/sg4_4_cif.got.tgz:7644.got - 2010.03.31 09:31:35.
