data_PCOD8045694
_publ_section_title
;
Structure prediction by ZEFSAII (Michael W. Deem and Ramdas Pophale) SiO2 
 PCOD8045694
Probable space group: P 21
;
_chemical_formula_sum "Si O2"
_cell_formula_units_Z 16
_cell_length_a 11.552280
_cell_length_b 8.847695
_cell_length_c 11.865941
_cell_angle_alpha 90.000000
_cell_angle_beta 142.188380
_cell_angle_gamma 90.000000
_cell_volume 743.546579
_symmetry_space_group_name_H-M "P 21"
_symmetry_group_IT_number 4
_symmetry_cell_setting 'monoclinic'
loop_
_space_group_symop_operation_xyz
x,y,z
-x,1/2+y,-z
loop_
_atom_site_type_symbol
_atom_site_label
_atom_site_fract_x
_atom_site_fract_y
_atom_site_fract_z
Si Si1 0.733396 0.616040 0.096161
Si Si2 0.432955 0.555116 0.693063
Si Si3 0.063075 0.825611 0.049789
Si Si4 0.169823 0.082444 0.417568
Si Si5 0.755188 0.618474 0.770216
Si Si6 0.811964 0.277426 0.106370
Si Si7 0.882069 0.243605 0.670959
Si Si8 0.599091 0.727346 0.223410
O O1 0.778809 0.437228 0.144165
O O2 0.716561 0.709459 0.198581
O O3 0.906663 0.682419 0.160474
O O4 0.541279 0.642107 0.876663
O O5 0.572551 0.554154 0.692768
O O6 0.245335 0.638530 0.506982
O O7 0.378179 0.389862 0.697424
O O8 0.180180 0.749251 0.244845
O O9 0.066948 0.004981 0.074388
O O10 0.161958 0.792744 0.007504
O O11 0.840776 0.778569 0.877736
O O12 0.284544 0.128214 0.393277
O O13 0.317255 0.101822 0.630615
O O14 0.985045 0.187550 0.294884
O O15 0.109862 0.909305 0.375465
O O16 0.617351 0.185024 0.970812
#
# Coordination Sequence:
#
# PCOD8045694 Si02
#       8
#     2   2   2   2   2   2   2   2
#     4  11  24  45  68  93 132 189 231 277 337 395
#     4  11  24  44  68 100 134 182 228 281 340 399
#     4  10  18  41  66  99 136 173 218 276 346 404
#     4  10  25  39  62 106 133 176 223 278 344 406
#     4  10  20  39  67  98 140 173 221 281 343 405
#     4  10  22  44  69  93 134 176 229 285 337 396
#     4  11  24  39  66 102 138 174 225 281 342 408
#     4  11  25  43  68  95 135 185 235 273 335 405
#
# _framework density 21.51849
#
# number of rings (size 3 to 8) (size 9 to 14) (size 15 to 20)
#    0.000    1.500    3.750    0.750    1.750    9.000 
#    2.250    0.000    0.000    0.000    0.000    0.000 
#    0.000    0.000    0.000    0.000    0.000    0.000 
#
# Total GULP energy -198285.620482 kJ/mol
# GULP energy per Si atom -12392.851280 kJ/mol
# Density = 2.146951 g / cm^3
# Si number density = 21.518490 Si / 1000 Ang^3
#
#
#
# Elastic Constant Matrix: (Units=GPa)
#
#
# Indices 1 2 3 4 5 6 
#
# 1 88.8404 23.9460 29.1184 0.0000 -1.0622 0.0000
# 2 23.9460 55.3246 33.3288 0.0000 7.9524 0.0000
# 3 29.1184 33.3288 73.8583 0.0000 -3.5902 0.0000
# 4 0.0000 0.0000 0.0000 32.3804 0.0000 -1.1710
# 5 -1.0622 7.9524 -3.5902 0.0000 25.9516 0.0000
# 6 0.0000 0.0000 0.0000 -1.1710 0.0000 34.6691
#
#
#
# Elastic Compliance Matrix: (Units=1/GPa)
#
#
# Indices 1 2 3 4 5 6 
#
# 1 0.013467 -0.003914 -0.003482 0.000000 0.001269 0.000000
# 2 -0.003914 0.028363 -0.011765 0.000000 -0.010479 0.000000
# 3 -0.003482 -0.011765 0.020528 0.000000 0.006303 0.000000
# 4 0.000000 0.000000 0.000000 0.030921 0.000000 0.001044
# 5 0.001269 -0.010479 0.006303 0.000000 0.042668 0.000000
# 6 0.000000 0.000000 0.000000 0.001044 0.000000 0.028879
#
#
# Mechanical properties :
#
#
# Convention : Reuss Voigt Hill
#
# Bulk Modulus (GPa) = 41.60371 43.42329 42.51350
# Shear Modulus (GPa) = 23.67867 27.37555 25.52711
#
# Velocity S-wave (km/s) = 3.32081 3.57064 3.44799
# Velocity P-wave (km/s) = 5.83777 6.10104 5.97086
#
# Compressibility (1/GPa) = 0.02403632
#
# Stress axis : x y z
#
# Youngs Moduli (GPa) = 74.25323 35.25697 48.71509
#
# Poissons Ratio (x) = 0.13800 0.16960
# Poissons Ratio (y) = 0.29063 0.57315
# Poissons Ratio (z) = 0.25852 0.41481
#
# Static dielectric constant tensor:
#      x y z
#    x 3.827930 0.000000 -0.069380 
#    y 0.000000 3.898750 0.000000 
#    z -0.069380 0.000000 3.928230 
# 
# 
# High freq. dielectric constant tensor:
#      x y z
#    x 1.838020 0.000000 -0.010860 
#    y 0.000000 1.839560 0.000000 
#    z -0.010860 0.000000 1.847790 
# 
# From -- ./inp_files/11838.got.cif
#   From: 2010.03.12/outbox.cif.g09.slc.cpg/sg4_6_cif.got.tgz:11838.got - 2010.03.31 09:31:35.
