data_PCOD8045740
_publ_section_title
;
Structure prediction by ZEFSAII (Michael W. Deem and Ramdas Pophale) SiO2 
 PCOD8045740
Probable space group: P 21
;
_chemical_formula_sum "Si O2"
_cell_formula_units_Z 16
_cell_length_a 11.574666
_cell_length_b 5.109441
_cell_length_c 18.248526
_cell_angle_alpha 90.000000
_cell_angle_beta 132.188017
_cell_angle_gamma 90.000000
_cell_volume 799.642111
_symmetry_space_group_name_H-M "P 21"
_symmetry_group_IT_number 4
_symmetry_cell_setting 'monoclinic'
loop_
_space_group_symop_operation_xyz
x,y,z
-x,1/2+y,-z
loop_
_atom_site_type_symbol
_atom_site_label
_atom_site_fract_x
_atom_site_fract_y
_atom_site_fract_z
Si Si1 0.134152 0.545650 0.427761
Si Si2 0.691480 0.095479 0.353172
Si Si3 0.595410 0.887815 0.727548
Si Si4 0.296355 0.495835 0.894927
Si Si5 0.409346 0.540442 0.440386
Si Si6 0.067245 0.548890 0.667855
Si Si7 0.620788 0.392774 0.817184
Si Si8 0.356385 0.994204 0.008338
O O1 0.225851 0.471573 0.540802
O O2 0.251519 0.627706 0.413191
O O3 0.045672 0.288839 0.361937
O O4 0.023592 0.792399 0.398598
O O5 0.591276 0.353199 0.335390
O O6 0.818605 0.161909 0.345987
O O7 0.569092 0.889972 0.265710
O O8 0.626160 0.948456 0.656522
O O9 0.674013 0.111070 0.811123
O O10 0.682556 0.618510 0.787841
O O11 0.156617 0.460922 0.778865
O O12 0.457527 0.481115 0.919414
O O13 0.289259 0.271409 0.953510
O O14 0.275668 0.773011 0.925317
O O15 0.481839 0.296778 0.515968
O O16 0.687720 0.448543 0.926095
#
# Coordination Sequence:
#
# PCOD8045740 Si02
#       8
#     2   2   2   2   2   2   2   2
#     4  12  26  38  59  86 120 173 197 234 306 356
#     4  10  23  38  57  85 126 160 199 232 297 357
#     4  10  21  34  61  85 116 152 194 261 292 334
#     4  10  20  35  55  82 116 158 196 240 296 357
#     4  12  22  42  63  84 118 156 218 264 287 338
#     4  12  25  39  56  86 129 162 198 237 293 383
#     4  10  20  34  58  92 116 143 198 249 305 347
#     4  10  19  34  59  84 113 152 196 247 306 350
#
# _framework density 20.008951
#
# number of rings (size 3 to 8) (size 9 to 14) (size 15 to 20)
#    0.750    0.500    2.500    4.500    3.500    1.000 
#    0.000    0.000    0.000    0.000    0.000   17.500 
#    0.000    0.000    0.000    0.000    0.000    0.000 
#
# Total GULP energy -198380.258720 kJ/mol
# GULP energy per Si atom -12398.766170 kJ/mol
# Density = 1.996341 g / cm^3
# Si number density = 20.008951 Si / 1000 Ang^3
#
#
#
# Elastic Constant Matrix: (Units=GPa)
#
#
# Indices 1 2 3 4 5 6 
#
# 1 51.9597 0.1825 23.8425 0.0000 -15.0565 0.0000
# 2 0.1825 100.6632 10.6028 0.0000 2.7391 0.0000
# 3 23.8425 10.6028 83.2251 0.0000 -18.4092 0.0000
# 4 0.0000 0.0000 0.0000 22.0011 0.0000 -5.5863
# 5 -15.0565 2.7391 -18.4092 0.0000 25.2969 0.0000
# 6 0.0000 0.0000 0.0000 -5.5863 0.0000 21.3623
#
#
#
# Elastic Compliance Matrix: (Units=1/GPa)
#
#
# Indices 1 2 3 4 5 6 
#
# 1 0.024620 0.000128 -0.004566 0.000000 0.011317 0.000000
# 2 0.000128 0.010195 -0.001863 0.000000 -0.002383 0.000000
# 3 -0.004566 -0.001863 0.015499 0.000000 0.008763 0.000000
# 4 0.000000 0.000000 0.000000 0.048685 0.000000 0.012731
# 5 0.011317 -0.002383 0.008763 0.000000 0.052901 0.000000
# 6 0.000000 0.000000 0.000000 0.012731 0.000000 0.050141
#
#
# Mechanical properties :
#
#
# Convention : Reuss Voigt Hill
#
# Bulk Modulus (GPa) = 26.51610 33.90041 30.20826
# Shear Modulus (GPa) = 22.00575 27.14674 24.57624
#
# Velocity S-wave (km/s) = 3.31991 3.68738 3.50846
# Velocity P-wave (km/s) = 5.28930 5.92523 5.61627
#
# Compressibility (1/GPa) = 0.03771294
#
# Stress axis : x y z
#
# Youngs Moduli (GPa) = 40.61771 98.08801 64.51831
#
# Poissons Ratio (x) = -0.01259 0.29461
# Poissons Ratio (y) = -0.00522 0.12018
# Poissons Ratio (z) = 0.18547 0.18271
#
# Static dielectric constant tensor:
#      x y z
#    x 3.333980 0.000000 -0.098540 
#    y 0.000000 3.649000 0.000000 
#    z -0.098540 0.000000 3.486350 
# 
# 
# High freq. dielectric constant tensor:
#      x y z
#    x 1.749090 0.000000 -0.023650 
#    y 0.000000 1.790420 0.000000 
#    z -0.023650 0.000000 1.777020 
# 
# From -- ./inp_files/15101.got.cif
#   From: 2010.03.12/outbox.cif.g09.slc.cpg/sg4_8_cif.got.tgz:15101.got - 2010.03.31 09:31:35.
