data_PCOD8045134
_publ_section_title
;
Structure prediction by ZEFSAII (Michael W. Deem and Ramdas Pophale) SiO2 
 PCOD8045134
Probable space group: P 2
;
_chemical_formula_sum "Si O2"
_cell_formula_units_Z 16
_cell_length_a 21.762297
_cell_length_b 6.792082
_cell_length_c 8.478480
_cell_angle_alpha 90.000000
_cell_angle_beta 40.691137
_cell_angle_gamma 90.000000
_cell_volume 817.072651
_symmetry_space_group_name_H-M "P 2"
_symmetry_group_IT_number 3
_symmetry_cell_setting 'monoclinic'
loop_
_space_group_symop_operation_xyz
x,y,z
-x,y,-z
loop_
_atom_site_type_symbol
_atom_site_label
_atom_site_fract_x
_atom_site_fract_y
_atom_site_fract_z
Si Si1 0.656764 0.811490 0.009195
Si Si2 0.150731 0.688283 0.894127
Si Si3 0.663981 0.559002 0.293458
Si Si4 0.991574 0.963709 0.698237
Si Si5 0.406177 0.223909 0.772143
Si Si6 0.151973 0.704419 0.529941
Si Si7 0.513309 0.540886 0.153186
Si Si8 0.988271 0.372880 0.199282
O O1 0.758814 0.741576 0.753356
O O2 0.635049 0.719566 0.221039
O O3 0.576727 0.738507 0.042822
O O4 0.652538 0.046274 0.037254
O O5 0.234610 0.603514 0.834395
O O6 0.182082 0.726501 0.653702
O O7 0.111367 0.893531 0.041468
O O8 0.068120 0.532260 0.072544
O O9 0.660128 0.341286 0.222901
O O10 0.589159 0.580703 0.577858
O O11 0.000000 0.903485 0.500000
O O12 0.072914 0.865002 0.644573
O O13 0.001440 0.198045 0.696327
O O14 0.500000 0.148032 0.500000
O O15 0.433359 0.365721 0.862296
O O16 0.112070 0.483161 0.580007
O O17 0.500000 0.477507 0.000000
O O18 0.000000 0.286907 0.000000
#
# Coordination Sequence:
#
# PCOD8045134 Si02
#       8
#     2   2   2   2   2   2   2   2
#     4  11  21  37  60  85 114 150 188 234 285 337
#     4  10  21  39  58  82 113 147 188 233 278 335
#     4  10  21  37  58  83 114 148 187 235 282 334
#     4  11  22  36  57  84 113 146 186 232 282 336
#     4   9  20  38  57  81 115 151 189 233 281 335
#     4  10  22  38  58  83 113 147 189 233 279 335
#     4  10  21  38  59  84 114 150 191 234 282 335
#     4   9  20  39  59  78 109 149 185 230 281 331
#
# _framework density 19.582103
#
# number of rings (size 3 to 8) (size 9 to 14) (size 15 to 20)
#    0.000    2.000    0.000    5.250    0.000    7.500 
#    0.000    3.750    0.000    0.000    0.000    0.000 
#    0.000    0.000    0.000    0.000    0.000    0.000 
#
# Total GULP energy -198435.439684 kJ/mol
# GULP energy per Si atom -12402.214980 kJ/mol
# Density = 1.953753 g / cm^3
# Si number density = 19.582103 Si / 1000 Ang^3
#
#
#
# Elastic Constant Matrix: (Units=GPa)
#
#
# Indices 1 2 3 4 5 6 
#
# 1 102.4819 28.6641 40.4199 0.0000 4.1199 0.0000
# 2 28.6641 103.8813 46.1813 0.0000 0.0189 0.0000
# 3 40.4199 46.1813 112.2053 0.0000 0.9844 0.0000
# 4 0.0000 0.0000 0.0000 25.8907 0.0000 2.3651
# 5 4.1199 0.0189 0.9844 0.0000 29.9001 0.0000
# 6 0.0000 0.0000 0.0000 2.3651 0.0000 20.4707
#
#
#
# Elastic Compliance Matrix: (Units=1/GPa)
#
#
# Indices 1 2 3 4 5 6 
#
# 1 0.011665 -0.001660 -0.003506 0.000000 -0.001491 0.000000
# 2 -0.001660 0.012019 -0.004352 0.000000 0.000364 0.000000
# 3 -0.003506 -0.004352 0.011966 0.000000 0.000092 0.000000
# 4 0.000000 0.000000 0.000000 0.039036 0.000000 -0.004510
# 5 -0.001491 0.000364 0.000092 0.000000 0.033647 0.000000
# 6 0.000000 0.000000 0.000000 -0.004510 0.000000 0.049371
#
#
# Mechanical properties :
#
#
# Convention : Reuss Voigt Hill
#
# Bulk Modulus (GPa) = 60.19039 61.01102 60.60070
# Shear Modulus (GPa) = 27.43081 28.80584 28.11833
#
# Velocity S-wave (km/s) = 3.74680 3.83956 3.79346
# Velocity P-wave (km/s) = 7.03720 7.13305 7.08529
#
# Compressibility (1/GPa) = 0.01661395
#
# Stress axis : x y z
#
# Youngs Moduli (GPa) = 85.72854 83.20119 83.57347
#
# Poissons Ratio (x) = 0.13810 0.29299
# Poissons Ratio (y) = 0.14230 0.36372
# Poissons Ratio (z) = 0.30054 0.36210
#
# Static dielectric constant tensor:
#      x y z
#    x 3.630820 0.000000 0.019330 
#    y 0.000000 3.498880 0.000000 
#    z 0.019330 0.000000 3.566670 
# 
# 
# High freq. dielectric constant tensor:
#      x y z
#    x 1.766390 0.000000 0.003300 
#    y 0.000000 1.757820 0.000000 
#    z 0.003300 0.000000 1.765490 
# 
# From -- ./inp_files/9332.got.cif
#   From: 2010.03.12/outbox.cif.g09.slc.cpg/sg3_5_cif.got.tgz:9332.got - 2010.03.31 09:20:49.
