data_PCOD8045179
_publ_section_title
;
Structure prediction by ZEFSAII (Michael W. Deem and Ramdas Pophale) SiO2 
 PCOD8045179
Probable space group: P 2
;
_chemical_formula_sum "Si O2"
_cell_formula_units_Z 16
_cell_length_a 9.000325
_cell_length_b 9.488954
_cell_length_c 10.947839
_cell_angle_alpha 90.000000
_cell_angle_beta 58.530182
_cell_angle_gamma 90.000000
_cell_volume 797.463534
_symmetry_space_group_name_H-M "P 2"
_symmetry_group_IT_number 3
_symmetry_cell_setting 'monoclinic'
loop_
_space_group_symop_operation_xyz
x,y,z
-x,y,-z
loop_
_atom_site_type_symbol
_atom_site_label
_atom_site_fract_x
_atom_site_fract_y
_atom_site_fract_z
Si Si1 0.516775 0.324720 0.186166
Si Si2 0.139058 0.754372 0.353174
Si Si3 0.936173 0.564488 0.838314
Si Si4 0.475562 0.807522 0.369927
Si Si5 0.998788 0.067306 0.634876
Si Si6 0.772773 0.283863 0.873991
Si Si7 0.725807 0.592303 0.171934
Si Si8 0.390840 0.118455 0.440699
O O1 0.370754 0.360591 0.149046
O O2 0.587609 0.462153 0.227663
O O3 0.405369 0.221127 0.320084
O O4 0.680393 0.250331 0.044983
O O5 0.153940 0.657510 0.228063
O O6 0.306085 0.759837 0.367969
O O7 0.000000 0.679302 0.500000
O O8 0.069815 0.907896 0.341456
O O9 0.924045 0.398139 0.820754
O O10 0.142326 0.584488 0.769507
O O11 0.829414 0.604250 0.003273
O O12 0.500000 0.753476 0.500000
O O13 0.631245 0.741000 0.226221
O O14 0.487363 0.975259 0.359893
O O15 0.202481 0.080562 0.581364
O O16 0.000000 0.137503 0.500000
O O17 0.865749 0.144133 0.783415
O O18 0.500000 0.193698 0.500000
#
# Coordination Sequence:
#
# PCOD8045179 Si02
#       8
#     2   2   2   2   2   2   2   2
#     4  10  21  41  61  92 120 159 202 248 304 353
#     4  11  21  39  63  88 119 158 201 244 299 360
#     4  10  23  41  61  88 120 162 202 250 299 355
#     4  11  22  39  62  89 122 157 196 249 301 355
#     4  11  21  41  61  92 122 156 200 250 298 363
#     4  10  21  39  66  87 121 158 203 252 295 362
#     4  10  23  41  60  87 125 156 203 252 298 357
#     4  11  24  40  62  90 125 158 195 249 307 361
#
# _framework density 20.063613
#
# number of rings (size 3 to 8) (size 9 to 14) (size 15 to 20)
#    0.000    1.500    3.750    1.500    3.500    3.500 
#    2.250    0.000    0.000    0.000    0.000    0.000 
#    0.000    0.000    0.000    0.000    0.000    0.000 
#
# Total GULP energy -198211.915473 kJ/mol
# GULP energy per Si atom -12388.244717 kJ/mol
# Density = 2.001795 g / cm^3
# Si number density = 20.063613 Si / 1000 Ang^3
#
#
#
# Elastic Constant Matrix: (Units=GPa)
#
#
# Indices 1 2 3 4 5 6 
#
# 1 116.4736 17.3043 19.1342 0.0000 0.2634 0.0000
# 2 17.3043 59.2760 34.3122 0.0000 -8.5236 0.0000
# 3 19.1342 34.3122 60.7043 0.0000 -3.3573 0.0000
# 4 0.0000 0.0000 0.0000 32.8120 0.0000 -4.5314
# 5 0.2634 -8.5236 -3.3573 0.0000 35.3312 0.0000
# 6 0.0000 0.0000 0.0000 -4.5314 0.0000 28.4876
#
#
#
# Elastic Compliance Matrix: (Units=1/GPa)
#
#
# Indices 1 2 3 4 5 6 
#
# 1 0.009156 -0.001597 -0.002019 0.000000 -0.000645 0.000000
# 2 -0.001597 0.026164 -0.014009 0.000000 0.004993 0.000000
# 3 -0.002019 -0.014009 0.024973 0.000000 -0.000992 0.000000
# 4 0.000000 0.000000 0.000000 0.031161 0.000000 0.004957
# 5 -0.000645 0.004993 -0.000992 0.000000 0.029419 0.000000
# 6 0.000000 0.000000 0.000000 0.004957 0.000000 0.035891
#
#
# Mechanical properties :
#
#
# Convention : Reuss Voigt Hill
#
# Bulk Modulus (GPa) = 39.93176 41.99503 40.96340
# Shear Modulus (GPa) = 24.95485 30.37303 27.66394
#
# Velocity S-wave (km/s) = 3.53056 3.89503 3.71726
# Velocity P-wave (km/s) = 6.04695 6.41909 6.23580
#
# Compressibility (1/GPa) = 0.02504272
#
# Stress axis : x y z
#
# Youngs Moduli (GPa) = 109.21751 38.22114 40.04284
#
# Poissons Ratio (x) = 0.06104 0.08085
# Poissons Ratio (y) = 0.17442 0.56096
# Poissons Ratio (z) = 0.22051 0.53544
#
# Static dielectric constant tensor:
#      x y z
#    x 4.050590 0.000000 0.050080 
#    y 0.000000 3.415000 0.000000 
#    z 0.050080 0.000000 3.774390 
# 
# 
# High freq. dielectric constant tensor:
#      x y z
#    x 1.804840 0.000000 -0.000460 
#    y 0.000000 1.766920 0.000000 
#    z -0.000460 0.000000 1.779060 
# 
# From -- ./inp_files/10733.got.cif
#   From: 2010.03.12/outbox.cif.g09.slc.cpg/sg3_6_cif.got.tgz:10733.got - 2010.03.31 09:20:49.
