data_PCOD8045305
_publ_section_title
;
Structure prediction by ZEFSAII (Michael W. Deem and Ramdas Pophale) SiO2 
 PCOD8045305
Probable space group: P 2
;
_chemical_formula_sum "Si O2"
_cell_formula_units_Z 12
_cell_length_a 5.383368
_cell_length_b 10.216351
_cell_length_c 9.433490
_cell_angle_alpha 90.000000
_cell_angle_beta 102.565326
_cell_angle_gamma 90.000000
_cell_volume 506.400015
_symmetry_space_group_name_H-M "P 2"
_symmetry_group_IT_number 3
_symmetry_cell_setting 'monoclinic'
loop_
_space_group_symop_operation_xyz
x,y,z
-x,y,-z
loop_
_atom_site_type_symbol
_atom_site_label
_atom_site_fract_x
_atom_site_fract_y
_atom_site_fract_z
Si Si1 0.314170 0.860620 0.853488
Si Si2 0.596354 0.232040 0.662533
Si Si3 0.899989 0.362311 0.327011
Si Si4 0.096518 0.989148 0.359944
Si Si5 0.036572 0.593542 0.851685
Si Si6 0.371426 0.736534 0.349802
O O1 0.449337 0.823304 0.725244
O O2 0.180479 0.730064 0.896740
O O3 0.500000 0.913658 0.000000
O O4 0.121464 0.979079 0.789156
O O5 0.500000 0.282467 0.500000
O O6 0.348488 0.267895 0.727468
O O7 0.668179 0.077279 0.668580
O O8 0.862005 0.304697 0.734417
O O9 0.000000 0.381032 0.500000
O O10 0.820859 0.499974 0.243487
O O11 0.000000 0.049689 0.500000
O O12 0.178610 0.840142 0.397588
O O13 0.758398 0.621734 0.753944
O O14 0.000000 0.524853 0.000000
O O15 0.500000 0.665439 0.500000
#
# Coordination Sequence:
#
# PCOD8045305 Si02
#       6
#     2   2   2   2   2   2
#     4  11  24  42  65 103 145 186 227 285 369 432
#     4  10  22  42  68 103 138 178 234 298 353 401
#     4  10  24  41  69 102 135 183 240 295 346 411
#     4  11  22  38  70 106 137 182 236 294 356 428
#     4  11  25  42  66  99 140 190 230 290 363 431
#     4  11  23  38  67 105 139 177 235 291 354 429
#
# _framework density 23.696681000000002
#
# number of rings (size 3 to 8) (size 9 to 14) (size 15 to 20)
#    0.000    1.333    3.333    2.000    7.000    0.667 
#    0.000    0.000    3.667    1.000    0.000    0.000 
#    0.000    0.000    0.000    0.000    0.000    0.000 
#
# Total GULP energy -148702.710589 kJ/mol
# GULP energy per Si atom -12391.892549 kJ/mol
# Density = 2.364275 g / cm^3
# Si number density = 23.696681 Si / 1000 Ang^3
#
#
#
# Elastic Constant Matrix: (Units=GPa)
#
#
# Indices 1 2 3 4 5 6 
#
# 1 149.0308 41.3063 54.3206 0.0000 13.8097 0.0000
# 2 41.3063 91.9932 35.6256 0.0000 6.5102 0.0000
# 3 54.3206 35.6256 140.7808 0.0000 18.7938 0.0000
# 4 0.0000 0.0000 0.0000 16.0102 0.0000 -1.8152
# 5 13.8097 6.5102 18.7938 0.0000 35.2710 0.0000
# 6 0.0000 0.0000 0.0000 -1.8152 0.0000 26.5103
#
#
#
# Elastic Compliance Matrix: (Units=1/GPa)
#
#
# Indices 1 2 3 4 5 6 
#
# 1 0.008487 -0.002786 -0.002363 0.000000 -0.001550 0.000000
# 2 -0.002786 0.012980 -0.002191 0.000000 -0.000137 0.000000
# 3 -0.002363 -0.002191 0.009035 0.000000 -0.003484 0.000000
# 4 0.000000 0.000000 0.000000 0.062949 0.000000 0.004310
# 5 -0.001550 -0.000137 -0.003484 0.000000 0.030841 0.000000
# 6 0.000000 0.000000 0.000000 0.004310 0.000000 0.038016
#
#
# Mechanical properties :
#
#
# Convention : Reuss Voigt Hill
#
# Bulk Modulus (GPa) = 63.20716 71.58999 67.39857
# Shear Modulus (GPa) = 27.43316 32.26178 29.84747
#
# Velocity S-wave (km/s) = 3.40616 3.69378 3.55288
# Velocity P-wave (km/s) = 6.49620 6.96194 6.73310
#
# Compressibility (1/GPa) = 0.01582099
#
# Stress axis : x y z
#
# Youngs Moduli (GPa) = 117.82629 77.04345 110.68547
#
# Poissons Ratio (x) = 0.21465 0.26153
# Poissons Ratio (y) = 0.32828 0.24254
# Poissons Ratio (z) = 0.27840 0.16882
#
# Static dielectric constant tensor:
#      x y z
#    x 4.744980 0.000000 0.206310 
#    y 0.000000 3.979450 0.000000 
#    z 0.206310 0.000000 3.993840 
# 
# 
# High freq. dielectric constant tensor:
#      x y z
#    x 1.952370 0.000000 0.010730 
#    y 0.000000 1.916650 0.000000 
#    z 0.010730 0.000000 1.913480 
# 
# From -- ./inp_files/4337.got.cif
#   From: 2010.03.12/outbox.cif.g09.slc.cpg/sg3_3_cif.got.tgz:4337.got - 2010.03.31 09:20:49.
