data_PCOD8045439
_publ_section_title
;
Structure prediction by ZEFSAII (Michael W. Deem and Ramdas Pophale) SiO2 
 PCOD8045439
Probable space group: P 2
;
_chemical_formula_sum "Si O2"
_cell_formula_units_Z 10
_cell_length_a 16.738836
_cell_length_b 5.666012
_cell_length_c 11.547499
_cell_angle_alpha 90.000000
_cell_angle_beta 22.972958
_cell_angle_gamma 90.000000
_cell_volume 427.450158
_symmetry_space_group_name_H-M "P 2"
_symmetry_group_IT_number 3
_symmetry_cell_setting 'monoclinic'
loop_
_space_group_symop_operation_xyz
x,y,z
-x,y,-z
loop_
_atom_site_type_symbol
_atom_site_label
_atom_site_fract_x
_atom_site_fract_y
_atom_site_fract_z
Si Si1 0.725925 0.444180 0.988479
Si Si2 0.000000 0.386153 0.000000
Si Si3 0.627503 0.093637 0.513161
Si Si4 0.000000 0.111991 0.500000
Si Si5 0.722410 0.696620 0.210615
Si Si6 0.603810 0.813376 0.985547
O O1 0.547507 0.282909 0.282057
O O2 0.787266 0.672645 0.987705
O O3 0.652918 0.547540 0.962024
O O4 0.922348 0.278159 0.708426
O O5 0.830254 0.224800 0.289064
O O6 0.890418 0.548044 0.052894
O O7 0.692101 0.955035 0.307939
O O8 0.557889 0.915956 0.706035
O O9 0.186368 0.959432 0.301701
O O10 0.500000 0.572879 0.500000
O O11 0.500000 0.803370 0.000000
#
# Coordination Sequence:
#
# PCOD8045439 Si02
#       6
#     2   1   2   1   2   2
#     4  11  25  49  77 103 150 192 242 304 364 426
#     4  12  26  44  70 112 144 192 240 304 372 428
#     4  11  25  46  72 111 145 195 242 299 367 428
#     4  10  26  48  72 112 136 202 240 294 368 430
#     4  12  25  47  73 106 144 191 244 303 360 439
#     4  11  25  48  73 105 147 192 249 296 353 440
#
# _framework density 23.394539000000002
#
# number of rings (size 3 to 8) (size 9 to 14) (size 15 to 20)
#    0.000    0.800    4.000    1.200    5.600    3.200 
#   14.400    0.000    0.000    0.000    0.000    0.000 
#    0.000    0.000    0.000    0.000    0.000    0.000 
#
# Total GULP energy -123899.841745 kJ/mol
# GULP energy per Si atom -12389.984175 kJ/mol
# Density = 2.334129 g / cm^3
# Si number density = 23.394539 Si / 1000 Ang^3
#
#
#
# Elastic Constant Matrix: (Units=GPa)
#
#
# Indices 1 2 3 4 5 6 
#
# 1 156.6334 61.6181 42.5455 0.0000 -9.7734 0.0000
# 2 61.6181 133.8155 59.8608 0.0000 2.0523 0.0000
# 3 42.5455 59.8608 129.0579 0.0000 -20.2200 0.0000
# 4 0.0000 0.0000 0.0000 72.3672 0.0000 -5.8831
# 5 -9.7734 2.0523 -20.2200 0.0000 31.9002 0.0000
# 6 0.0000 0.0000 0.0000 -5.8831 0.0000 31.5372
#
#
#
# Elastic Compliance Matrix: (Units=1/GPa)
#
#
# Indices 1 2 3 4 5 6 
#
# 1 0.008068 -0.003427 -0.000720 0.000000 0.002236 0.000000
# 2 -0.003427 0.011308 -0.004878 0.000000 -0.004869 0.000000
# 3 -0.000720 -0.004878 0.011394 0.000000 0.007316 0.000000
# 4 0.000000 0.000000 0.000000 0.014031 0.000000 0.002617
# 5 0.002236 -0.004869 0.007316 0.000000 0.036983 0.000000
# 6 0.000000 0.000000 0.000000 0.002617 0.000000 0.032197
#
#
# Mechanical properties :
#
#
# Convention : Reuss Voigt Hill
#
# Bulk Modulus (GPa) = 78.61510 83.06174 80.83842
# Shear Modulus (GPa) = 36.69156 44.19307 40.44232
#
# Velocity S-wave (km/s) = 3.96458 4.35102 4.16228
# Velocity P-wave (km/s) = 7.39149 7.79895 7.59795
#
# Compressibility (1/GPa) = 0.01272020
#
# Stress axis : x y z
#
# Youngs Moduli (GPa) = 123.95305 88.43336 87.76215
#
# Poissons Ratio (x) = 0.30309 0.06315
# Poissons Ratio (y) = 0.42482 0.42811
# Poissons Ratio (z) = 0.08919 0.43138
#
# Static dielectric constant tensor:
#      x y z
#    x 4.013350 0.000000 -0.076390 
#    y 0.000000 4.328790 0.000000 
#    z -0.076390 0.000000 4.508650 
# 
# 
# High freq. dielectric constant tensor:
#      x y z
#    x 1.911870 0.000000 -0.004940 
#    y 0.000000 1.935200 0.000000 
#    z -0.004940 0.000000 1.936040 
# 
# From -- ./inp_files/12415.got.cif
#   From: 2010.03.12/outbox.cif.g09.slc.cpg/sg3_7_cif.got.tgz:12415.got - 2010.03.31 09:20:49.
