data_PCOD8045533
_publ_section_title
;
Structure prediction by ZEFSAII (Michael W. Deem and Ramdas Pophale) SiO2 
 PCOD8045533
Probable space group: P 2
;
_chemical_formula_sum "Si O2"
_cell_formula_units_Z 12
_cell_length_a 21.812682
_cell_length_b 4.958262
_cell_length_c 9.527766
_cell_angle_alpha 90.000000
_cell_angle_beta 149.346412
_cell_angle_gamma 90.000000
_cell_volume 525.374316
_symmetry_space_group_name_H-M "P 2"
_symmetry_group_IT_number 3
_symmetry_cell_setting 'monoclinic'
loop_
_space_group_symop_operation_xyz
x,y,z
-x,y,-z
loop_
_atom_site_type_symbol
_atom_site_label
_atom_site_fract_x
_atom_site_fract_y
_atom_site_fract_z
Si Si1 0.438323 0.160910 0.031458
Si Si2 0.978970 0.747757 0.806112
Si Si3 0.792658 0.677286 0.925425
Si Si4 0.825792 0.241423 0.446006
Si Si5 0.858198 0.178276 0.211531
Si Si6 0.479341 0.667725 0.629593
O O1 0.492707 0.384053 0.242230
O O2 0.442686 0.887511 0.132048
O O3 0.500000 0.139055 0.000000
O O4 0.299326 0.222138 0.717425
O O5 0.914804 0.457787 0.689857
O O6 0.111101 0.745459 0.002878
O O7 0.892876 0.955539 0.557900
O O8 0.000000 0.867228 0.000000
O O9 0.805228 0.360986 0.982852
O O10 0.822194 0.867576 0.117168
O O11 0.658933 0.738196 0.609502
O O12 0.795443 0.308685 0.224735
O O13 0.000000 0.219232 0.500000
O O14 0.500000 0.662485 0.500000
#
# Coordination Sequence:
#
# PCOD8045533 Si02
#       6
#     2   2   2   2   2   2
#     4  12  28  47  73 102 138 188 235 285 342 409
#     4  12  26  41  65  98 134 175 216 270 338 397
#     4  12  24  41  70  99 133 170 219 278 333 404
#     4  12  25  44  68  95 135 171 221 277 331 404
#     4  12  21  41  65 102 132 164 218 269 343 394
#     4  12  26  49  73 102 141 184 236 285 342 410
#
# _framework density 22.840855000000001
#
# number of rings (size 3 to 8) (size 9 to 14) (size 15 to 20)
#    0.000    0.000    3.333    7.000    4.667    0.000 
#    0.000    0.000    0.000    0.000    0.000    0.000 
#    0.000    0.000    0.000    0.000    0.000    0.000 
#
# Total GULP energy -148797.816212 kJ/mol
# GULP energy per Si atom -12399.818018 kJ/mol
# Density = 2.278887 g / cm^3
# Si number density = 22.840855 Si / 1000 Ang^3
#
#
#
# Elastic Constant Matrix: (Units=GPa)
#
#
# Indices 1 2 3 4 5 6 
#
# 1 133.1209 14.8577 33.7374 0.0000 4.9986 0.0000
# 2 14.8577 93.7790 5.6809 0.0000 -6.6473 0.0000
# 3 33.7374 5.6809 76.2532 0.0000 18.7717 0.0000
# 4 0.0000 0.0000 0.0000 20.8864 0.0000 1.2214
# 5 4.9986 -6.6473 18.7717 0.0000 50.8709 0.0000
# 6 0.0000 0.0000 0.0000 1.2214 0.0000 27.1859
#
#
#
# Elastic Compliance Matrix: (Units=1/GPa)
#
#
# Indices 1 2 3 4 5 6 
#
# 1 0.008587 -0.001099 -0.003822 0.000000 0.000423 0.000000
# 2 -0.001099 0.011015 -0.000787 0.000000 0.001838 0.000000
# 3 -0.003822 -0.000787 0.016275 0.000000 -0.005733 0.000000
# 4 0.000000 0.000000 0.000000 0.048004 0.000000 -0.002157
# 5 0.000423 0.001838 -0.005733 0.000000 0.021972 0.000000
# 6 0.000000 0.000000 0.000000 -0.002157 0.000000 0.036881
#
#
# Mechanical properties :
#
#
# Convention : Reuss Voigt Hill
#
# Bulk Modulus (GPa) = 40.87833 45.74501 43.31167
# Shear Modulus (GPa) = 30.80654 36.38045 33.59349
#
# Velocity S-wave (km/s) = 3.67651 3.99529 3.83921
# Velocity P-wave (km/s) = 5.99652 6.43074 6.21742
#
# Compressibility (1/GPa) = 0.02446284
#
# Stress axis : x y z
#
# Youngs Moduli (GPa) = 116.45150 90.78190 61.44427
#
# Poissons Ratio (x) = 0.09977 0.23481
# Poissons Ratio (y) = 0.12798 0.04834
# Poissons Ratio (z) = 0.44502 0.07143
#
# Static dielectric constant tensor:
#      x y z
#    x 4.219660 0.000000 0.159200 
#    y 0.000000 4.109790 0.000000 
#    z 0.159200 0.000000 4.105480 
# 
# 
# High freq. dielectric constant tensor:
#      x y z
#    x 1.910140 0.000000 0.008360 
#    y 0.000000 1.914310 0.000000 
#    z 0.008360 0.000000 1.904460 
# 
# From -- ./inp_files/9300.got.cif
#   From: 2010.03.12/outbox.cif.g09.slc.cpg/sg3_5_cif.got.tgz:9300.got - 2010.03.31 09:20:49.
