data_PCOD8045531
_publ_section_title
;
Structure prediction by ZEFSAII (Michael W. Deem and Ramdas Pophale) SiO2 
 PCOD8045531
Probable space group: P 2
;
_chemical_formula_sum "Si O2"
_cell_formula_units_Z 11
_cell_length_a 7.803290
_cell_length_b 6.484253
_cell_length_c 12.952276
_cell_angle_alpha 90.000000
_cell_angle_beta 135.506984
_cell_angle_gamma 90.000000
_cell_volume 459.294995
_symmetry_space_group_name_H-M "P 2"
_symmetry_group_IT_number 3
_symmetry_cell_setting 'monoclinic'
loop_
_space_group_symop_operation_xyz
x,y,z
-x,y,-z
loop_
_atom_site_type_symbol
_atom_site_label
_atom_site_fract_x
_atom_site_fract_y
_atom_site_fract_z
Si Si1 0.500000 0.946900 0.500000
Si Si2 0.630952 0.300794 0.698746
Si Si3 0.256223 0.803980 0.983116
Si Si4 0.631448 0.479973 0.221546
Si Si5 0.000000 0.104939 0.000000
Si Si6 0.895165 0.610519 0.681736
Si Si7 0.500000 0.151883 0.000000
O O1 0.742450 0.811064 0.582424
O O2 0.517269 0.086429 0.610423
O O3 0.441880 0.432238 0.690700
O O4 0.701126 0.433684 0.627808
O O5 0.887363 0.255570 0.866099
O O6 0.499746 0.676414 0.113578
O O7 0.209937 0.940246 0.063771
O O8 0.044032 0.654215 0.851730
O O9 0.276145 0.988933 0.907033
O O10 0.921224 0.526282 0.329631
O O11 0.534654 0.282357 0.117931
#
# Coordination Sequence:
#
# PCOD8045531 Si02
#       7
#     1   2   2   2   1   2   1
#     4  12  30  54  74 102 160 210 254 302 384 454
#     4  12  27  49  77 112 145 201 252 309 382 444
#     4  12  22  41  74 116 149 184 240 316 383 436
#     4  12  25  43  78 116 150 187 255 317 375 443
#     4  12  22  42  80 112 150 186 252 314 376 452
#     4  12  25  50  74 105 156 200 245 315 373 447
#     4  12  20  40  70 118 148 180 234 308 388 434
#
# _framework density 23.949746000000001
#
# number of rings (size 3 to 8) (size 9 to 14) (size 15 to 20)
#    0.000    0.000    7.273    3.818    0.000    0.000 
#    0.000    5.455    0.000    0.000    0.000    0.000 
#    0.000    0.000    0.000    0.000    0.000    0.000 
#
# Total GULP energy -136276.237550 kJ/mol
# GULP energy per Si atom -12388.748868 kJ/mol
# Density = 2.389524 g / cm^3
# Si number density = 23.949746 Si / 1000 Ang^3
#
#
#
# Elastic Constant Matrix: (Units=GPa)
#
#
# Indices 1 2 3 4 5 6 
#
# 1 152.1835 72.8245 34.8033 0.0000 18.4021 0.0000
# 2 72.8245 149.5139 39.9236 0.0000 14.7624 0.0000
# 3 34.8033 39.9236 84.1336 0.0000 17.5501 0.0000
# 4 0.0000 0.0000 0.0000 70.4802 0.0000 -9.8347
# 5 18.4021 14.7624 17.5501 0.0000 20.3766 0.0000
# 6 0.0000 0.0000 0.0000 -9.8347 0.0000 58.8776
#
#
#
# Elastic Compliance Matrix: (Units=1/GPa)
#
#
# Indices 1 2 3 4 5 6 
#
# 1 0.009155 -0.003718 -0.001048 0.000000 -0.004671 0.000000
# 2 -0.003718 0.009317 -0.002652 0.000000 -0.001108 0.000000
# 3 -0.001048 -0.002652 0.015822 0.000000 -0.010759 0.000000
# 4 0.000000 0.000000 0.000000 0.014527 0.000000 0.002427
# 5 -0.004671 -0.001108 -0.010759 0.000000 0.063364 0.000000
# 6 0.000000 0.000000 0.000000 0.002427 0.000000 0.017390
#
#
# Mechanical properties :
#
#
# Convention : Reuss Voigt Hill
#
# Bulk Modulus (GPa) = 51.39425 75.65931 63.52678
# Shear Modulus (GPa) = 33.13521 45.83218 39.48369
#
# Velocity S-wave (km/s) = 3.72362 4.37931 4.06471
# Velocity P-wave (km/s) = 6.32399 7.56509 6.97221
#
# Compressibility (1/GPa) = 0.01945743
#
# Stress axis : x y z
#
# Youngs Moduli (GPa) = 109.23314 107.33336 63.20171
#
# Poissons Ratio (x) = 0.39905 0.06626
# Poissons Ratio (y) = 0.40612 0.16761
# Poissons Ratio (z) = 0.11452 0.28464
#
# Static dielectric constant tensor:
#      x y z
#    x 1.318610 0.000000 -0.412500 
#    y 0.000000 4.516060 0.000000 
#    z -0.412500 0.000000 3.871600 
# 
# 
# High freq. dielectric constant tensor:
#      x y z
#    x 1.951620 0.000000 0.010520 
#    y 0.000000 1.977390 0.000000 
#    z 0.010520 0.000000 1.927590 
# 
# From -- ./inp_files/4880.got.cif
#   From: 2010.03.12/outbox.cif.g09.slc.cpg/sg3_3_cif.got.tgz:4880.got - 2010.03.31 09:20:49.
