data_PCOD8045553
_publ_section_title
;
Structure prediction by ZEFSAII (Michael W. Deem and Ramdas Pophale) SiO2 
 PCOD8045553
Probable space group: P 2
;
_chemical_formula_sum "Si O2"
_cell_formula_units_Z 7
_cell_length_a 11.661879
_cell_length_b 4.949822
_cell_length_c 5.511326
_cell_angle_alpha 90.000000
_cell_angle_beta 124.637554
_cell_angle_gamma 90.000000
_cell_volume 261.751691
_symmetry_space_group_name_H-M "P 2"
_symmetry_group_IT_number 3
_symmetry_cell_setting 'monoclinic'
loop_
_space_group_symop_operation_xyz
x,y,z
-x,y,-z
loop_
_atom_site_type_symbol
_atom_site_label
_atom_site_fract_x
_atom_site_fract_y
_atom_site_fract_z
Si Si1 0.000000 0.694150 0.000000
Si Si2 0.860639 0.086942 0.215838
Si Si3 0.637092 0.940516 0.316064
Si Si4 0.268381 0.447600 0.317965
O O1 0.884499 0.494163 0.739284
O O2 0.092819 0.873714 0.932340
O O3 0.772665 0.917987 0.306904
O O4 0.000000 0.212684 0.500000
O O5 0.764434 0.330123 0.991205
O O6 0.648130 0.730884 0.556667
O O7 0.634121 0.239760 0.421250
O O8 0.500000 0.878517 0.000000
#
# Coordination Sequence:
#
# PCOD8045553 Si02
#       4
#     1   2   2   2
#     4  12  24  48  76 120 154 196 268 320 386 462
#     4  12  25  50  82 115 158 204 255 331 393 451
#     4  12  29  53  77 113 159 208 258 319 393 462
#     4  12  26  51  73 119 153 198 269 312 382 477
#
# _framework density 26.742902999999998
#
# number of rings (size 3 to 8) (size 9 to 14) (size 15 to 20)
#    0.000    0.000    5.714    3.429    4.000    2.286 
#   10.286    0.000    0.000    0.000    0.000    0.000 
#    0.000    0.000    0.000    0.000    0.000    0.000 
#
# Total GULP energy -86729.670815 kJ/mol
# GULP energy per Si atom -12389.952974 kJ/mol
# Density = 2.668203 g / cm^3
# Si number density = 26.742903 Si / 1000 Ang^3
#
#
#
# Elastic Constant Matrix: (Units=GPa)
#
#
# Indices 1 2 3 4 5 6 
#
# 1 44.3501 2.4573 9.1348 0.0000 1.5652 0.0000
# 2 2.4573 137.8151 40.1194 0.0000 5.8063 0.0000
# 3 9.1348 40.1194 155.7387 0.0000 37.6293 0.0000
# 4 0.0000 0.0000 0.0000 52.9185 0.0000 5.2195
# 5 1.5652 5.8063 37.6293 0.0000 58.2768 0.0000
# 6 0.0000 0.0000 0.0000 5.2195 0.0000 15.8332
#
#
#
# Elastic Compliance Matrix: (Units=1/GPa)
#
#
# Indices 1 2 3 4 5 6 
#
# 1 0.022828 -0.000010 -0.001408 0.000000 0.000297 0.000000
# 2 -0.000010 0.007863 -0.002175 0.000000 0.000621 0.000000
# 3 -0.001408 -0.002175 0.008297 0.000000 -0.005103 0.000000
# 4 0.000000 0.000000 0.000000 0.019532 0.000000 -0.006439
# 5 0.000297 0.000621 -0.005103 0.000000 0.020384 0.000000
# 6 0.000000 0.000000 0.000000 -0.006439 0.000000 0.065281
#
#
# Mechanical properties :
#
#
# Convention : Reuss Voigt Hill
#
# Bulk Modulus (GPa) = 31.44458 49.03631 40.24045
# Shear Modulus (GPa) = 30.86943 44.48519 37.67731
#
# Velocity S-wave (km/s) = 3.40119 4.08295 3.75757
# Velocity P-wave (km/s) = 5.21611 6.37208 5.82285
#
# Compressibility (1/GPa) = 0.03180198
#
# Stress axis : x y z
#
# Youngs Moduli (GPa) = 43.80595 127.17273 120.52719
#
# Poissons Ratio (x) = 0.00122 0.16974
# Poissons Ratio (y) = 0.00042 0.26217
# Poissons Ratio (z) = 0.06169 0.27663
#
# Static dielectric constant tensor:
#      x y z
#    x 4.539190 0.000000 0.184670 
#    y 0.000000 4.884940 0.000000 
#    z 0.184670 0.000000 5.184380 
# 
# 
# High freq. dielectric constant tensor:
#      x y z
#    x 2.042700 0.000000 0.023180 
#    y 0.000000 2.084830 0.000000 
#    z 0.023180 0.000000 2.090970 
# 
# From -- ./inp_files/1881.got.cif
#   From: 2010.03.12/outbox.cif.g09.slc.cpg/sg3_1_cif.got.tgz:1881.got - 2010.03.31 09:20:49.
