data_PCOD8045968
_publ_section_title
;
Structure prediction by ZEFSAII (Michael W. Deem and Ramdas Pophale) SiO2 
 PCOD8045968
Probable space group: P 21
;
_chemical_formula_sum "Si O2"
_cell_formula_units_Z 12
_cell_length_a 9.529691
_cell_length_b 14.748437
_cell_length_c 8.153570
_cell_angle_alpha 90.000000
_cell_angle_beta 148.835813
_cell_angle_gamma 90.000000
_cell_volume 593.029746
_symmetry_space_group_name_H-M "P 21"
_symmetry_group_IT_number 4
_symmetry_cell_setting 'monoclinic'
loop_
_space_group_symop_operation_xyz
x,y,z
-x,1/2+y,-z
loop_
_atom_site_type_symbol
_atom_site_label
_atom_site_fract_x
_atom_site_fract_y
_atom_site_fract_z
Si Si1 0.627585 0.846310 0.020497
Si Si2 0.872398 0.374787 0.264333
Si Si3 0.991063 0.049768 0.807298
Si Si4 0.206559 0.412089 0.145286
Si Si5 0.492615 0.671359 0.676933
Si Si6 0.706593 0.309078 0.766847
O O1 0.860138 0.832723 0.387356
O O2 0.360099 0.888357 0.833849
O O3 0.724328 0.917821 0.978498
O O4 0.559866 0.749507 0.873686
O O5 0.939627 0.471608 0.252434
O O6 0.775624 0.303300 0.028801
O O7 0.748370 0.110095 0.490203
O O8 0.897248 0.007587 0.887952
O O9 0.248225 0.111092 0.101443
O O10 0.475535 0.385510 0.515334
O O11 0.975575 0.335649 0.934774
O O12 0.397331 0.713565 0.407486
#
# Coordination Sequence:
#
# PCOD8045968 Si02
#       6
#     2   2   2   2   2   2
#     4  11  22  39  63  90 122 160 197 241 302 368
#     4  11  22  39  63  90 122 160 197 241 302 368
#     4  11  22  39  63  90 118 156 204 255 294 340
#     4  10  20  38  62  86 114 158 203 234 284 366
#     4  11  22  39  63  90 118 156 204 255 294 340
#     4  10  20  38  62  86 114 158 203 234 284 366
#
# _framework density 20.235071999999999
#
# number of rings (size 3 to 8) (size 9 to 14) (size 15 to 20)
#    0.000    1.333    0.000   10.000    0.000    0.000 
#    0.000    6.667    0.000    8.000    0.000    0.000 
#    0.000    0.000    0.000    0.000    0.000    0.000 
#
# Total GULP energy -148831.859875 kJ/mol
# GULP energy per Si atom -12402.654990 kJ/mol
# Density = 2.018902 g / cm^3
# Si number density = 20.235072 Si / 1000 Ang^3
#
#
#
# Elastic Constant Matrix: (Units=GPa)
#
#
# Indices 1 2 3 4 5 6 
#
# 1 115.1910 79.9547 48.2201 0.0000 12.8997 0.0000
# 2 79.9547 92.3416 55.8861 0.0000 -11.6185 0.0000
# 3 48.2201 55.8861 137.8766 0.0000 0.7907 0.0000
# 4 0.0000 0.0000 0.0000 39.5604 0.0000 16.8345
# 5 12.8997 -11.6185 0.7907 0.0000 38.6936 0.0000
# 6 0.0000 0.0000 0.0000 16.8345 0.0000 8.8351
#
#
#
# Elastic Compliance Matrix: (Units=1/GPa)
#
#
# Indices 1 2 3 4 5 6 
#
# 1 0.031686 -0.030870 0.001545 0.000000 -0.019864 0.000000
# 2 -0.030870 0.045225 -0.007673 0.000000 0.024028 0.000000
# 3 0.001545 -0.007673 0.009840 0.000000 -0.003020 0.000000
# 4 0.000000 0.000000 0.000000 0.133625 0.000000 -0.254611
# 5 -0.019864 0.024028 -0.003020 0.000000 0.039743 0.000000
# 6 0.000000 0.000000 0.000000 -0.254611 0.000000 0.598327
#
#
# Mechanical properties :
#
#
# Convention : Reuss Voigt Hill
#
# Bulk Modulus (GPa) = 78.39820 79.28122 78.83971
# Shear Modulus (GPa) = 5.33792 28.17436 16.75614
#
# Velocity S-wave (km/s) = 1.62594 3.73547 2.88075
# Velocity P-wave (km/s) = 6.50790 7.60724 7.07894
#
# Compressibility (1/GPa) = 0.01275539
#
# Stress axis : x y z
#
# Youngs Moduli (GPa) = 31.55966 22.11152 101.62631
#
# Poissons Ratio (x) = 0.68258 -0.15700
# Poissons Ratio (y) = 0.97424 0.77977
# Poissons Ratio (z) = -0.04876 0.16966
#
# Static dielectric constant tensor:
#      x y z
#    x 3.761890 0.000000 0.192290 
#    y 0.000000 3.603790 0.000000 
#    z 0.192290 0.000000 4.130130 
# 
# 
# High freq. dielectric constant tensor:
#      x y z
#    x 1.789080 0.000000 0.015960 
#    y 0.000000 1.769510 0.000000 
#    z 0.015960 0.000000 1.819520 
# 
# From -- ./inp_files/4776.got.cif
#   From: 2010.03.12/outbox.cif.g09.slc.cpg/sg4_3_cif.got.tgz:4776.got - 2010.03.31 09:31:35.
