data_PCOD8045580
_publ_section_title
;
Structure prediction by ZEFSAII (Michael W. Deem and Ramdas Pophale) SiO2 
 PCOD8045580
Probable space group: P 2
;
_chemical_formula_sum "Si O2"
_cell_formula_units_Z 14
_cell_length_a 15.000000
_cell_length_b 9.000000
_cell_length_c 15.000000
_cell_angle_alpha 90.000000
_cell_angle_beta 160.000000
_cell_angle_gamma 90.000000
_cell_volume 692.590790
_symmetry_space_group_name_H-M "P 2"
_symmetry_group_IT_number 3
_symmetry_cell_setting 'monoclinic'
loop_
_space_group_symop_operation_xyz
x,y,z
-x,y,-z
loop_
_atom_site_type_symbol
_atom_site_label
_atom_site_fract_x
_atom_site_fract_y
_atom_site_fract_z
Si Si1 0.767795 0.888650 0.711512
Si Si2 0.857821 0.776440 0.596804
Si Si3 0.834411 0.395803 0.929695
Si Si4 0.352399 0.576690 0.082347
Si Si5 0.144113 0.111810 0.468464
Si Si6 0.414205 0.277459 0.020106
Si Si7 0.311668 0.207933 0.436558
O O1 0.500000 0.819224 0.500000
O O2 0.835255 0.811069 0.681060
O O3 0.720045 0.064244 0.655124
O O4 0.000000 0.861781 0.000000
O O5 0.609281 0.680752 0.329712
O O6 0.886887 0.931464 0.568182
O O7 0.115858 0.676748 0.821237
O O8 0.049901 0.303498 0.184383
O O9 0.727054 0.526222 0.892092
O O10 0.584021 0.292850 0.667052
O O11 0.000000 0.459132 0.000000
O O12 0.407636 0.430790 0.072561
O O13 0.352508 0.162216 0.738145
O O14 0.304933 0.164243 0.532999
O O15 0.864522 0.191544 0.227028
O O16 0.500000 0.322809 0.000000
#
# Coordination Sequence:
#
# PCOD8045580 Si02
#       7
#     2   2   2   2   2   2   2
#     4  11  22  37  60  90 130 176 235 278 318 387
#     4  11  26  42  69  93 139 187 216 273 349 395
#     4  12  23  36  61  95 137 179 227 275 324 383
#     4  12  24  45  65 101 142 179 220 276 340 411
#     4  11  22  46  71 102 131 173 228 283 337 406
#     4  12  25  46  77 103 130 171 225 286 349 410
#     4  11  20  38  61  94 130 173 224 289 327 376
#
# _framework density 20.213956
#
# number of rings (size 3 to 8) (size 9 to 14) (size 15 to 20)
#    0.000    0.571    2.857    6.429    0.000    6.286 
#    0.000    4.286    0.000    0.000    0.000    0.000 
#    0.000    0.000    0.000    0.000    0.000    0.000 
#
# Total GULP energy -173480.365522 kJ/mol
# GULP energy per Si atom -12391.454680 kJ/mol
# Density = 2.016795 g / cm^3
# Si number density = 20.213956 Si / 1000 Ang^3
#
#
#
# Elastic Constant Matrix: (Units=GPa)
#
#
# Indices 1 2 3 4 5 6 
#
# 1 123.3759 46.9697 34.3952 0.0000 10.2549 0.0000
# 2 46.9697 146.5591 66.0691 0.0000 6.9891 0.0000
# 3 34.3952 66.0691 191.0342 0.0000 22.4229 0.0000
# 4 0.0000 0.0000 0.0000 50.4211 0.0000 6.2980
# 5 10.2549 6.9891 22.4229 0.0000 39.9036 0.0000
# 6 0.0000 0.0000 0.0000 6.2980 0.0000 35.1756
#
#
#
# Elastic Compliance Matrix: (Units=1/GPa)
#
#
# Indices 1 2 3 4 5 6 
#
# 1 0.009423 -0.002682 -0.000578 0.000000 -0.001627 0.000000
# 2 -0.002682 0.008848 -0.002651 0.000000 0.000629 0.000000
# 3 -0.000578 -0.002651 0.006620 0.000000 -0.003107 0.000000
# 4 0.000000 0.000000 0.000000 0.020287 0.000000 -0.003632
# 5 -0.001627 0.000629 -0.003107 0.000000 0.027114 0.000000
# 6 0.000000 0.000000 0.000000 -0.003632 0.000000 0.029079
#
#
# Mechanical properties :
#
#
# Convention : Reuss Voigt Hill
#
# Bulk Modulus (GPa) = 76.51583 83.98189 80.24886
# Shear Modulus (GPa) = 42.53565 46.00242 44.26903
#
# Velocity S-wave (km/s) = 4.59221 4.77568 4.68485
# Velocity P-wave (km/s) = 8.12730 8.48800 8.30961
#
# Compressibility (1/GPa) = 0.01306919
#
# Stress axis : x y z
#
# Youngs Moduli (GPa) = 106.12784 113.02431 151.05019
#
# Poissons Ratio (x) = 0.30308 0.08733
# Poissons Ratio (y) = 0.28459 0.40043
# Poissons Ratio (z) = 0.06135 0.29963
#
# Static dielectric constant tensor:
#      x y z
#    x 3.971520 0.000000 0.200630 
#    y 0.000000 4.067130 0.000000 
#    z 0.200630 0.000000 4.112720 
# 
# 
# High freq. dielectric constant tensor:
#      x y z
#    x 1.805000 0.000000 0.017890 
#    y 0.000000 1.813750 0.000000 
#    z 0.017890 0.000000 1.830570 
# 
# From -- ./inp_files/13974.got.cif
#   From: 2010.06.25/outbox.ucp.g09.slc.cvg/sg3_7_cif.got.tgz:13974.got - 2010.06.28 13:21:42.
