data_PCOD8045576
_publ_section_title
;
Structure prediction by ZEFSAII (Michael W. Deem and Ramdas Pophale) SiO2 
 PCOD8045576
Probable space group: P 2
;
_chemical_formula_sum "Si O2"
_cell_formula_units_Z 16
_cell_length_a 26.697417
_cell_length_b 8.529379
_cell_length_c 21.402304
_cell_angle_alpha 90.000000
_cell_angle_beta 11.563172
_cell_angle_gamma 90.000000
_cell_volume 976.898470
_symmetry_space_group_name_H-M "P 2"
_symmetry_group_IT_number 3
_symmetry_cell_setting 'monoclinic'
loop_
_space_group_symop_operation_xyz
x,y,z
-x,y,-z
loop_
_atom_site_type_symbol
_atom_site_label
_atom_site_fract_x
_atom_site_fract_y
_atom_site_fract_z
Si Si1 0.006533 0.877860 0.239636
Si Si2 0.545820 0.088950 0.284970
Si Si3 0.133896 0.298515 0.196475
Si Si4 0.545837 0.297268 0.784954
Si Si5 0.993472 0.508350 0.260360
Si Si6 0.313647 0.087012 0.279177
Si Si7 0.313662 0.299196 0.779160
Si Si8 0.866126 0.087691 0.303500
O O1 0.000027 0.693105 0.249970
O O2 0.804033 0.948507 0.535470
O O3 0.950568 0.931104 0.236913
O O4 0.284896 0.933438 0.917808
O O5 0.526375 0.175194 0.375361
O O6 0.271747 0.043665 0.593147
O O7 0.674212 0.212888 0.083074
O O8 0.049430 0.455092 0.263091
O O9 0.902045 0.183940 0.493025
O O10 0.271758 0.342542 0.093137
O O11 0.715094 0.452794 0.582209
O O12 0.526399 0.211029 0.875338
O O13 0.674273 0.173337 0.583008
O O14 0.195946 0.437693 0.964555
O O15 0.500000 0.012859 0.000000
O O16 0.500000 0.373358 0.500000
O O17 0.098011 0.202240 0.006905
#
# Coordination Sequence:
#
# PCOD8045576 Si02
#       8
#     2   2   2   2   2   2   2   2
#     4   9  17  29  45  68  95 122 150 179 222 280
#     4   8  15  29  47  64  84 115 153 185 215 262
#     4   8  15  29  47  64  84 115 153 185 215 262
#     4   8  15  29  47  64  84 115 153 185 215 262
#     4   9  17  29  45  68  95 122 150 179 222 280
#     4   9  17  29  46  66  87 114 152 197 234 262
#     4   9  17  29  46  66  87 114 152 197 234 262
#     4   8  15  29  47  64  84 115 153 185 215 262
#
# _framework density 16.378364000000001
#
# number of rings (size 3 to 8) (size 9 to 14) (size 15 to 20)
#    0.000    3.500    0.000    3.000    0.000    2.000 
#    0.000    5.000    0.000    0.000    0.000    0.000 
#    0.000    0.000    0.000    0.000    0.000    0.000 
#
# Total GULP energy -198260.478493 kJ/mol
# GULP energy per Si atom -12391.279906 kJ/mol
# Density = 1.634109 g / cm^3
# Si number density = 16.378364 Si / 1000 Ang^3
#
#
#
# Elastic Constant Matrix: (Units=GPa)
#
#
# Indices 1 2 3 4 5 6 
#
# 1 77.7973 28.4196 49.9728 0.0000 -24.5802 0.0000
# 2 28.4196 112.5068 27.8372 0.0000 -8.8926 0.0000
# 3 49.9728 27.8372 72.4160 0.0000 -7.8868 0.0000
# 4 0.0000 0.0000 0.0000 11.7164 0.0000 -1.0286
# 5 -24.5802 -8.8926 -7.8868 0.0000 41.6805 0.0000
# 6 0.0000 0.0000 0.0000 -1.0286 0.0000 12.8167
#
#
#
# Elastic Compliance Matrix: (Units=1/GPa)
#
#
# Indices 1 2 3 4 5 6 
#
# 1 0.029475 -0.001887 -0.018140 0.000000 0.013548 0.000000
# 2 -0.001887 0.010025 -0.002491 0.000000 0.000555 0.000000
# 3 -0.018140 -0.002491 0.026610 0.000000 -0.006194 0.000000
# 4 0.000000 0.000000 0.000000 0.085956 0.000000 0.006899
# 5 0.013548 0.000555 -0.006194 0.000000 0.030928 0.000000
# 6 0.000000 0.000000 0.000000 0.006899 0.000000 0.078577
#
#
# Mechanical properties :
#
#
# Convention : Reuss Voigt Hill
#
# Bulk Modulus (GPa) = 47.44889 52.79771 50.12330
# Shear Modulus (GPa) = 15.94225 23.67543 19.80884
#
# Velocity S-wave (km/s) = 3.12328 3.80614 3.48149
# Velocity P-wave (km/s) = 6.48381 7.18483 6.84331
#
# Compressibility (1/GPa) = 0.02107531
#
# Stress axis : x y z
#
# Youngs Moduli (GPa) = 33.92651 99.74854 37.57965
#
# Poissons Ratio (x) = 0.18818 0.68169
# Poissons Ratio (y) = 0.06400 0.09363
# Poissons Ratio (z) = 0.61542 0.24852
#
# Static dielectric constant tensor:
#      x y z
#    x 3.669230 0.000000 -0.616030 
#    y 0.000000 2.713720 0.000000 
#    z -0.616030 0.000000 3.230370 
# 
# 
# High freq. dielectric constant tensor:
#      x y z
#    x 1.629950 0.000000 -0.018690 
#    y 0.000000 1.596870 0.000000 
#    z -0.018690 0.000000 1.619590 
# 
# From -- ./inp_files/15482.got.cif
#   From: 2010.03.12/outbox.cif.g09.slc.cpg/sg3_8_cif.got.tgz:15482.got - 2010.03.31 09:20:49.
