data_PCOD8045126
_publ_section_title
;
Structure prediction by ZEFSAII (Michael W. Deem and Ramdas Pophale) SiO2 
 PCOD8045126
Probable space group: P 2
;
_chemical_formula_sum "Si O2"
_cell_formula_units_Z 13
_cell_length_a 17.514351
_cell_length_b 6.460001
_cell_length_c 4.927987
_cell_angle_alpha 90.000000
_cell_angle_beta 80.673288
_cell_angle_gamma 90.000000
_cell_volume 550.195006
_symmetry_space_group_name_H-M "P 2"
_symmetry_group_IT_number 3
_symmetry_cell_setting 'monoclinic'
loop_
_space_group_symop_operation_xyz
x,y,z
-x,y,-z
loop_
_atom_site_type_symbol
_atom_site_label
_atom_site_fract_x
_atom_site_fract_y
_atom_site_fract_z
Si Si1 0.500000 0.225610 0.000000
Si Si2 0.080541 0.331956 0.024407
Si Si3 0.767495 0.577702 0.053526
Si Si4 0.231253 0.830202 0.451504
Si Si5 0.403408 0.569742 0.763356
Si Si6 0.919858 0.068742 0.476387
Si Si7 0.598968 0.864614 0.737197
O O1 0.454503 0.370932 0.812042
O O2 0.551047 0.078543 0.772572
O O3 0.159383 0.444118 0.900517
O O4 0.080300 0.124633 0.840195
O O5 0.078927 0.276993 0.342172
O O6 0.000000 0.455966 0.000000
O O7 0.776952 0.786920 0.224558
O O8 0.684855 0.481247 0.190804
O O9 0.766803 0.621603 0.732745
O O10 0.313041 0.944292 0.357442
O O11 0.157293 0.952866 0.388431
O O12 0.425881 0.684869 0.466044
O O13 0.412745 0.756824 0.967747
O O14 0.000000 0.943818 0.500000
#
# Coordination Sequence:
#
# PCOD8045126 Si02
#       7
#     1   2   2   2   2   2   2
#     4  12  26  46  80  96 132 202 214 274 392 388
#     4  10  21  36  58  90 126 162 208 260 305 378
#     4  10  21  40  62  89 126 164 207 268 322 374
#     4  10  21  40  62  89 126 164 207 268 322 374
#     4  10  25  46  67 102 138 167 230 288 323 417
#     4  10  21  36  58  90 126 162 208 260 305 378
#     4  10  25  46  67 102 138 167 230 288 323 417
#
# _framework density 23.627987000000001
#
# number of rings (size 3 to 8) (size 9 to 14) (size 15 to 20)
#    0.000    1.846    0.000    2.308    2.154    6.154 
#    0.000    0.000    0.000    0.000    0.000    0.000 
#    0.000    0.000    0.000    0.000    0.000    0.000 
#
# Total GULP energy -161059.576769 kJ/mol
# GULP energy per Si atom -12389.198213 kJ/mol
# Density = 2.357421 g / cm^3
# Si number density = 23.627987 Si / 1000 Ang^3
#
#
#
# Elastic Constant Matrix: (Units=GPa)
#
#
# Indices 1 2 3 4 5 6 
#
# 1 205.7331 81.3341 26.9230 0.0000 -4.1923 0.0000
# 2 81.3341 79.6848 22.5412 0.0000 -8.3464 0.0000
# 3 26.9230 22.5412 104.0431 0.0000 1.7167 0.0000
# 4 0.0000 0.0000 0.0000 23.6191 0.0000 1.5203
# 5 -4.1923 -8.3464 1.7167 0.0000 29.9089 0.0000
# 6 0.0000 0.0000 0.0000 1.5203 0.0000 43.8339
#
#
#
# Elastic Compliance Matrix: (Units=1/GPa)
#
#
# Indices 1 2 3 4 5 6 
#
# 1 0.008200 -0.008414 -0.000279 0.000000 -0.001183 0.000000
# 2 -0.008414 0.022474 -0.002778 0.000000 0.005252 0.000000
# 3 -0.000279 -0.002778 0.010309 0.000000 -0.001406 0.000000
# 4 0.000000 0.000000 0.000000 0.042433 0.000000 -0.001472
# 5 -0.001183 0.005252 -0.001406 0.000000 0.034815 0.000000
# 6 0.000000 0.000000 0.000000 -0.001472 0.000000 0.022864
#
#
# Mechanical properties :
#
#
# Convention : Reuss Voigt Hill
#
# Bulk Modulus (GPa) = 55.43691 72.33972 63.88832
# Shear Modulus (GPa) = 29.40284 36.71656 33.05970
#
# Velocity S-wave (km/s) = 3.53144 3.94629 3.74461
# Velocity P-wave (km/s) = 6.33573 7.17264 6.76714
#
# Compressibility (1/GPa) = 0.01803852
#
# Stress axis : x y z
#
# Youngs Moduli (GPa) = 121.95799 44.49638 97.00433
#
# Poissons Ratio (x) = 0.37440 0.02710
# Poissons Ratio (y) = 1.02617 0.26951
# Poissons Ratio (z) = 0.03407 0.12363
#
# Static dielectric constant tensor:
#      x y z
#    x 5.020460 0.000000 -0.087420 
#    y 0.000000 3.590830 0.000000 
#    z -0.087420 0.000000 4.219140 
# 
# 
# High freq. dielectric constant tensor:
#      x y z
#    x 1.975230 0.000000 -0.003940 
#    y 0.000000 1.876060 0.000000 
#    z -0.003940 0.000000 1.953990 
# 
# From -- ./inp_files/3421.got.cif
#   From: 2010.03.12/outbox.cif.g09.slc.cpg/sg3_2_cif.got.tgz:3421.got - 2010.03.31 09:20:49.
