data_PCOD8045600
_publ_section_title
;
Structure prediction by ZEFSAII (Michael W. Deem and Ramdas Pophale) SiO2 
 PCOD8045600
Probable space group: P 21
;
_chemical_formula_sum "Si O2"
_cell_formula_units_Z 14
_cell_length_a 15.869491
_cell_length_b 5.245234
_cell_length_c 8.363934
_cell_angle_alpha 90.000000
_cell_angle_beta 71.956501
_cell_angle_gamma 90.000000
_cell_volume 661.968796
_symmetry_space_group_name_H-M "P 21"
_symmetry_group_IT_number 4
_symmetry_cell_setting 'monoclinic'
loop_
_space_group_symop_operation_xyz
x,y,z
-x,1/2+y,-z
loop_
_atom_site_type_symbol
_atom_site_label
_atom_site_fract_x
_atom_site_fract_y
_atom_site_fract_z
Si Si1 0.504463 0.356130 0.896037
Si Si2 0.768065 0.844561 0.690711
Si Si3 0.299940 0.842271 0.293280
Si Si4 0.030317 0.683969 0.063426
Si Si5 0.765454 0.298157 0.032978
Si Si6 0.030287 0.480840 0.400288
Si Si7 0.684231 0.800042 0.086328
O O1 0.595393 0.385342 0.744466
O O2 0.422076 0.286774 0.829363
O O3 0.481371 0.627454 0.987676
O O4 0.754584 0.580991 0.599722
O O5 0.868948 0.891086 0.679496
O O6 0.729934 0.077456 0.605312
O O7 0.707933 0.796485 0.883493
O O8 0.268444 0.794878 0.129109
O O9 0.992779 0.583552 0.254435
O O10 0.129449 0.787564 0.020397
O O11 0.026025 0.435674 0.950759
O O12 0.729325 0.552492 0.141492
O O13 0.723861 0.052188 0.146398
O O14 0.023899 0.724456 0.522639
#
# Coordination Sequence:
#
# PCOD8045600 Si02
#       7
#     2   2   2   2   2   2   2
#     4  12  16  24  38  74  98 150 178 220 258 352
#     4  10  18  31  48  68 100 146 185 216 284 344
#     4  10  17  27  47  67 109 142 188 210 282 355
#     4  12  25  40  61  84 113 151 207 253 294 347
#     4  10  18  31  48  68 100 146 185 216 284 344
#     4  12  25  40  61  84 113 151 207 253 294 347
#     4  10  17  27  47  67 109 142 188 210 282 355
#
# _framework density 21.149035000000001
#
# number of rings (size 3 to 8) (size 9 to 14) (size 15 to 20)
#    0.000    1.143    8.571    2.571    4.000    0.000 
#    0.000    0.000    0.000    0.000    0.000    0.000 
#    0.000    0.000    0.000  115.714    2.286    0.000 
#
# Total GULP energy -173461.306583 kJ/mol
# GULP energy per Si atom -12390.093327 kJ/mol
# Density = 2.110090 g / cm^3
# Si number density = 21.149035 Si / 1000 Ang^3
#
#
#
# Elastic Constant Matrix: (Units=GPa)
#
#
# Indices 1 2 3 4 5 6 
#
# 1 102.1875 40.0408 23.7288 0.0000 -17.8656 0.0000
# 2 40.0408 209.2665 12.4173 0.0000 -5.0917 0.0000
# 3 23.7288 12.4173 21.5858 0.0000 -2.0090 0.0000
# 4 0.0000 0.0000 0.0000 18.6962 0.0000 -6.8898
# 5 -17.8656 -5.0917 -2.0090 0.0000 9.5007 0.0000
# 6 0.0000 0.0000 0.0000 -6.8898 0.0000 42.1566
#
#
#
# Elastic Compliance Matrix: (Units=1/GPa)
#
#
# Indices 1 2 3 4 5 6 
#
# 1 0.020907 -0.002062 -0.018606 0.000000 0.034275 0.000000
# 2 -0.002062 0.005192 -0.000838 0.000000 -0.001273 0.000000
# 3 -0.018606 -0.000838 0.065248 0.000000 -0.021640 0.000000
# 4 0.000000 0.000000 0.000000 0.056915 0.000000 0.009302
# 5 0.034275 -0.001273 -0.021640 0.000000 0.164449 0.000000
# 6 0.000000 0.000000 0.000000 0.009302 0.000000 0.025241
#
#
# Mechanical properties :
#
#
# Convention : Reuss Voigt Hill
#
# Bulk Modulus (GPa) = 20.68947 53.93485 37.31216
# Shear Modulus (GPa) = 12.59205 31.19424 21.89314
#
# Velocity S-wave (km/s) = 2.44272 3.84470 3.22092
# Velocity P-wave (km/s) = 4.21424 6.72805 5.61366
#
# Compressibility (1/GPa) = 0.04833378
#
# Stress axis : x y z
#
# Youngs Moduli (GPa) = 47.83131 192.60556 15.32615
#
# Poissons Ratio (x) = 0.39721 0.28516
# Poissons Ratio (y) = 0.09864 0.01284
# Poissons Ratio (z) = 0.88995 0.16142
#
# Static dielectric constant tensor:
#      x y z
#    x 3.795360 0.000000 -0.241050 
#    y 0.000000 5.819880 0.000000 
#    z -0.241050 0.000000 3.062110 
# 
# 
# High freq. dielectric constant tensor:
#      x y z
#    x 1.830550 0.000000 -0.033410 
#    y 0.000000 1.882390 0.000000 
#    z -0.033410 0.000000 1.728290 
# 
# From -- ./inp_files/8583.got.cif
#   From: 2010.03.12/outbox.cif.g09.slc.cpg/sg4_5_cif.got.tgz:8583.got - 2010.03.31 09:31:35.
