data_PCOD8045078
_publ_section_title
;
Structure prediction by ZEFSAII (Michael W. Deem and Ramdas Pophale) SiO2 
 PCOD8045078
Probable space group: P 2
;
_chemical_formula_sum "Si O2"
_cell_formula_units_Z 16
_cell_length_a 9.306314
_cell_length_b 17.797986
_cell_length_c 8.377603
_cell_angle_alpha 90.000000
_cell_angle_beta 32.233349
_cell_angle_gamma 90.000000
_cell_volume 740.109323
_symmetry_space_group_name_H-M "P 2"
_symmetry_group_IT_number 3
_symmetry_cell_setting 'monoclinic'
loop_
_space_group_symop_operation_xyz
x,y,z
-x,y,-z
loop_
_atom_site_type_symbol
_atom_site_label
_atom_site_fract_x
_atom_site_fract_y
_atom_site_fract_z
Si Si1 0.020079 0.785170 0.655637
Si Si2 0.722070 0.509931 0.168963
Si Si3 0.040085 0.268461 0.649077
Si Si4 0.785858 0.621631 0.820503
Si Si5 0.536061 0.022297 0.653743
Si Si6 0.045133 0.102458 0.269638
Si Si7 0.542098 0.854678 0.274995
Si Si8 0.455389 0.365367 0.853984
O O1 0.920051 0.699954 0.745299
O O2 0.000000 0.822343 0.500000
O O3 0.334510 0.792445 0.403670
O O4 0.844213 0.830551 0.948530
O O5 0.500000 0.541300 0.500000
O O6 0.579918 0.440977 0.212036
O O7 0.770368 0.574250 0.994985
O O8 0.000000 0.489415 0.000000
O O9 0.307361 0.314397 0.439741
O O10 0.000000 0.260077 0.500000
O O11 0.029865 0.184693 0.731944
O O12 0.803253 0.317091 0.943480
O O13 0.000000 0.581246 0.500000
O O14 0.500000 0.632245 0.000000
O O15 0.500000 0.029105 0.500000
O O16 0.847133 0.041430 0.383532
O O17 0.498632 0.938166 0.756580
O O18 0.346747 0.079318 0.932623
O O19 0.000000 0.103031 0.500000
O O20 0.500000 0.858422 0.500000
O O21 0.500000 0.384337 0.000000
#
# Coordination Sequence:
#
# PCOD8045078 Si02
#       8
#     2   2   2   2   2   2   2   2
#     4  11  23  41  65  94 122 154 206 264 306 356
#     4  12  26  42  63  97 132 161 204 265 312 361
#     4   9  19  36  61  90 117 154 207 257 303 365
#     4  11  24  45  68  92 125 168 209 251 310 382
#     4  11  24  41  59  87 127 167 204 247 309 379
#     4  11  22  39  64  92 120 156 210 265 306 357
#     4  11  24  41  62  88 125 168 205 246 308 381
#     4  10  20  39  64  86 118 166 207 245 306 377
#
# _framework density 21.61843
#
# number of rings (size 3 to 8) (size 9 to 14) (size 15 to 20)
#    0.000    1.250    0.000    6.375    0.000   10.000 
#    0.000    6.250    0.000    0.000    0.000    0.000 
#    0.000    0.000    0.000    0.000    0.000    0.000 
#
# Total GULP energy -198376.193251 kJ/mol
# GULP energy per Si atom -12398.512078 kJ/mol
# Density = 2.156923 g / cm^3
# Si number density = 21.618430 Si / 1000 Ang^3
#
#
#
# Elastic Constant Matrix: (Units=GPa)
#
#
# Indices 1 2 3 4 5 6 
#
# 1 84.5824 45.1731 31.2405 0.0000 -11.0116 0.0000
# 2 45.1731 114.9949 39.1925 0.0000 3.1628 0.0000
# 3 31.2405 39.1925 137.8397 0.0000 1.7801 0.0000
# 4 0.0000 0.0000 0.0000 2.9257 0.0000 -13.2782
# 5 -11.0116 3.1628 1.7801 0.0000 47.5035 0.0000
# 6 0.0000 0.0000 0.0000 -13.2782 0.0000 30.1959
#
#
#
# Elastic Compliance Matrix: (Units=1/GPa)
#
#
# Indices 1 2 3 4 5 6 
#
# 1 0.016232 -0.005780 -0.002090 0.000000 0.004226 0.000000
# 2 -0.005780 0.011701 -0.001991 0.000000 -0.002044 0.000000
# 3 -0.002090 -0.001991 0.008303 0.000000 -0.000663 0.000000
# 4 0.000000 0.000000 0.000000 -0.343266 0.000000 -0.150946
# 5 0.004226 -0.002044 -0.000663 0.000000 0.022192 0.000000
# 6 0.000000 0.000000 0.000000 -0.150946 0.000000 -0.033259
#
#
# Mechanical properties :
#
#
# Convention : Reuss Voigt Hill
#
# Bulk Modulus (GPa) = 60.55213 63.18101 61.86657
# Shear Modulus (GPa) = -17.07234 30.91242 6.92004
#
# Velocity S-wave (km/s) = -2.81323 3.78552 1.79107
# Velocity P-wave (km/s) = 4.18544 6.95671 5.74081
#
# Compressibility (1/GPa) = 0.01651470
#
# Stress axis : x y z
#
# Youngs Moduli (GPa) = 61.60695 85.46018 120.43795
#
# Poissons Ratio (x) = 0.49398 0.25170
# Poissons Ratio (y) = 0.35611 0.23975
# Poissons Ratio (z) = 0.12875 0.17012
#
# Static dielectric constant tensor:
#      x y z
#    x 3.826510 0.000000 0.056390 
#    y 0.000000 4.016130 0.000000 
#    z 0.056390 0.000000 4.281820 
# 
# 
# High freq. dielectric constant tensor:
#      x y z
#    x 1.842990 0.000000 -0.003000 
#    y 0.000000 1.854080 0.000000 
#    z -0.003000 0.000000 1.869750 
# 
# From -- ./inp_files/6219.got.cif
#   From: 2010.03.12/outbox.cif.g09.slc.cpg/sg3_4_cif.got.tgz:6219.got - 2010.03.31 09:20:49.
