data_PCOD8045021
_publ_section_title
;
Structure prediction by ZEFSAII (Michael W. Deem and Ramdas Pophale) SiO2 
 PCOD8045021
Probable space group: P 2
;
_chemical_formula_sum "Si O2"
_cell_formula_units_Z 14
_cell_length_a 18.286523
_cell_length_b 8.740355
_cell_length_c 9.067044
_cell_angle_alpha 90.000000
_cell_angle_beta 28.827258
_cell_angle_gamma 90.000000
_cell_volume 698.757660
_symmetry_space_group_name_H-M "P 2"
_symmetry_group_IT_number 3
_symmetry_cell_setting 'monoclinic'
loop_
_space_group_symop_operation_xyz
x,y,z
-x,y,-z
loop_
_atom_site_type_symbol
_atom_site_label
_atom_site_fract_x
_atom_site_fract_y
_atom_site_fract_z
Si Si1 0.361821 0.521450 0.835764
Si Si2 0.936963 0.843137 0.947733
Si Si3 0.867165 0.288641 0.632834
Si Si4 0.201634 0.964400 0.298370
Si Si5 0.321655 0.843131 0.793646
Si Si6 0.059426 0.521445 0.742994
Si Si7 0.361689 0.682149 0.138315
O O1 0.500000 0.446550 0.500000
O O2 0.297226 0.661619 0.854558
O O3 0.239090 0.390579 0.075615
O O4 0.413468 0.592605 0.900692
O O5 0.033880 0.929119 0.652666
O O6 0.949023 0.661617 0.899231
O O7 0.758585 0.884359 0.224249
O O8 0.000000 0.888692 0.000000
O O9 0.946202 0.390608 0.368521
O O10 0.000000 0.219795 0.500000
O O11 0.773056 0.147744 0.726928
O O12 0.319305 0.858932 0.180715
O O13 0.220455 0.929146 0.092977
O O14 0.500000 0.888649 0.500000
O O15 0.227643 0.592596 0.458204
O O16 0.000000 0.446515 0.000000
O O17 0.500000 0.686477 0.000000
#
# Coordination Sequence:
#
# PCOD8045021 Si02
#       7
#     2   2   2   2   2   2   2
#     4   9  20  35  56  82 108 138 181 229 275 327
#     4  10  20  36  58  83 107 141 188 235 277 324
#     4  11  21  35  54  78 110 147 181 219 270 330
#     4  10  22  36  54  80 113 147 184 223 269 332
#     4  10  20  36  58  83 107 141 188 235 277 324
#     4   9  20  35  56  82 108 138 181 229 275 327
#     4   9  19  37  60  82 108 142 183 232 280 324
#
# _framework density 20.03556
#
# number of rings (size 3 to 8) (size 9 to 14) (size 15 to 20)
#    0.000    2.286    0.000    3.000    0.000   12.571 
#    0.000    2.857    0.000    0.000    0.000    0.000 
#    0.000    0.000    0.000    0.000    0.000    0.000 
#
# Total GULP energy -173442.663048 kJ/mol
# GULP energy per Si atom -12388.761646 kJ/mol
# Density = 1.998996 g / cm^3
# Si number density = 20.035560 Si / 1000 Ang^3
#
#
#
# Elastic Constant Matrix: (Units=GPa)
#
#
# Indices 1 2 3 4 5 6 
#
# 1 145.0305 20.0927 64.0096 0.0000 -22.8362 0.0000
# 2 20.0927 74.2668 33.4417 0.0000 6.7898 0.0000
# 3 64.0096 33.4417 127.0453 0.0000 13.6868 0.0000
# 4 0.0000 0.0000 0.0000 4.3725 0.0000 -2.1465
# 5 -22.8362 6.7898 13.6868 0.0000 36.6586 0.0000
# 6 0.0000 0.0000 0.0000 -2.1465 0.0000 8.6089
#
#
#
# Elastic Compliance Matrix: (Units=1/GPa)
#
#
# Indices 1 2 3 4 5 6 
#
# 1 0.011479 -0.001046 -0.006564 0.000000 0.009795 0.000000
# 2 -0.001046 0.015438 -0.003291 0.000000 -0.002282 0.000000
# 3 -0.006564 -0.003291 0.012940 0.000000 -0.008310 0.000000
# 4 0.000000 0.000000 0.000000 0.260596 0.000000 0.064975
# 5 0.009795 -0.002282 -0.008310 0.000000 0.036906 0.000000
# 6 0.000000 0.000000 0.000000 0.064975 0.000000 0.132359
#
#
# Mechanical properties :
#
#
# Convention : Reuss Voigt Hill
#
# Bulk Modulus (GPa) = 55.38119 64.60338 59.99228
# Shear Modulus (GPa) = 10.04948 25.18124 17.61536
#
# Velocity S-wave (km/s) = 2.24203 3.54902 2.96836
# Velocity P-wave (km/s) = 5.86547 7.00774 6.46189
#
# Compressibility (1/GPa) = 0.01805667
#
# Stress axis : x y z
#
# Youngs Moduli (GPa) = 87.11463 64.77323 77.28127
#
# Poissons Ratio (x) = 0.06773 0.50724
# Poissons Ratio (y) = 0.09109 0.25434
# Poissons Ratio (z) = 0.57178 0.21318
#
# Static dielectric constant tensor:
#      x y z
#    x 3.513170 0.000000 0.217340 
#    y 0.000000 3.421060 0.000000 
#    z 0.217340 0.000000 3.939720 
# 
# 
# High freq. dielectric constant tensor:
#      x y z
#    x 1.772830 0.000000 0.008040 
#    y 0.000000 1.759030 0.000000 
#    z 0.008040 0.000000 1.788630 
# 
# From -- ./inp_files/5264.got.cif
#   From: 2010.03.12/outbox.cif.g09.slc.cpg/sg3_3_cif.got.tgz:5264.got - 2010.03.31 09:20:49.
