data_PCOD8045331
_publ_section_title
;
Structure prediction by ZEFSAII (Michael W. Deem and Ramdas Pophale) SiO2 
 PCOD8045331
Probable space group: P 2
;
_chemical_formula_sum "Si O2"
_cell_formula_units_Z 14
_cell_length_a 8.202775
_cell_length_b 6.147183
_cell_length_c 15.941214
_cell_angle_alpha 90.000000
_cell_angle_beta 50.996761
_cell_angle_gamma 90.000000
_cell_volume 624.656186
_symmetry_space_group_name_H-M "P 2"
_symmetry_group_IT_number 3
_symmetry_cell_setting 'monoclinic'
loop_
_space_group_symop_operation_xyz
x,y,z
-x,y,-z
loop_
_atom_site_type_symbol
_atom_site_label
_atom_site_fract_x
_atom_site_fract_y
_atom_site_fract_z
Si Si1 0.948842 0.476860 0.338099
Si Si2 0.500000 0.316992 0.500000
Si Si3 0.572794 0.341585 0.161378
Si Si4 0.286122 0.724340 0.308771
Si Si5 0.000000 0.554973 0.000000
Si Si6 0.029645 0.796224 0.817671
Si Si7 0.461151 0.022980 0.672189
Si Si8 0.223818 0.097060 0.199005
O O1 0.700435 0.475040 0.432355
O O2 0.013538 0.595941 0.230920
O O3 0.063175 0.595354 0.380698
O O4 0.032464 0.230361 0.303409
O O5 0.523967 0.170727 0.574176
O O6 0.475465 0.559115 0.231119
O O7 0.587697 0.166316 0.230339
O O8 0.430274 0.252047 0.129477
O O9 0.801881 0.396828 0.052220
O O10 0.342833 0.856923 0.375289
O O11 0.283227 0.893881 0.235353
O O12 0.978316 0.713757 0.085604
O O13 0.255184 0.886802 0.718211
O O14 0.856502 0.991333 0.862686
#
# Coordination Sequence:
#
# PCOD8045331 Si02
#       8
#     2   1   2   2   1   2   2   2
#     4  10  22  44  68  96 136 176 226 285 337 407
#     4  12  24  40  72 106 132 182 234 274 352 402
#     4  10  22  44  68  96 136 176 226 285 337 407
#     4   9  20  44  69  92 136 177 216 289 344 396
#     4  12  24  40  72 106 132 182 234 274 352 402
#     4  11  23  43  70  97 137 179 226 284 337 408
#     4  11  23  43  70  97 137 179 226 284 337 408
#     4   9  20  44  69  92 136 177 216 289 344 396
#
# _framework density 22.412329
#
# number of rings (size 3 to 8) (size 9 to 14) (size 15 to 20)
#    0.000    1.714    2.857    0.857    0.000    1.143 
#    0.000   15.714    0.000    0.000    0.000    0.000 
#    0.000    0.000    0.000    0.000    0.000    0.000 
#
# Total GULP energy -173530.736410 kJ/mol
# GULP energy per Si atom -12395.052601 kJ/mol
# Density = 2.236132 g / cm^3
# Si number density = 22.412329 Si / 1000 Ang^3
#
#
#
# Elastic Constant Matrix: (Units=GPa)
#
#
# Indices 1 2 3 4 5 6 
#
# 1 152.6097 51.1977 47.5803 0.0000 -18.5676 0.0000
# 2 51.1977 95.2094 22.2815 0.0000 -9.0976 0.0000
# 3 47.5803 22.2815 70.2543 0.0000 -10.1182 0.0000
# 4 0.0000 0.0000 0.0000 13.4749 0.0000 6.2583
# 5 -18.5676 -9.0976 -10.1182 0.0000 37.8618 0.0000
# 6 0.0000 0.0000 0.0000 6.2583 0.0000 52.4937
#
#
#
# Elastic Compliance Matrix: (Units=1/GPa)
#
#
# Indices 1 2 3 4 5 6 
#
# 1 0.009691 -0.003803 -0.004997 0.000000 0.002503 0.000000
# 2 -0.003803 0.012961 -0.001410 0.000000 0.000873 0.000000
# 3 -0.004997 -0.001410 0.018370 0.000000 0.002120 0.000000
# 4 0.000000 0.000000 0.000000 0.078562 0.000000 -0.009366
# 5 0.002503 0.000873 0.002120 0.000000 0.028416 0.000000
# 6 0.000000 0.000000 0.000000 -0.009366 0.000000 0.020167
#
#
# Mechanical properties :
#
#
# Convention : Reuss Voigt Hill
#
# Bulk Modulus (GPa) = 48.53247 62.24359 55.38803
# Shear Modulus (GPa) = 25.58157 33.90034 29.74096
#
# Velocity S-wave (km/s) = 3.38214 3.89340 3.64674
# Velocity P-wave (km/s) = 6.07891 6.93136 6.51909
#
# Compressibility (1/GPa) = 0.02060476
#
# Stress axis : x y z
#
# Youngs Moduli (GPa) = 103.19099 77.15304 54.43520
#
# Poissons Ratio (x) = 0.29338 0.27199
# Poissons Ratio (y) = 0.39239 0.07674
# Poissons Ratio (z) = 0.51561 0.10876
#
# Static dielectric constant tensor:
#      x y z
#    x 4.777910 0.000000 -0.026330 
#    y 0.000000 4.403750 0.000000 
#    z -0.026330 0.000000 3.417630 
# 
# 
# High freq. dielectric constant tensor:
#      x y z
#    x 1.915870 0.000000 -0.004240 
#    y 0.000000 1.906160 0.000000 
#    z -0.004240 0.000000 1.828170 
# 
# From -- ./inp_files/6646.got.cif
#   From: 2010.03.12/outbox.cif.g09.slc.cpg/sg3_4_cif.got.tgz:6646.got - 2010.03.31 09:20:49.
