data_PCOD8045135
_publ_section_title
;
Structure prediction by ZEFSAII (Michael W. Deem and Ramdas Pophale) SiO2 
 PCOD8045135
Probable space group: P 2
;
_chemical_formula_sum "Si O2"
_cell_formula_units_Z 12
_cell_length_a 8.725649
_cell_length_b 9.509109
_cell_length_c 8.593154
_cell_angle_alpha 90.000000
_cell_angle_beta 62.068911
_cell_angle_gamma 90.000000
_cell_volume 629.944683
_symmetry_space_group_name_H-M "P 2"
_symmetry_group_IT_number 3
_symmetry_cell_setting 'monoclinic'
loop_
_space_group_symop_operation_xyz
x,y,z
-x,y,-z
loop_
_atom_site_type_symbol
_atom_site_label
_atom_site_fract_x
_atom_site_fract_y
_atom_site_fract_z
Si Si1 0.020726 0.410260 0.308507
Si Si2 0.821161 0.210087 0.999307
Si Si3 0.846021 0.703432 0.684599
Si Si4 0.522550 0.652853 0.176189
Si Si5 0.678667 0.914177 0.990549
Si Si6 0.656050 0.399337 0.309708
O O1 0.154056 0.294213 0.175182
O O2 0.101665 0.564794 0.241799
O O3 0.000000 0.377035 0.500000
O O4 0.832644 0.410287 0.320754
O O5 0.667315 0.275490 0.176673
O O6 0.000000 0.231297 0.000000
O O7 0.783495 0.046145 0.002306
O O8 0.673738 0.666001 0.664557
O O9 0.000000 0.750812 0.500000
O O10 0.807349 0.836254 0.810767
O O11 0.626477 0.800270 0.148080
O O12 0.625993 0.540232 0.225712
O O13 0.500000 0.622224 0.000000
O O14 0.500000 0.969852 0.000000
O O15 0.500000 0.364567 0.500000
#
# Coordination Sequence:
#
# PCOD8045135 Si02
#       6
#     2   2   2   2   2   2
#     4  10  21  37  58  84 110 142 184 227 272 323
#     4  10  22  38  54  78 113 146 181 223 271 325
#     4   9  17  33  55  81 108 136 178 226 268 320
#     4   9  19  37  57  81 109 142 181 221 270 326
#     4   9  20  35  54  78 107 145 181 216 269 325
#     4  11  22  36  57  84 110 143 184 227 273 323
#
# _framework density 19.049291
#
# number of rings (size 3 to 8) (size 9 to 14) (size 15 to 20)
#    0.000    2.667    0.000    4.000    0.000    5.333 
#    0.000    5.833    0.000    0.000    0.000    0.000 
#    0.000    0.000    0.000    0.000    0.000    0.000 
#
# Total GULP energy -148705.143732 kJ/mol
# GULP energy per Si atom -12392.095311 kJ/mol
# Density = 1.900593 g / cm^3
# Si number density = 19.049291 Si / 1000 Ang^3
#
#
#
# Elastic Constant Matrix: (Units=GPa)
#
#
# Indices 1 2 3 4 5 6 
#
# 1 67.5533 40.3890 47.7822 0.0000 -9.2794 0.0000
# 2 40.3890 130.5288 67.3907 0.0000 -4.7001 0.0000
# 3 47.7822 67.3907 127.0615 0.0000 -14.6886 0.0000
# 4 0.0000 0.0000 0.0000 10.4766 0.0000 -3.1068
# 5 -9.2794 -4.7001 -14.6886 0.0000 33.5835 0.0000
# 6 0.0000 0.0000 0.0000 -3.1068 0.0000 35.3250
#
#
#
# Elastic Compliance Matrix: (Units=1/GPa)
#
#
# Indices 1 2 3 4 5 6 
#
# 1 0.021446 -0.003498 -0.005879 0.000000 0.002865 0.000000
# 2 -0.003498 0.011154 -0.004773 0.000000 -0.001493 0.000000
# 3 -0.005879 -0.004773 0.013005 0.000000 0.003396 0.000000
# 4 0.000000 0.000000 0.000000 0.098007 0.000000 0.008620
# 5 0.002865 -0.001493 0.003396 0.000000 0.031844 0.000000
# 6 0.000000 0.000000 0.000000 0.008620 0.000000 0.029067
#
#
# Mechanical properties :
#
#
# Convention : Reuss Voigt Hill
#
# Bulk Modulus (GPa) = 57.78290 70.69640 64.23965
# Shear Modulus (GPa) = 20.95641 27.18246 24.06944
#
# Velocity S-wave (km/s) = 3.32040 3.78160 3.55848
# Velocity P-wave (km/s) = 6.71560 7.50069 7.11897
#
# Compressibility (1/GPa) = 0.01730616
#
# Stress axis : x y z
#
# Youngs Moduli (GPa) = 46.62880 89.65420 76.89368
#
# Poissons Ratio (x) = 0.31359 0.45202
# Poissons Ratio (y) = 0.16310 0.36702
# Poissons Ratio (z) = 0.27411 0.42793
#
# Static dielectric constant tensor:
#      x y z
#    x 3.472740 0.000000 -0.209860 
#    y 0.000000 3.400060 0.000000 
#    z -0.209860 0.000000 3.706540 
# 
# 
# High freq. dielectric constant tensor:
#      x y z
#    x 1.739280 0.000000 -0.022160 
#    y 0.000000 1.735790 0.000000 
#    z -0.022160 0.000000 1.742420 
# 
# From -- ./inp_files/5001.got.cif
#   From: 2010.03.12/outbox.cif.g09.slc.cpg/sg3_3_cif.got.tgz:5001.got - 2010.03.31 09:20:49.
