data_PCOD8045062
_publ_section_title
;
Structure prediction by ZEFSAII (Michael W. Deem and Ramdas Pophale) SiO2 
 PCOD8045062
Probable space group: P 2
;
_chemical_formula_sum "Si O2"
_cell_formula_units_Z 14
_cell_length_a 16.391382
_cell_length_b 6.493461
_cell_length_c 6.395809
_cell_angle_alpha 90.000000
_cell_angle_beta 96.391510
_cell_angle_gamma 90.000000
_cell_volume 676.518193
_symmetry_space_group_name_H-M "P 2"
_symmetry_group_IT_number 3
_symmetry_cell_setting 'monoclinic'
loop_
_space_group_symop_operation_xyz
x,y,z
-x,y,-z
loop_
_atom_site_type_symbol
_atom_site_label
_atom_site_fract_x
_atom_site_fract_y
_atom_site_fract_z
Si Si1 0.920620 0.641180 0.355772
Si Si2 0.500000 0.069814 0.500000
Si Si3 0.000000 0.835455 0.000000
Si Si4 0.575166 0.825644 0.901236
Si Si5 0.647658 0.058778 0.302051
Si Si6 0.291873 0.720785 0.357452
Si Si7 0.863931 0.965136 0.667058
Si Si8 0.786356 0.344695 0.450637
O O1 0.889146 0.848326 0.460835
O O2 0.848839 0.471706 0.323951
O O3 0.000000 0.551841 0.500000
O O4 0.943454 0.689302 0.125033
O O5 0.577380 0.188102 0.414846
O O6 0.533191 0.933355 0.696058
O O7 0.941085 0.978035 0.844374
O O8 0.646480 0.683902 0.822018
O O9 0.500000 0.705493 0.000000
O O10 0.616249 0.994374 0.065338
O O11 0.726131 0.205368 0.291599
O O12 0.669762 0.853241 0.440677
O O13 0.211554 0.840987 0.249670
O O14 0.268915 0.494161 0.425574
O O15 0.839145 0.199178 0.617056
#
# Coordination Sequence:
#
# PCOD8045062 Si02
#       8
#     2   1   1   2   2   2   2   2
#     4   9  20  39  58  83 117 150 191 241 287 337
#     4   8  16  34  58  82 116 154 190 234 282 330
#     4  10  20  40  64  82 112 154 192 236 288 342
#     4   9  17  34  61  85 113 156 193 229 284 339
#     4   9  18  35  58  83 114 155 195 234 281 337
#     4   9  19  36  56  83 118 151 190 241 287 332
#     4   9  20  38  59  84 116 152 192 239 286 337
#     4  10  20  38  61  85 118 152 187 238 290 338
#
# _framework density 20.694194
#
# number of rings (size 3 to 8) (size 9 to 14) (size 15 to 20)
#    0.000    2.857    0.000    0.000    0.000    5.143 
#    0.000   34.286    0.000   15.429    0.000    0.000 
#    0.000    0.000    0.000    0.000    0.000    0.000 
#
# Total GULP energy -173463.569487 kJ/mol
# GULP energy per Si atom -12390.254963 kJ/mol
# Density = 2.064709 g / cm^3
# Si number density = 20.694194 Si / 1000 Ang^3
#
#
#
# Elastic Constant Matrix: (Units=GPa)
#
#
# Indices 1 2 3 4 5 6 
#
# 1 158.0189 56.7731 66.8172 0.0000 -17.5302 0.0000
# 2 56.7731 94.4587 44.6791 0.0000 -2.7892 0.0000
# 3 66.8172 44.6791 110.3343 0.0000 -3.5055 0.0000
# 4 0.0000 0.0000 0.0000 3.5052 0.0000 -5.3841
# 5 -17.5302 -2.7892 -3.5055 0.0000 44.2063 0.0000
# 6 0.0000 0.0000 0.0000 -5.3841 0.0000 26.7386
#
#
#
# Elastic Compliance Matrix: (Units=1/GPa)
#
#
# Indices 1 2 3 4 5 6 
#
# 1 0.009904 -0.003794 -0.004355 0.000000 0.003343 0.000000
# 2 -0.003794 0.014555 -0.003624 0.000000 -0.000873 0.000000
# 3 -0.004355 -0.003624 0.013139 0.000000 -0.000914 0.000000
# 4 0.000000 0.000000 0.000000 0.413048 0.000000 0.083172
# 5 0.003343 -0.000873 -0.000914 0.000000 0.023819 0.000000
# 6 0.000000 0.000000 0.000000 0.083172 0.000000 0.054147
#
#
# Mechanical properties :
#
#
# Convention : Reuss Voigt Hill
#
# Bulk Modulus (GPa) = 71.16454 77.70564 74.43509
# Shear Modulus (GPa) = 8.97919 27.85949 18.41934
#
# Velocity S-wave (km/s) = 2.08528 3.67310 2.98665
# Velocity P-wave (km/s) = 6.34517 7.45788 6.92391
#
# Compressibility (1/GPa) = 0.01405194
#
# Stress axis : x y z
#
# Youngs Moduli (GPa) = 100.97171 68.70295 76.10696
#
# Poissons Ratio (x) = 0.26065 0.33145
# Poissons Ratio (y) = 0.38307 0.27584
# Poissons Ratio (z) = 0.43974 0.24900
#
# Static dielectric constant tensor:
#      x y z
#    x 4.647760 0.000000 -0.158470 
#    y 0.000000 3.302690 0.000000 
#    z -0.158470 0.000000 3.646890 
# 
# 
# High freq. dielectric constant tensor:
#      x y z
#    x 1.848890 0.000000 0.000140 
#    y 0.000000 1.762500 0.000000 
#    z 0.000140 0.000000 1.799740 
# 
# From -- ./inp_files/3558.got.cif
#   From: 2010.03.12/outbox.cif.g09.slc.cpg/sg3_2_cif.got.tgz:3558.got - 2010.03.31 09:20:49.
