data_PCOD8045243
_publ_section_title
;
Structure prediction by ZEFSAII (Michael W. Deem and Ramdas Pophale) SiO2 
 PCOD8045243
Probable space group: P 2
;
_chemical_formula_sum "Si O2"
_cell_formula_units_Z 14
_cell_length_a 12.696192
_cell_length_b 6.720972
_cell_length_c 8.385847
_cell_angle_alpha 90.000000
_cell_angle_beta 106.715115
_cell_angle_gamma 90.000000
_cell_volume 685.335369
_symmetry_space_group_name_H-M "P 2"
_symmetry_group_IT_number 3
_symmetry_cell_setting 'monoclinic'
loop_
_space_group_symop_operation_xyz
x,y,z
-x,y,-z
loop_
_atom_site_type_symbol
_atom_site_label
_atom_site_fract_x
_atom_site_fract_y
_atom_site_fract_z
Si Si1 0.204318 0.127300 0.901446
Si Si2 0.603948 0.114364 0.434077
Si Si3 0.390550 0.398246 0.850573
Si Si4 0.185545 0.101201 0.256150
Si Si5 0.278277 0.793879 0.704659
Si Si6 0.920280 0.770980 0.594151
Si Si7 0.003555 0.409366 0.180878
O O1 0.310760 0.256490 0.912993
O O2 0.095732 0.258840 0.821662
O O3 0.205574 0.931155 0.791891
O O4 0.214713 0.053996 0.086905
O O5 0.500000 0.077639 0.500000
O O6 0.586798 0.310026 0.316570
O O7 0.708542 0.138860 0.591747
O O8 0.623589 0.922059 0.331933
O O9 0.336039 0.614797 0.820928
O O10 0.500000 0.417509 0.000000
O O11 0.119628 0.302861 0.246331
O O12 0.107769 0.921555 0.277281
O O13 0.195020 0.705013 0.536549
O O14 0.000000 0.876683 0.500000
O O15 0.992924 0.588176 0.692180
O O16 0.000000 0.494932 0.000000
#
# Coordination Sequence:
#
# PCOD8045243 Si02
#       7
#     2   2   2   2   2   2   2
#     4  10  22  41  63  88 122 160 201 249 302 359
#     4  10  22  41  61  87 123 159 201 251 302 358
#     4  11  23  39  62  89 118 158 203 251 303 357
#     4  10  22  39  61  86 117 158 199 245 300 354
#     4  10  23  40  61  90 121 157 202 248 302 361
#     4  11  22  36  59  87 119 155 193 244 298 355
#     4  10  22  38  59  87 118 155 198 244 298 358
#
# _framework density 20.427955999999998
#
# number of rings (size 3 to 8) (size 9 to 14) (size 15 to 20)
#    0.000    1.714    0.000    3.429    0.000   12.000 
#    0.000    4.286    0.000    0.000    0.000    0.000 
#    0.000    0.000    0.000    0.000    0.000    0.000 
#
# Total GULP energy -173613.155270 kJ/mol
# GULP energy per Si atom -12400.939662 kJ/mol
# Density = 2.038146 g / cm^3
# Si number density = 20.427956 Si / 1000 Ang^3
#
#
#
# Elastic Constant Matrix: (Units=GPa)
#
#
# Indices 1 2 3 4 5 6 
#
# 1 89.1825 34.3300 48.7176 0.0000 -15.7819 0.0000
# 2 34.3300 101.6663 66.5865 0.0000 -0.6979 0.0000
# 3 48.7176 66.5865 127.8393 0.0000 -7.9395 0.0000
# 4 0.0000 0.0000 0.0000 28.5260 0.0000 -0.8651
# 5 -15.7819 -0.6979 -7.9395 0.0000 44.0528 0.0000
# 6 0.0000 0.0000 0.0000 -0.8651 0.0000 16.6078
#
#
#
# Elastic Compliance Matrix: (Units=1/GPa)
#
#
# Indices 1 2 3 4 5 6 
#
# 1 0.015292 -0.002283 -0.004349 0.000000 0.004658 0.000000
# 2 -0.002283 0.015331 -0.007232 0.000000 -0.001878 0.000000
# 3 -0.004349 -0.007232 0.013291 0.000000 0.000723 0.000000
# 4 0.000000 0.000000 0.000000 0.035111 0.000000 0.001829
# 5 0.004658 -0.001878 0.000723 0.000000 0.024469 0.000000
# 6 0.000000 0.000000 0.000000 0.001829 0.000000 0.060308
#
#
# Mechanical properties :
#
#
# Convention : Reuss Voigt Hill
#
# Bulk Modulus (GPa) = 61.78202 68.66182 65.22192
# Shear Modulus (GPa) = 25.39035 29.10760 27.24897
#
# Velocity S-wave (km/s) = 3.52933 3.77887 3.65623
# Velocity P-wave (km/s) = 6.84966 7.26116 7.05841
#
# Compressibility (1/GPa) = 0.01618594
#
# Stress axis : x y z
#
# Youngs Moduli (GPa) = 65.39394 65.22902 75.23786
#
# Poissons Ratio (x) = 0.14894 0.32720
# Poissons Ratio (y) = 0.14932 0.54409
# Poissons Ratio (z) = 0.28439 0.47171
#
# Static dielectric constant tensor:
#      x y z
#    x 3.878240 0.000000 -0.029480 
#    y 0.000000 3.580610 0.000000 
#    z -0.029480 0.000000 3.970110 
# 
# 
# High freq. dielectric constant tensor:
#      x y z
#    x 1.808680 0.000000 -0.000180 
#    y 0.000000 1.791130 0.000000 
#    z -0.000180 0.000000 1.812050 
# 
# From -- ./inp_files/6708.got.cif
#   From: 2010.03.12/outbox.cif.g09.slc.cpg/sg3_4_cif.got.tgz:6708.got - 2010.03.31 09:20:49.
