data_PCOD8045340
_publ_section_title
;
Structure prediction by ZEFSAII (Michael W. Deem and Ramdas Pophale) SiO2 
 PCOD8045340
Probable space group: P 2
;
_chemical_formula_sum "Si O2"
_cell_formula_units_Z 14
_cell_length_a 17.059820
_cell_length_b 5.842345
_cell_length_c 9.275417
_cell_angle_alpha 90.000000
_cell_angle_beta 38.835391
_cell_angle_gamma 90.000000
_cell_volume 579.724368
_symmetry_space_group_name_H-M "P 2"
_symmetry_group_IT_number 3
_symmetry_cell_setting 'monoclinic'
loop_
_space_group_symop_operation_xyz
x,y,z
-x,y,-z
loop_
_atom_site_type_symbol
_atom_site_label
_atom_site_fract_x
_atom_site_fract_y
_atom_site_fract_z
Si Si1 0.000000 0.028050 0.000000
Si Si2 0.500000 0.012074 0.000000
Si Si3 0.387615 0.650811 0.358414
Si Si4 0.199050 0.008307 0.132398
Si Si5 0.196142 0.708907 0.863544
Si Si6 0.383561 0.328552 0.974926
Si Si7 0.973856 0.334713 0.781683
Si Si8 0.803701 0.650019 0.628493
O O1 0.044129 0.176069 0.798519
O O2 0.116554 0.871139 0.873497
O O3 0.385637 0.177678 0.119700
O O4 0.527581 0.859851 0.819142
O O5 0.332339 0.686740 0.596193
O O6 0.476828 0.427640 0.248056
O O7 0.272612 0.638613 0.411073
O O8 0.083707 0.177662 0.261957
O O9 0.173540 0.899581 0.329877
O O10 0.328963 0.153095 0.934298
O O11 0.212231 0.808894 0.998627
O O12 0.134034 0.460642 0.971004
O O13 0.280497 0.524138 0.132766
O O14 0.064110 0.525336 0.583121
#
# Coordination Sequence:
#
# PCOD8045340 Si02
#       8
#     1   1   2   2   2   2   2   2
#     4  10  22  44  72 116 146 198 244 296 380 442
#     4  12  22  44  72 110 134 180 246 298 376 424
#     4  12  24  46  76 108 140 188 250 312 359 439
#     4  11  27  49  70 109 154 196 244 302 380 436
#     4  11  26  47  71 108 156 190 245 302 368 451
#     4  12  24  45  75 106 141 189 248 303 369 432
#     4  11  26  46  75 110 150 201 241 306 373 440
#     4  12  24  45  77 106 145 191 253 310 353 450
#
# _framework density 24.149407
#
# number of rings (size 3 to 8) (size 9 to 14) (size 15 to 20)
#    0.000    0.571    4.286    3.000    2.000    8.000 
#    0.000   10.714    0.000    0.000    0.000    0.000 
#    0.000    0.000    0.000    0.000    0.000    0.000 
#
# Total GULP energy -173494.047772 kJ/mol
# GULP energy per Si atom -12392.431984 kJ/mol
# Density = 2.409444 g / cm^3
# Si number density = 24.149407 Si / 1000 Ang^3
#
#
#
# Elastic Constant Matrix: (Units=GPa)
#
#
# Indices 1 2 3 4 5 6 
#
# 1 123.1810 51.3287 25.6331 0.0000 -5.3225 0.0000
# 2 51.3287 107.1318 37.7577 0.0000 -6.9200 0.0000
# 3 25.6331 37.7577 126.7170 0.0000 -10.5294 0.0000
# 4 0.0000 0.0000 0.0000 25.3147 0.0000 -11.9209
# 5 -5.3225 -6.9200 -10.5294 0.0000 17.2794 0.0000
# 6 0.0000 0.0000 0.0000 -11.9209 0.0000 41.3144
#
#
#
# Elastic Compliance Matrix: (Units=1/GPa)
#
#
# Indices 1 2 3 4 5 6 
#
# 1 0.010209 -0.004616 -0.000613 0.000000 0.000923 0.000000
# 2 -0.004616 0.012612 -0.002657 0.000000 0.002010 0.000000
# 3 -0.000613 -0.002657 0.009168 0.000000 0.004333 0.000000
# 4 0.000000 0.000000 0.000000 0.045714 0.000000 0.013190
# 5 0.000923 0.002010 0.004333 0.000000 0.061602 0.000000
# 6 0.000000 0.000000 0.000000 0.013190 0.000000 0.028011
#
#
# Mechanical properties :
#
#
# Convention : Reuss Voigt Hill
#
# Bulk Modulus (GPa) = 61.66622 65.16319 63.41470
# Shear Modulus (GPa) = 26.52625 32.93572 29.73099
#
# Velocity S-wave (km/s) = 3.31784 3.69702 3.51255
# Velocity P-wave (km/s) = 6.34572 6.72799 6.53965
#
# Compressibility (1/GPa) = 0.01621633
#
# Stress axis : x y z
#
# Youngs Moduli (GPa) = 97.95409 79.28918 109.08099
#
# Poissons Ratio (x) = 0.36596 0.06689
# Poissons Ratio (y) = 0.45211 0.28986
# Poissons Ratio (z) = 0.06006 0.21070
#
# Static dielectric constant tensor:
#      x y z
#    x 4.577890 0.000000 -0.052170 
#    y 0.000000 4.639350 0.000000 
#    z -0.052170 0.000000 3.971860 
# 
# 
# High freq. dielectric constant tensor:
#      x y z
#    x 1.973280 0.000000 -0.005280 
#    y 0.000000 1.979060 0.000000 
#    z -0.005280 0.000000 1.926260 
# 
# From -- ./inp_files/8835.got.cif
#   From: 2010.03.12/outbox.cif.g09.slc.cpg/sg3_5_cif.got.tgz:8835.got - 2010.03.31 09:20:49.
