data_PCOD8045281
_publ_section_title
;
Structure prediction by ZEFSAII (Michael W. Deem and Ramdas Pophale) SiO2 
 PCOD8045281
Probable space group: P 2
;
_chemical_formula_sum "Si O2"
_cell_formula_units_Z 16
_cell_length_a 21.581972
_cell_length_b 7.969612
_cell_length_c 8.977389
_cell_angle_alpha 90.000000
_cell_angle_beta 150.061828
_cell_angle_gamma 90.000000
_cell_volume 770.611732
_symmetry_space_group_name_H-M "P 2"
_symmetry_group_IT_number 3
_symmetry_cell_setting 'monoclinic'
loop_
_space_group_symop_operation_xyz
x,y,z
-x,y,-z
loop_
_atom_site_type_symbol
_atom_site_label
_atom_site_fract_x
_atom_site_fract_y
_atom_site_fract_z
Si Si1 0.756662 0.345190 0.667404
Si Si2 0.123210 0.685410 0.166404
Si Si3 0.380051 0.948390 0.327349
Si Si4 0.479911 0.168876 0.796453
Si Si5 0.880666 0.764982 0.177044
Si Si6 0.146384 0.035854 0.324294
Si Si7 0.719988 0.183574 0.131162
Si Si8 0.136449 0.394532 0.787910
O O1 0.791055 0.518683 0.656239
O O2 0.608205 0.331545 0.370055
O O3 0.803123 0.181011 0.677189
O O4 0.805145 0.334729 0.936205
O O5 0.195027 0.847820 0.384088
O O6 0.082418 0.734225 0.915773
O O7 0.000000 0.637031 0.000000
O O8 0.500000 0.852886 0.500000
O O9 0.421373 0.025248 0.570817
O O10 0.255684 0.843560 0.094232
O O11 0.343892 0.092522 0.138801
O O12 0.500000 0.083510 0.000000
O O13 0.610068 0.244230 0.010359
O O14 0.868668 0.592886 0.241551
O O15 0.000000 0.863749 0.500000
O O16 0.185244 0.068626 0.576251
O O17 0.000000 0.031645 0.000000
O O18 0.791405 0.339854 0.210245
O O19 0.000000 0.313501 0.500000
#
# Coordination Sequence:
#
# PCOD8045281 Si02
#       8
#     2   2   2   2   2   2   2   2
#     4  11  21  42  68  89 137 175 222 276 340 396
#     4  10  24  41  64 101 142 172 222 281 335 408
#     4  10  23  43  66  95 132 176 223 283 343 404
#     4  11  22  43  67  92 126 176 226 280 339 404
#     4  10  23  42  67  97 135 176 218 289 345 400
#     4  11  23  39  65 100 130 176 221 271 344 405
#     4  11  23  40  67  94 130 174 225 279 337 405
#     4  10  22  41  65  98 128 168 223 277 345 408
#
# _framework density 20.762723999999999
#
# number of rings (size 3 to 8) (size 9 to 14) (size 15 to 20)
#    0.000    1.500    2.500    1.875    3.500    2.500 
#    4.500    0.000    8.250    0.000    0.000    0.000 
#    0.000    0.000    0.000    0.000    0.000    0.000 
#
# Total GULP energy -198279.791440 kJ/mol
# GULP energy per Si atom -12392.486965 kJ/mol
# Density = 2.071547 g / cm^3
# Si number density = 20.762724 Si / 1000 Ang^3
#
#
#
# Elastic Constant Matrix: (Units=GPa)
#
#
# Indices 1 2 3 4 5 6 
#
# 1 155.7401 60.1457 71.2687 0.0000 12.7349 0.0000
# 2 60.1457 109.1745 42.9695 0.0000 6.5167 0.0000
# 3 71.2687 42.9695 143.1831 0.0000 6.8105 0.0000
# 4 0.0000 0.0000 0.0000 -45.6947 0.0000 7.2177
# 5 12.7349 6.5167 6.8105 0.0000 45.3820 0.0000
# 6 0.0000 0.0000 0.0000 7.2177 0.0000 35.4109
#
#
#
# Elastic Compliance Matrix: (Units=1/GPa)
#
#
# Indices 1 2 3 4 5 6 
#
# 1 0.009672 -0.003818 -0.003591 0.000000 -0.001627 0.000000
# 2 -0.003818 0.011942 -0.001665 0.000000 -0.000394 0.000000
# 3 -0.003591 -0.001665 0.009278 0.000000 -0.000146 0.000000
# 4 0.000000 0.000000 0.000000 -0.021202 0.000000 0.004321
# 5 -0.001627 -0.000394 -0.000146 0.000000 0.022570 0.000000
# 6 0.000000 0.000000 0.000000 0.004321 0.000000 0.027359
#
#
# Mechanical properties :
#
#
# Convention : Reuss Voigt Hill
#
# Bulk Modulus (GPa) = 78.46581 84.09617 81.28099
# Shear Modulus (GPa) = 60.96562 22.60056 41.78309
#
# Velocity S-wave (km/s) = 5.42464 3.30285 4.49085
# Velocity P-wave (km/s) = 8.78120 7.42539 8.13160
#
# Compressibility (1/GPa) = 0.01274440
#
# Stress axis : x y z
#
# Youngs Moduli (GPa) = 103.39521 83.74075 107.78276
#
# Poissons Ratio (x) = 0.31970 0.38704
# Poissons Ratio (y) = 0.39474 0.17943
# Poissons Ratio (z) = 0.37128 0.13940
#
# Static dielectric constant tensor:
#      x y z
#    x 4.469040 0.000000 0.170230 
#    y 0.000000 3.668670 0.000000 
#    z 0.170230 0.000000 4.201640 
# 
# 
# High freq. dielectric constant tensor:
#      x y z
#    x 1.835270 0.000000 -0.001580 
#    y 0.000000 1.784300 0.000000 
#    z -0.001580 0.000000 1.827150 
# 
# From -- ./inp_files/9474.got.cif
#   From: 2010.03.12/outbox.cif.g09.slc.cpg/sg3_5_cif.got.tgz:9474.got - 2010.03.31 09:20:49.
