data_PCOD8045682
_publ_section_title
;
Structure prediction by ZEFSAII (Michael W. Deem and Ramdas Pophale) SiO2 
 PCOD8045682
Probable space group: P 21
;
_chemical_formula_sum "Si O2"
_cell_formula_units_Z 14
_cell_length_a 11.163721
_cell_length_b 9.404376
_cell_length_c 8.914103
_cell_angle_alpha 90.000000
_cell_angle_beta 140.317066
_cell_angle_gamma 90.000000
_cell_volume 597.590623
_symmetry_space_group_name_H-M "P 21"
_symmetry_group_IT_number 4
_symmetry_cell_setting 'monoclinic'
loop_
_space_group_symop_operation_xyz
x,y,z
-x,1/2+y,-z
loop_
_atom_site_type_symbol
_atom_site_label
_atom_site_fract_x
_atom_site_fract_y
_atom_site_fract_z
Si Si1 0.212191 0.054680 0.798382
Si Si2 0.739837 0.762635 0.397209
Si Si3 0.706119 0.198922 0.667409
Si Si4 0.837297 0.993863 0.288653
Si Si5 0.818135 0.260331 0.110478
Si Si6 0.080524 0.278980 0.881148
Si Si7 0.636000 0.870551 0.608130
O O1 0.315682 0.118560 0.748814
O O2 0.222144 0.160815 0.950157
O O3 0.991356 0.050723 0.551926
O O4 0.285635 0.900497 0.922838
O O5 0.624267 0.783559 0.438542
O O6 0.960677 0.763307 0.645438
O O7 0.693224 0.895164 0.241685
O O8 0.541191 0.311554 0.468534
O O9 0.873939 0.216104 0.711038
O O10 0.623622 0.039758 0.574995
O O11 0.786300 0.240958 0.905552
O O12 0.725972 0.127081 0.109807
O O13 0.942254 0.907911 0.257096
O O14 0.169912 0.335999 0.121572
#
# Coordination Sequence:
#
# PCOD8045682 Si02
#       7
#     2   2   2   2   2   2   2
#     4   9  20  35  71  99 125 175 221 275 338 402
#     4   9  19  41  65  95 133 170 223 278 332 401
#     4  12  27  42  67 103 138 180 228 280 336 409
#     4   9  18  37  69  96 125 175 227 267 335 399
#     4  10  18  37  65  99 131 169 224 273 332 404
#     4  11  23  44  72  94 133 181 221 277 342 400
#     4  12  27  44  67 102 139 178 230 280 337 405
#
# _framework density 23.427408
#
# number of rings (size 3 to 8) (size 9 to 14) (size 15 to 20)
#    0.000    1.714    2.857    2.571    2.000    2.286 
#    0.000    1.429   25.143    0.000    0.000    0.000 
#    0.000    0.000    0.000    0.000    0.000    0.000 
#
# Total GULP energy -173538.045832 kJ/mol
# GULP energy per Si atom -12395.574702 kJ/mol
# Density = 2.337409 g / cm^3
# Si number density = 23.427408 Si / 1000 Ang^3
#
#
#
# Elastic Constant Matrix: (Units=GPa)
#
#
# Indices 1 2 3 4 5 6 
#
# 1 86.1282 31.7442 30.5043 0.0000 -6.1430 0.0000
# 2 31.7442 148.4571 18.6321 0.0000 -9.6967 0.0000
# 3 30.5043 18.6321 28.7274 0.0000 -18.4803 0.0000
# 4 0.0000 0.0000 0.0000 33.6740 0.0000 -13.2944
# 5 -6.1430 -9.6967 -18.4803 0.0000 37.2780 0.0000
# 6 0.0000 0.0000 0.0000 -13.2944 0.0000 24.5671
#
#
#
# Elastic Compliance Matrix: (Units=1/GPa)
#
#
# Indices 1 2 3 4 5 6 
#
# 1 0.021866 -0.001725 -0.029468 0.000000 -0.011454 0.000000
# 2 -0.001725 0.007480 -0.002864 0.000000 0.000242 0.000000
# 3 -0.029468 -0.002864 0.094489 0.000000 0.041241 0.000000
# 4 0.000000 0.000000 0.000000 0.037765 0.000000 0.020436
# 5 -0.011454 0.000242 0.041241 0.000000 0.045446 0.000000
# 6 0.000000 0.000000 0.000000 0.020436 0.000000 0.051764
#
#
# Mechanical properties :
#
#
# Convention : Reuss Voigt Hill
#
# Bulk Modulus (GPa) = 17.94688 47.23043 32.58866
# Shear Modulus (GPa) = 14.47185 31.26594 22.86890
#
# Velocity S-wave (km/s) = 2.48812 3.65716 3.12775
# Velocity P-wave (km/s) = 3.99144 6.16743 5.19465
#
# Compressibility (1/GPa) = 0.05571998
#
# Stress axis : x y z
#
# Youngs Moduli (GPa) = 45.73214 133.68794 10.58327
#
# Poissons Ratio (x) = 0.23066 0.31187
# Poissons Ratio (y) = 0.07890 0.03031
# Poissons Ratio (z) = 1.34765 0.38288
#
# Static dielectric constant tensor:
#      x y z
#    x 3.878150 0.000000 -0.301240 
#    y 0.000000 4.638340 0.000000 
#    z -0.301240 0.000000 4.087520 
# 
# 
# High freq. dielectric constant tensor:
#      x y z
#    x 1.903070 0.000000 -0.021000 
#    y 0.000000 1.940170 0.000000 
#    z -0.021000 0.000000 1.922650 
# 
# From -- ./inp_files/7486.got.cif
#   From: 2010.03.12/outbox.cif.g09.slc.cpg/sg4_4_cif.got.tgz:7486.got - 2010.03.31 09:31:35.
