data_PCOD8045061
_publ_section_title
;
Structure prediction by ZEFSAII (Michael W. Deem and Ramdas Pophale) SiO2 
 PCOD8045061
Probable space group: P 2
;
_chemical_formula_sum "Si O2"
_cell_formula_units_Z 16
_cell_length_a 9.254176
_cell_length_b 18.523728
_cell_length_c 8.244834
_cell_angle_alpha 90.000000
_cell_angle_beta 32.949233
_cell_angle_gamma 90.000000
_cell_volume 768.712077
_symmetry_space_group_name_H-M "P 2"
_symmetry_group_IT_number 3
_symmetry_cell_setting 'monoclinic'
loop_
_space_group_symop_operation_xyz
x,y,z
-x,y,-z
loop_
_atom_site_type_symbol
_atom_site_label
_atom_site_fract_x
_atom_site_fract_y
_atom_site_fract_z
Si Si1 0.961424 0.197540 0.344968
Si Si2 0.769730 0.057700 0.338558
Si Si3 0.730045 0.950776 0.663200
Si Si4 0.227977 0.676899 0.665895
Si Si5 0.417539 0.445943 0.892517
Si Si6 0.269637 0.782739 0.335832
Si Si7 0.462187 0.284485 0.845107
Si Si8 0.092195 0.519251 0.732242
O O1 0.884088 0.123319 0.334763
O O2 0.738232 0.256765 0.511093
O O3 0.000000 0.183961 0.500000
O O4 0.231985 0.228157 0.012556
O O5 0.500000 0.079790 0.500000
O O6 0.703174 0.991652 0.519309
O O7 0.000000 0.031819 0.000000
O O8 0.704029 0.866647 0.645451
O O9 0.000000 0.969613 0.500000
O O10 0.500000 0.977103 0.000000
O O11 0.500000 0.655940 0.500000
O O12 0.293661 0.739335 0.478446
O O13 0.114984 0.605234 0.685401
O O14 0.000000 0.707027 0.000000
O O15 0.389363 0.364353 0.850892
O O16 0.625118 0.485215 0.579115
O O17 0.500000 0.445282 0.000000
O O18 0.137173 0.487044 0.164550
O O19 0.000000 0.764038 0.500000
O O20 0.500000 0.756592 0.000000
O O21 0.500000 0.286743 0.000000
O O22 0.000000 0.499580 0.000000
#
# Coordination Sequence:
#
# PCOD8045061 Si02
#       8
#     2   2   2   2   2   2   2   2
#     4  10  20  38  61  82 112 158 198 235 292 360
#     4  12  25  39  59  91 126 154 194 250 293 338
#     4  10  22  42  65  89 121 161 199 235 289 358
#     4  11  23  40  61  85 121 164 199 236 291 360
#     4  11  22  39  63  89 114 149 201 255 295 343
#     4  10  22  40  64  94 122 150 197 253 291 336
#     4   9  19  36  60  86 111 146 198 247 292 350
#     4  11  23  40  57  84 123 160 196 237 295 361
#
# _framework density 20.814035000000001
#
# number of rings (size 3 to 8) (size 9 to 14) (size 15 to 20)
#    0.000    1.500    0.000    5.625    0.000    6.000 
#    0.000    6.250    0.000    0.000    0.000    0.000 
#    0.000    0.000    0.000    0.000    0.000    0.000 
#
# Total GULP energy -198451.974996 kJ/mol
# GULP energy per Si atom -12403.248437 kJ/mol
# Density = 2.076666 g / cm^3
# Si number density = 20.814035 Si / 1000 Ang^3
#
#
#
# Elastic Constant Matrix: (Units=GPa)
#
#
# Indices 1 2 3 4 5 6 
#
# 1 82.3352 57.6776 44.5003 0.0000 -6.8768 0.0000
# 2 57.6776 110.9656 48.1593 0.0000 3.9245 0.0000
# 3 44.5003 48.1593 146.4450 0.0000 -9.2917 0.0000
# 4 0.0000 0.0000 0.0000 35.1056 0.0000 7.8164
# 5 -6.8768 3.9245 -9.2917 0.0000 36.1989 0.0000
# 6 0.0000 0.0000 0.0000 7.8164 0.0000 -10.1943
#
#
#
# Elastic Compliance Matrix: (Units=1/GPa)
#
#
# Indices 1 2 3 4 5 6 
#
# 1 0.020897 -0.009770 -0.002864 0.000000 0.004294 0.000000
# 2 -0.009770 0.015234 -0.002301 0.000000 -0.004098 0.000000
# 3 -0.002864 -0.002301 0.008577 0.000000 0.001907 0.000000
# 4 0.000000 0.000000 0.000000 0.024332 0.000000 0.018656
# 5 0.004294 -0.004098 0.001907 0.000000 0.029375 0.000000
# 6 0.000000 0.000000 0.000000 0.018656 0.000000 -0.083789
#
#
# Mechanical properties :
#
#
# Convention : Reuss Voigt Hill
#
# Bulk Modulus (GPa) = 67.40469 71.15781 69.28125
# Shear Modulus (GPa) = 101.13287 24.84926 62.99106
#
# Velocity S-wave (km/s) = 6.97813 3.45899 5.50722
# Velocity P-wave (km/s) = 9.86814 7.08622 8.59054
#
# Compressibility (1/GPa) = 0.01483576
#
# Stress axis : x y z
#
# Youngs Moduli (GPa) = 47.85484 65.64398 116.59730
#
# Poissons Ratio (x) = 0.64136 0.33398
# Poissons Ratio (y) = 0.46756 0.26827
# Poissons Ratio (z) = 0.13708 0.15103
#
# Static dielectric constant tensor:
#      x y z
#    x 3.667870 0.000000 -0.141050 
#    y 0.000000 3.773070 0.000000 
#    z -0.141050 0.000000 4.257350 
# 
# 
# High freq. dielectric constant tensor:
#      x y z
#    x 1.807140 0.000000 -0.009870 
#    y 0.000000 1.818400 0.000000 
#    z -0.009870 0.000000 1.835180 
# 
# From -- ./inp_files/6200.got.cif
#   From: 2010.03.12/outbox.cif.g09.slc.cpg/sg3_4_cif.got.tgz:6200.got - 2010.03.31 09:20:49.
