data_PCOD8045405
_publ_section_title
;
Structure prediction by ZEFSAII (Michael W. Deem and Ramdas Pophale) SiO2 
 PCOD8045405
Probable space group: P 2
;
_chemical_formula_sum "Si O2"
_cell_formula_units_Z 10
_cell_length_a 9.547700
_cell_length_b 5.128195
_cell_length_c 15.115122
_cell_angle_alpha 90.000000
_cell_angle_beta 144.176176
_cell_angle_gamma 90.000000
_cell_volume 433.161322
_symmetry_space_group_name_H-M "P 2"
_symmetry_group_IT_number 3
_symmetry_cell_setting 'monoclinic'
loop_
_space_group_symop_operation_xyz
x,y,z
-x,y,-z
loop_
_atom_site_type_symbol
_atom_site_label
_atom_site_fract_x
_atom_site_fract_y
_atom_site_fract_z
Si Si1 0.430061 0.927860 0.728633
Si Si2 0.309653 0.796153 0.475215
Si Si3 0.846276 0.239482 0.004981
Si Si4 0.354469 0.428248 0.776804
Si Si5 0.026816 0.279511 0.286492
O O1 0.445201 0.815083 0.637995
O O2 0.276765 0.715359 0.705954
O O3 0.290490 0.204290 0.670205
O O4 0.704132 0.971907 0.905201
O O5 0.500000 0.881423 0.500000
O O6 0.215140 0.506383 0.406444
O O7 0.100008 0.009254 0.369618
O O8 0.019462 0.216441 0.178149
O O9 0.643772 0.447391 0.931469
O O10 0.000000 0.338945 0.000000
O O11 0.232609 0.359133 0.807728
#
# Coordination Sequence:
#
# PCOD8045405 Si02
#       5
#     2   2   2   2   2
#     4  10  24  44  69  96 140 178 228 278 340 410
#     4  12  27  44  71 102 144 177 234 281 352 407
#     4  10  25  45  73  97 140 180 233 278 346 405
#     4  10  24  44  71 100 138 174 237 276 346 402
#     4  12  26  44  73 104 136 184 227 292 339 410
#
# _framework density 23.086085000000001
#
# number of rings (size 3 to 8) (size 9 to 14) (size 15 to 20)
#    1.200    0.000    0.000    4.800    5.600    5.600 
#    3.600    0.000    0.000    0.000    0.000    0.000 
#    0.000    0.000    0.000    0.000    0.000    0.000 
#
# Total GULP energy -123897.017544 kJ/mol
# GULP energy per Si atom -12389.701754 kJ/mol
# Density = 2.303354 g / cm^3
# Si number density = 23.086085 Si / 1000 Ang^3
#
#
#
# Elastic Constant Matrix: (Units=GPa)
#
#
# Indices 1 2 3 4 5 6 
#
# 1 134.0800 13.3991 31.7652 0.0000 -5.0140 0.0000
# 2 13.3991 131.6588 39.4902 0.0000 -10.6658 0.0000
# 3 31.7652 39.4902 95.0811 0.0000 -28.0783 0.0000
# 4 0.0000 0.0000 0.0000 33.4053 0.0000 -0.4454
# 5 -5.0140 -10.6658 -28.0783 0.0000 44.5036 0.0000
# 6 0.0000 0.0000 0.0000 -0.4454 0.0000 28.3746
#
#
#
# Elastic Compliance Matrix: (Units=1/GPa)
#
#
# Indices 1 2 3 4 5 6 
#
# 1 0.008134 -0.000006 -0.003005 0.000000 -0.000981 0.000000
# 2 -0.000006 0.008678 -0.003673 0.000000 -0.000238 0.000000
# 3 -0.003005 -0.003673 0.015592 0.000000 0.008618 0.000000
# 4 0.000000 0.000000 0.000000 0.029942 0.000000 0.000470
# 5 -0.000981 -0.000238 0.008618 0.000000 0.027740 0.000000
# 6 0.000000 0.000000 0.000000 0.000470 0.000000 0.035250
#
#
# Mechanical properties :
#
#
# Convention : Reuss Voigt Hill
#
# Bulk Modulus (GPa) = 52.52819 58.90321 55.71570
# Shear Modulus (GPa) = 34.47136 39.66772 37.06954
#
# Velocity S-wave (km/s) = 3.86834 4.14968 4.01148
# Velocity P-wave (km/s) = 6.53871 6.96633 6.75590
#
# Compressibility (1/GPa) = 0.01903740
#
# Stress axis : x y z
#
# Youngs Moduli (GPa) = 122.94108 115.22975 64.13736
#
# Poissons Ratio (x) = 0.00070 0.19270
# Poissons Ratio (y) = 0.00075 0.23555
# Poissons Ratio (z) = 0.36938 0.42320
#
# Static dielectric constant tensor:
#      x y z
#    x 4.017340 0.000000 -0.014490 
#    y 0.000000 4.034450 0.000000 
#    z -0.014490 0.000000 3.930620 
# 
# 
# High freq. dielectric constant tensor:
#      x y z
#    x 1.920080 0.000000 -0.001970 
#    y 0.000000 1.912000 0.000000 
#    z -0.001970 0.000000 1.890430 
# 
# From -- ./inp_files/6512.got.cif
#   From: 2010.03.12/outbox.cif.g09.slc.cpg/sg3_4_cif.got.tgz:6512.got - 2010.03.31 09:20:49.
