data_PCOD8045950
_publ_section_title
;
Structure prediction by ZEFSAII (Michael W. Deem and Ramdas Pophale) SiO2 
 PCOD8045950
Probable space group: P 21
;
_chemical_formula_sum "Si O2"
_cell_formula_units_Z 16
_cell_length_a 21.456869
_cell_length_b 8.687584
_cell_length_c 9.415407
_cell_angle_alpha 90.000000
_cell_angle_beta 151.794171
_cell_angle_gamma 90.000000
_cell_volume 829.536168
_symmetry_space_group_name_H-M "P 21"
_symmetry_group_IT_number 4
_symmetry_cell_setting 'monoclinic'
loop_
_space_group_symop_operation_xyz
x,y,z
-x,1/2+y,-z
loop_
_atom_site_type_symbol
_atom_site_label
_atom_site_fract_x
_atom_site_fract_y
_atom_site_fract_z
Si Si1 0.773752 0.646160 0.711549
Si Si2 0.504521 0.822166 0.155025
Si Si3 0.995488 0.162316 0.345002
Si Si4 0.723858 0.339842 0.110419
Si Si5 0.223858 0.144645 0.610416
Si Si6 0.509259 0.189066 0.168883
Si Si7 0.990752 0.795424 0.331129
Si Si8 0.273728 0.838324 0.211502
O O1 0.646897 0.753562 0.473967
O O2 0.804193 0.605308 0.609893
O O3 0.750062 0.492238 0.750136
O O4 0.899943 0.737109 0.022269
O O5 0.515890 0.005476 0.172199
O O6 0.404672 0.761047 0.077546
O O7 0.443601 0.762327 0.884713
O O8 0.095333 0.223443 0.422471
O O9 0.056390 0.222166 0.615282
O O10 0.984170 0.979008 0.327943
O O11 0.853091 0.230859 0.026015
O O12 0.749981 0.492249 0.249962
O O13 0.857902 0.238760 0.392205
O O14 0.695831 0.379174 0.890152
O O15 0.357907 0.245720 0.892184
O O16 0.600052 0.247444 0.477699
#
# Coordination Sequence:
#
# PCOD8045950 Si02
#       8
#     2   2   2   2   2   2   2   2
#     4  11  22  37  58  84 113 149 187 228 276 329
#     4  10  21  38  58  82 114 147 183 233 278 328
#     4  10  21  38  58  82 114 147 183 233 278 328
#     4   9  20  37  57  82 112 145 184 230 277 328
#     4   9  20  37  57  82 112 145 184 230 277 328
#     4  10  20  38  57  82 112 145 185 229 279 331
#     4  10  20  38  57  82 112 145 185 229 279 331
#     4  11  22  37  58  84 113 149 187 228 276 329
#
# _framework density 19.287887000000001
#
# number of rings (size 3 to 8) (size 9 to 14) (size 15 to 20)
#    0.000    2.000    0.000    5.250    0.000    6.000 
#    0.000   11.250    0.000    0.000    0.000    0.000 
#    0.000    0.000    0.000    0.000    0.000    0.000 
#
# Total GULP energy -198356.654867 kJ/mol
# GULP energy per Si atom -12397.290929 kJ/mol
# Density = 1.924399 g / cm^3
# Si number density = 19.287887 Si / 1000 Ang^3
#
#
#
# Elastic Constant Matrix: (Units=GPa)
#
#
# Indices 1 2 3 4 5 6 
#
# 1 181.0190 45.0203 80.2299 0.0000 -8.1741 0.0000
# 2 45.0203 92.8487 44.0623 0.0000 -4.6945 0.0000
# 3 80.2299 44.0623 147.1183 0.0000 -19.0371 0.0000
# 4 0.0000 0.0000 0.0000 29.9107 0.0000 -6.5983
# 5 -8.1741 -4.6945 -19.0371 0.0000 27.4451 0.0000
# 6 0.0000 0.0000 0.0000 -6.5983 0.0000 28.1526
#
#
#
# Elastic Compliance Matrix: (Units=1/GPa)
#
#
# Indices 1 2 3 4 5 6 
#
# 1 0.007600 -0.001995 -0.003623 0.000000 -0.000591 0.000000
# 2 -0.001995 0.013085 -0.002876 0.000000 -0.000351 0.000000
# 3 -0.003623 -0.002876 0.010361 0.000000 0.005616 0.000000
# 4 0.000000 0.000000 0.000000 0.035256 0.000000 0.008263
# 5 -0.000591 -0.000351 0.005616 0.000000 0.040096 0.000000
# 6 0.000000 0.000000 0.000000 0.008263 0.000000 0.037457
#
#
# Mechanical properties :
#
#
# Convention : Reuss Voigt Hill
#
# Bulk Modulus (GPa) = 71.14339 84.40119 77.77229
# Shear Modulus (GPa) = 30.20597 33.87990 32.04294
#
# Velocity S-wave (km/s) = 3.96164 4.19565 4.08032
# Velocity P-wave (km/s) = 7.60863 8.20518 7.91253
#
# Compressibility (1/GPa) = 0.01405612
#
# Stress axis : x y z
#
# Youngs Moduli (GPa) = 131.58319 76.42389 96.51228
#
# Poissons Ratio (x) = 0.15249 0.34970
# Poissons Ratio (y) = 0.26255 0.27760
# Poissons Ratio (z) = 0.47677 0.21982
#
# Static dielectric constant tensor:
#      x y z
#    x 4.589760 0.000000 1.362210 
#    y 0.000000 3.351060 0.000000 
#    z 1.362210 0.000000 7.369540 
# 
# 
# High freq. dielectric constant tensor:
#      x y z
#    x 1.764540 0.000000 0.002070 
#    y 0.000000 1.734110 0.000000 
#    z 0.002070 0.000000 1.765710 
# 
# From -- ./inp_files/9256.got.cif
#   From: 2010.03.12/outbox.cif.g09.slc.cpg/sg4_5_cif.got.tgz:9256.got - 2010.03.31 09:31:35.
