data_PCOD8045717
_publ_section_title
;
Structure prediction by ZEFSAII (Michael W. Deem and Ramdas Pophale) SiO2 
 PCOD8045717
Probable space group: P 21
;
_chemical_formula_sum "Si O2"
_cell_formula_units_Z 16
_cell_length_a 9.933760
_cell_length_b 8.983829
_cell_length_c 19.554842
_cell_angle_alpha 90.000000
_cell_angle_beta 149.991159
_cell_angle_gamma 90.000000
_cell_volume 872.801544
_symmetry_space_group_name_H-M "P 21"
_symmetry_group_IT_number 4
_symmetry_cell_setting 'monoclinic'
loop_
_space_group_symop_operation_xyz
x,y,z
-x,1/2+y,-z
loop_
_atom_site_type_symbol
_atom_site_label
_atom_site_fract_x
_atom_site_fract_y
_atom_site_fract_z
Si Si1 0.773406 0.931620 0.813693
Si Si2 0.733365 0.781314 0.656745
Si Si3 0.716455 0.915971 0.154315
Si Si4 0.636609 0.436057 0.875743
Si Si5 0.329391 0.759056 0.881772
Si Si6 0.638163 0.778132 0.886393
Si Si7 0.773009 0.277442 0.803361
Si Si8 0.305653 0.930379 0.373024
O O1 0.669292 0.831463 0.705599
O O2 0.605565 0.888125 0.807783
O O3 0.717996 0.102695 0.771995
O O4 0.087433 0.895566 0.963754
O O5 0.553109 0.874347 0.525933
O O6 0.676893 0.607522 0.624659
O O7 0.040160 0.824984 0.773687
O O8 0.613109 0.891472 0.186035
O O9 0.031916 0.878013 0.289879
O O10 0.663583 0.082792 0.107106
O O11 0.558941 0.810608 0.033845
O O12 0.637674 0.610257 0.857673
O O13 0.603621 0.341184 0.792512
O O14 0.396283 0.806793 0.833154
O O15 0.913335 0.812590 0.047851
O O16 0.670707 0.359308 0.691138
#
# Coordination Sequence:
#
# PCOD8045717 Si02
#       8
#     2   2   2   2   2   2   2   2
#     4  10  19  33  55  82 112 145 182 224 275 328
#     4  11  23  38  57  81 113 150 186 225 275 331
#     4  10  20  35  57  84 111 142 183 230 275 324
#     4   9  18  33  54  82 113 141 177 228 277 323
#     4  10  20  35  57  84 111 142 183 230 275 324
#     4   9  18  33  54  82 113 141 177 228 277 323
#     4  10  19  33  55  82 112 145 182 224 275 328
#     4  11  23  38  57  81 113 150 186 225 275 331
#
# _framework density 18.331773999999999
#
# number of rings (size 3 to 8) (size 9 to 14) (size 15 to 20)
#    0.000    2.000    2.500    1.500    0.000    3.000 
#    0.000    1.250    0.000    0.000    0.000    0.000 
#    0.000    0.000    0.000    0.000    0.000    0.000 
#
# Total GULP energy -198455.161698 kJ/mol
# GULP energy per Si atom -12403.447606 kJ/mol
# Density = 1.829005 g / cm^3
# Si number density = 18.331774 Si / 1000 Ang^3
#
#
#
# Elastic Constant Matrix: (Units=GPa)
#
#
# Indices 1 2 3 4 5 6 
#
# 1 89.7965 25.2977 21.3763 0.0000 -9.8312 0.0000
# 2 25.2977 56.9802 20.2643 0.0000 -8.1270 0.0000
# 3 21.3763 20.2643 44.9460 0.0000 -11.9689 0.0000
# 4 0.0000 0.0000 0.0000 28.4781 0.0000 -7.0332
# 5 -9.8312 -8.1270 -11.9689 0.0000 25.1826 0.0000
# 6 0.0000 0.0000 0.0000 -7.0332 0.0000 30.9985
#
#
#
# Elastic Compliance Matrix: (Units=1/GPa)
#
#
# Indices 1 2 3 4 5 6 
#
# 1 0.013509 -0.004307 -0.003949 0.000000 0.002007 0.000000
# 2 -0.004307 0.022424 -0.007536 0.000000 0.001973 0.000000
# 3 -0.003949 -0.007536 0.030302 0.000000 0.010428 0.000000
# 4 0.000000 0.000000 0.000000 0.037199 0.000000 0.008440
# 5 0.002007 0.001973 0.010428 0.000000 0.046087 0.000000
# 6 0.000000 0.000000 0.000000 0.008440 0.000000 0.034175
#
#
# Mechanical properties :
#
#
# Convention : Reuss Voigt Hill
#
# Bulk Modulus (GPa) = 28.85905 36.17771 32.51838
# Shear Modulus (GPa) = 22.04301 25.25080 23.64690
#
# Velocity S-wave (km/s) = 3.47140 3.71541 3.59547
# Velocity P-wave (km/s) = 5.64307 6.17928 5.91725
#
# Compressibility (1/GPa) = 0.03465118
#
# Stress axis : x y z
#
# Youngs Moduli (GPa) = 74.02203 44.59551 33.00164
#
# Poissons Ratio (x) = 0.19209 0.13031
# Poissons Ratio (y) = 0.31883 0.24870
# Poissons Ratio (z) = 0.29228 0.33607
#
# Static dielectric constant tensor:
#      x y z
#    x 3.589970 0.000000 0.057370 
#    y 0.000000 3.373120 0.000000 
#    z 0.057370 0.000000 3.126160 
# 
# 
# High freq. dielectric constant tensor:
#      x y z
#    x 1.724340 0.000000 -0.005390 
#    y 0.000000 1.716190 0.000000 
#    z -0.005390 0.000000 1.681030 
# 
# From -- ./inp_files/5489.got.cif
#   From: 2010.03.12/outbox.cif.g09.slc.cpg/sg4_3_cif.got.tgz:5489.got - 2010.03.31 09:31:35.
