data_PCOD8045756
_publ_section_title
;
Structure prediction by ZEFSAII (Michael W. Deem and Ramdas Pophale) SiO2 
 PCOD8045756
Probable space group: P 21
;
_chemical_formula_sum "Si O2"
_cell_formula_units_Z 14
_cell_length_a 11.649502
_cell_length_b 8.496385
_cell_length_c 11.649467
_cell_angle_alpha 90.000000
_cell_angle_beta 37.780160
_cell_angle_gamma 90.000000
_cell_volume 706.396071
_symmetry_space_group_name_H-M "P 21"
_symmetry_group_IT_number 4
_symmetry_cell_setting 'monoclinic'
loop_
_space_group_symop_operation_xyz
x,y,z
-x,1/2+y,-z
loop_
_atom_site_type_symbol
_atom_site_label
_atom_site_fract_x
_atom_site_fract_y
_atom_site_fract_z
Si Si1 0.605347 0.922590 0.105359
Si Si2 0.937848 0.015459 0.977156
Si Si3 0.902142 0.186579 0.226694
Si Si4 0.522912 0.329545 0.562176
Si Si5 0.273299 0.158476 0.597920
Si Si6 0.795313 0.562795 0.589317
Si Si7 0.910678 0.782474 0.704656
O O1 0.562683 0.798277 0.242506
O O2 0.409391 0.994500 0.214221
O O3 0.714238 0.850801 0.909350
O O4 0.742493 0.046765 0.062831
O O5 0.078680 0.143141 0.816755
O O6 0.923164 0.038637 0.125701
O O7 0.009973 0.840428 0.901020
O O8 0.683299 0.201857 0.421323
O O9 0.003991 0.163762 0.268082
O O10 0.374314 0.306358 0.576939
O O11 0.599043 0.504577 0.490030
O O12 0.231917 0.181451 0.496075
O O13 0.876361 0.672665 0.623603
O O14 0.941124 0.422623 0.441158
#
# Coordination Sequence:
#
# PCOD8045756 Si02
#       7
#     2   2   2   2   2   2   2
#     4  10  20  42  62  90 124 156 202 268 302 358
#     4  10  19  35  64  86 124 151 194 253 318 354
#     4  10  19  38  59  92 120 158 195 254 308 364
#     4  10  19  35  64  86 124 151 194 253 318 354
#     4  10  19  38  59  92 120 158 195 254 308 364
#     4  11  23  44  63  87 129 170 209 258 302 368
#     4  11  23  44  63  87 129 170 209 258 302 368
#
# _framework density 19.818909999999999
#
# number of rings (size 3 to 8) (size 9 to 14) (size 15 to 20)
#    0.000    1.714    5.714    3.429    0.000    1.143 
#    7.714    2.857    0.000    0.000    0.000    0.000 
#    0.000    0.000    0.000    0.000    0.000    0.000 
#
# Total GULP energy -173457.893947 kJ/mol
# GULP energy per Si atom -12389.849568 kJ/mol
# Density = 1.977380 g / cm^3
# Si number density = 19.818910 Si / 1000 Ang^3
#
#
#
# Elastic Constant Matrix: (Units=GPa)
#
#
# Indices 1 2 3 4 5 6 
#
# 1 146.6504 47.2488 53.2570 0.0000 14.6898 0.0000
# 2 47.2488 35.2048 25.2224 0.0000 9.2307 0.0000
# 3 53.2570 25.2224 130.6692 0.0000 -8.0452 0.0000
# 4 0.0000 0.0000 0.0000 27.4756 0.0000 6.8017
# 5 14.6898 9.2307 -8.0452 0.0000 38.6919 0.0000
# 6 0.0000 0.0000 0.0000 6.8017 0.0000 43.6873
#
#
#
# Elastic Compliance Matrix: (Units=1/GPa)
#
#
# Indices 1 2 3 4 5 6 
#
# 1 0.012624 -0.014754 -0.002407 0.000000 -0.001773 0.000000
# 2 -0.014754 0.053883 -0.004897 0.000000 -0.008272 0.000000
# 3 -0.002407 -0.004897 0.009833 0.000000 0.004127 0.000000
# 4 0.000000 0.000000 0.000000 0.037855 0.000000 -0.005894
# 5 -0.001773 -0.008272 0.004127 0.000000 0.029350 0.000000
# 6 0.000000 0.000000 0.000000 -0.005894 0.000000 0.023808
#
#
# Mechanical properties :
#
#
# Convention : Reuss Voigt Hill
#
# Bulk Modulus (GPa) = 31.03068 62.66454 46.84761
# Shear Modulus (GPa) = 22.50136 34.42404 28.46270
#
# Velocity S-wave (km/s) = 3.37315 4.17217 3.79375
# Velocity P-wave (km/s) = 5.55535 7.40922 6.54822
#
# Compressibility (1/GPa) = 0.03222617
#
# Stress axis : x y z
#
# Youngs Moduli (GPa) = 79.21468 18.55862 101.69776
#
# Poissons Ratio (x) = 0.27380 0.24474
# Poissons Ratio (y) = 1.16870 0.49801
# Poissons Ratio (z) = 0.19063 0.09088
#
# Static dielectric constant tensor:
#      x y z
#    x 3.749880 0.000000 -0.139160 
#    y 0.000000 3.208470 0.000000 
#    z -0.139160 0.000000 4.082050 
# 
# 
# High freq. dielectric constant tensor:
#      x y z
#    x 1.776360 0.000000 -0.010230 
#    y 0.000000 1.731400 0.000000 
#    z -0.010230 0.000000 1.800770 
# 
# From -- ./inp_files/11827.got.cif
#   From: 2010.03.12/outbox.cif.g09.slc.cpg/sg4_6_cif.got.tgz:11827.got - 2010.03.31 09:31:35.
