data_PCOD8045172
_publ_section_title
;
Structure prediction by ZEFSAII (Michael W. Deem and Ramdas Pophale) SiO2 
 PCOD8045172
Probable space group: P 2
;
_chemical_formula_sum "Si O2"
_cell_formula_units_Z 16
_cell_length_a 13.497520
_cell_length_b 6.513287
_cell_length_c 8.836498
_cell_angle_alpha 90.000000
_cell_angle_beta 66.568523
_cell_angle_gamma 90.000000
_cell_volume 712.783495
_symmetry_space_group_name_H-M "P 2"
_symmetry_group_IT_number 3
_symmetry_cell_setting 'monoclinic'
loop_
_space_group_symop_operation_xyz
x,y,z
-x,y,-z
loop_
_atom_site_type_symbol
_atom_site_label
_atom_site_fract_x
_atom_site_fract_y
_atom_site_fract_z
Si Si1 0.197534 0.585130 0.184078
Si Si2 0.014877 0.918965 0.323445
Si Si3 0.189274 0.038009 0.693969
Si Si4 0.436126 0.024936 0.246394
Si Si5 0.149650 0.201057 0.034975
Si Si6 0.703943 0.372265 0.574874
Si Si7 0.626473 0.758509 0.463789
Si Si8 0.346401 0.933029 0.983435
O O1 0.153909 0.438186 0.078254
O O2 0.239346 0.471804 0.310995
O O3 0.293443 0.710337 0.042092
O O4 0.094453 0.725226 0.286038
O O5 0.000000 0.008704 0.500000
O O6 0.896248 0.873975 0.324804
O O7 0.058274 0.097307 0.190269
O O8 0.216780 0.206054 0.548768
O O9 0.291695 0.896896 0.691580
O O10 0.133288 0.161132 0.866593
O O11 0.409118 0.259830 0.311601
O O12 0.358830 0.870692 0.384193
O O13 0.408934 0.003306 0.091380
O O14 0.560223 0.948972 0.202725
O O15 0.264004 0.111489 0.007287
O O16 0.672195 0.531059 0.461110
O O17 0.500000 0.761800 0.500000
#
# Coordination Sequence:
#
# PCOD8045172 Si02
#       8
#     2   2   2   2   2   2   2   2
#     4  11  23  43  71 103 134 175 238 283 338 414
#     4  11  25  45  73  97 132 178 226 285 349 406
#     4  11  26  46  70  99 142 181 221 284 353 407
#     4  10  21  39  63  96 139 181 220 278 341 394
#     4  11  24  44  69 101 136 174 225 283 343 410
#     4  11  23  42  71 100 138 180 236 279 337 419
#     4  11  24  42  67  99 140 183 230 275 340 408
#     4  10  21  39  65  96 137 180 222 279 338 395
#
# _framework density 22.447209000000001
#
# number of rings (size 3 to 8) (size 9 to 14) (size 15 to 20)
#    0.000    1.250    2.500    2.625    3.500    9.500 
#    0.000    3.750    0.000    0.000    0.000    0.000 
#    0.000    0.000    0.000    0.000    0.000    0.000 
#
# Total GULP energy -198224.754777 kJ/mol
# GULP energy per Si atom -12389.047174 kJ/mol
# Density = 2.239612 g / cm^3
# Si number density = 22.447209 Si / 1000 Ang^3
#
#
#
# Elastic Constant Matrix: (Units=GPa)
#
#
# Indices 1 2 3 4 5 6 
#
# 1 -28.4414 17.5547 155.3504 0.0000 14.6919 0.0000
# 2 17.5547 120.1831 71.5330 0.0000 -7.2721 0.0000
# 3 155.3504 71.5330 21.1838 0.0000 -29.7051 0.0000
# 4 0.0000 0.0000 0.0000 46.1122 0.0000 1.1737
# 5 14.6919 -7.2721 -29.7051 0.0000 26.9067 0.0000
# 6 0.0000 0.0000 0.0000 1.1737 0.0000 28.9919
#
#
#
# Elastic Compliance Matrix: (Units=1/GPa)
#
#
# Indices 1 2 3 4 5 6 
#
# 1 0.001925 -0.003969 0.006735 0.000000 0.005312 0.000000
# 2 -0.003969 0.010331 -0.002140 0.000000 0.002597 0.000000
# 3 0.006735 -0.002140 0.001700 0.000000 -0.002379 0.000000
# 4 0.000000 0.000000 0.000000 0.021709 0.000000 -0.000879
# 5 0.005312 0.002597 -0.002379 0.000000 0.032340 0.000000
# 6 0.000000 0.000000 0.000000 -0.000879 0.000000 0.034528
#
#
# Mechanical properties :
#
#
# Convention : Reuss Voigt Hill
#
# Bulk Modulus (GPa) = 65.74571 66.86686 66.30628
# Shear Modulus (GPa) = 47.01564 11.63466 29.32515
#
# Velocity S-wave (km/s) = 4.58153 2.27912 3.61834
# Velocity P-wave (km/s) = 7.57231 6.06457 6.85999
#
# Compressibility (1/GPa) = 0.01521012
#
# Stress axis : x y z
#
# Youngs Moduli (GPa) = 519.54299 96.79647 588.26153
#
# Poissons Ratio (x) = 0.38415 -3.96223
# Poissons Ratio (y) = 2.06189 1.25864
# Poissons Ratio (z) = -3.49938 0.20711
#
# Static dielectric constant tensor:
#      x y z
#    x 3.647240 0.000000 -0.626000 
#    y 0.000000 3.952870 0.000000 
#    z -0.626000 0.000000 4.195760 
# 
# 
# High freq. dielectric constant tensor:
#      x y z
#    x 1.897520 0.000000 -0.005800 
#    y 0.000000 1.871380 0.000000 
#    z -0.005800 0.000000 1.898670 
# 
# From -- ./inp_files/8281.got.cif
#   From: 2010.03.12/outbox.cif.g09.slc.cpg/sg3_5_cif.got.tgz:8281.got - 2010.03.31 09:20:49.
