data_PCOD8045839
_publ_section_title
;
Structure prediction by ZEFSAII (Michael W. Deem and Ramdas Pophale) SiO2 
 PCOD8045839
Probable space group: P 21
;
_chemical_formula_sum "Si O2"
_cell_formula_units_Z 16
_cell_length_a 6.548083
_cell_length_b 15.044415
_cell_length_c 9.682697
_cell_angle_alpha 90.000000
_cell_angle_beta 53.904183
_cell_angle_gamma 90.000000
_cell_volume 770.752363
_symmetry_space_group_name_H-M "P 21"
_symmetry_group_IT_number 4
_symmetry_cell_setting 'monoclinic'
loop_
_space_group_symop_operation_xyz
x,y,z
-x,1/2+y,-z
loop_
_atom_site_type_symbol
_atom_site_label
_atom_site_fract_x
_atom_site_fract_y
_atom_site_fract_z
Si Si1 0.518300 0.698310 0.345646
Si Si2 0.613018 0.421489 0.955154
Si Si3 0.631772 0.759940 0.822244
Si Si4 0.079876 0.822104 0.494898
Si Si5 0.649676 0.147341 0.284942
Si Si6 0.541241 0.461075 0.673433
Si Si7 0.861762 0.849615 0.300676
Si Si8 0.247920 0.117137 0.004297
O O1 0.308076 0.758452 0.352318
O O2 0.389866 0.660986 0.535940
O O3 0.759300 0.757904 0.283924
O O4 0.634341 0.625046 0.196657
O O5 0.421368 0.363267 0.121109
O O6 0.659353 0.520825 0.987130
O O7 0.513052 0.423157 0.838884
O O8 0.864925 0.364006 0.871227
O O9 0.451781 0.729371 0.766830
O O10 0.930355 0.766910 0.669892
O O11 0.614858 0.691436 0.956086
O O12 0.204154 0.916653 0.493861
O O13 0.874794 0.843829 0.460157
O O14 0.457986 0.067232 0.321748
O O15 0.942508 0.125865 0.131407
O O16 0.307299 0.433841 0.671324
#
# Coordination Sequence:
#
# PCOD8045839 Si02
#       8
#     2   2   2   2   2   2   2   2
#     4  11  24  43  68 104 133 179 230 278 348 415
#     4  11  24  43  67  99 138 182 229 288 348 410
#     4  12  24  45  69 102 139 183 233 283 346 417
#     4  10  22  42  68  96 135 180 222 281 343 409
#     4  12  24  46  71  99 139 182 232 288 346 414
#     4  10  22  42  66  98 135 179 227 282 345 405
#     4  10  19  41  66  91 133 176 219 275 343 396
#     4  12  25  46  69  99 140 179 230 291 341 412
#
# _framework density 20.758939999999999
#
# number of rings (size 3 to 8) (size 9 to 14) (size 15 to 20)
#    0.000    1.000    5.000    3.000    0.000    1.000 
#    4.500    0.000    0.000    0.000    0.000    0.000 
#    0.000    0.000    0.000    0.000    0.000    0.000 
#
# Total GULP energy -198296.118226 kJ/mol
# GULP energy per Si atom -12393.507389 kJ/mol
# Density = 2.071169 g / cm^3
# Si number density = 20.758940 Si / 1000 Ang^3
#
#
#
# Elastic Constant Matrix: (Units=GPa)
#
#
# Indices 1 2 3 4 5 6 
#
# 1 109.3493 43.7303 42.3518 0.0000 4.6015 0.0000
# 2 43.7303 121.5227 49.8415 0.0000 -4.8366 0.0000
# 3 42.3518 49.8415 108.7665 0.0000 -0.4671 0.0000
# 4 0.0000 0.0000 0.0000 29.2916 0.0000 4.0452
# 5 4.6015 -4.8366 -0.4671 0.0000 26.2807 0.0000
# 6 0.0000 0.0000 0.0000 4.0452 0.0000 39.0464
#
#
#
# Elastic Compliance Matrix: (Units=1/GPa)
#
#
# Indices 1 2 3 4 5 6 
#
# 1 0.011694 -0.003007 -0.003187 0.000000 -0.002657 0.000000
# 2 -0.003007 0.010991 -0.003855 0.000000 0.002481 0.000000
# 3 -0.003187 -0.003855 0.012202 0.000000 0.000065 0.000000
# 4 0.000000 0.000000 0.000000 0.034635 0.000000 -0.003588
# 5 -0.002657 0.002481 0.000065 0.000000 0.038974 0.000000
# 6 0.000000 0.000000 0.000000 -0.003588 0.000000 0.025982
#
#
# Mechanical properties :
#
#
# Convention : Reuss Voigt Hill
#
# Bulk Modulus (GPa) = 67.61850 67.94286 67.78068
# Shear Modulus (GPa) = 31.34722 32.50472 31.92597
#
# Velocity S-wave (km/s) = 3.89016 3.96133 3.92591
# Velocity P-wave (km/s) = 7.26786 7.32962 7.29881
#
# Compressibility (1/GPa) = 0.01478885
#
# Stress axis : x y z
#
# Youngs Moduli (GPa) = 85.51731 90.98605 81.95546
#
# Poissons Ratio (x) = 0.27356 0.26118
# Poissons Ratio (y) = 0.25712 0.31594
# Poissons Ratio (z) = 0.27254 0.35075
#
# Static dielectric constant tensor:
#      x y z
#    x 3.893950 0.000000 0.012610 
#    y 0.000000 3.791590 0.000000 
#    z 0.012610 0.000000 3.649660 
# 
# 
# High freq. dielectric constant tensor:
#      x y z
#    x 1.824290 0.000000 0.001050 
#    y 0.000000 1.816480 0.000000 
#    z 0.001050 0.000000 1.801720 
# 
# From -- ./inp_files/1619.got.cif
#   From: 2010.03.12/outbox.cif.g09.slc.cpg/sg4_1_cif.got.tgz:1619.got - 2010.03.31 09:31:35.
