data_PCOD8045142
_publ_section_title
;
Structure prediction by ZEFSAII (Michael W. Deem and Ramdas Pophale) SiO2 
 PCOD8045142
Probable space group: P 2
;
_chemical_formula_sum "Si O2"
_cell_formula_units_Z 9
_cell_length_a 11.599147
_cell_length_b 5.099908
_cell_length_c 8.636978
_cell_angle_alpha 90.000000
_cell_angle_beta 48.397760
_cell_angle_gamma 90.000000
_cell_volume 382.049367
_symmetry_space_group_name_H-M "P 2"
_symmetry_group_IT_number 3
_symmetry_cell_setting 'monoclinic'
loop_
_space_group_symop_operation_xyz
x,y,z
-x,y,-z
loop_
_atom_site_type_symbol
_atom_site_label
_atom_site_fract_x
_atom_site_fract_y
_atom_site_fract_z
Si Si1 0.696864 0.831680 0.254897
Si Si2 0.260891 0.314095 0.599064
Si Si3 0.657868 0.842339 0.950522
Si Si4 0.183529 0.343299 0.320203
Si Si5 0.000000 0.081270 0.000000
O O1 0.675469 0.571988 0.374585
O O2 0.872074 0.887680 0.041277
O O3 0.641650 0.068692 0.417592
O O4 0.604395 0.810399 0.177182
O O5 0.273179 0.333020 0.404288
O O6 0.078757 0.266958 0.800182
O O7 0.777623 0.617674 0.794436
O O8 0.745426 0.116315 0.849008
O O9 0.500000 0.823009 0.000000
O O10 0.000000 0.312470 0.500000
#
# Coordination Sequence:
#
# PCOD8045142 Si02
#       5
#     2   2   2   2   1
#     4  10  21  37  64  90 124 179 217 261 326 407
#     4  10  21  37  62  97 123 167 220 282 315 388
#     4  12  27  47  66  98 145 185 213 272 356 410
#     4  12  26  43  71 105 135 170 235 288 326 385
#     4   8  20  32  68  88 130 160 226 264 336 378
#
# _framework density 23.557168000000001
#
# number of rings (size 3 to 8) (size 9 to 14) (size 15 to 20)
#    1.333    0.000    0.000    6.000    6.222    0.000 
#    0.000    6.667    0.000    0.000    0.000    0.000 
#    0.000    0.000    0.000    0.000    0.000    0.000 
#
# Total GULP energy -111541.555583 kJ/mol
# GULP energy per Si atom -12393.506176 kJ/mol
# Density = 2.350355 g / cm^3
# Si number density = 23.557168 Si / 1000 Ang^3
#
#
#
# Elastic Constant Matrix: (Units=GPa)
#
#
# Indices 1 2 3 4 5 6 
#
# 1 125.5035 33.6362 30.0037 0.0000 27.4604 0.0000
# 2 33.6362 146.8806 20.4920 0.0000 16.9988 0.0000
# 3 30.0037 20.4920 67.1689 0.0000 11.7506 0.0000
# 4 0.0000 0.0000 0.0000 -0.1301 0.0000 34.9402
# 5 27.4604 16.9988 11.7506 0.0000 55.0779 0.0000
# 6 0.0000 0.0000 0.0000 34.9402 0.0000 9.5701
#
#
#
# Elastic Compliance Matrix: (Units=1/GPa)
#
#
# Indices 1 2 3 4 5 6 
#
# 1 0.009980 -0.001372 -0.003369 0.000000 -0.003834 0.000000
# 2 -0.001372 0.007475 -0.001438 0.000000 -0.001317 0.000000
# 3 -0.003369 -0.001438 0.017098 0.000000 -0.001525 0.000000
# 4 0.000000 0.000000 0.000000 -0.007831 0.000000 0.028591
# 5 -0.003834 -0.001317 -0.001525 0.000000 0.020799 0.000000
# 6 0.000000 0.000000 0.000000 0.028591 0.000000 0.000106
#
#
# Mechanical properties :
#
#
# Convention : Reuss Voigt Hill
#
# Bulk Modulus (GPa) = 45.05123 56.42409 50.73766
# Shear Modulus (GPa) = 74.20363 29.93163 52.06763
#
# Velocity S-wave (km/s) = 5.61852 3.56841 4.70645
# Velocity P-wave (km/s) = 7.82663 6.40172 7.14976
#
# Compressibility (1/GPa) = 0.02219695
#
# Stress axis : x y z
#
# Youngs Moduli (GPa) = 100.20358 133.77387 58.48684
#
# Poissons Ratio (x) = 0.18350 0.19702
# Poissons Ratio (y) = 0.13745 0.08408
# Poissons Ratio (z) = 0.33756 0.19230
#
# Static dielectric constant tensor:
#      x y z
#    x 4.127980 0.000000 0.104970 
#    y 0.000000 4.207510 0.000000 
#    z 0.104970 0.000000 4.228300 
# 
# 
# High freq. dielectric constant tensor:
#      x y z
#    x 1.935980 0.000000 0.003460 
#    y 0.000000 1.940170 0.000000 
#    z 0.003460 0.000000 1.932050 
# 
# From -- ./inp_files/6351.got.cif
#   From: 2010.03.12/outbox.cif.g09.slc.cpg/sg3_4_cif.got.tgz:6351.got - 2010.03.31 09:20:49.
