data_PCOD8045287
_publ_section_title
;
Structure prediction by ZEFSAII (Michael W. Deem and Ramdas Pophale) SiO2 
 PCOD8045287
Probable space group: P 2
;
_chemical_formula_sum "Si O2"
_cell_formula_units_Z 14
_cell_length_a 8.703177
_cell_length_b 5.358823
_cell_length_c 13.044619
_cell_angle_alpha 90.000000
_cell_angle_beta 98.497161
_cell_angle_gamma 90.000000
_cell_volume 601.707051
_symmetry_space_group_name_H-M "P 2"
_symmetry_group_IT_number 3
_symmetry_cell_setting 'monoclinic'
loop_
_space_group_symop_operation_xyz
x,y,z
-x,y,-z
loop_
_atom_site_type_symbol
_atom_site_label
_atom_site_fract_x
_atom_site_fract_y
_atom_site_fract_z
Si Si1 0.357803 0.384920 0.673121
Si Si2 0.178164 0.409423 0.052450
Si Si3 0.332697 0.683785 0.478522
Si Si4 0.712933 0.383914 0.711989
Si Si5 0.830348 0.907690 0.033415
Si Si6 0.808662 0.885869 0.271897
Si Si7 0.909953 0.042946 0.581857
O O1 0.339863 0.431122 0.548477
O O2 0.534868 0.312308 0.720174
O O3 0.301755 0.647286 0.718588
O O4 0.258733 0.151966 0.699208
O O5 0.188654 0.420584 0.175965
O O6 0.259772 0.658102 0.014298
O O7 0.000000 0.407622 0.000000
O O8 0.258614 0.157489 0.015718
O O9 0.500000 0.819485 0.500000
O O10 0.295461 0.635427 0.355221
O O11 0.200355 0.872026 0.502638
O O12 0.805547 0.192420 0.650119
O O13 0.840881 0.906252 0.155335
O O14 0.000000 0.906425 0.000000
O O15 0.975664 0.861683 0.342694
O O16 0.000000 0.200237 0.500000
#
# Coordination Sequence:
#
# PCOD8045287 Si02
#       7
#     2   2   2   2   2   2   2
#     4  11  27  50  70 108 151 197 240 299 375 452
#     4  10  22  41  69 104 137 179 246 295 352 427
#     4  10  25  44  70 106 150 196 238 300 370 456
#     4  11  27  44  76 100 152 202 240 296 387 441
#     4  10  22  42  68 101 140 179 231 309 360 415
#     4  12  26  47  76 106 149 188 248 313 364 431
#     4  12  25  41  76 110 146 190 256 302 374 437
#
# _framework density 23.267137000000002
#
# number of rings (size 3 to 8) (size 9 to 14) (size 15 to 20)
#    0.000    1.143    1.429    3.429   12.000    1.143 
#    0.000    4.286    0.000    0.000    0.000    0.000 
#    0.000    0.000    0.000    0.000    0.000    0.000 
#
# Total GULP energy -173468.912977 kJ/mol
# GULP energy per Si atom -12390.636641 kJ/mol
# Density = 2.321418 g / cm^3
# Si number density = 23.267137 Si / 1000 Ang^3
#
#
#
# Elastic Constant Matrix: (Units=GPa)
#
#
# Indices 1 2 3 4 5 6 
#
# 1 128.9791 51.6095 67.9305 0.0000 -2.1784 0.0000
# 2 51.6095 164.0547 55.5155 0.0000 -2.9824 0.0000
# 3 67.9305 55.5155 181.4757 0.0000 3.5796 0.0000
# 4 0.0000 0.0000 0.0000 27.0693 0.0000 -5.4190
# 5 -2.1784 -2.9824 3.5796 0.0000 33.3626 0.0000
# 6 0.0000 0.0000 0.0000 -5.4190 0.0000 27.1252
#
#
#
# Elastic Compliance Matrix: (Units=1/GPa)
#
#
# Indices 1 2 3 4 5 6 
#
# 1 0.010323 -0.002141 -0.003225 0.000000 0.000829 0.000000
# 2 -0.002141 0.007267 -0.001435 0.000000 0.000664 0.000000
# 3 -0.003225 -0.001435 0.007178 0.000000 -0.001109 0.000000
# 4 0.000000 0.000000 0.000000 0.038481 0.000000 0.007688
# 5 0.000829 0.000664 -0.001109 0.000000 0.030206 0.000000
# 6 0.000000 0.000000 0.000000 0.007688 0.000000 0.038402
#
#
# Mechanical properties :
#
#
# Convention : Reuss Voigt Hill
#
# Bulk Modulus (GPa) = 89.55902 91.62450 90.59176
# Shear Modulus (GPa) = 33.51643 37.47502 35.49572
#
# Velocity S-wave (km/s) = 3.79952 4.01763 3.91010
# Velocity P-wave (km/s) = 7.60418 7.80940 7.70747
#
# Compressibility (1/GPa) = 0.01116582
#
# Stress axis : x y z
#
# Youngs Moduli (GPa) = 96.87510 137.61687 139.30518
#
# Poissons Ratio (x) = 0.29461 0.44932
# Poissons Ratio (y) = 0.20739 0.19986
# Poissons Ratio (z) = 0.31246 0.19743
#
# Static dielectric constant tensor:
#      x y z
#    x 4.099910 0.000000 -0.108150 
#    y 0.000000 5.767600 0.000000 
#    z -0.108150 0.000000 4.262590 
# 
# 
# High freq. dielectric constant tensor:
#      x y z
#    x 1.909050 0.000000 -0.005710 
#    y 0.000000 1.922370 0.000000 
#    z -0.005710 0.000000 1.933370 
# 
# From -- ./inp_files/6641.got.cif
#   From: 2010.03.12/outbox.cif.g09.slc.cpg/sg3_4_cif.got.tgz:6641.got - 2010.03.31 09:20:49.
