data_PCOD8045981
_publ_section_title
;
Structure prediction by ZEFSAII (Michael W. Deem and Ramdas Pophale) SiO2 
 PCOD8045981
Probable space group: P 21
;
_chemical_formula_sum "Si O2"
_cell_formula_units_Z 16
_cell_length_a 9.222229
_cell_length_b 14.778114
_cell_length_c 10.460096
_cell_angle_alpha 90.000000
_cell_angle_beta 151.842899
_cell_angle_gamma 90.000000
_cell_volume 672.716489
_symmetry_space_group_name_H-M "P 21"
_symmetry_group_IT_number 4
_symmetry_cell_setting 'monoclinic'
loop_
_space_group_symop_operation_xyz
x,y,z
-x,1/2+y,-z
loop_
_atom_site_type_symbol
_atom_site_label
_atom_site_fract_x
_atom_site_fract_y
_atom_site_fract_z
Si Si1 0.786231 0.200020 0.001060
Si Si2 0.232715 0.868357 0.731629
Si Si3 0.785925 0.068561 0.764167
Si Si4 0.909918 0.868666 0.236336
Si Si5 0.757589 0.453281 0.735828
Si Si6 0.715897 0.821824 0.501065
Si Si7 0.730508 0.153477 0.231589
Si Si8 0.937272 0.653167 0.263693
O O1 0.808950 0.144300 0.889755
O O2 0.472316 0.260923 0.750000
O O3 0.783418 0.131586 0.121981
O O4 0.093051 0.260921 0.250000
O O5 0.254378 0.760917 0.750039
O O6 0.143419 0.906528 0.523417
O O7 0.960570 0.890251 0.621996
O O8 0.575027 0.904804 0.023857
O O9 0.836653 0.112191 0.665226
O O10 0.442835 0.028075 0.494886
O O11 0.046925 0.993769 0.994885
O O12 0.937212 0.760916 0.250001
O O13 0.993817 0.909642 0.165242
O O14 0.529413 0.377552 0.610228
O O15 0.972649 0.117034 0.523818
O O16 0.403385 0.115298 0.023373
#
# Coordination Sequence:
#
# PCOD8045981 Si02
#       8
#     2   2   2   2   2   2   2   2
#     4  11  22  41  69  98 126 168 220 273 326 387
#     4   9  18  35  63  94 118 149 208 270 311 364
#     4  12  26  42  60  94 137 174 213 266 324 390
#     4  10  20  38  64  90 119 161 209 257 313 377
#     4  12  26  42  60  94 137 174 213 266 324 390
#     4  11  22  41  69  98 126 168 220 273 326 387
#     4   9  18  35  63  94 118 149 208 270 311 364
#     4  10  20  38  64  90 119 161 209 257 313 377
#
# _framework density 23.784164000000001
#
# number of rings (size 3 to 8) (size 9 to 14) (size 15 to 20)
#    0.000    1.500    0.000    7.500    0.000    3.000 
#    0.000    5.000    0.000    0.000    0.000    0.000 
#    0.000    0.000    0.000    0.000    0.000    0.000 
#
# Total GULP energy -198329.585726 kJ/mol
# GULP energy per Si atom -12395.599108 kJ/mol
# Density = 2.373003 g / cm^3
# Si number density = 23.784164 Si / 1000 Ang^3
#
#
#
# Elastic Constant Matrix: (Units=GPa)
#
#
# Indices 1 2 3 4 5 6 
#
# 1 118.4913 24.7723 11.1317 0.0000 -1.6492 0.0000
# 2 24.7723 31.5781 15.1005 0.0000 -1.2713 0.0000
# 3 11.1317 15.1005 116.9305 0.0000 1.4528 0.0000
# 4 0.0000 0.0000 0.0000 32.1384 0.0000 1.9011
# 5 -1.6492 -1.2713 1.4528 0.0000 47.7998 0.0000
# 6 0.0000 0.0000 0.0000 1.9011 0.0000 17.7074
#
#
#
# Elastic Compliance Matrix: (Units=1/GPa)
#
#
# Indices 1 2 3 4 5 6 
#
# 1 0.010096 -0.007945 0.000063 0.000000 0.000135 0.000000
# 2 -0.007945 0.040055 -0.004428 0.000000 0.000926 0.000000
# 3 0.000063 -0.004428 0.009123 0.000000 -0.000393 0.000000
# 4 0.000000 0.000000 0.000000 0.031314 0.000000 -0.003362
# 5 0.000135 0.000926 -0.000393 0.000000 0.020962 0.000000
# 6 0.000000 0.000000 0.000000 -0.003362 0.000000 0.056834
#
#
# Mechanical properties :
#
#
# Convention : Reuss Voigt Hill
#
# Bulk Modulus (GPa) = 28.85629 41.00097 34.92863
# Shear Modulus (GPa) = 24.44319 33.92881 29.18600
#
# Velocity S-wave (km/s) = 3.20927 3.78104 3.50683
# Velocity P-wave (km/s) = 5.08836 6.02809 5.57805
#
# Compressibility (1/GPa) = 0.03465449
#
# Stress axis : x y z
#
# Youngs Moduli (GPa) = 99.04487 24.96570 109.61585
#
# Poissons Ratio (x) = 0.19836 -0.00693
# Poissons Ratio (y) = 0.78693 0.48536
# Poissons Ratio (z) = -0.00626 0.11054
#
# Static dielectric constant tensor:
#      x y z
#    x 4.393720 0.000000 0.062830 
#    y 0.000000 3.978870 0.000000 
#    z 0.062830 0.000000 4.870680 
# 
# 
# High freq. dielectric constant tensor:
#      x y z
#    x 1.943800 0.000000 0.003120 
#    y 0.000000 1.911000 0.000000 
#    z 0.003120 0.000000 1.967500 
# 
# From -- ./inp_files/6958.got.cif
#   From: 2010.03.12/outbox.cif.g09.slc.cpg/sg4_4_cif.got.tgz:6958.got - 2010.03.31 09:31:35.
