data_PCOD8045143
_publ_section_title
;
Structure prediction by ZEFSAII (Michael W. Deem and Ramdas Pophale) SiO2 
 PCOD8045143
Probable space group: P 2
;
_chemical_formula_sum "Si O2"
_cell_formula_units_Z 16
_cell_length_a 22.153731
_cell_length_b 5.519136
_cell_length_c 11.260416
_cell_angle_alpha 90.000000
_cell_angle_beta 30.481014
_cell_angle_gamma 90.000000
_cell_volume 698.388176
_symmetry_space_group_name_H-M "P 2"
_symmetry_group_IT_number 3
_symmetry_cell_setting 'monoclinic'
loop_
_space_group_symop_operation_xyz
x,y,z
-x,y,-z
loop_
_atom_site_type_symbol
_atom_site_label
_atom_site_fract_x
_atom_site_fract_y
_atom_site_fract_z
Si Si1 0.788468 0.120030 0.050895
Si Si2 0.332078 0.893430 0.544923
Si Si3 0.124501 0.139412 0.344810
Si Si4 0.029771 0.889176 0.722245
Si Si5 0.138751 0.510259 0.919520
Si Si6 0.707056 0.375477 0.774945
Si Si7 0.180348 0.199251 0.640530
Si Si8 0.437824 0.868632 0.978762
O O1 0.796784 0.404225 0.070584
O O2 0.674790 0.999149 0.308184
O O3 0.789009 0.058696 0.910291
O O4 0.905294 0.025253 0.920813
O O5 0.237625 0.678560 0.691381
O O6 0.467923 0.826601 0.287306
O O7 0.297467 0.089860 0.504258
O O8 0.188127 0.360379 0.304481
O O9 0.000000 0.232275 0.500000
O O10 0.103225 0.916823 0.473666
O O11 0.989814 0.616253 0.822097
O O12 0.104123 0.990551 0.706146
O O13 0.103432 0.321633 0.875767
O O14 0.768890 0.387907 0.541821
O O15 0.645987 0.634548 0.894935
O O16 0.627297 0.129622 0.924398
O O17 0.500000 0.853589 0.000000
#
# Coordination Sequence:
#
# PCOD8045143 Si02
#       8
#     2   2   2   2   2   2   2   2
#     4   9  20  39  63  92 128 179 230 283 353 412
#     4  10  22  37  62  95 132 177 226 289 354 414
#     4   9  20  48  68  96 140 182 238 294 350 423
#     4   9  20  38  60  96 132 177 224 282 349 425
#     4  10  21  37  63  93 131 182 227 279 365 423
#     4  11  25  44  71 108 138 187 242 287 360 430
#     4  10  21  38  61  98 140 174 228 286 352 433
#     4  12  24  43  72 104 142 184 235 297 362 422
#
# _framework density 22.909896
#
# number of rings (size 3 to 8) (size 9 to 14) (size 15 to 20)
#    0.000    2.000    1.250    1.125    3.500    6.500 
#   18.000    3.125    0.000    0.000    0.000    0.000 
#    0.000    0.000    0.000    0.000    0.000    0.000 
#
# Total GULP energy -198232.385355 kJ/mol
# GULP energy per Si atom -12389.524085 kJ/mol
# Density = 2.285775 g / cm^3
# Si number density = 22.909896 Si / 1000 Ang^3
#
#
#
# Elastic Constant Matrix: (Units=GPa)
#
#
# Indices 1 2 3 4 5 6 
#
# 1 107.2672 37.6196 49.1416 0.0000 24.1976 0.0000
# 2 37.6196 99.5624 47.8776 0.0000 10.5285 0.0000
# 3 49.1416 47.8776 129.9216 0.0000 35.3451 0.0000
# 4 0.0000 0.0000 0.0000 43.9717 0.0000 -7.8187
# 5 24.1976 10.5285 35.3451 0.0000 42.8553 0.0000
# 6 0.0000 0.0000 0.0000 -7.8187 0.0000 11.9710
#
#
#
# Elastic Compliance Matrix: (Units=1/GPa)
#
#
# Indices 1 2 3 4 5 6 
#
# 1 0.012485 -0.003104 -0.002408 0.000000 -0.004300 0.000000
# 2 -0.003104 0.013007 -0.004160 0.000000 0.001988 0.000000
# 3 -0.002408 -0.004160 0.012239 0.000000 -0.007712 0.000000
# 4 0.000000 0.000000 0.000000 0.025730 0.000000 0.016805
# 5 -0.004300 0.001988 -0.007712 0.000000 0.031635 0.000000
# 6 0.000000 0.000000 0.000000 0.016805 0.000000 0.094511
#
#
# Mechanical properties :
#
#
# Convention : Reuss Voigt Hill
#
# Bulk Modulus (GPa) = 54.39098 67.33652 60.86375
# Shear Modulus (GPa) = 23.24706 33.23377 28.24041
#
# Velocity S-wave (km/s) = 3.18892 3.81284 3.51475
# Velocity P-wave (km/s) = 6.11161 6.98852 6.56472
#
# Compressibility (1/GPa) = 0.01838540
#
# Stress axis : x y z
#
# Youngs Moduli (GPa) = 80.09839 76.88071 81.70613
#
# Poissons Ratio (x) = 0.23867 0.19677
# Poissons Ratio (y) = 0.24866 0.33989
# Poissons Ratio (z) = 0.19290 0.31982
#
# Static dielectric constant tensor:
#      x y z
#    x 3.977060 0.000000 0.189390 
#    y 0.000000 4.433380 0.000000 
#    z 0.189390 0.000000 4.489850 
# 
# 
# High freq. dielectric constant tensor:
#      x y z
#    x 1.886780 0.000000 0.019050 
#    y 0.000000 1.895400 0.000000 
#    z 0.019050 0.000000 1.914370 
# 
# From -- ./inp_files/12685.got.cif
#   From: 2010.03.12/outbox.cif.g09.slc.cpg/sg3_7_cif.got.tgz:12685.got - 2010.03.31 09:20:49.
