data_PCOD8045324
_publ_section_title
;
Structure prediction by ZEFSAII (Michael W. Deem and Ramdas Pophale) SiO2 
 PCOD8045324
Probable space group: P 2
;
_chemical_formula_sum "Si O2"
_cell_formula_units_Z 13
_cell_length_a 9.138723
_cell_length_b 7.917262
_cell_length_c 12.337058
_cell_angle_alpha 90.000000
_cell_angle_beta 41.365185
_cell_angle_gamma 90.000000
_cell_volume 589.900740
_symmetry_space_group_name_H-M "P 2"
_symmetry_group_IT_number 3
_symmetry_cell_setting 'monoclinic'
loop_
_space_group_symop_operation_xyz
x,y,z
-x,y,-z
loop_
_atom_site_type_symbol
_atom_site_label
_atom_site_fract_x
_atom_site_fract_y
_atom_site_fract_z
Si Si1 0.832504 0.732470 0.180389
Si Si2 0.986377 0.775163 0.681890
Si Si3 0.675989 0.083220 0.810087
Si Si4 0.758194 0.428643 0.835013
Si Si5 0.500000 0.167857 0.500000
Si Si6 0.397698 0.927631 0.371766
Si Si7 0.092040 0.356135 0.839437
O O1 0.595246 0.803890 0.285819
O O2 0.812075 0.533817 0.173990
O O3 0.903514 0.776783 0.261584
O O4 0.000000 0.813079 0.000000
O O5 0.865734 0.597810 0.723406
O O6 0.176778 0.811569 0.486564
O O7 0.823838 0.932548 0.771327
O O8 0.794588 0.267892 0.733382
O O9 0.565498 0.031818 0.758562
O O10 0.500000 0.121039 0.000000
O O11 0.884004 0.380670 0.875768
O O12 0.500000 0.470689 0.000000
O O13 0.303042 0.268969 0.667268
O O14 0.369138 0.059041 0.484725
O O15 0.000000 0.261516 0.000000
#
# Coordination Sequence:
#
# PCOD8045324 Si02
#       7
#     2   2   2   2   1   2   2
#     4  10  22  43  70  99 135 185 243 298 357 433
#     4  11  22  44  68 100 146 182 234 293 364 427
#     4  11  25  45  70 101 140 188 237 291 357 438
#     4  10  24  44  73 106 142 187 246 295 359 441
#     4  12  26  42  74 106 150 186 238 312 362 434
#     4  12  25  45  67 104 142 183 243 295 368 435
#     4  10  25  44  72 105 144 191 244 302 364 430
#
# _framework density 22.037604000000002
#
# number of rings (size 3 to 8) (size 9 to 14) (size 15 to 20)
#    0.000    1.231    1.538    2.769    8.615    3.077 
#    0.000    4.615    0.000    0.000    0.000    0.000 
#    0.000    0.000    0.000    0.000    0.000    0.000 
#
# Total GULP energy -161158.140315 kJ/mol
# GULP energy per Si atom -12396.780024 kJ/mol
# Density = 2.198745 g / cm^3
# Si number density = 22.037604 Si / 1000 Ang^3
#
#
#
# Elastic Constant Matrix: (Units=GPa)
#
#
# Indices 1 2 3 4 5 6 
#
# 1 98.4272 59.0157 40.7985 0.0000 -9.3243 0.0000
# 2 59.0157 154.8059 51.3462 0.0000 -11.4838 0.0000
# 3 40.7985 51.3462 119.4502 0.0000 -3.6531 0.0000
# 4 0.0000 0.0000 0.0000 20.4356 0.0000 8.6076
# 5 -9.3243 -11.4838 -3.6531 0.0000 37.8388 0.0000
# 6 0.0000 0.0000 0.0000 8.6076 0.0000 50.4720
#
#
#
# Elastic Compliance Matrix: (Units=1/GPa)
#
#
# Indices 1 2 3 4 5 6 
#
# 1 0.014112 -0.004268 -0.002927 0.000000 0.001900 0.000000
# 2 -0.004268 0.008975 -0.002356 0.000000 0.001445 0.000000
# 3 -0.002927 -0.002356 0.010371 0.000000 -0.000435 0.000000
# 4 0.000000 0.000000 0.000000 0.052721 0.000000 -0.008991
# 5 0.001900 0.001445 -0.000435 0.000000 0.027292 0.000000
# 6 0.000000 0.000000 0.000000 -0.008991 0.000000 0.021346
#
#
# Mechanical properties :
#
#
# Convention : Reuss Voigt Hill
#
# Bulk Modulus (GPa) = 69.65940 75.00046 72.32993
# Shear Modulus (GPa) = 31.50453 36.51747 34.01100
#
# Velocity S-wave (km/s) = 3.78508 4.07511 3.93277
# Velocity P-wave (km/s) = 7.12604 7.49992 7.31537
#
# Compressibility (1/GPa) = 0.01435556
#
# Stress axis : x y z
#
# Youngs Moduli (GPa) = 70.86064 111.41476 96.42240
#
# Poissons Ratio (x) = 0.47552 0.28226
# Poissons Ratio (y) = 0.30244 0.22719
# Poissons Ratio (z) = 0.20743 0.26251
#
# Static dielectric constant tensor:
#      x y z
#    x 4.100040 0.000000 0.018590 
#    y 0.000000 4.301360 0.000000 
#    z 0.018590 0.000000 4.108670 
# 
# 
# High freq. dielectric constant tensor:
#      x y z
#    x 1.877200 0.000000 -0.004090 
#    y 0.000000 1.879690 0.000000 
#    z -0.004090 0.000000 1.869350 
# 
# From -- ./inp_files/10656.got.cif
#   From: 2010.03.12/outbox.cif.g09.slc.cpg/sg3_6_cif.got.tgz:10656.got - 2010.03.31 09:20:49.
