data_PCOD8045579
_publ_section_title
;
Structure prediction by ZEFSAII (Michael W. Deem and Ramdas Pophale) SiO2 
 PCOD8045579
Probable space group: P 2
;
_chemical_formula_sum "Si O2"
_cell_formula_units_Z 16
_cell_length_a 21.194474
_cell_length_b 9.234643
_cell_length_c 9.234535
_cell_angle_alpha 90.000000
_cell_angle_beta 150.638427
_cell_angle_gamma 90.000000
_cell_volume 886.210331
_symmetry_space_group_name_H-M "P 2"
_symmetry_group_IT_number 3
_symmetry_cell_setting 'monoclinic'
loop_
_space_group_symop_operation_xyz
x,y,z
-x,y,-z
loop_
_atom_site_type_symbol
_atom_site_label
_atom_site_fract_x
_atom_site_fract_y
_atom_site_fract_z
Si Si1 0.750078 0.726970 0.668917
Si Si2 0.749918 0.726973 0.330916
Si Si3 0.500083 0.221582 0.172354
Si Si4 0.249921 0.389301 0.331081
Si Si5 0.999922 0.730321 0.663293
Si Si6 0.999921 0.385950 0.663290
Si Si7 0.499918 0.894690 0.827648
Si Si8 0.250083 0.389300 0.669088
O O1 0.774293 0.756629 0.548501
O O2 0.725793 0.558135 0.650037
O O3 0.626678 0.812700 0.482532
O O4 0.873545 0.787352 0.001543
O O5 0.873308 0.787349 0.491931
O O6 0.725606 0.558137 0.252627
O O7 0.626469 0.812718 0.023680
O O8 0.626681 0.303569 0.482536
O O9 0.500113 0.058136 0.232320
O O10 0.500000 0.224879 0.000000
O O11 0.373534 0.303557 0.976325
O O12 0.225706 0.359643 0.451499
O O13 0.126452 0.328920 0.998454
O O14 0.999916 0.558136 0.666577
O O15 0.000000 0.790225 0.500000
O O16 0.873306 0.328924 0.491923
O O17 0.000000 0.326047 0.500000
O O18 0.500000 0.891391 0.000000
#
# Coordination Sequence:
#
# PCOD8045579 Si02
#       8
#     2   2   2   2   2   2   2   2
#     4   9  16  28  48  71  92 116 148 185 224 266
#     4   9  16  28  48  71  92 116 148 185 224 266
#     4   9  17  29  46  69  94 118 148 187 226 264
#     4   9  16  28  48  71  92 116 148 185 224 266
#     4   9  17  29  46  69  94 118 148 187 226 264
#     4   9  17  29  46  69  94 118 148 187 226 264
#     4   9  17  29  46  69  94 118 148 187 226 264
#     4   9  16  28  48  71  92 116 148 185 224 266
#
# _framework density 18.054404999999999
#
# number of rings (size 3 to 8) (size 9 to 14) (size 15 to 20)
#    0.000    3.000    0.000    1.500    0.000    6.000 
#    0.000    2.500    0.000   16.500    0.000    0.000 
#    0.000    0.000    0.000    0.000    0.000    0.000 
#
# Total GULP energy -198394.081186 kJ/mol
# GULP energy per Si atom -12399.630074 kJ/mol
# Density = 1.801331 g / cm^3
# Si number density = 18.054405 Si / 1000 Ang^3
#
#
#
# Elastic Constant Matrix: (Units=GPa)
#
#
# Indices 1 2 3 4 5 6 
#
# 1 84.1339 41.4637 93.3160 0.0000 19.7609 0.0000
# 2 41.4637 68.6980 60.2692 0.0000 17.1093 0.0000
# 3 93.3160 60.2692 155.1568 0.0000 45.0519 0.0000
# 4 0.0000 0.0000 0.0000 6.7299 0.0000 -0.8985
# 5 19.7609 17.1093 45.0519 0.0000 29.1319 0.0000
# 6 0.0000 0.0000 0.0000 -0.8985 0.0000 7.7012
#
#
#
# Elastic Compliance Matrix: (Units=1/GPa)
#
#
# Indices 1 2 3 4 5 6 
#
# 1 0.041496 -0.004617 -0.028637 0.000000 0.018850 0.000000
# 2 -0.004617 0.022600 -0.005549 0.000000 -0.001560 0.000000
# 3 -0.028637 -0.005549 0.034916 0.000000 -0.031312 0.000000
# 4 0.000000 0.000000 0.000000 0.150943 0.000000 0.017610
# 5 0.018850 -0.001560 -0.031312 0.000000 0.070880 0.000000
# 6 0.000000 0.000000 0.000000 0.017610 0.000000 0.131904
#
#
# Mechanical properties :
#
#
# Convention : Reuss Voigt Hill
#
# Bulk Modulus (GPa) = 46.71685 77.56516 62.14100
# Shear Modulus (GPa) = 9.30269 16.24192 12.77231
#
# Velocity S-wave (km/s) = 2.27239 3.00260 2.66265
# Velocity P-wave (km/s) = 5.72860 7.42132 6.62921
#
# Compressibility (1/GPa) = 0.02140555
#
# Stress axis : x y z
#
# Youngs Moduli (GPa) = 24.09861 44.24845 28.64038
#
# Poissons Ratio (x) = 0.20429 0.82018
# Poissons Ratio (y) = 0.11126 0.15893
# Poissons Ratio (z) = 0.69012 0.24554
#
# Static dielectric constant tensor:
#      x y z
#    x 3.232260 0.000000 0.220330 
#    y 0.000000 3.102040 0.000000 
#    z 0.220330 0.000000 3.475050 
# 
# 
# High freq. dielectric constant tensor:
#      x y z
#    x 1.679850 0.000000 0.022450 
#    y 0.000000 1.666590 0.000000 
#    z 0.022450 0.000000 1.704630 
# 
# From -- ./inp_files/9439.got.cif
#   From: 2010.03.12/outbox.cif.g09.slc.cpg/sg3_5_cif.got.tgz:9439.got - 2010.03.31 09:20:49.
