data_PCOD8045283
_publ_section_title
;
Structure prediction by ZEFSAII (Michael W. Deem and Ramdas Pophale) SiO2 
 PCOD8045283
Probable space group: P 2
;
_chemical_formula_sum "Si O2"
_cell_formula_units_Z 13
_cell_length_a 14.549872
_cell_length_b 6.506841
_cell_length_c 9.023559
_cell_angle_alpha 90.000000
_cell_angle_beta 135.504595
_cell_angle_gamma 90.000000
_cell_volume 598.733536
_symmetry_space_group_name_H-M "P 2"
_symmetry_group_IT_number 3
_symmetry_cell_setting 'monoclinic'
loop_
_space_group_symop_operation_xyz
x,y,z
-x,y,-z
loop_
_atom_site_type_symbol
_atom_site_label
_atom_site_fract_x
_atom_site_fract_y
_atom_site_fract_z
Si Si1 0.295665 0.615970 0.254595
Si Si2 0.564173 0.924166 0.802573
Si Si3 0.316938 0.700850 0.608479
Si Si4 0.500000 0.259626 0.500000
Si Si5 0.826178 0.406284 0.393589
Si Si6 0.191678 0.956763 0.714216
Si Si7 0.909969 0.617639 0.217880
O O1 0.385182 0.770240 0.264663
O O2 0.269802 0.713321 0.385055
O O3 0.368718 0.397439 0.352777
O O4 0.151812 0.599550 0.016094
O O5 0.461216 0.797067 0.785104
O O6 0.500375 0.121530 0.649102
O O7 0.675512 0.999929 0.041904
O O8 0.303012 0.464239 0.655555
O O9 0.214829 0.819384 0.595829
O O10 0.858478 0.168330 0.412699
O O11 0.807418 0.499905 0.207981
O O12 0.950407 0.509505 0.619965
O O13 0.086941 0.851122 0.708789
#
# Coordination Sequence:
#
# PCOD8045283 Si02
#       7
#     2   2   2   1   2   2   2
#     4  11  22  40  65  89 127 167 209 264 319 375
#     4  11  22  41  60  95 126 169 210 255 319 381
#     4  11  22  39  59  93 132 160 204 266 316 371
#     4  12  20  36  66  88 122 172 214 260 308 388
#     4  10  22  41  66  91 122 167 215 260 316 376
#     4  10  23  41  66  91 125 166 211 263 322 375
#     4   9  22  43  66  88 121 165 217 265 312 372
#
# _framework density 21.712496999999999
#
# number of rings (size 3 to 8) (size 9 to 14) (size 15 to 20)
#    0.000    1.538    3.077    1.385    2.154    5.538 
#    2.769    0.000    3.385    0.000    0.000    0.000 
#    0.000    0.000    0.000    0.000    0.000    0.000 
#
# Total GULP energy -161113.429522 kJ/mol
# GULP energy per Si atom -12393.340732 kJ/mol
# Density = 2.166308 g / cm^3
# Si number density = 21.712497 Si / 1000 Ang^3
#
#
#
# Elastic Constant Matrix: (Units=GPa)
#
#
# Indices 1 2 3 4 5 6 
#
# 1 75.0537 31.0546 19.9897 0.0000 -6.7730 0.0000
# 2 31.0546 134.4901 43.3699 0.0000 9.0501 0.0000
# 3 19.9897 43.3699 110.1679 0.0000 5.6302 0.0000
# 4 0.0000 0.0000 0.0000 32.3871 0.0000 0.1174
# 5 -6.7730 9.0501 5.6302 0.0000 26.3000 0.0000
# 6 0.0000 0.0000 0.0000 0.1174 0.0000 25.2039
#
#
#
# Elastic Compliance Matrix: (Units=1/GPa)
#
#
# Indices 1 2 3 4 5 6 
#
# 1 0.015727 -0.003432 -0.001789 0.000000 0.005614 0.000000
# 2 -0.003432 0.009398 -0.002898 0.000000 -0.003497 0.000000
# 3 -0.001789 -0.002898 0.010632 0.000000 -0.001739 0.000000
# 4 0.000000 0.000000 0.000000 0.030877 0.000000 -0.000144
# 5 0.005614 -0.003497 -0.001739 0.000000 0.041045 0.000000
# 6 0.000000 0.000000 0.000000 -0.000144 0.000000 0.039677
#
#
# Mechanical properties :
#
#
# Convention : Reuss Voigt Hill
#
# Bulk Modulus (GPa) = 51.23738 56.50446 53.87092
# Shear Modulus (GPa) = 29.39432 31.79802 30.59617
#
# Velocity S-wave (km/s) = 3.68339 3.83103 3.75794
# Velocity P-wave (km/s) = 6.46058 6.75644 6.61017
#
# Compressibility (1/GPa) = 0.01951700
#
# Stress axis : x y z
#
# Youngs Moduli (GPa) = 63.58411 106.40591 94.05944
#
# Poissons Ratio (x) = 0.36521 0.16831
# Poissons Ratio (y) = 0.21824 0.27260
# Poissons Ratio (z) = 0.11378 0.30839
#
# Static dielectric constant tensor:
#      x y z
#    x 3.846450 0.000000 -0.135170 
#    y 0.000000 4.092880 0.000000 
#    z -0.135170 0.000000 3.990700 
# 
# 
# High freq. dielectric constant tensor:
#      x y z
#    x 1.837630 0.000000 -0.005310 
#    y 0.000000 1.855030 0.000000 
#    z -0.005310 0.000000 1.859470 
# 
# From -- ./inp_files/8245.got.cif
#   From: 2010.03.12/outbox.cif.g09.slc.cpg/sg3_5_cif.got.tgz:8245.got - 2010.03.31 09:20:49.
