data_PCOD8045657
_publ_section_title
;
Structure prediction by ZEFSAII (Michael W. Deem and Ramdas Pophale) SiO2 
 PCOD8045657
Probable space group: P 21
;
_chemical_formula_sum "Si O2"
_cell_formula_units_Z 16
_cell_length_a 30.698297
_cell_length_b 5.013204
_cell_length_c 14.771608
_cell_angle_alpha 90.000000
_cell_angle_beta 21.434294
_cell_angle_gamma 90.000000
_cell_volume 830.742410
_symmetry_space_group_name_H-M "P 21"
_symmetry_group_IT_number 4
_symmetry_cell_setting 'monoclinic'
loop_
_space_group_symop_operation_xyz
x,y,z
-x,1/2+y,-z
loop_
_atom_site_type_symbol
_atom_site_label
_atom_site_fract_x
_atom_site_fract_y
_atom_site_fract_z
Si Si1 0.506602 0.397210 0.369362
Si Si2 0.383862 0.897427 0.646478
Si Si3 0.763580 0.299985 0.816726
Si Si4 0.945801 0.168790 0.909925
Si Si5 0.076755 0.790276 0.856677
Si Si6 0.868405 0.183119 0.862431
Si Si7 0.875731 0.806486 0.692463
Si Si8 0.896891 0.174125 0.383133
O O1 0.436097 0.665504 0.480977
O O2 0.543107 0.406836 0.402762
O O3 0.408410 0.166931 0.543611
O O4 0.623288 0.357746 0.082314
O O5 0.246527 0.859292 0.940322
O O6 0.833638 0.511975 0.744747
O O7 0.804853 0.294308 0.633068
O O8 0.790187 0.010422 0.805438
O O9 0.057331 0.376035 0.681969
O O10 0.865488 0.158566 0.976023
O O11 0.989365 0.867625 0.838235
O O12 0.866666 0.250701 0.151823
O O13 0.157956 0.693520 0.613789
O O14 0.958788 0.599620 0.085513
O O15 0.985267 0.345293 0.602607
O O16 0.863014 0.890799 0.823449
#
# Coordination Sequence:
#
# PCOD8045657 Si02
#       8
#     2   2   2   2   2   2   2   2
#     4  10  22  39  52  71  94 138 195 228 254 292
#     4  10  23  36  55  68  98 142 184 227 258 300
#     4  12  21  39  55  79 107 144 181 227 268 318
#     4  10  20  32  52  79 110 142 177 212 270 335
#     4   8  16  30  50  74 106 138 173 214 263 326
#     4  12  24  38  53  80 115 148 179 214 274 330
#     4  12  26  34  53  80 114 143 176 212 277 330
#     4  10  18  34  52  79 108 141 173 222 274 321
#
# _framework density 19.259882000000001
#
# number of rings (size 3 to 8) (size 9 to 14) (size 15 to 20)
#    0.000    1.500    3.750    1.500    3.500    3.000 
#    0.000    0.000    0.000    0.000    0.000    1.750 
#    0.000    0.000    0.000    0.000    0.000    0.000 
#
# Total GULP energy -198236.991971 kJ/mol
# GULP energy per Si atom -12389.811998 kJ/mol
# Density = 1.921605 g / cm^3
# Si number density = 19.259882 Si / 1000 Ang^3
#
#
#
# Elastic Constant Matrix: (Units=GPa)
#
#
# Indices 1 2 3 4 5 6 
#
# 1 103.8759 18.9841 18.0957 0.0000 32.9676 0.0000
# 2 18.9841 58.7223 4.2293 0.0000 7.1110 0.0000
# 3 18.0957 4.2293 73.4408 0.0000 7.8076 0.0000
# 4 0.0000 0.0000 0.0000 22.3091 0.0000 3.7234
# 5 32.9676 7.1110 7.8076 0.0000 25.9841 0.0000
# 6 0.0000 0.0000 0.0000 3.7234 0.0000 18.2794
#
#
#
# Elastic Compliance Matrix: (Units=1/GPa)
#
#
# Indices 1 2 3 4 5 6 
#
# 1 0.016824 -0.002884 -0.001853 0.000000 -0.020000 0.000000
# 2 -0.002884 0.018126 -0.000201 0.000000 -0.001241 0.000000
# 3 -0.001853 -0.000201 0.014285 0.000000 -0.001886 0.000000
# 4 0.000000 0.000000 0.000000 0.046402 0.000000 -0.009452
# 5 -0.020000 -0.001241 -0.001886 0.000000 0.064766 0.000000
# 6 0.000000 0.000000 0.000000 -0.009452 0.000000 0.056632
#
#
# Mechanical properties :
#
#
# Convention : Reuss Voigt Hill
#
# Bulk Modulus (GPa) = 25.40696 35.40636 30.40666
# Shear Modulus (GPa) = 20.83056 26.29653 23.56354
#
# Velocity S-wave (km/s) = 3.29226 3.69908 3.50158
# Velocity P-wave (km/s) = 5.26045 6.05538 5.67186
#
# Compressibility (1/GPa) = 0.03935929
#
# Stress axis : x y z
#
# Youngs Moduli (GPa) = 59.43843 55.16824 70.00288
#
# Poissons Ratio (x) = 0.15909 0.12973
# Poissons Ratio (y) = 0.17140 0.01410
# Poissons Ratio (z) = 0.11015 0.01111
#
# Static dielectric constant tensor:
#      x y z
#    x 3.704610 0.000000 0.346660 
#    y 0.000000 3.836310 0.000000 
#    z 0.346660 0.000000 3.325150 
# 
# 
# High freq. dielectric constant tensor:
#      x y z
#    x 1.721290 0.000000 0.030240 
#    y 0.000000 1.775140 0.000000 
#    z 0.030240 0.000000 1.708480 
# 
# From -- ./inp_files/14627.got.cif
#   From: 2010.03.12/outbox.cif.g09.slc.cpg/sg4_8_cif.got.tgz:14627.got - 2010.03.31 09:31:35.
