data_PCOD8045412
_publ_section_title
;
Structure prediction by ZEFSAII (Michael W. Deem and Ramdas Pophale) SiO2 
 PCOD8045412
Probable space group: P 2
;
_chemical_formula_sum "Si O2"
_cell_formula_units_Z 16
_cell_length_a 8.195323
_cell_length_b 13.303632
_cell_length_c 7.299914
_cell_angle_alpha 90.000000
_cell_angle_beta 122.434530
_cell_angle_gamma 90.000000
_cell_volume 671.736557
_symmetry_space_group_name_H-M "P 2"
_symmetry_group_IT_number 3
_symmetry_cell_setting 'monoclinic'
loop_
_space_group_symop_operation_xyz
x,y,z
-x,y,-z
loop_
_atom_site_type_symbol
_atom_site_label
_atom_site_fract_x
_atom_site_fract_y
_atom_site_fract_z
Si Si1 0.716322 0.457990 0.115906
Si Si2 0.216322 0.957990 0.115906
Si Si3 0.301542 0.781993 0.453241
Si Si4 0.286943 0.414404 0.301285
Si Si5 0.949146 0.599773 0.763298
Si Si6 0.198458 0.281993 0.546759
Si Si7 0.786944 0.914404 0.301286
Si Si8 0.550854 0.099773 0.236703
O O1 0.741072 0.373050 0.282924
O O2 0.866732 0.551039 0.232995
O O3 0.500000 0.503225 0.000000
O O4 0.747777 0.407378 0.935928
O O5 0.241071 0.873050 0.282923
O O6 0.366732 0.051038 0.232995
O O7 0.247776 0.907378 0.935927
O O8 0.000000 0.003226 0.000000
O O9 0.500000 0.731297 0.500000
O O10 0.128490 0.701982 0.374004
O O11 0.344731 0.829406 0.679475
O O12 0.500000 0.392041 0.500000
O O13 0.227055 0.522204 0.343315
O O14 0.155269 0.329406 0.320525
O O15 0.000000 0.628930 0.000000
O O16 0.371511 0.201982 0.625998
O O17 0.000000 0.231297 0.500000
O O18 0.000000 0.892040 0.500000
O O19 0.727057 0.022204 0.343315
O O20 0.500000 0.128928 0.000000
#
# Coordination Sequence:
#
# PCOD8045412 Si02
#       8
#     2   2   2   2   2   2   2   2
#     4  11  23  46  74 101 150 190 234 303 356 418
#     4  11  23  46  74 101 150 190 234 303 356 418
#     4  12  24  46  76 107 144 192 238 296 365 421
#     4  11  23  44  70 106 143 187 241 294 351 432
#     4  10  24  45  71 107 145 185 242 296 355 430
#     4  12  24  46  76 107 144 192 238 296 365 421
#     4  11  23  44  70 106 143 187 241 294 351 432
#     4  10  24  45  71 107 145 185 242 296 355 430
#
# _framework density 23.818860999999998
#
# number of rings (size 3 to 8) (size 9 to 14) (size 15 to 20)
#    0.000    1.000    5.000    1.500    0.000    0.000 
#    4.500    0.000    0.000    0.000    0.000    0.000 
#    0.000    0.000    0.000    0.000    0.000    0.000 
#
# Total GULP energy -198365.671039 kJ/mol
# GULP energy per Si atom -12397.854440 kJ/mol
# Density = 2.376465 g / cm^3
# Si number density = 23.818861 Si / 1000 Ang^3
#
#
#
# Elastic Constant Matrix: (Units=GPa)
#
#
# Indices 1 2 3 4 5 6 
#
# 1 140.6241 55.9648 39.9752 0.0000 1.3098 0.0000
# 2 55.9648 132.0683 56.9184 0.0000 -9.0231 0.0000
# 3 39.9752 56.9184 69.9045 0.0000 -1.0995 0.0000
# 4 0.0000 0.0000 0.0000 29.8076 0.0000 3.8992
# 5 1.3098 -9.0231 -1.0995 0.0000 37.8295 0.0000
# 6 0.0000 0.0000 0.0000 3.8992 0.0000 32.9798
#
#
#
# Elastic Compliance Matrix: (Units=1/GPa)
#
#
# Indices 1 2 3 4 5 6 
#
# 1 0.009017 -0.002559 -0.003089 0.000000 -0.001012 0.000000
# 2 -0.002559 0.012634 -0.008779 0.000000 0.002847 0.000000
# 3 -0.003089 -0.008779 0.023199 0.000000 -0.001313 0.000000
# 4 0.000000 0.000000 0.000000 0.034075 0.000000 -0.004029
# 5 -0.001012 0.002847 -0.001313 0.000000 0.027110 0.000000
# 6 0.000000 0.000000 0.000000 -0.004029 0.000000 0.030798
#
#
# Mechanical properties :
#
#
# Convention : Reuss Voigt Hill
#
# Bulk Modulus (GPa) = 62.51255 72.03484 67.27369
# Shear Modulus (GPa) = 29.23634 32.77263 31.00448
#
# Velocity S-wave (km/s) = 3.50729 3.71335 3.61179
# Velocity P-wave (km/s) = 6.53478 6.97809 6.76007
#
# Compressibility (1/GPa) = 0.01599679
#
# Stress axis : x y z
#
# Youngs Moduli (GPa) = 110.90109 79.14946 43.10518
#
# Poissons Ratio (x) = 0.20255 0.13314
# Poissons Ratio (y) = 0.28380 0.37842
# Poissons Ratio (z) = 0.34254 0.69486
#
# Static dielectric constant tensor:
#      x y z
#    x 4.940280 0.000000 -0.046310 
#    y 0.000000 4.041130 0.000000 
#    z -0.046310 0.000000 4.353930 
# 
# 
# High freq. dielectric constant tensor:
#      x y z
#    x 1.962310 0.000000 0.000220 
#    y 0.000000 1.924190 0.000000 
#    z 0.000220 0.000000 1.945860 
# 
# From -- ./inp_files/6036.got.cif
#   From: 2010.03.12/outbox.cif.g09.slc.cpg/sg3_4_cif.got.tgz:6036.got - 2010.03.31 09:20:49.
