data_PCOD8045994
_publ_section_title
;
Structure prediction by ZEFSAII (Michael W. Deem and Ramdas Pophale) SiO2 
 PCOD8045994
Probable space group: P 21
;
_chemical_formula_sum "Si O2"
_cell_formula_units_Z 14
_cell_length_a 10.824027
_cell_length_b 12.880658
_cell_length_c 7.629581
_cell_angle_alpha 90.000000
_cell_angle_beta 40.530754
_cell_angle_gamma 90.000000
_cell_volume 691.265385
_symmetry_space_group_name_H-M "P 21"
_symmetry_group_IT_number 4
_symmetry_cell_setting 'monoclinic'
loop_
_space_group_symop_operation_xyz
x,y,z
-x,1/2+y,-z
loop_
_atom_site_type_symbol
_atom_site_label
_atom_site_fract_x
_atom_site_fract_y
_atom_site_fract_z
Si Si1 0.352221 0.326910 0.255415
Si Si2 0.165681 0.133958 0.345931
Si Si3 0.619569 0.304595 0.633098
Si Si4 0.048711 0.268690 0.173745
Si Si5 0.172416 0.480436 0.223441
Si Si6 0.636186 0.737003 0.407679
Si Si7 0.430458 0.035854 0.311574
O O1 0.181594 0.241296 0.438711
O O2 0.261867 0.439898 0.312550
O O3 0.436474 0.317131 0.361308
O O4 0.512375 0.297713 0.936691
O O5 0.150747 0.170663 0.161129
O O6 0.350403 0.065715 0.202291
O O7 0.980226 0.069409 0.594063
O O8 0.495697 0.248479 0.619599
O O9 0.653693 0.424378 0.544302
O O10 0.823439 0.248388 0.417461
O O11 0.091147 0.379299 0.215792
O O12 0.145724 0.266715 0.877957
O O13 0.341928 0.531996 0.931202
O O14 0.633766 0.618334 0.474524
#
# Coordination Sequence:
#
# PCOD8045994 Si02
#       7
#     2   2   2   2   2   2   2
#     4   9  22  43  65  92 131 173 215 266 325 383
#     4  10  20  38  67  93 122 170 218 259 317 388
#     4  11  22  48  64  90 138 176 206 272 333 376
#     4  11  23  42  65  97 133 162 216 275 317 385
#     4  10  20  42  68  92 128 172 215 263 323 390
#     4  11  23  44  63 100 130 165 221 272 316 390
#     4  10  22  41  68  92 128 174 215 267 323 384
#
# _framework density 20.252714999999998
#
# number of rings (size 3 to 8) (size 9 to 14) (size 15 to 20)
#    0.000    1.714    5.714    0.000    4.000    2.286 
#   12.857    0.000    0.000    0.000    0.000    0.000 
#    0.000    0.000    0.000    0.000    0.000    0.000 
#
# Total GULP energy -173437.392745 kJ/mol
# GULP energy per Si atom -12388.385196 kJ/mol
# Density = 2.020662 g / cm^3
# Si number density = 20.252715 Si / 1000 Ang^3
#
#
#
# Elastic Constant Matrix: (Units=GPa)
#
#
# Indices 1 2 3 4 5 6 
#
# 1 91.3688 22.2635 66.8568 0.0000 -2.8890 0.0000
# 2 22.2635 81.2678 32.1950 0.0000 -1.3745 0.0000
# 3 66.8568 32.1950 117.5155 0.0000 -3.9667 0.0000
# 4 0.0000 0.0000 0.0000 37.0934 0.0000 -3.4145
# 5 -2.8890 -1.3745 -3.9667 0.0000 36.9877 0.0000
# 6 0.0000 0.0000 0.0000 -3.4145 0.0000 26.9945
#
#
#
# Elastic Compliance Matrix: (Units=1/GPa)
#
#
# Indices 1 2 3 4 5 6 
#
# 1 0.018830 -0.001025 -0.010421 0.000000 0.000315 0.000000
# 2 -0.001025 0.013859 -0.003211 0.000000 0.000091 0.000000
# 3 -0.010421 -0.003211 0.015342 0.000000 0.000712 0.000000
# 4 0.000000 0.000000 0.000000 0.027277 0.000000 0.003450
# 5 0.000315 0.000091 0.000712 0.000000 0.027140 0.000000
# 6 0.000000 0.000000 0.000000 0.003450 0.000000 0.037481
#
#
# Mechanical properties :
#
#
# Convention : Reuss Voigt Hill
#
# Bulk Modulus (GPa) = 53.42615 59.19809 56.31212
# Shear Modulus (GPa) = 28.49296 31.47089 29.98192
#
# Velocity S-wave (km/s) = 3.75490 3.94624 3.85176
# Velocity P-wave (km/s) = 6.72577 7.07509 6.90264
#
# Compressibility (1/GPa) = 0.01871743
#
# Stress axis : x y z
#
# Youngs Moduli (GPa) = 53.10738 72.15384 65.18014
#
# Poissons Ratio (x) = 0.07393 0.67926
# Poissons Ratio (y) = 0.05442 0.20929
# Poissons Ratio (z) = 0.55345 0.23168
#
# Static dielectric constant tensor:
#      x y z
#    x 3.877760 0.000000 -0.036870 
#    y 0.000000 3.815010 0.000000 
#    z -0.036870 0.000000 3.610910 
# 
# 
# High freq. dielectric constant tensor:
#      x y z
#    x 1.788710 0.000000 -0.011150 
#    y 0.000000 1.793700 0.000000 
#    z -0.011150 0.000000 1.774560 
# 
# From -- ./inp_files/8421.got.cif
#   From: 2010.03.12/outbox.cif.g09.slc.cpg/sg4_5_cif.got.tgz:8421.got - 2010.03.31 09:31:35.
