data_PCOD8045920
_publ_section_title
;
Structure prediction by ZEFSAII (Michael W. Deem and Ramdas Pophale) SiO2 
 PCOD8045920
Probable space group: P 21
;
_chemical_formula_sum "Si O2"
_cell_formula_units_Z 16
_cell_length_a 30.787039
_cell_length_b 5.408607
_cell_length_c 16.625055
_cell_angle_alpha 90.000000
_cell_angle_beta 16.971195
_cell_angle_gamma 90.000000
_cell_volume 808.047673
_symmetry_space_group_name_H-M "P 21"
_symmetry_group_IT_number 4
_symmetry_cell_setting 'monoclinic'
loop_
_space_group_symop_operation_xyz
x,y,z
-x,1/2+y,-z
loop_
_atom_site_type_symbol
_atom_site_label
_atom_site_fract_x
_atom_site_fract_y
_atom_site_fract_z
Si Si1 0.622940 0.351350 0.202505
Si Si2 0.456193 0.355264 0.339299
Si Si3 0.838789 0.775496 0.057353
Si Si4 0.267753 0.413140 0.424732
Si Si5 0.296356 0.725084 0.523342
Si Si6 0.692207 0.848413 0.153168
Si Si7 0.508154 0.114239 0.080560
Si Si8 0.045959 0.794093 0.077601
O O1 0.589871 0.367227 0.166042
O O2 0.715518 0.599898 0.059098
O O3 0.472344 0.353669 0.519700
O O4 0.714686 0.100016 0.060845
O O5 0.317852 0.201206 0.621954
O O6 0.384890 0.620012 0.444263
O O7 0.523859 0.251718 0.137447
O O8 0.813850 0.838541 0.008145
O O9 0.940176 0.527764 0.885602
O O10 0.913677 0.022230 0.960950
O O11 0.227849 0.528928 0.581895
O O12 0.412179 0.244774 0.181631
O O13 0.123243 0.266681 0.651566
O O14 0.324684 0.587354 0.250629
O O15 0.416532 0.868283 0.259300
O O16 0.152947 0.867392 0.812728
#
# Coordination Sequence:
#
# PCOD8045920 Si02
#       8
#     2   2   2   2   2   2   2   2
#     4   9  17  28  50  82 113 148 185 223 286 353
#     4   9  20  33  55  82 115 154 190 234 293 344
#     4  10  20  37  55  85 120 152 188 240 294 343
#     4  11  25  37  60  83 114 158 202 240 292 347
#     4  10  22  37  56  79 118 151 189 244 291 336
#     4   9  17  29  50  79 118 148 176 232 290 343
#     4  11  21  40  54  81 116 153 190 245 290 336
#     4  11  24  37  60  85 114 156 198 238 286 350
#
# _framework density 19.800810999999999
#
# number of rings (size 3 to 8) (size 9 to 14) (size 15 to 20)
#    0.000    2.000    2.500    0.750    5.250    3.000 
#    0.000    0.000    0.000    0.000    0.000    3.500 
#    0.000    0.000    0.000    0.000    0.000    0.000 
#
# Total GULP energy -198236.888283 kJ/mol
# GULP energy per Si atom -12389.805518 kJ/mol
# Density = 1.975574 g / cm^3
# Si number density = 19.800811 Si / 1000 Ang^3
#
#
#
# Elastic Constant Matrix: (Units=GPa)
#
#
# Indices 1 2 3 4 5 6 
#
# 1 129.5206 41.8345 48.7297 0.0000 -5.6597 0.0000
# 2 41.8345 111.4057 23.5858 0.0000 -6.6409 0.0000
# 3 48.7297 23.5858 63.1788 0.0000 -4.3119 0.0000
# 4 0.0000 0.0000 0.0000 22.4338 0.0000 -3.1454
# 5 -5.6597 -6.6409 -4.3119 0.0000 13.3190 0.0000
# 6 0.0000 0.0000 0.0000 -3.1454 0.0000 14.5561
#
#
#
# Elastic Compliance Matrix: (Units=1/GPa)
#
#
# Indices 1 2 3 4 5 6 
#
# 1 0.011577 -0.002616 -0.007880 0.000000 0.001064 0.000000
# 2 -0.002616 0.010526 -0.001667 0.000000 0.003597 0.000000
# 3 -0.007880 -0.001667 0.022746 0.000000 0.003184 0.000000
# 4 0.000000 0.000000 0.000000 0.045968 0.000000 0.009933
# 5 0.001064 0.003597 0.003184 0.000000 0.078358 0.000000
# 6 0.000000 0.000000 0.000000 0.009933 0.000000 0.070846
#
#
# Mechanical properties :
#
#
# Convention : Reuss Voigt Hill
#
# Bulk Modulus (GPa) = 48.72454 59.15612 53.94033
# Shear Modulus (GPa) = 18.43758 22.72547 20.58153
#
# Velocity S-wave (km/s) = 3.05479 3.39145 3.22751
# Velocity P-wave (km/s) = 6.09123 6.72877 6.41792
#
# Compressibility (1/GPa) = 0.02052354
#
# Stress axis : x y z
#
# Youngs Moduli (GPa) = 86.37942 95.00626 43.96474
#
# Poissons Ratio (x) = 0.24849 0.34645
# Poissons Ratio (y) = 0.22593 0.07327
# Poissons Ratio (z) = 0.68068 0.15833
#
# Static dielectric constant tensor:
#      x y z
#    x 3.703490 0.000000 0.061230 
#    y 0.000000 3.754810 0.000000 
#    z 0.061230 0.000000 3.264510 
# 
# 
# High freq. dielectric constant tensor:
#      x y z
#    x 1.777400 0.000000 -0.002610 
#    y 0.000000 1.777900 0.000000 
#    z -0.002610 0.000000 1.720770 
# 
# From -- ./inp_files/10020.got.cif
#   From: 2010.03.12/outbox.cif.g09.slc.cpg/sg4_6_cif.got.tgz:10020.got - 2010.03.31 09:31:35.
