data_PCOD8045723
_publ_section_title
;
Structure prediction by ZEFSAII (Michael W. Deem and Ramdas Pophale) SiO2 
 PCOD8045723
Probable space group: P 21
;
_chemical_formula_sum "Si O2"
_cell_formula_units_Z 10
_cell_length_a 10.573746
_cell_length_b 4.893251
_cell_length_c 10.594053
_cell_angle_alpha 90.000000
_cell_angle_beta 64.581791
_cell_angle_gamma 90.000000
_cell_volume 495.076056
_symmetry_space_group_name_H-M "P 21"
_symmetry_group_IT_number 4
_symmetry_cell_setting 'monoclinic'
loop_
_space_group_symop_operation_xyz
x,y,z
-x,1/2+y,-z
loop_
_atom_site_type_symbol
_atom_site_label
_atom_site_fract_x
_atom_site_fract_y
_atom_site_fract_z
Si Si1 0.181846 0.420160 0.449926
Si Si2 0.681532 0.647768 0.953732
Si Si3 0.386911 0.639696 0.176810
Si Si4 0.070306 0.913328 0.627829
Si Si5 0.030035 0.294492 0.063209
O O1 0.331980 0.529412 0.335900
O O2 0.128402 0.611790 0.583900
O O3 0.080994 0.444817 0.371890
O O4 0.181179 0.122623 0.515638
O O5 0.666793 0.443815 0.838592
O O6 0.829639 0.627094 0.959652
O O7 0.673580 0.955089 0.908544
O O8 0.555332 0.605351 0.107815
O O9 0.051317 0.938704 0.785581
O O10 0.063357 0.550740 0.957187
#
# Coordination Sequence:
#
# PCOD8045723 Si02
#       5
#     2   2   2   2   2
#     4  10  19  33  58  84 116 141 177 257 293 336
#     4  10  21  35  56  88 117 151 196 230 300 342
#     4  10  19  35  60  86 119 144 183 260 294 341
#     4  10  21  33  54  85 116 146 190 228 298 340
#     4  12  24  38  58  81 126 162 194 233 271 361
#
# _framework density 20.198917999999999
#
# number of rings (size 3 to 8) (size 9 to 14) (size 15 to 20)
#    0.000    1.600    2.000    3.600    5.600    0.000 
#    0.000    0.000    0.000    4.800    0.000    0.000 
#    0.000    0.000    0.000    0.000    0.000    0.000 
#
# Total GULP energy -123943.726288 kJ/mol
# GULP energy per Si atom -12394.372629 kJ/mol
# Density = 2.015294 g / cm^3
# Si number density = 20.198918 Si / 1000 Ang^3
#
#
#
# Elastic Constant Matrix: (Units=GPa)
#
#
# Indices 1 2 3 4 5 6 
#
# 1 48.8086 13.1566 41.5619 0.0000 -9.0236 0.0000
# 2 13.1566 85.0076 24.8176 0.0000 8.3316 0.0000
# 3 41.5619 24.8176 118.9976 0.0000 -8.2124 0.0000
# 4 0.0000 0.0000 0.0000 13.0251 0.0000 3.5677
# 5 -9.0236 8.3316 -8.2124 0.0000 25.8275 0.0000
# 6 0.0000 0.0000 0.0000 3.5677 0.0000 23.8088
#
#
#
# Elastic Compliance Matrix: (Units=1/GPa)
#
#
# Indices 1 2 3 4 5 6 
#
# 1 0.031096 -0.002844 -0.009667 0.000000 0.008708 0.000000
# 2 -0.002844 0.013446 -0.002228 0.000000 -0.006040 0.000000
# 3 -0.009667 -0.002228 0.012332 0.000000 0.001262 0.000000
# 4 0.000000 0.000000 0.000000 0.080061 0.000000 -0.011997
# 5 0.008708 -0.006040 0.001262 0.000000 0.044111 0.000000
# 6 0.000000 0.000000 0.000000 -0.011997 0.000000 0.043799
#
#
# Mechanical properties :
#
#
# Convention : Reuss Voigt Hill
#
# Bulk Modulus (GPa) = 36.50061 45.76511 41.13286
# Shear Modulus (GPa) = 18.97868 24.08414 21.53141
#
# Velocity S-wave (km/s) = 3.06860 3.45679 3.26846
# Velocity P-wave (km/s) = 5.53759 6.21602 5.88658
#
# Compressibility (1/GPa) = 0.02739680
#
# Stress axis : x y z
#
# Youngs Moduli (GPa) = 32.15817 74.37075 81.09280
#
# Poissons Ratio (x) = 0.21152 0.78391
# Poissons Ratio (y) = 0.09146 0.18065
# Poissons Ratio (z) = 0.31087 0.16568
#
# Static dielectric constant tensor:
#      x y z
#    x 3.419150 0.000000 -0.272460 
#    y 0.000000 3.819190 0.000000 
#    z -0.272460 0.000000 3.591170 
# 
# 
# High freq. dielectric constant tensor:
#      x y z
#    x 1.736300 0.000000 -0.023640 
#    y 0.000000 1.812530 0.000000 
#    z -0.023640 0.000000 1.785900 
# 
# From -- ./inp_files/5080.got.cif
#   From: 2010.03.12/outbox.cif.g09.slc.cpg/sg4_3_cif.got.tgz:5080.got - 2010.03.31 09:31:35.
