data_PCOD8045129
_publ_section_title
;
Structure prediction by ZEFSAII (Michael W. Deem and Ramdas Pophale) SiO2 
 PCOD8045129
Probable space group: P 2
;
_chemical_formula_sum "Si O2"
_cell_formula_units_Z 16
_cell_length_a 20.496119
_cell_length_b 9.209843
_cell_length_c 8.883751
_cell_angle_alpha 90.000000
_cell_angle_beta 150.659515
_cell_angle_gamma 90.000000
_cell_volume 821.703271
_symmetry_space_group_name_H-M "P 2"
_symmetry_group_IT_number 3
_symmetry_cell_setting 'monoclinic'
loop_
_space_group_symop_operation_xyz
x,y,z
-x,y,-z
loop_
_atom_site_type_symbol
_atom_site_label
_atom_site_fract_x
_atom_site_fract_y
_atom_site_fract_z
Si Si1 0.494217 0.226480 0.166938
Si Si2 0.995458 0.726054 0.160592
Si Si3 0.791060 0.557298 0.224971
Si Si4 0.500466 0.525184 0.677324
Si Si5 0.004642 0.058136 0.835631
Si Si6 0.776974 0.221099 0.204721
Si Si7 0.263135 0.726215 0.180149
Si Si8 0.276892 0.059534 0.212399
O O1 0.543302 0.386837 0.312861
O O2 0.590144 0.108003 0.434611
O O3 0.500000 0.208643 0.000000
O O4 0.344433 0.201793 0.923487
O O5 0.090601 0.616142 0.436935
O O6 0.043196 0.891734 0.278577
O O7 0.000000 0.675239 0.000000
O O8 0.842657 0.711223 0.900315
O O9 0.810538 0.387221 0.235252
O O10 0.647855 0.581654 0.017482
O O11 0.798515 0.643288 0.084799
O O12 0.500000 0.479968 0.500000
O O13 0.400138 0.654966 0.511369
O O14 0.907354 0.153287 0.539727
O O15 0.000000 0.107321 0.000000
O O16 0.153203 0.083288 0.074897
O O17 0.741268 0.147797 0.976204
O O18 0.292393 0.892062 0.197033
#
# Coordination Sequence:
#
# PCOD8045129 Si02
#       8
#     2   2   2   2   2   2   2   2
#     4  11  23  39  58  84 117 150 185 233 285 335
#     4  10  22  38  56  81 116 150 184 228 278 331
#     4  10  21  37  57  84 112 144 188 230 277 331
#     4   9  20  39  59  83 112 144 186 235 280 331
#     4  10  22  40  58  83 117 150 187 235 284 333
#     4  11  23  38  60  86 113 150 191 233 280 335
#     4  10  21  37  60  85 110 145 188 232 277 330
#     4  11  22  38  60  86 113 149 193 232 279 336
#
# _framework density 19.47175
#
# number of rings (size 3 to 8) (size 9 to 14) (size 15 to 20)
#    0.000    1.750    0.000    4.875    0.000   11.500 
#    0.000    0.625    0.000    0.000    0.000    0.000 
#    0.000    0.000    0.000    0.000    0.000    0.000 
#
# Total GULP energy -198455.417124 kJ/mol
# GULP energy per Si atom -12403.463570 kJ/mol
# Density = 1.942743 g / cm^3
# Si number density = 19.471750 Si / 1000 Ang^3
#
#
#
# Elastic Constant Matrix: (Units=GPa)
#
#
# Indices 1 2 3 4 5 6 
#
# 1 96.3369 39.9183 7.0581 0.0000 -6.7032 0.0000
# 2 39.9183 115.6178 41.5280 0.0000 -2.9813 0.0000
# 3 7.0581 41.5280 63.9451 0.0000 1.1850 0.0000
# 4 0.0000 0.0000 0.0000 40.5677 0.0000 3.7263
# 5 -6.7032 -2.9813 1.1850 0.0000 27.2492 0.0000
# 6 0.0000 0.0000 0.0000 3.7263 0.0000 18.1639
#
#
#
# Elastic Compliance Matrix: (Units=1/GPa)
#
#
# Indices 1 2 3 4 5 6 
#
# 1 0.012435 -0.004853 0.001733 0.000000 0.002453 0.000000
# 2 -0.004853 0.013240 -0.008074 0.000000 0.000606 0.000000
# 3 0.001733 -0.008074 0.020716 0.000000 -0.001358 0.000000
# 4 0.000000 0.000000 0.000000 0.025124 0.000000 -0.005154
# 5 0.002453 0.000606 -0.001358 0.000000 0.037427 0.000000
# 6 0.000000 0.000000 0.000000 -0.005154 0.000000 0.056111
#
#
# Mechanical properties :
#
#
# Convention : Reuss Voigt Hill
#
# Bulk Modulus (GPa) = 41.65963 50.32320 45.99142
# Shear Modulus (GPa) = 25.58313 29.68919 27.63616
#
# Velocity S-wave (km/s) = 3.62865 3.90902 3.77144
# Velocity P-wave (km/s) = 6.24480 6.80251 6.52961
#
# Compressibility (1/GPa) = 0.02400405
#
# Stress axis : x y z
#
# Youngs Moduli (GPa) = 80.42070 75.52641 48.27191
#
# Poissons Ratio (x) = 0.36650 -0.08368
# Poissons Ratio (y) = 0.39025 0.38976
# Poissons Ratio (z) = -0.13941 0.60983
#
# Static dielectric constant tensor:
#      x y z
#    x 3.669190 0.000000 0.065730 
#    y 0.000000 3.657600 0.000000 
#    z 0.065730 0.000000 3.699660 
# 
# 
# High freq. dielectric constant tensor:
#      x y z
#    x 1.761230 0.000000 0.007890 
#    y 0.000000 1.765530 0.000000 
#    z 0.007890 0.000000 1.767000 
# 
# From -- ./inp_files/5599.got.cif
#   From: 2010.03.12/outbox.cif.g09.slc.cpg/sg3_3_cif.got.tgz:5599.got - 2010.03.31 09:20:49.
