data_PCOD8045436
_publ_section_title
;
Structure prediction by ZEFSAII (Michael W. Deem and Ramdas Pophale) SiO2 
 PCOD8045436
Probable space group: P 2
;
_chemical_formula_sum "Si O2"
_cell_formula_units_Z 10
_cell_length_a 18.744931
_cell_length_b 5.065395
_cell_length_c 13.209722
_cell_angle_alpha 90.000000
_cell_angle_beta 19.271329
_cell_angle_gamma 90.000000
_cell_volume 413.961683
_symmetry_space_group_name_H-M "P 2"
_symmetry_group_IT_number 3
_symmetry_cell_setting 'monoclinic'
loop_
_space_group_symop_operation_xyz
x,y,z
-x,y,-z
loop_
_atom_site_type_symbol
_atom_site_label
_atom_site_fract_x
_atom_site_fract_y
_atom_site_fract_z
Si Si1 0.747408 0.057550 0.152895
Si Si2 0.077393 0.544847 0.187011
Si Si3 0.000000 0.269412 0.000000
Si Si4 0.314935 0.495144 0.421636
Si Si5 0.440716 0.993763 0.962849
Si Si6 0.000000 0.754804 0.500000
O O1 0.500000 0.979963 0.500000
O O2 0.873567 0.087613 0.089608
O O3 0.754812 0.323808 0.075851
O O4 0.864667 0.826959 0.936304
O O5 0.084636 0.562672 0.298130
O O6 0.836474 0.466254 0.474487
O O7 0.826343 0.456587 0.288069
O O8 0.424152 0.780550 0.283135
O O9 0.502743 0.278512 0.158299
O O10 0.500000 0.964315 0.000000
O O11 0.186647 0.946728 0.290929
#
# Coordination Sequence:
#
# PCOD8045436 Si02
#       6
#     2   2   1   2   2   1
#     4  11  26  47  72 108 146 192 247 309 359 442
#     4  11  26  48  73 108 151 187 251 304 365 443
#     4  10  26  44  78 100 148 190 246 296 378 430
#     4  11  25  49  73 106 145 191 244 302 367 435
#     4  12  27  47  74 104 148 195 247 303 365 431
#     4  12  30  46  80 108 154 198 250 304 370 440
#
# _framework density 24.156825999999999
#
# number of rings (size 3 to 8) (size 9 to 14) (size 15 to 20)
#    0.000    0.800    2.000    3.600    5.600    8.800 
#    0.000    0.000    0.000    0.000    0.000    0.000 
#    0.000    0.000    0.000    0.000    0.000    0.000 
#
# Total GULP energy -124092.049258 kJ/mol
# GULP energy per Si atom -12409.204926 kJ/mol
# Density = 2.410184 g / cm^3
# Si number density = 24.156826 Si / 1000 Ang^3
#
#
#
# Elastic Constant Matrix: (Units=GPa)
#
#
# Indices 1 2 3 4 5 6 
#
# 1 148.3041 36.1198 60.8894 0.0000 18.1795 0.0000
# 2 36.1198 101.6470 18.4691 0.0000 18.7557 0.0000
# 3 60.8894 18.4691 113.4360 0.0000 1.7087 0.0000
# 4 0.0000 0.0000 0.0000 21.0252 0.0000 -6.6163
# 5 18.1795 18.7557 1.7087 0.0000 46.3896 0.0000
# 6 0.0000 0.0000 0.0000 -6.6163 0.0000 9.9319
#
#
#
# Elastic Compliance Matrix: (Units=1/GPa)
#
#
# Indices 1 2 3 4 5 6 
#
# 1 0.009515 -0.002015 -0.004738 0.000000 -0.002740 0.000000
# 2 -0.002015 0.011382 -0.000715 0.000000 -0.003786 0.000000
# 3 -0.004738 -0.000715 0.011449 0.000000 0.001724 0.000000
# 4 0.000000 0.000000 0.000000 0.060177 0.000000 0.040088
# 5 -0.002740 -0.003786 0.001724 0.000000 0.024097 0.000000
# 6 0.000000 0.000000 0.000000 0.040088 0.000000 0.127391
#
#
# Mechanical properties :
#
#
# Convention : Reuss Voigt Hill
#
# Bulk Modulus (GPa) = 57.43341 66.03818 61.73579
# Shear Modulus (GPa) = 18.88576 31.99660 25.44118
#
# Velocity S-wave (km/s) = 2.79910 3.64337 3.24877
# Velocity P-wave (km/s) = 5.85435 6.71531 6.29956
#
# Compressibility (1/GPa) = 0.01741147
#
# Stress axis : x y z
#
# Youngs Moduli (GPa) = 105.10107 87.85541 87.34272
#
# Poissons Ratio (x) = 0.17699 0.41382
# Poissons Ratio (y) = 0.21174 0.06243
# Poissons Ratio (z) = 0.49796 0.06280
#
# Static dielectric constant tensor:
#      x y z
#    x 4.438650 0.000000 0.038300 
#    y 0.000000 4.287940 0.000000 
#    z 0.038300 0.000000 4.511230 
# 
# 
# High freq. dielectric constant tensor:
#      x y z
#    x 1.962080 0.000000 0.000550 
#    y 0.000000 1.962630 0.000000 
#    z 0.000550 0.000000 1.972260 
# 
# From -- ./inp_files/12413.got.cif
#   From: 2010.03.12/outbox.cif.g09.slc.cpg/sg3_7_cif.got.tgz:12413.got - 2010.03.31 09:20:49.
