data_PCOD8045844
_publ_section_title
;
Structure prediction by ZEFSAII (Michael W. Deem and Ramdas Pophale) SiO2 
 PCOD8045844
Probable space group: P 21
;
_chemical_formula_sum "Si O2"
_cell_formula_units_Z 14
_cell_length_a 5.535729
_cell_length_b 12.843029
_cell_length_c 8.675896
_cell_angle_alpha 90.000000
_cell_angle_beta 83.820489
_cell_angle_gamma 90.000000
_cell_volume 613.233403
_symmetry_space_group_name_H-M "P 21"
_symmetry_group_IT_number 4
_symmetry_cell_setting 'monoclinic'
loop_
_space_group_symop_operation_xyz
x,y,z
-x,1/2+y,-z
loop_
_atom_site_type_symbol
_atom_site_label
_atom_site_fract_x
_atom_site_fract_y
_atom_site_fract_z
Si Si1 0.735702 0.483170 0.136611
Si Si2 0.668953 0.875949 0.697653
Si Si3 0.143811 0.370021 0.969708
Si Si4 0.344981 0.149384 0.400711
Si Si5 0.591770 0.069532 0.088590
Si Si6 0.944611 0.171367 0.856211
Si Si7 0.821161 0.090487 0.565440
O O1 0.612067 0.413545 0.277557
O O2 0.866799 0.408648 0.004252
O O3 0.916405 0.565060 0.199884
O O4 0.533360 0.551004 0.066059
O O5 0.750450 0.849038 0.867387
O O6 0.680881 0.774309 0.590466
O O7 0.826842 0.969082 0.615400
O O8 0.293088 0.458690 0.865885
O O9 0.132359 0.266108 0.866951
O O10 0.402235 0.114195 0.222436
O O11 0.577810 0.110836 0.481975
O O12 0.079282 0.105037 0.460367
O O13 0.796499 0.155266 0.026707
O O14 0.792682 0.176252 0.707000
#
# Coordination Sequence:
#
# PCOD8045844 Si02
#       7
#     2   2   2   2   2   2   2
#     4  10  19  41  74 102 136 186 251 304 349 429
#     4  11  24  49  72 103 143 206 234 299 385 430
#     4  10  22  39  79 106 138 189 254 309 352 424
#     4  12  30  47  77 107 150 200 236 300 373 447
#     4  10  23  44  70 108 136 190 254 298 349 441
#     4  11  22  43  74 103 143 188 250 299 358 430
#     4  12  28  49  72 109 154 189 241 307 364 445
#
# _framework density 22.829803999999999
#
# number of rings (size 3 to 8) (size 9 to 14) (size 15 to 20)
#    0.000    1.143    4.286    2.571    8.000    2.286 
#    2.571    0.000    0.000    0.000    0.000    0.000 
#    0.000    0.000    0.000    0.000    0.000    0.000 
#
# Total GULP energy -173466.258979 kJ/mol
# GULP energy per Si atom -12390.447070 kJ/mol
# Density = 2.277784 g / cm^3
# Si number density = 22.829804 Si / 1000 Ang^3
#
#
#
# Elastic Constant Matrix: (Units=GPa)
#
#
# Indices 1 2 3 4 5 6 
#
# 1 114.2987 33.4716 20.2224 0.0000 -21.7021 0.0000
# 2 33.4716 118.6314 31.4837 0.0000 -15.0656 0.0000
# 3 20.2224 31.4837 53.3570 0.0000 -23.2916 0.0000
# 4 0.0000 0.0000 0.0000 29.2324 0.0000 1.3350
# 5 -21.7021 -15.0656 -23.2916 0.0000 42.7718 0.0000
# 6 0.0000 0.0000 0.0000 1.3350 0.0000 29.2862
#
#
#
# Elastic Compliance Matrix: (Units=1/GPa)
#
#
# Indices 1 2 3 4 5 6 
#
# 1 0.010295 -0.002164 -0.000889 0.000000 0.003977 0.000000
# 2 -0.002164 0.010455 -0.005537 0.000000 -0.000430 0.000000
# 3 -0.000889 -0.005537 0.027939 0.000000 0.012813 0.000000
# 4 0.000000 0.000000 0.000000 0.034280 0.000000 -0.001563
# 5 0.003977 -0.000430 0.012813 0.000000 0.032224 0.000000
# 6 0.000000 0.000000 0.000000 -0.001563 0.000000 0.034217
#
#
# Mechanical properties :
#
#
# Convention : Reuss Voigt Hill
#
# Bulk Modulus (GPa) = 31.73606 50.73804 41.23705
# Shear Modulus (GPa) = 28.23407 33.66540 30.94974
#
# Velocity S-wave (km/s) = 3.52052 3.84425 3.68594
# Velocity P-wave (km/s) = 5.51876 6.47897 6.01805
#
# Compressibility (1/GPa) = 0.03150990
#
# Stress axis : x y z
#
# Youngs Moduli (GPa) = 97.13345 95.65085 35.79271
#
# Poissons Ratio (x) = 0.20696 0.03182
# Poissons Ratio (y) = 0.21017 0.19817
# Poissons Ratio (z) = 0.08634 0.52959
#
# Static dielectric constant tensor:
#      x y z
#    x 4.398350 0.000000 -0.085410 
#    y 0.000000 4.200530 0.000000 
#    z -0.085410 0.000000 3.872670 
# 
# 
# High freq. dielectric constant tensor:
#      x y z
#    x 1.915660 0.000000 -0.003380 
#    y 0.000000 1.902680 0.000000 
#    z -0.003380 0.000000 1.879170 
# 
# From -- ./inp_files/1319.got.cif
#   From: 2010.03.12/outbox.cif.g09.slc.cpg/sg4_1_cif.got.tgz:1319.got - 2010.03.31 09:31:35.
