data_PCOD8045586
_publ_section_title
;
Structure prediction by ZEFSAII (Michael W. Deem and Ramdas Pophale) SiO2 
 PCOD8045586
Probable space group: P 21
;
_chemical_formula_sum "Si O2"
_cell_formula_units_Z 16
_cell_length_a 17.934849
_cell_length_b 5.125110
_cell_length_c 13.011417
_cell_angle_alpha 90.000000
_cell_angle_beta 122.643141
_cell_angle_gamma 90.000000
_cell_volume 1007.074457
_symmetry_space_group_name_H-M "P 21"
_symmetry_group_IT_number 4
_symmetry_cell_setting 'monoclinic'
loop_
_space_group_symop_operation_xyz
x,y,z
-x,1/2+y,-z
loop_
_atom_site_type_symbol
_atom_site_label
_atom_site_fract_x
_atom_site_fract_y
_atom_site_fract_z
Si Si1 0.396889 0.034870 0.485237
Si Si2 0.495524 0.538952 0.862866
Si Si3 0.397528 0.034112 0.861041
Si Si4 0.790876 0.490842 0.361278
Si Si5 0.970792 0.658859 0.422346
Si Si6 0.494048 0.530287 0.630283
Si Si7 0.125076 0.683765 0.406004
Si Si8 0.210490 0.175578 0.424542
O O1 0.448757 0.251320 0.586883
O O2 0.422787 0.053164 0.384547
O O3 0.293234 0.097417 0.415698
O O4 0.421076 0.754219 0.552055
O O5 0.422736 0.316728 0.833905
O O6 0.531269 0.533733 0.773216
O O7 0.452360 0.821111 0.840175
O O8 0.579523 0.514101 0.000897
O O9 0.294779 0.959047 0.773312
O O10 0.865839 0.606762 0.340392
O O11 0.826115 0.226166 0.445059
O O12 0.764880 0.686799 0.435456
O O13 0.012950 0.458724 0.535472
O O14 0.021642 0.615523 0.350954
O O15 0.170319 0.459027 0.370295
O O16 0.135408 0.953044 0.349849
#
# Coordination Sequence:
#
# PCOD8045586 Si02
#       8
#     2   2   2   2   2   2   2   2
#     4  10  20  29  45  66  80 112 150 176 215 271
#     4  10  20  34  44  61  91 113 146 188 213 246
#     4  10  21  30  46  66  82 118 153 175 212 251
#     4   9  19  25  45  58  86 111 145 169 205 256
#     4  10  16  28  38  58  86 113 138 164 214 256
#     4  10  19  32  45  60  87 112 141 185 225 245
#     4   9  18  26  39  60  84 116 129 174 209 251
#     4  10  17  26  40  59  84 107 140 169 205 254
#
# _framework density 15.887605000000001
#
# number of rings (size 3 to 8) (size 9 to 14) (size 15 to 20)
#    0.750    1.500    1.250    3.000    3.500    0.000 
#    0.000    0.000    0.000    0.000    0.000    0.000 
#    0.000    2.000    0.000    0.000    0.000    7.500 
#
# Total GULP energy -198216.585320 kJ/mol
# GULP energy per Si atom -12388.536583 kJ/mol
# Density = 1.585144 g / cm^3
# Si number density = 15.887605 Si / 1000 Ang^3
#
#
#
# Elastic Constant Matrix: (Units=GPa)
#
#
# Indices 1 2 3 4 5 6 
#
# 1 90.4509 7.4857 21.8506 0.0000 -5.3729 0.0000
# 2 7.4857 67.3329 7.6134 0.0000 -4.7771 0.0000
# 3 21.8506 7.6134 60.0905 0.0000 -9.6377 0.0000
# 4 0.0000 0.0000 0.0000 10.4522 0.0000 -2.2454
# 5 -5.3729 -4.7771 -9.6377 0.0000 22.2885 0.0000
# 6 0.0000 0.0000 0.0000 -2.2454 0.0000 20.5432
#
#
#
# Elastic Compliance Matrix: (Units=1/GPa)
#
#
# Indices 1 2 3 4 5 6 
#
# 1 0.012189 -0.000815 -0.004175 0.000000 0.000958 0.000000
# 2 -0.000815 0.015262 -0.001229 0.000000 0.002543 0.000000
# 3 -0.004175 -0.001229 0.019462 0.000000 0.007145 0.000000
# 4 0.000000 0.000000 0.000000 0.097975 0.000000 0.010709
# 5 0.000958 0.002543 0.007145 0.000000 0.048732 0.000000
# 6 0.000000 0.000000 0.000000 0.010709 0.000000 0.049848
#
#
# Mechanical properties :
#
#
# Convention : Reuss Voigt Hill
#
# Bulk Modulus (GPa) = 29.00851 32.41928 30.71390
# Shear Modulus (GPa) = 18.69879 22.71842 20.70860
#
# Velocity S-wave (km/s) = 3.43438 3.78557 3.61424
# Velocity P-wave (km/s) = 5.83308 6.28944 6.06555
#
# Compressibility (1/GPa) = 0.03447264
#
# Stress axis : x y z
#
# Youngs Moduli (GPa) = 82.04317 65.52388 51.38331
#
# Poissons Ratio (x) = 0.05340 0.21454
# Poissons Ratio (y) = 0.06686 0.06317
# Poissons Ratio (z) = 0.34255 0.08056
#
# Static dielectric constant tensor:
#      x y z
#    x 3.133670 0.000000 -0.124940 
#    y 0.000000 3.181950 0.000000 
#    z -0.124940 0.000000 2.621960 
# 
# 
# High freq. dielectric constant tensor:
#      x y z
#    x 1.611980 0.000000 -0.010980 
#    y 0.000000 1.632910 0.000000 
#    z -0.010980 0.000000 1.538920 
# 
# From -- ./inp_files/9505.got.cif
#   From: 2010.03.12/outbox.cif.g09.slc.cpg/sg4_5_cif.got.tgz:9505.got - 2010.03.31 09:31:35.
