data_PCOD8045929
_publ_section_title
;
Structure prediction by ZEFSAII (Michael W. Deem and Ramdas Pophale) SiO2 
 PCOD8045929
Probable space group: P 21
;
_chemical_formula_sum "Si O2"
_cell_formula_units_Z 16
_cell_length_a 10.424921
_cell_length_b 13.015816
_cell_length_c 8.409297
_cell_angle_alpha 90.000000
_cell_angle_beta 138.142305
_cell_angle_gamma 90.000000
_cell_volume 761.401620
_symmetry_space_group_name_H-M "P 21"
_symmetry_group_IT_number 4
_symmetry_cell_setting 'monoclinic'
loop_
_space_group_symop_operation_xyz
x,y,z
-x,1/2+y,-z
loop_
_atom_site_type_symbol
_atom_site_label
_atom_site_fract_x
_atom_site_fract_y
_atom_site_fract_z
Si Si1 0.787464 0.288620 0.069231
Si Si2 0.241012 0.804248 0.596297
Si Si3 0.437208 0.145326 0.098724
Si Si4 0.718241 0.480596 0.806680
Si Si5 0.442766 0.154199 0.748710
Si Si6 0.855563 0.797823 0.048501
Si Si7 0.470199 0.446749 0.293619
Si Si8 0.099278 0.160631 0.209030
O O1 0.847458 0.307640 0.307944
O O2 0.891310 0.188439 0.088999
O O3 0.830092 0.392429 0.008569
O O4 0.561630 0.260489 0.857977
O O5 0.357970 0.698561 0.670106
O O6 0.386849 0.898965 0.707151
O O7 0.069201 0.814728 0.310880
O O8 0.402973 0.052289 0.186899
O O9 0.434733 0.104975 0.916824
O O10 0.264304 0.227172 0.942237
O O11 0.564428 0.422831 0.552532
O O12 0.873780 0.547221 0.846194
O O13 0.235144 0.176906 0.486216
O O14 0.545611 0.068970 0.735254
O O15 0.745851 0.905483 0.924178
O O16 0.851798 0.745751 0.874434
#
# Coordination Sequence:
#
# PCOD8045929 Si02
#       8
#     2   2   2   2   2   2   2   2
#     4  11  22  38  60  85 116 156 195 239 291 346
#     4  10  21  38  61  86 117 153 192 237 290 347
#     4   9  20  39  59  83 115 150 192 241 287 343
#     4  10  21  39  61  85 117 154 195 241 292 346
#     4  10  21  38  58  83 114 150 194 239 290 344
#     4  10  20  37  59  84 115 152 191 237 290 345
#     4  10  21  36  58  84 114 150 189 240 290 343
#     4  10  22  37  58  86 116 151 192 242 288 342
#
# _framework density 21.013876
#
# number of rings (size 3 to 8) (size 9 to 14) (size 15 to 20)
#    0.000    2.000    0.000    3.000    0.000    7.000 
#    0.000   11.250    0.000    0.000    0.000    0.000 
#    0.000    0.000    0.000    0.000    0.000    0.000 
#
# Total GULP energy -198350.839144 kJ/mol
# GULP energy per Si atom -12396.927446 kJ/mol
# Density = 2.096605 g / cm^3
# Si number density = 21.013876 Si / 1000 Ang^3
#
#
#
# Elastic Constant Matrix: (Units=GPa)
#
#
# Indices 1 2 3 4 5 6 
#
# 1 81.1730 26.9218 39.2718 0.0000 -5.7504 0.0000
# 2 26.9218 75.9625 38.2495 0.0000 -0.3626 0.0000
# 3 39.2718 38.2495 110.1928 0.0000 1.1704 0.0000
# 4 0.0000 0.0000 0.0000 31.0417 0.0000 -2.9653
# 5 -5.7504 -0.3626 1.1704 0.0000 31.9531 0.0000
# 6 0.0000 0.0000 0.0000 -2.9653 0.0000 35.2083
#
#
#
# Elastic Compliance Matrix: (Units=1/GPa)
#
#
# Indices 1 2 3 4 5 6 
#
# 1 0.015815 -0.003317 -0.004517 0.000000 0.002974 0.000000
# 2 -0.003317 0.016653 -0.004596 0.000000 -0.000240 0.000000
# 3 -0.004517 -0.004596 0.012294 0.000000 -0.001315 0.000000
# 4 0.000000 0.000000 0.000000 0.032476 0.000000 0.002735
# 5 0.002974 -0.000240 -0.001315 0.000000 0.031877 0.000000
# 6 0.000000 0.000000 0.000000 0.002735 0.000000 0.028633
#
#
# Mechanical properties :
#
#
# Convention : Reuss Voigt Hill
#
# Bulk Modulus (GPa) = 50.24205 52.91273 51.57739
# Shear Modulus (GPa) = 29.54377 30.49964 30.02171
#
# Velocity S-wave (km/s) = 3.75362 3.81386 3.78386
# Velocity P-wave (km/s) = 6.53813 6.68047 6.60968
#
# Compressibility (1/GPa) = 0.01990365
#
# Stress axis : x y z
#
# Youngs Moduli (GPa) = 63.23015 60.04982 81.34030
#
# Poissons Ratio (x) = 0.19916 0.36740
# Poissons Ratio (y) = 0.20970 0.37383
# Poissons Ratio (z) = 0.28560 0.27598
#
# Static dielectric constant tensor:
#      x y z
#    x 3.861540 0.000000 -0.105440 
#    y 0.000000 3.687390 0.000000 
#    z -0.105440 0.000000 3.680710 
# 
# 
# High freq. dielectric constant tensor:
#      x y z
#    x 1.824960 0.000000 -0.013080 
#    y 0.000000 1.817500 0.000000 
#    z -0.013080 0.000000 1.820450 
# 
# From -- ./inp_files/1352.got.cif
#   From: 2010.03.12/outbox.cif.g09.slc.cpg/sg4_1_cif.got.tgz:1352.got - 2010.03.31 09:31:35.
