data_PCOD8045060
_publ_section_title
;
Structure prediction by ZEFSAII (Michael W. Deem and Ramdas Pophale) SiO2 
 PCOD8045060
Probable space group: P 2
;
_chemical_formula_sum "Si O2"
_cell_formula_units_Z 14
_cell_length_a 6.344007
_cell_length_b 5.951938
_cell_length_c 17.384230
_cell_angle_alpha 90.000000
_cell_angle_beta 72.756608
_cell_angle_gamma 90.000000
_cell_volume 626.910440
_symmetry_space_group_name_H-M "P 2"
_symmetry_group_IT_number 3
_symmetry_cell_setting 'monoclinic'
loop_
_space_group_symop_operation_xyz
x,y,z
-x,y,-z
loop_
_atom_site_type_symbol
_atom_site_label
_atom_site_fract_x
_atom_site_fract_y
_atom_site_fract_z
Si Si1 0.606596 0.196710 0.567853
Si Si2 0.283861 0.031385 0.067135
Si Si3 0.000000 0.693816 0.000000
Si Si4 0.841141 0.797207 0.778758
Si Si5 0.048533 0.417548 0.858964
Si Si6 0.000000 0.853330 0.500000
Si Si7 0.888753 0.524807 0.636262
Si Si8 0.178428 0.179819 0.703404
O O1 0.500000 0.282200 0.500000
O O2 0.721139 0.406394 0.596567
O O3 0.414654 0.106788 0.644875
O O4 0.781136 0.001730 0.532506
O O5 0.132820 0.246647 0.090192
O O6 0.173750 0.840509 0.027288
O O7 0.331780 0.936414 0.149194
O O8 0.500000 0.112141 0.000000
O O9 0.855127 0.537640 0.074860
O O10 0.743792 0.668045 0.714591
O O11 0.940225 0.608784 0.821048
O O12 0.033305 0.958704 0.727262
O O13 0.219695 0.288422 0.784263
O O14 0.964951 0.699175 0.428704
O O15 0.054077 0.350359 0.659008
#
# Coordination Sequence:
#
# PCOD8045060 Si02
#       8
#     2   2   1   2   2   1   2   2
#     4  12  25  41  64  93 123 159 204 250 305 368
#     4  10  21  38  62  91 126 165 208 255 303 361
#     4  10  20  38  60  90 128 166 208 258 306 356
#     4   9  20  41  64  89 124 161 205 256 304 360
#     4   9  20  38  62  92 126 163 206 255 304 360
#     4  12  26  42  62  92 126 158 198 252 308 370
#     4  11  23  43  65  89 124 161 203 256 307 362
#     4  10  22  44  66  89 122 162 207 255 304 362
#
# _framework density 22.33174
#
# number of rings (size 3 to 8) (size 9 to 14) (size 15 to 20)
#    0.000    1.714    0.000    4.286    0.000    7.429 
#    0.000   21.429    0.000    0.000    0.000    0.000 
#    0.000    0.000    0.000    0.000    0.000    0.000 
#
# Total GULP energy -173467.517118 kJ/mol
# GULP energy per Si atom -12390.536937 kJ/mol
# Density = 2.228091 g / cm^3
# Si number density = 22.331740 Si / 1000 Ang^3
#
#
#
# Elastic Constant Matrix: (Units=GPa)
#
#
# Indices 1 2 3 4 5 6 
#
# 1 80.1605 42.1455 65.1890 0.0000 -15.0251 0.0000
# 2 42.1455 130.8946 83.0876 0.0000 3.2610 0.0000
# 3 65.1890 83.0876 183.8960 0.0000 -9.6628 0.0000
# 4 0.0000 0.0000 0.0000 55.0174 0.0000 1.7526
# 5 -15.0251 3.2610 -9.6628 0.0000 43.5732 0.0000
# 6 0.0000 0.0000 0.0000 1.7526 0.0000 10.3768
#
#
#
# Elastic Compliance Matrix: (Units=1/GPa)
#
#
# Indices 1 2 3 4 5 6 
#
# 1 0.019393 -0.003108 -0.005167 0.000000 0.005774 0.000000
# 2 -0.003108 0.011367 -0.004184 0.000000 -0.002850 0.000000
# 3 -0.005167 -0.004184 0.009190 0.000000 0.000569 0.000000
# 4 0.000000 0.000000 0.000000 0.018274 0.000000 -0.003086
# 5 0.005774 -0.002850 0.000569 0.000000 0.025281 0.000000
# 6 0.000000 0.000000 0.000000 -0.003086 0.000000 0.096890
#
#
# Mechanical properties :
#
#
# Convention : Reuss Voigt Hill
#
# Bulk Modulus (GPa) = 66.52384 86.19949 76.36166
# Shear Modulus (GPa) = 23.77282 35.42875 29.60079
#
# Velocity S-wave (km/s) = 3.26625 3.98738 3.64470
# Velocity P-wave (km/s) = 6.63914 7.73836 7.20973
#
# Compressibility (1/GPa) = 0.01503221
#
# Stress axis : x y z
#
# Youngs Moduli (GPa) = 51.56380 87.97110 108.81692
#
# Poissons Ratio (x) = 0.27345 0.56225
# Poissons Ratio (y) = 0.16028 0.45528
# Poissons Ratio (z) = 0.26643 0.36806
#
# Static dielectric constant tensor:
#      x y z
#    x 3.426020 0.000000 0.076070 
#    y 0.000000 4.504280 0.000000 
#    z 0.076070 0.000000 5.224870 
# 
# 
# High freq. dielectric constant tensor:
#      x y z
#    x 1.820420 0.000000 0.002370 
#    y 0.000000 1.902020 0.000000 
#    z 0.002370 0.000000 1.924480 
# 
# From -- ./inp_files/14580.got.cif
#   From: 2010.03.12/outbox.cif.g09.slc.cpg/sg3_8_cif.got.tgz:14580.got - 2010.03.31 09:20:49.
