data_PCOD8045916
_publ_section_title
;
Structure prediction by ZEFSAII (Michael W. Deem and Ramdas Pophale) SiO2 
 PCOD8045916
Probable space group: P 21
;
_chemical_formula_sum "Si O2"
_cell_formula_units_Z 14
_cell_length_a 8.408667
_cell_length_b 15.218993
_cell_length_c 5.095260
_cell_angle_alpha 90.000000
_cell_angle_beta 88.097623
_cell_angle_gamma 90.000000
_cell_volume 651.688398
_symmetry_space_group_name_H-M "P 21"
_symmetry_group_IT_number 4
_symmetry_cell_setting 'monoclinic'
loop_
_space_group_symop_operation_xyz
x,y,z
-x,1/2+y,-z
loop_
_atom_site_type_symbol
_atom_site_label
_atom_site_fract_x
_atom_site_fract_y
_atom_site_fract_z
Si Si1 0.695610 0.407420 0.420097
Si Si2 0.428347 0.002053 0.069988
Si Si3 0.662129 0.699307 0.008704
Si Si4 0.977349 0.513385 0.509819
Si Si5 0.033619 0.120124 0.005438
Si Si6 0.272951 0.572751 0.728183
Si Si7 0.468872 0.730592 0.524309
O O1 0.618606 0.471980 0.636326
O O2 0.887973 0.424006 0.423766
O O3 0.664799 0.305810 0.483758
O O4 0.620136 0.429634 0.141438
O O5 0.620455 0.015474 0.078568
O O6 0.355873 0.094344 0.986649
O O7 0.856202 0.708811 0.988757
O O8 0.582994 0.740085 0.269520
O O9 0.580798 0.746356 0.768367
O O10 0.951371 0.586103 0.289721
O O11 0.168562 0.505269 0.552318
O O12 0.897867 0.548323 0.786580
O O13 0.848168 0.135784 0.095847
O O14 0.382708 0.636028 0.543156
#
# Coordination Sequence:
#
# PCOD8045916 Si02
#       7
#     2   2   2   2   2   2   2
#     4  12  22  41  61  95 127 169 204 270 324 364
#     4  11  21  37  67  88 120 162 220 253 298 386
#     4  11  20  40  63  92 115 171 207 257 301 391
#     4  10  20  37  63  92 117 166 209 252 307 383
#     4  10  20  36  65  90 115 157 215 251 296 370
#     4   9  24  38  65  96 117 166 216 259 299 382
#     4  11  25  37  64  93 133 157 213 270 323 356
#
# _framework density 21.482659000000002
#
# number of rings (size 3 to 8) (size 9 to 14) (size 15 to 20)
#    0.857    0.571    2.857    3.429    6.000    0.000 
#    0.000    1.429    6.286    0.000    0.000    0.000 
#    0.000    0.000    0.000    0.000    0.000    0.000 
#
# Total GULP energy -173438.398584 kJ/mol
# GULP energy per Si atom -12388.457042 kJ/mol
# Density = 2.143376 g / cm^3
# Si number density = 21.482659 Si / 1000 Ang^3
#
#
#
# Elastic Constant Matrix: (Units=GPa)
#
#
# Indices 1 2 3 4 5 6 
#
# 1 120.1953 2.2572 22.0925 0.0000 14.4220 0.0000
# 2 2.2572 33.8338 -2.0419 0.0000 9.9103 0.0000
# 3 22.0925 -2.0419 109.1848 0.0000 18.3537 0.0000
# 4 0.0000 0.0000 0.0000 18.4486 0.0000 0.0715
# 5 14.4220 9.9103 18.3537 0.0000 23.4473 0.0000
# 6 0.0000 0.0000 0.0000 0.0715 0.0000 20.7484
#
#
#
# Elastic Compliance Matrix: (Units=1/GPa)
#
#
# Indices 1 2 3 4 5 6 
#
# 1 0.009105 0.000866 -0.000948 0.000000 -0.005224 0.000000
# 2 0.000866 0.035008 0.003519 0.000000 -0.018084 0.000000
# 3 -0.000948 0.003519 0.011018 0.000000 -0.009529 0.000000
# 4 0.000000 0.000000 0.000000 0.054205 0.000000 -0.000187
# 5 -0.005224 -0.018084 -0.009529 0.000000 0.060964 0.000000
# 6 0.000000 0.000000 0.000000 -0.000187 0.000000 0.048197
#
#
# Mechanical properties :
#
#
# Convention : Reuss Voigt Hill
#
# Bulk Modulus (GPa) = 16.12785 34.20329 25.16557
# Shear Modulus (GPa) = 21.52467 28.58928 25.05697
#
# Velocity S-wave (km/s) = 3.16880 3.65198 3.41894
# Velocity P-wave (km/s) = 4.57297 5.80849 5.22736
#
# Compressibility (1/GPa) = 0.06200453
#
# Stress axis : x y z
#
# Youngs Moduli (GPa) = 109.83497 28.56508 90.75875
#
# Poissons Ratio (x) = -0.02472 0.08603
# Poissons Ratio (y) = -0.09506 -0.31942
# Poissons Ratio (z) = 0.10411 -0.10053
#
# Static dielectric constant tensor:
#      x y z
#    x 4.290850 0.000000 0.101660 
#    y 0.000000 3.297380 0.000000 
#    z 0.101660 0.000000 3.860890 
# 
# 
# High freq. dielectric constant tensor:
#      x y z
#    x 1.861210 0.000000 0.006790 
#    y 0.000000 1.780440 0.000000 
#    z 0.006790 0.000000 1.855830 
# 
# From -- ./inp_files/1707.got.cif
#   From: 2010.03.12/outbox.cif.g09.slc.cpg/sg4_1_cif.got.tgz:1707.got - 2010.03.31 09:31:35.
