data_PCOD8045775
_publ_section_title
;
Structure prediction by ZEFSAII (Michael W. Deem and Ramdas Pophale) SiO2 
 PCOD8045775
Probable space group: P 21
;
_chemical_formula_sum "Si O2"
_cell_formula_units_Z 16
_cell_length_a 10.042108
_cell_length_b 5.080216
_cell_length_c 25.242850
_cell_angle_alpha 90.000000
_cell_angle_beta 144.953918
_cell_angle_gamma 90.000000
_cell_volume 739.494882
_symmetry_space_group_name_H-M "P 21"
_symmetry_group_IT_number 4
_symmetry_cell_setting 'monoclinic'
loop_
_space_group_symop_operation_xyz
x,y,z
-x,1/2+y,-z
loop_
_atom_site_type_symbol
_atom_site_label
_atom_site_fract_x
_atom_site_fract_y
_atom_site_fract_z
Si Si1 0.800322 0.938500 0.082956
Si Si2 0.038091 0.430059 0.542764
Si Si3 0.216990 0.627592 0.393549
Si Si4 0.282172 0.936550 0.893392
Si Si5 0.052201 0.975940 0.053376
Si Si6 0.701086 0.630023 0.515642
Si Si7 0.724451 0.448945 0.225825
Si Si8 0.588076 0.948628 0.245541
O O1 0.879516 0.684342 0.142435
O O2 0.888650 0.933131 0.051049
O O3 0.884396 0.197609 0.141708
O O4 0.523751 0.947364 0.003014
O O5 0.278341 0.421192 0.654640
O O6 0.055914 0.634758 0.499488
O O7 0.824526 0.575579 0.501314
O O8 0.424395 0.587470 0.419210
O O9 0.255275 0.432788 0.455624
O O10 0.978569 0.541537 0.289974
O O11 0.198770 0.927206 0.407858
O O12 0.384283 0.911348 0.867017
O O13 0.315012 0.013302 0.161136
O O14 0.026689 0.733423 0.004606
O O15 0.599197 0.672229 0.218904
O O16 0.720709 0.177743 0.256951
#
# Coordination Sequence:
#
# PCOD8045775 Si02
#       8
#     2   2   2   2   2   2   2   2
#     4  10  21  40  56  87 126 152 200 249 314 382
#     4  12  24  42  63  90 130 179 211 258 322 385
#     4  10  19  36  63  85 121 148 199 272 305 355
#     4  10  21  36  63  86 117 160 190 254 324 376
#     4  12  25  44  69  97 129 174 216 267 320 374
#     4  10  20  38  59  89 116 156 205 255 317 360
#     4  12  21  40  65  94 121 161 218 266 320 374
#     4  12  25  42  66  94 128 166 225 269 306 394
#
# _framework density 21.636391
#
# number of rings (size 3 to 8) (size 9 to 14) (size 15 to 20)
#    0.000    1.000    2.500    5.250    0.000    2.000 
#    4.500    0.000    0.000    0.000    0.000    0.000 
#    0.000    0.000    0.000    0.000    0.000    0.000 
#
# Total GULP energy -198242.431865 kJ/mol
# GULP energy per Si atom -12390.151992 kJ/mol
# Density = 2.158715 g / cm^3
# Si number density = 21.636391 Si / 1000 Ang^3
#
#
#
# Elastic Constant Matrix: (Units=GPa)
#
#
# Indices 1 2 3 4 5 6 
#
# 1 80.0010 14.5942 16.9889 0.0000 -1.8357 0.0000
# 2 14.5942 128.7830 24.6752 0.0000 -17.9755 0.0000
# 3 16.9889 24.6752 85.6353 0.0000 0.9517 0.0000
# 4 0.0000 0.0000 0.0000 27.3910 0.0000 -5.1319
# 5 -1.8357 -17.9755 0.9517 0.0000 37.8779 0.0000
# 6 0.0000 0.0000 0.0000 -5.1319 0.0000 34.5020
#
#
#
# Elastic Compliance Matrix: (Units=1/GPa)
#
#
# Indices 1 2 3 4 5 6 
#
# 1 0.013184 -0.001019 -0.002324 0.000000 0.000214 0.000000
# 2 -0.001019 0.008938 -0.002421 0.000000 0.004253 0.000000
# 3 -0.002324 -0.002421 0.012854 0.000000 -0.001584 0.000000
# 4 0.000000 0.000000 0.000000 0.037555 0.000000 0.005586
# 5 0.000214 0.004253 -0.001584 0.000000 0.028469 0.000000
# 6 0.000000 0.000000 0.000000 0.005586 0.000000 0.029815
#
#
# Mechanical properties :
#
#
# Convention : Reuss Voigt Hill
#
# Bulk Modulus (GPa) = 42.64725 45.21510 43.93117
# Shear Modulus (GPa) = 33.29826 35.83158 34.56492
#
# Velocity S-wave (km/s) = 3.92726 4.07391 4.00126
# Velocity P-wave (km/s) = 6.34966 6.56293 6.45717
#
# Compressibility (1/GPa) = 0.02344817
#
# Stress axis : x y z
#
# Youngs Moduli (GPa) = 75.84822 111.88335 77.79912
#
# Poissons Ratio (x) = 0.11400 0.18083
# Poissons Ratio (y) = 0.07728 0.18831
# Poissons Ratio (z) = 0.17630 0.27082
#
# Static dielectric constant tensor:
#      x y z
#    x 3.824970 0.000000 0.177060 
#    y 0.000000 4.570370 0.000000 
#    z 0.177060 0.000000 3.738550 
# 
# 
# High freq. dielectric constant tensor:
#      x y z
#    x 1.843890 0.000000 0.007040 
#    y 0.000000 1.878520 0.000000 
#    z 0.007040 0.000000 1.826520 
# 
# From -- ./inp_files/9504.got.cif
#   From: 2010.03.12/outbox.cif.g09.slc.cpg/sg4_5_cif.got.tgz:9504.got - 2010.03.31 09:31:35.
