data_PCOD8045168
_publ_section_title
;
Structure prediction by ZEFSAII (Michael W. Deem and Ramdas Pophale) SiO2 
 PCOD8045168
Probable space group: P 2
;
_chemical_formula_sum "Si O2"
_cell_formula_units_Z 15
_cell_length_a 12.824659
_cell_length_b 6.749131
_cell_length_c 10.688122
_cell_angle_alpha 90.000000
_cell_angle_beta 53.432615
_cell_angle_gamma 90.000000
_cell_volume 743.011259
_symmetry_space_group_name_H-M "P 2"
_symmetry_group_IT_number 3
_symmetry_cell_setting 'monoclinic'
loop_
_space_group_symop_operation_xyz
x,y,z
-x,y,-z
loop_
_atom_site_type_symbol
_atom_site_label
_atom_site_fract_x
_atom_site_fract_y
_atom_site_fract_z
Si Si1 0.685867 0.640380 0.778635
Si Si2 0.548727 0.969833 0.333407
Si Si3 0.599600 0.636864 0.113248
Si Si4 0.134781 0.349501 0.468401
Si Si5 0.730442 0.957879 0.552772
Si Si6 0.276425 0.347973 0.795497
Si Si7 0.168791 0.615204 0.676924
Si Si8 0.000000 0.469621 0.000000
O O1 0.550292 0.599988 0.807021
O O2 0.767114 0.437671 0.705539
O O3 0.751132 0.827756 0.663442
O O4 0.674279 0.692451 0.932726
O O5 0.500000 0.880287 0.500000
O O6 0.624960 0.808656 0.196603
O O7 0.418613 0.031801 0.351217
O O8 0.649970 0.145708 0.289157
O O9 0.653453 0.436069 0.133296
O O10 0.121082 0.512154 0.585162
O O11 0.000000 0.303863 0.500000
O O12 0.180839 0.148477 0.499672
O O13 0.775484 0.832304 0.397491
O O14 0.282794 0.489645 0.667019
O O15 0.123125 0.325567 0.942082
O O16 0.041037 0.618897 0.857566
#
# Coordination Sequence:
#
# PCOD8045168 Si02
#       8
#     2   2   2   2   2   2   2   1
#     4   9  22  40  60  87 127 157 205 264 314 378
#     4  11  22  36  63  94 122 156 214 263 314 379
#     4  10  21  40  63  89 118 166 205 256 321 365
#     4  11  23  38  62  89 119 165 208 256 321 378
#     4  10  21  40  61  92 122 162 210 267 311 376
#     4  10  21  39  63  89 122 166 206 260 317 376
#     4   9  21  42  60  87 129 161 211 260 315 375
#     4   8  22  42  62  90 128 172 206 252 320 390
#
# _framework density 20.188117999999999
#
# number of rings (size 3 to 8) (size 9 to 14) (size 15 to 20)
#    0.800    1.333    0.000    2.400    1.867    5.867 
#    0.000    4.000    0.000    0.000    0.000    0.000 
#    0.000    0.000    0.000    0.000    0.000    0.000 
#
# Total GULP energy -185908.545437 kJ/mol
# GULP energy per Si atom -12393.903029 kJ/mol
# Density = 2.014217 g / cm^3
# Si number density = 20.188118 Si / 1000 Ang^3
#
#
#
# Elastic Constant Matrix: (Units=GPa)
#
#
# Indices 1 2 3 4 5 6 
#
# 1 74.0209 34.9086 28.2819 0.0000 -3.2365 0.0000
# 2 34.9086 92.4501 50.1277 0.0000 -10.3092 0.0000
# 3 28.2819 50.1277 132.5558 0.0000 2.7980 0.0000
# 4 0.0000 0.0000 0.0000 24.2072 0.0000 3.8209
# 5 -3.2365 -10.3092 2.7980 0.0000 33.5965 0.0000
# 6 0.0000 0.0000 0.0000 3.8209 0.0000 29.5738
#
#
#
# Elastic Compliance Matrix: (Units=1/GPa)
#
#
# Indices 1 2 3 4 5 6 
#
# 1 0.016664 -0.005483 -0.001483 0.000000 0.000046 0.000000
# 2 -0.005483 0.016164 -0.005045 0.000000 0.004852 0.000000
# 3 -0.001483 -0.005045 0.009821 0.000000 -0.002509 0.000000
# 4 0.000000 0.000000 0.000000 0.042170 0.000000 -0.005448
# 5 0.000046 0.004852 -0.002509 0.000000 0.031467 0.000000
# 6 0.000000 0.000000 0.000000 -0.005448 0.000000 0.034518
#
#
# Mechanical properties :
#
#
# Convention : Reuss Voigt Hill
#
# Bulk Modulus (GPa) = 53.68586 58.40703 56.04645
# Shear Modulus (GPa) = 27.61903 29.85607 28.73755
#
# Velocity S-wave (km/s) = 3.70277 3.84981 3.77701
# Velocity P-wave (km/s) = 6.70308 6.98252 6.84422
#
# Compressibility (1/GPa) = 0.01862688
#
# Stress axis : x y z
#
# Youngs Moduli (GPa) = 60.00901 61.86778 101.82081
#
# Poissons Ratio (x) = 0.33922 0.15099
# Poissons Ratio (y) = 0.32903 0.51368
# Poissons Ratio (z) = 0.08899 0.31212
#
# Static dielectric constant tensor:
#      x y z
#    x 3.648290 0.000000 0.056950 
#    y 0.000000 3.449050 0.000000 
#    z 0.056950 0.000000 3.771330 
# 
# 
# High freq. dielectric constant tensor:
#      x y z
#    x 1.792090 0.000000 0.006890 
#    y 0.000000 1.766800 0.000000 
#    z 0.006890 0.000000 1.789550 
# 
# From -- ./inp_files/12059.got.cif
#   From: 2010.03.12/outbox.cif.g09.slc.cpg/sg3_7_cif.got.tgz:12059.got - 2010.03.31 09:20:49.
