data_PCOD8045613
_publ_section_title
;
Structure prediction by ZEFSAII (Michael W. Deem and Ramdas Pophale) SiO2 
 PCOD8045613
Probable space group: P 21
;
_chemical_formula_sum "Si O2"
_cell_formula_units_Z 16
_cell_length_a 15.908747
_cell_length_b 5.064687
_cell_length_c 18.682481
_cell_angle_alpha 90.000000
_cell_angle_beta 35.486077
_cell_angle_gamma 90.000000
_cell_volume 873.834486
_symmetry_space_group_name_H-M "P 21"
_symmetry_group_IT_number 4
_symmetry_cell_setting 'monoclinic'
loop_
_space_group_symop_operation_xyz
x,y,z
-x,1/2+y,-z
loop_
_atom_site_type_symbol
_atom_site_label
_atom_site_fract_x
_atom_site_fract_y
_atom_site_fract_z
Si Si1 0.918068 0.754210 0.403606
Si Si2 0.466936 0.305802 0.430215
Si Si3 0.953496 0.254477 0.287166
Si Si4 0.551995 0.271068 0.805056
Si Si5 0.761708 0.271534 0.788886
Si Si6 0.273888 0.271584 0.092220
Si Si7 0.319714 0.805767 0.599509
Si Si8 0.392465 0.270645 0.322941
O O1 0.906951 0.457740 0.381546
O O2 0.780340 0.806100 0.549135
O O3 0.066221 0.792197 0.345728
O O4 0.919707 0.959252 0.336889
O O5 0.371535 0.539757 0.526713
O O6 0.627839 0.317994 0.354237
O O7 0.478993 0.322934 0.336550
O O8 0.386785 0.038355 0.506281
O O9 0.855809 0.311362 0.284148
O O10 0.123245 0.290739 0.152247
O O11 0.683862 0.314138 0.767904
O O12 0.569135 0.477425 0.729040
O O13 0.552613 0.976822 0.773744
O O14 0.400267 0.319933 0.948747
O O15 0.709102 0.489157 0.882135
O O16 0.719186 0.988770 0.850329
#
# Coordination Sequence:
#
# PCOD8045613 Si02
#       8
#     2   2   2   2   2   2   2   2
#     4  10  20  33  53  79 104 138 166 214 271 299
#     4  10  20  31  52  80 108 133 164 212 251 319
#     4  10  17  33  57  78 103 129 174 225 256 293
#     4  12  24  35  54  75 105 150 172 208 264 311
#     4  10  21  38  57  75 100 132 186 234 248 288
#     4  10  21  37  57  77  99 134 186 227 249 289
#     4  10  17  32  55  80 102 131 173 208 261 295
#     4  12  22  35  51  76 117 137 165 208 264 336
#
# _framework density 18.310102000000001
#
# number of rings (size 3 to 8) (size 9 to 14) (size 15 to 20)
#    0.000    1.500    2.500    3.750    0.000    1.000 
#    0.000    0.000    0.000    1.500    0.000    0.000 
#    0.000    0.000    0.000    0.000    0.000    0.000 
#
# Total GULP energy -198412.434783 kJ/mol
# GULP energy per Si atom -12400.777174 kJ/mol
# Density = 1.826843 g / cm^3
# Si number density = 18.310102 Si / 1000 Ang^3
#
#
#
# Elastic Constant Matrix: (Units=GPa)
#
#
# Indices 1 2 3 4 5 6 
#
# 1 155.7172 11.8837 37.0136 0.0000 -4.2946 0.0000
# 2 11.8837 90.1604 10.3250 0.0000 -3.9808 0.0000
# 3 37.0136 10.3250 46.8888 0.0000 12.2970 0.0000
# 4 0.0000 0.0000 0.0000 25.4592 0.0000 3.0820
# 5 -4.2946 -3.9808 12.2970 0.0000 6.9504 0.0000
# 6 0.0000 0.0000 0.0000 3.0820 0.0000 24.1184
#
#
#
# Elastic Compliance Matrix: (Units=1/GPa)
#
#
# Indices 1 2 3 4 5 6 
#
# 1 0.014742 0.004159 -0.029042 0.000000 0.062874 0.000000
# 2 0.004159 0.014352 -0.017301 0.000000 0.041399 0.000000
# 3 -0.029042 -0.017301 0.103298 0.000000 -0.210615 0.000000
# 4 0.000000 0.000000 0.000000 0.039896 0.000000 -0.005098
# 5 0.062874 0.041399 -0.210615 0.000000 0.579070 0.000000
# 6 0.000000 0.000000 0.000000 -0.005098 0.000000 0.042114
#
#
# Mechanical properties :
#
#
# Convention : Reuss Voigt Hill
#
# Bulk Modulus (GPa) = 20.82280 45.69011 33.25645
# Shear Modulus (GPa) = 5.59379 26.87519 16.23449
#
# Velocity S-wave (km/s) = 1.74976 3.83532 2.98088
# Velocity P-wave (km/s) = 3.93436 6.67986 5.48178
#
# Compressibility (1/GPa) = 0.04802429
#
# Stress axis : x y z
#
# Youngs Moduli (GPa) = 67.83412 69.67529 9.68070
#
# Poissons Ratio (x) = -0.28977 0.28115
# Poissons Ratio (y) = -0.28211 0.16748
# Poissons Ratio (z) = 1.97005 1.20543
#
# Static dielectric constant tensor:
#      x y z
#    x 3.711160 0.000000 -0.278460 
#    y 0.000000 3.559870 0.000000 
#    z -0.278460 0.000000 3.044040 
# 
# 
# High freq. dielectric constant tensor:
#      x y z
#    x 1.719060 0.000000 -0.018800 
#    y 0.000000 1.737070 0.000000 
#    z -0.018800 0.000000 1.668490 
# 
# From -- ./inp_files/14132.got.cif
#   From: 2010.03.12/outbox.cif.g09.slc.cpg/sg4_8_cif.got.tgz:14132.got - 2010.03.31 09:31:35.
