data_PCOD8045870
_publ_section_title
;
Structure prediction by ZEFSAII (Michael W. Deem and Ramdas Pophale) SiO2 
 PCOD8045870
Probable space group: P 21
;
_chemical_formula_sum "Si O2"
_cell_formula_units_Z 12
_cell_length_a 12.697679
_cell_length_b 5.010838
_cell_length_c 7.501634
_cell_angle_alpha 90.000000
_cell_angle_beta 89.999821
_cell_angle_gamma 90.000000
_cell_volume 477.299058
_symmetry_space_group_name_H-M "P 21"
_symmetry_group_IT_number 4
_symmetry_cell_setting 'monoclinic'
loop_
_space_group_symop_operation_xyz
x,y,z
-x,1/2+y,-z
loop_
_atom_site_type_symbol
_atom_site_label
_atom_site_fract_x
_atom_site_fract_y
_atom_site_fract_z
Si Si1 0.293693 0.402190 0.198625
Si Si2 0.062874 0.517510 0.787915
Si Si3 0.429570 0.761840 0.999995
Si Si4 0.428250 0.165317 0.499996
Si Si5 0.062873 0.517510 0.212084
Si Si6 0.293694 0.402183 0.801366
O O1 0.356636 0.202019 0.324837
O O2 0.180817 0.472214 0.285591
O O3 0.360959 0.679023 0.174993
O O4 0.279233 0.267771 0.999996
O O5 0.180817 0.472221 0.714407
O O6 0.983414 0.293307 0.714811
O O7 0.067401 0.518713 1.000000
O O8 0.016587 0.793307 0.714811
O O9 0.360970 0.679003 0.824989
O O10 0.534358 0.568514 0.000011
O O11 0.474262 0.869672 0.499990
O O12 0.356627 0.201999 0.675147
#
# Coordination Sequence:
#
# PCOD8045870 Si02
#       6
#     2   2   2   2   2   2
#     4   9  22  41  62  91 120 162 199 247 301 359
#     4   9  18  34  57  86 116 151 195 243 293 352
#     4  10  20  34  54  80 110 150 192 230 282 340
#     4  12  26  42  62  90 124 158 204 252 296 358
#     4   9  18  34  57  86 116 151 195 243 293 352
#     4   9  22  41  62  91 120 162 199 247 301 359
#
# _framework density 25.141472
#
# number of rings (size 3 to 8) (size 9 to 14) (size 15 to 20)
#    1.000    1.333    0.000    2.000    0.000    5.333 
#    0.000    1.667    0.000    0.000    0.000    0.000 
#    0.000    0.000    0.000    0.000    0.000    0.000 
#
# Total GULP energy -148708.218117 kJ/mol
# GULP energy per Si atom -12392.351510 kJ/mol
# Density = 2.508425 g / cm^3
# Si number density = 25.141472 Si / 1000 Ang^3
#
#
#
# Elastic Constant Matrix: (Units=GPa)
#
#
# Indices 1 2 3 4 5 6 
#
# 1 149.4698 -3.8888 6.5437 0.0000 -9.9603 0.0000
# 2 -3.8888 55.5566 -4.3012 0.0000 -0.0410 0.0000
# 3 6.5437 -4.3012 75.1372 0.0000 2.6064 0.0000
# 4 0.0000 0.0000 0.0000 9.9211 0.0000 -0.4802
# 5 -9.9603 -0.0410 2.6064 0.0000 22.3615 0.0000
# 6 0.0000 0.0000 0.0000 -0.4802 0.0000 14.7747
#
#
#
# Elastic Compliance Matrix: (Units=1/GPa)
#
#
# Indices 1 2 3 4 5 6 
#
# 1 0.006943 0.000435 -0.000690 0.000000 0.003174 0.000000
# 2 0.000435 0.018107 0.000995 0.000000 0.000111 0.000000
# 3 -0.000690 0.000995 0.013491 0.000000 -0.001878 0.000000
# 4 0.000000 0.000000 0.000000 0.100954 0.000000 0.003281
# 5 0.003174 0.000111 -0.001878 0.000000 0.046352 0.000000
# 6 0.000000 0.000000 0.000000 0.003281 0.000000 0.067790
#
#
# Mechanical properties :
#
#
# Convention : Reuss Voigt Hill
#
# Bulk Modulus (GPa) = 24.98662 30.76344 27.87503
# Shear Modulus (GPa) = 18.83246 28.19879 23.51563
#
# Velocity S-wave (km/s) = 2.73986 3.35267 3.06164
# Velocity P-wave (km/s) = 4.46868 5.22014 4.85896
#
# Compressibility (1/GPa) = 0.04002143
#
# Stress axis : x y z
#
# Youngs Moduli (GPa) = 144.02298 55.22665 74.12261
#
# Poissons Ratio (x) = -0.02402 0.05114
# Poissons Ratio (y) = -0.06264 -0.07374
# Poissons Ratio (z) = 0.09936 -0.05494
#
# Static dielectric constant tensor:
#      x y z
#    x 4.830570 0.000000 -0.054880 
#    y 0.000000 4.113890 0.000000 
#    z -0.054880 0.000000 4.275730 
# 
# 
# High freq. dielectric constant tensor:
#      x y z
#    x 2.018690 0.000000 -0.004540 
#    y 0.000000 1.979630 0.000000 
#    z -0.004540 0.000000 1.972800 
# 
# From -- ./inp_files/7324.got.cif
#   From: 2010.03.12/outbox.cif.g09.slc.cpg/sg4_4_cif.got.tgz:7324.got - 2010.03.31 09:31:35.
