data_PCOD8045702
_publ_section_title
;
Structure prediction by ZEFSAII (Michael W. Deem and Ramdas Pophale) SiO2 
 PCOD8045702
Probable space group: P 21
;
_chemical_formula_sum "Si O2"
_cell_formula_units_Z 14
_cell_length_a 14.950552
_cell_length_b 5.155639
_cell_length_c 12.193100
_cell_angle_alpha 90.000000
_cell_angle_beta 121.033246
_cell_angle_gamma 90.000000
_cell_volume 805.318994
_symmetry_space_group_name_H-M "P 21"
_symmetry_group_IT_number 4
_symmetry_cell_setting 'monoclinic'
loop_
_space_group_symop_operation_xyz
x,y,z
-x,1/2+y,-z
loop_
_atom_site_type_symbol
_atom_site_label
_atom_site_fract_x
_atom_site_fract_y
_atom_site_fract_z
Si Si1 0.658016 0.928220 0.916609
Si Si2 0.927610 0.610802 0.577606
Si Si3 0.556615 0.418827 0.905374
Si Si4 0.928397 0.503014 0.832161
Si Si5 0.656648 0.108253 0.143560
Si Si6 0.138106 0.615619 0.587932
Si Si7 0.862669 0.997531 0.911634
O O1 0.610824 0.643617 0.866318
O O2 0.696061 0.927075 0.067962
O O3 0.568349 0.149215 0.845250
O O4 0.749907 0.013753 0.894514
O O5 0.914717 0.576304 0.698040
O O6 0.869618 0.371984 0.487439
O O7 0.049957 0.608146 0.625844
O O8 0.871773 0.871023 0.499474
O O9 0.613592 0.378137 0.061271
O O10 0.435810 0.474709 0.846838
O O11 0.880116 0.222547 0.832055
O O12 0.865699 0.716726 0.859645
O O13 0.050630 0.519079 0.938706
O O14 0.750375 0.142771 0.285859
#
# Coordination Sequence:
#
# PCOD8045702 Si02
#       7
#     2   2   2   2   2   2   2
#     4  10  19  32  49  79 108 134 164 214 267 325
#     4  10  21  38  48  82 103 146 176 218 241 328
#     4  10  20  31  52  77 116 129 172 212 276 309
#     4  10  20  35  52  74 108 132 181 224 249 320
#     4  10  20  34  52  81 111 139 165 223 260 328
#     4  10  22  33  57  73 111 141 182 200 270 308
#     4  10  20  33  54  78  99 143 172 213 283 302
#
# _framework density 17.384418
#
# number of rings (size 3 to 8) (size 9 to 14) (size 15 to 20)
#    0.857    1.143    1.429    2.571    2.000    0.000 
#    2.571    0.000    0.000    0.000    0.000   20.000 
#    0.000    0.000    0.000    0.000    0.000    0.000 
#
# Total GULP energy -173492.981809 kJ/mol
# GULP energy per Si atom -12392.355843 kJ/mol
# Density = 1.734485 g / cm^3
# Si number density = 17.384418 Si / 1000 Ang^3
#
#
#
# Elastic Constant Matrix: (Units=GPa)
#
#
# Indices 1 2 3 4 5 6 
#
# 1 89.8468 18.0035 31.1158 0.0000 9.6213 0.0000
# 2 18.0035 111.8549 15.6296 0.0000 9.9638 0.0000
# 3 31.1158 15.6296 69.6456 0.0000 14.2630 0.0000
# 4 0.0000 0.0000 0.0000 4.6268 0.0000 -1.8128
# 5 9.6213 9.9638 14.2630 0.0000 25.2817 0.0000
# 6 0.0000 0.0000 0.0000 -1.8128 0.0000 18.8779
#
#
#
# Elastic Compliance Matrix: (Units=1/GPa)
#
#
# Indices 1 2 3 4 5 6 
#
# 1 0.013418 -0.001267 -0.005390 0.000000 -0.001566 0.000000
# 2 -0.001267 0.009527 -0.001019 0.000000 -0.002697 0.000000
# 3 -0.005390 -0.001019 0.018647 0.000000 -0.008067 0.000000
# 4 0.000000 0.000000 0.000000 0.224583 0.000000 0.021566
# 5 -0.001566 -0.002697 -0.008067 0.000000 0.045765 0.000000
# 6 0.000000 0.000000 0.000000 0.021566 0.000000 0.055043
#
#
# Mechanical properties :
#
#
# Convention : Reuss Voigt Hill
#
# Bulk Modulus (GPa) = 38.11017 44.53835 41.32426
# Shear Modulus (GPa) = 12.78503 23.53051 18.15777
#
# Velocity S-wave (km/s) = 2.71482 3.68304 3.23536
# Velocity P-wave (km/s) = 5.63885 6.61526 6.14648
#
# Compressibility (1/GPa) = 0.02623971
#
# Stress axis : x y z
#
# Youngs Moduli (GPa) = 74.52515 104.96690 53.62698
#
# Poissons Ratio (x) = 0.13300 0.28904
# Poissons Ratio (y) = 0.09443 0.05467
# Poissons Ratio (z) = 0.40168 0.10701
#
# Static dielectric constant tensor:
#      x y z
#    x 3.092860 0.000000 -0.033040 
#    y 0.000000 3.456320 0.000000 
#    z -0.033040 0.000000 2.835470 
# 
# 
# High freq. dielectric constant tensor:
#      x y z
#    x 1.670710 0.000000 -0.003060 
#    y 0.000000 1.691650 0.000000 
#    z -0.003060 0.000000 1.631520 
# 
# From -- ./inp_files/12397.got.cif
#   From: 2010.03.12/outbox.cif.g09.slc.cpg/sg4_7_cif.got.tgz:12397.got - 2010.03.31 09:31:35.
