data_PCOD8045764
_publ_section_title
;
Structure prediction by ZEFSAII (Michael W. Deem and Ramdas Pophale) SiO2 
 PCOD8045764
Probable space group: P 21
;
_chemical_formula_sum "Si O2"
_cell_formula_units_Z 16
_cell_length_a 17.111938
_cell_length_b 5.094761
_cell_length_c 9.862629
_cell_angle_alpha 90.000000
_cell_angle_beta 68.798606
_cell_angle_gamma 90.000000
_cell_volume 801.638161
_symmetry_space_group_name_H-M "P 21"
_symmetry_group_IT_number 4
_symmetry_cell_setting 'monoclinic'
loop_
_space_group_symop_operation_xyz
x,y,z
-x,1/2+y,-z
loop_
_atom_site_type_symbol
_atom_site_label
_atom_site_fract_x
_atom_site_fract_y
_atom_site_fract_z
Si Si1 0.707842 0.889450 0.528358
Si Si2 0.526034 0.847364 0.154607
Si Si3 0.809560 0.382586 0.399822
Si Si4 0.888755 0.342044 0.071750
Si Si5 0.987440 0.437069 0.421301
Si Si6 0.069071 0.341900 0.097306
Si Si7 0.419822 0.346989 0.169612
Si Si8 0.552948 0.953200 0.433330
O O1 0.740786 0.600485 0.475216
O O2 0.670039 0.889751 0.703953
O O3 0.638110 0.970205 0.463359
O O4 0.782071 0.101340 0.476077
O O5 0.485698 0.559078 0.184669
O O6 0.576175 0.891061 0.262424
O O7 0.451482 0.057770 0.188121
O O8 0.589556 0.875400 0.987447
O O9 0.818502 0.361844 0.231762
O O10 0.896361 0.464419 0.413250
O O11 0.979236 0.341996 0.083236
O O12 0.880112 0.580576 0.971764
O O13 0.874951 0.080305 0.993430
O O14 0.012218 0.721285 0.461685
O O15 0.057006 0.359648 0.266172
O O16 0.492510 0.732994 0.532977
#
# Coordination Sequence:
#
# PCOD8045764 Si02
#       8
#     2   2   2   2   2   2   2   2
#     4  12  22  37  59  89 123 157 190 241 306 352
#     4  10  19  36  56  87 112 146 208 248 276 338
#     4  11  24  38  60  88 118 151 191 236 299 364
#     4   9  17  33  54  83 108 141 183 233 278 333
#     4  11  22  39  63  89 114 152 198 242 282 343
#     4   9  17  31  58  83 108 138 188 236 275 320
#     4  10  20  34  60  83 113 157 195 240 290 342
#     4  12  21  36  60  90 116 152 203 250 284 336
#
# _framework density 19.959129999999998
#
# number of rings (size 3 to 8) (size 9 to 14) (size 15 to 20)
#    0.000    1.500    2.500    3.750    0.000    4.000 
#    0.000    0.000   16.500    0.000    0.000    0.000 
#    0.000    0.000    0.000    0.000    0.000    0.000 
#
# Total GULP energy -198451.430513 kJ/mol
# GULP energy per Si atom -12403.214407 kJ/mol
# Density = 1.991370 g / cm^3
# Si number density = 19.959130 Si / 1000 Ang^3
#
#
#
# Elastic Constant Matrix: (Units=GPa)
#
#
# Indices 1 2 3 4 5 6 
#
# 1 25.9657 0.4957 13.8268 0.0000 -2.6462 0.0000
# 2 0.4957 94.6286 16.4888 0.0000 -8.7154 0.0000
# 3 13.8268 16.4888 145.9971 0.0000 -14.2121 0.0000
# 4 0.0000 0.0000 0.0000 38.8060 0.0000 -3.8355
# 5 -2.6462 -8.7154 -14.2121 0.0000 27.7988 0.0000
# 6 0.0000 0.0000 0.0000 -3.8355 0.0000 24.2601
#
#
#
# Elastic Compliance Matrix: (Units=1/GPa)
#
#
# Indices 1 2 3 4 5 6 
#
# 1 0.040700 0.000634 -0.003715 0.000000 0.002174 0.000000
# 2 0.000634 0.011017 -0.001013 0.000000 0.002997 0.000000
# 3 -0.003715 -0.001013 0.007630 0.000000 0.003230 0.000000
# 4 0.000000 0.000000 0.000000 0.026178 0.000000 0.004139
# 5 0.002174 0.002997 0.003230 0.000000 0.038770 0.000000
# 6 0.000000 0.000000 0.000000 0.004139 0.000000 0.041874
#
#
# Mechanical properties :
#
#
# Convention : Reuss Voigt Hill
#
# Bulk Modulus (GPa) = 19.54620 36.46822 28.00721
# Shear Modulus (GPa) = 26.12209 33.89164 30.00687
#
# Velocity S-wave (km/s) = 3.62163 4.12521 3.88160
# Velocity P-wave (km/s) = 5.22519 6.40320 5.84395
#
# Compressibility (1/GPa) = 0.05116083
#
# Stress axis : x y z
#
# Youngs Moduli (GPa) = 24.57019 90.77091 131.06154
#
# Poissons Ratio (x) = -0.05757 0.48683
# Poissons Ratio (y) = -0.01558 0.13271
# Poissons Ratio (z) = 0.09127 0.09191
#
# Static dielectric constant tensor:
#      x y z
#    x 3.138430 0.000000 0.028660 
#    y 0.000000 3.799340 0.000000 
#    z 0.028660 0.000000 4.009640 
# 
# 
# High freq. dielectric constant tensor:
#      x y z
#    x 1.725290 0.000000 0.001030 
#    y 0.000000 1.801110 0.000000 
#    z 0.001030 0.000000 1.799220 
# 
# From -- ./inp_files/9020.got.cif
#   From: 2010.03.12/outbox.cif.g09.slc.cpg/sg4_5_cif.got.tgz:9020.got - 2010.03.31 09:31:35.
