data_PCOD8045052
_publ_section_title
;
Structure prediction by ZEFSAII (Michael W. Deem and Ramdas Pophale) SiO2 
 PCOD8045052
Probable space group: P 2
;
_chemical_formula_sum "Si O2"
_cell_formula_units_Z 16
_cell_length_a 8.604512
_cell_length_b 11.766490
_cell_length_c 8.936217
_cell_angle_alpha 90.000000
_cell_angle_beta 62.032277
_cell_angle_gamma 90.000000
_cell_volume 799.082841
_symmetry_space_group_name_H-M "P 2"
_symmetry_group_IT_number 3
_symmetry_cell_setting 'monoclinic'
loop_
_space_group_symop_operation_xyz
x,y,z
-x,y,-z
loop_
_atom_site_type_symbol
_atom_site_label
_atom_site_fract_x
_atom_site_fract_y
_atom_site_fract_z
Si Si1 0.150399 0.842570 0.313083
Si Si2 0.316935 0.231864 0.001181
Si Si3 0.529527 0.815962 0.160994
Si Si4 0.278364 0.602246 0.810225
Si Si5 0.519168 0.377253 0.325391
Si Si6 0.170007 0.987204 0.021818
Si Si7 0.847796 0.380381 0.673219
Si Si8 0.071680 0.605661 0.200173
O O1 0.339236 0.853386 0.310938
O O2 0.127792 0.945064 0.207336
O O3 0.146418 0.721594 0.232698
O O4 0.000000 0.856096 0.500000
O O5 0.354489 0.298482 0.830934
O O6 0.500000 0.202323 0.000000
O O7 0.186114 0.304071 0.165294
O O8 0.214578 0.119164 0.003139
O O9 0.597471 0.710663 0.226555
O O10 0.500000 0.784035 0.000000
O O11 0.664910 0.919175 0.120409
O O12 0.395285 0.500358 0.696954
O O13 0.129348 0.628569 0.755167
O O14 0.190765 0.568510 0.006803
O O15 0.500000 0.323782 0.500000
O O16 0.330209 0.391878 0.337730
O O17 0.000000 0.962242 0.000000
O O18 0.916617 0.505155 0.685729
O O19 0.000000 0.324756 0.500000
#
# Coordination Sequence:
#
# PCOD8045052 Si02
#       8
#     2   2   2   2   2   2   2   2
#     4  11  23  39  63  93 125 160 206 256 309 371
#     4  10  23  43  66  87 119 168 210 256 317 370
#     4  10  20  37  63  87 122 163 202 248 306 373
#     4  11  21  35  62  92 127 164 206 256 309 374
#     4  11  24  41  63  94 128 162 210 259 311 374
#     4  11  23  42  65  89 118 161 210 256 309 378
#     4  11  23  40  63  91 128 166 209 256 310 377
#     4  11  21  36  60  94 128 165 208 252 309 374
#
# _framework density 20.022956000000001
#
# number of rings (size 3 to 8) (size 9 to 14) (size 15 to 20)
#    0.000    1.250    3.750    3.750    0.000    3.500 
#    0.000    4.375    0.000    0.000    0.000    0.000 
#    0.000    0.000    0.000    0.000    0.000    0.000 
#
# Total GULP energy -198457.389268 kJ/mol
# GULP energy per Si atom -12403.586829 kJ/mol
# Density = 1.997738 g / cm^3
# Si number density = 20.022956 Si / 1000 Ang^3
#
#
#
# Elastic Constant Matrix: (Units=GPa)
#
#
# Indices 1 2 3 4 5 6 
#
# 1 142.2577 52.9338 53.3713 0.0000 -11.5586 0.0000
# 2 52.9338 106.4956 42.0943 0.0000 2.1158 0.0000
# 3 53.3713 42.0943 130.4091 0.0000 -14.5310 0.0000
# 4 0.0000 0.0000 0.0000 28.0160 0.0000 -1.3357
# 5 -11.5586 2.1158 -14.5310 0.0000 31.2404 0.0000
# 6 0.0000 0.0000 0.0000 -1.3357 0.0000 34.2192
#
#
#
# Elastic Compliance Matrix: (Units=1/GPa)
#
#
# Indices 1 2 3 4 5 6 
#
# 1 0.009581 -0.003881 -0.002367 0.000000 0.002707 0.000000
# 2 -0.003881 0.012519 -0.002855 0.000000 -0.003612 0.000000
# 3 -0.002367 -0.002855 0.010001 0.000000 0.003969 0.000000
# 4 0.000000 0.000000 0.000000 0.035760 0.000000 0.001396
# 5 0.002707 -0.003612 0.003969 0.000000 0.035102 0.000000
# 6 0.000000 0.000000 0.000000 0.001396 0.000000 0.029278
#
#
# Mechanical properties :
#
#
# Convention : Reuss Voigt Hill
#
# Bulk Modulus (GPa) = 71.96534 75.10681 73.53608
# Shear Modulus (GPa) = 32.24140 34.07932 33.16036
#
# Velocity S-wave (km/s) = 4.01711 4.13002 4.07396
# Velocity P-wave (km/s) = 7.58523 7.76753 7.67692
#
# Compressibility (1/GPa) = 0.01389558
#
# Stress axis : x y z
#
# Youngs Moduli (GPa) = 104.36808 79.87657 99.99113
#
# Poissons Ratio (x) = 0.30997 0.23669
# Poissons Ratio (y) = 0.40501 0.28551
# Poissons Ratio (z) = 0.24705 0.22807
#
# Static dielectric constant tensor:
#      x y z
#    x 3.818330 0.000000 -0.105400 
#    y 0.000000 3.481790 0.000000 
#    z -0.105400 0.000000 3.686340 
# 
# 
# High freq. dielectric constant tensor:
#      x y z
#    x 1.797700 0.000000 -0.011290 
#    y 0.000000 1.771920 0.000000 
#    z -0.011290 0.000000 1.778000 
# 
# From -- ./inp_files/5990.got.cif
#   From: 2010.03.12/outbox.cif.g09.slc.cpg/sg3_3_cif.got.tgz:5990.got - 2010.03.31 09:20:49.
