data_PCOD8045575
_publ_section_title
;
Structure prediction by ZEFSAII (Michael W. Deem and Ramdas Pophale) SiO2 
 PCOD8045575
Probable space group: P 2
;
_chemical_formula_sum "Si O2"
_cell_formula_units_Z 7
_cell_length_a 4.638126
_cell_length_b 8.252203
_cell_length_c 6.301078
_cell_angle_alpha 90.000000
_cell_angle_beta 97.342648
_cell_angle_gamma 90.000000
_cell_volume 239.194519
_symmetry_space_group_name_H-M "P 2"
_symmetry_group_IT_number 3
_symmetry_cell_setting 'monoclinic'
loop_
_space_group_symop_operation_xyz
x,y,z
-x,y,-z
loop_
_atom_site_type_symbol
_atom_site_label
_atom_site_fract_x
_atom_site_fract_y
_atom_site_fract_z
Si Si1 0.716060 0.783470 0.846818
Si Si2 0.776265 0.459769 0.644245
Si Si3 0.500000 0.016100 0.500000
Si Si4 0.204875 0.190298 0.855537
O O1 0.624100 0.603164 0.762905
O O2 0.728219 0.905937 0.650905
O O3 0.500000 0.861310 0.000000
O O4 0.000000 0.750482 0.000000
O O5 0.500000 0.370643 0.500000
O O6 0.034370 0.331614 0.205300
O O7 0.000000 0.542087 0.500000
O O8 0.288787 0.112869 0.639621
O O9 0.500000 0.253087 0.000000
O O10 0.000000 0.078561 0.000000
#
# Coordination Sequence:
#
# PCOD8045575 Si02
#       4
#     2   2   1   2
#     4  12  29  57  92 128 175 235 300 364 448 531
#     4  12  27  55  90 131 173 233 298 375 442 524
#     4  12  32  62  88 132 190 232 294 372 450 552
#     4  12  31  58  90 132 184 237 299 369 455 533
#
# _framework density 29.264889
#
# number of rings (size 3 to 8) (size 9 to 14) (size 15 to 20)
#    0.000    0.000    1.429    5.143    6.000    9.143 
#    5.143    0.000    0.000    0.000    0.000    0.000 
#    0.000    0.000    0.000    0.000    0.000    0.000 
#
# Total GULP energy -86740.749526 kJ/mol
# GULP energy per Si atom -12391.535647 kJ/mol
# Density = 2.919828 g / cm^3
# Si number density = 29.264889 Si / 1000 Ang^3
#
#
#
# Elastic Constant Matrix: (Units=GPa)
#
#
# Indices 1 2 3 4 5 6 
#
# 1 202.6281 32.1394 95.2610 0.0000 -1.7831 0.0000
# 2 32.1394 94.9719 72.1935 0.0000 -12.2195 0.0000
# 3 95.2610 72.1935 212.2372 0.0000 -1.3658 0.0000
# 4 0.0000 0.0000 0.0000 5.6864 0.0000 -3.2852
# 5 -1.7831 -12.2195 -1.3658 0.0000 91.4019 0.0000
# 6 0.0000 0.0000 0.0000 -3.2852 0.0000 49.0065
#
#
#
# Elastic Compliance Matrix: (Units=1/GPa)
#
#
# Indices 1 2 3 4 5 6 
#
# 1 0.006256 0.000038 -0.002820 0.000000 0.000085 0.000000
# 2 0.000038 0.014513 -0.004942 0.000000 0.001867 0.000000
# 3 -0.002820 -0.004942 0.007655 0.000000 -0.000601 0.000000
# 4 0.000000 0.000000 0.000000 0.182944 0.000000 0.012264
# 5 0.000085 0.001867 -0.000601 0.000000 0.011183 0.000000
# 6 0.000000 0.000000 0.000000 0.012264 0.000000 0.021228
#
#
# Mechanical properties :
#
#
# Convention : Reuss Voigt Hill
#
# Bulk Modulus (GPa) = 77.06889 101.00279 89.03584
# Shear Modulus (GPa) = 18.97164 49.90186 34.43675
#
# Velocity S-wave (km/s) = 2.54888 4.13386 3.43407
# Velocity P-wave (km/s) = 5.92068 7.57452 6.79808
#
# Compressibility (1/GPa) = 0.01297540
#
# Stress axis : x y z
#
# Youngs Moduli (GPa) = 159.85352 68.90194 130.64133
#
# Poissons Ratio (x) = -0.00259 0.36842
# Poissons Ratio (y) = -0.00602 0.64559
# Poissons Ratio (z) = 0.45080 0.34049
#
# Static dielectric constant tensor:
#      x y z
#    x 5.609540 0.000000 -0.245300 
#    y 0.000000 5.218500 0.000000 
#    z -0.245300 0.000000 6.280500 
# 
# 
# High freq. dielectric constant tensor:
#      x y z
#    x 2.209420 0.000000 0.002580 
#    y 0.000000 2.185780 0.000000 
#    z 0.002580 0.000000 2.229190 
# 
# From -- ./inp_files/107.got.cif
#   From: 2010.03.12/outbox.cif.g09.slc.cpg/sg3_1_cif.got.tgz:107.got - 2010.03.31 09:20:49.
