data_PCOD8045802
_publ_section_title
;
Structure prediction by ZEFSAII (Michael W. Deem and Ramdas Pophale) SiO2 
 PCOD8045802
Probable space group: P 21
;
_chemical_formula_sum "Si O2"
_cell_formula_units_Z 14
_cell_length_a 8.453065
_cell_length_b 8.792152
_cell_length_c 15.942786
_cell_angle_alpha 90.000000
_cell_angle_beta 33.073791
_cell_angle_gamma 90.000000
_cell_volume 646.610051
_symmetry_space_group_name_H-M "P 21"
_symmetry_group_IT_number 4
_symmetry_cell_setting 'monoclinic'
loop_
_space_group_symop_operation_xyz
x,y,z
-x,1/2+y,-z
loop_
_atom_site_type_symbol
_atom_site_label
_atom_site_fract_x
_atom_site_fract_y
_atom_site_fract_z
Si Si1 0.530240 0.412970 0.732920
Si Si2 0.761560 0.473855 0.451989
Si Si3 0.651354 0.119831 0.782277
Si Si4 0.711700 0.586529 0.802914
Si Si5 0.749494 0.178787 0.353267
Si Si6 0.027459 0.000535 0.088363
Si Si7 0.352574 0.810255 0.059255
O O1 0.592914 0.406983 0.606631
O O2 0.646332 0.256332 0.718701
O O3 0.667787 0.554318 0.723597
O O4 0.181603 0.441545 0.893155
O O5 0.762301 0.355328 0.374387
O O6 0.583425 0.621434 0.498626
O O7 0.076123 0.509566 0.352441
O O8 0.714375 0.173973 0.848565
O O9 0.344775 0.035267 0.910430
O O10 0.542123 0.456094 0.932365
O O11 0.057303 0.583670 0.665450
O O12 0.594669 0.752244 0.884805
O O13 0.897514 0.148791 0.195502
O O14 0.064832 0.859948 0.136820
#
# Coordination Sequence:
#
# PCOD8045802 Si02
#       7
#     2   2   2   2   2   2   2
#     4  10  26  41  61  96 140 167 213 271 334 391
#     4  11  26  44  67  97 133 177 216 266 332 396
#     4  11  23  42  68  95 128 174 217 272 331 382
#     4  10  21  40  67  92 128 166 212 277 318 387
#     4  10  23  43  69  92 129 170 224 268 316 392
#     4  10  22  43  65  98 125 167 223 276 318 392
#     4  10  19  37  69  90 123 157 223 264 321 376
#
# _framework density 21.65138
#
# number of rings (size 3 to 8) (size 9 to 14) (size 15 to 20)
#    0.000    1.714    2.857    0.857   12.000    0.000 
#    0.000    1.429    0.000    0.000    0.000    0.000 
#    0.000    0.000    0.000    0.000    0.000    0.000 
#
# Total GULP energy -173454.568552 kJ/mol
# GULP energy per Si atom -12389.612039 kJ/mol
# Density = 2.160210 g / cm^3
# Si number density = 21.651380 Si / 1000 Ang^3
#
#
#
# Elastic Constant Matrix: (Units=GPa)
#
#
# Indices 1 2 3 4 5 6 
#
# 1 95.9341 20.8091 24.7110 0.0000 -21.0573 0.0000
# 2 20.8091 71.4942 31.5379 0.0000 -9.9538 0.0000
# 3 24.7110 31.5379 87.0118 0.0000 -28.1423 0.0000
# 4 0.0000 0.0000 0.0000 29.0516 0.0000 -4.7519
# 5 -21.0573 -9.9538 -28.1423 0.0000 36.4138 0.0000
# 6 0.0000 0.0000 0.0000 -4.7519 0.0000 39.5495
#
#
#
# Elastic Compliance Matrix: (Units=1/GPa)
#
#
# Indices 1 2 3 4 5 6 
#
# 1 0.012456 -0.002483 -0.000703 0.000000 0.005981 0.000000
# 2 -0.002483 0.017145 -0.005943 0.000000 -0.001342 0.000000
# 3 -0.000703 -0.005943 0.017585 0.000000 0.011559 0.000000
# 4 0.000000 0.000000 0.000000 0.035111 0.000000 0.004219
# 5 0.005981 -0.001342 0.011559 0.000000 0.039488 0.000000
# 6 0.000000 0.000000 0.000000 0.004219 0.000000 0.025792
#
#
# Mechanical properties :
#
#
# Convention : Reuss Voigt Hill
#
# Bulk Modulus (GPa) = 34.56866 45.39514 39.98190
# Shear Modulus (GPa) = 28.49365 32.82846 30.66105
#
# Velocity S-wave (km/s) = 3.63163 3.89810 3.76723
# Velocity P-wave (km/s) = 5.79532 6.42434 6.11792
#
# Compressibility (1/GPa) = 0.02892794
#
# Stress axis : x y z
#
# Youngs Moduli (GPa) = 80.28061 58.32755 56.86580
#
# Poissons Ratio (x) = 0.14480 0.03999
# Poissons Ratio (y) = 0.19930 0.33797
# Poissons Ratio (z) = 0.05646 0.34666
#
# Static dielectric constant tensor:
#      x y z
#    x 4.015140 0.000000 -0.198770 
#    y 0.000000 3.853030 0.000000 
#    z -0.198770 0.000000 3.871470 
# 
# 
# High freq. dielectric constant tensor:
#      x y z
#    x 1.850320 0.000000 -0.015920 
#    y 0.000000 1.840080 0.000000 
#    z -0.015920 0.000000 1.834940 
# 
# From -- ./inp_files/5256.got.cif
#   From: 2010.03.12/outbox.cif.g09.slc.cpg/sg4_3_cif.got.tgz:5256.got - 2010.03.31 09:31:35.
