data_PCOD8045029
_publ_section_title
;
Structure prediction by ZEFSAII (Michael W. Deem and Ramdas Pophale) SiO2 
 PCOD8045029
Probable space group: P 2
;
_chemical_formula_sum "Si O2"
_cell_formula_units_Z 16
_cell_length_a 8.819852
_cell_length_b 12.229772
_cell_length_c 8.622406
_cell_angle_alpha 90.000000
_cell_angle_beta 57.254716
_cell_angle_gamma 90.000000
_cell_volume 782.253039
_symmetry_space_group_name_H-M "P 2"
_symmetry_group_IT_number 3
_symmetry_cell_setting 'monoclinic'
loop_
_space_group_symop_operation_xyz
x,y,z
-x,y,-z
loop_
_atom_site_type_symbol
_atom_site_label
_atom_site_fract_x
_atom_site_fract_y
_atom_site_fract_z
Si Si1 0.190100 0.333290 0.968338
Si Si2 0.677427 0.335971 0.792814
Si Si3 0.487900 0.944087 0.190875
Si Si4 0.203409 0.550163 0.828280
Si Si5 0.493514 0.693820 0.188145
Si Si6 0.802050 0.536490 0.537003
Si Si7 0.803472 0.106314 0.675967
Si Si8 0.194497 0.091602 0.963559
O O1 0.298075 0.437535 0.839941
O O2 0.269359 0.214056 0.879928
O O3 0.161725 0.345963 0.169905
O O4 0.000000 0.347873 0.000000
O O5 0.697682 0.427294 0.650546
O O6 0.687951 0.216886 0.708434
O O7 0.500000 0.348285 0.000000
O O8 0.483081 0.819549 0.247114
O O9 0.305890 0.007136 0.344715
O O10 0.660574 0.002948 0.175207
O O11 0.500000 0.955403 0.000000
O O12 0.331130 0.645765 0.822469
O O13 0.196755 0.543059 0.647811
O O14 0.000000 0.571049 0.000000
O O15 0.307802 0.640599 0.344046
O O16 0.500000 0.680214 0.000000
O O17 0.000000 0.541625 0.500000
O O18 0.000000 0.118908 0.500000
O O19 0.828380 0.082228 0.841584
O O20 0.000000 0.066843 0.000000
#
# Coordination Sequence:
#
# PCOD8045029 Si02
#       8
#     2   2   2   2   2   2   2   2
#     4   9  17  32  56  84 117 149 182 228 286 348
#     4  11  21  36  61  89 121 157 193 236 292 355
#     4   9  20  39  60  82 112 154 199 242 293 350
#     4  11  23  40  61  88 122 157 198 248 301 357
#     4  11  23  41  62  84 116 158 205 252 299 350
#     4  12  24  39  61  89 121 156 200 246 297 356
#     4  10  20  36  59  88 119 153 193 237 289 351
#     4   9  18  35  59  86 116 152 190 237 294 351
#
# _framework density 20.453738999999999
#
# number of rings (size 3 to 8) (size 9 to 14) (size 15 to 20)
#    0.000    1.750    0.000    6.750    0.000    4.000 
#    0.000    5.625    0.000    6.000    0.000    0.000 
#    0.000    0.000    0.000    0.000    0.000    0.000 
#
# Total GULP energy -198277.419209 kJ/mol
# GULP energy per Si atom -12392.338701 kJ/mol
# Density = 2.040719 g / cm^3
# Si number density = 20.453739 Si / 1000 Ang^3
#
#
#
# Elastic Constant Matrix: (Units=GPa)
#
#
# Indices 1 2 3 4 5 6 
#
# 1 112.8549 67.9907 38.5278 0.0000 -10.7563 0.0000
# 2 67.9907 181.5423 58.9968 0.0000 -9.1011 0.0000
# 3 38.5278 58.9968 102.3401 0.0000 -14.0522 0.0000
# 4 0.0000 0.0000 0.0000 6.5029 0.0000 -8.6091
# 5 -10.7563 -9.1011 -14.0522 0.0000 35.8137 0.0000
# 6 0.0000 0.0000 0.0000 -8.6091 0.0000 32.9526
#
#
#
# Elastic Compliance Matrix: (Units=1/GPa)
#
#
# Indices 1 2 3 4 5 6 
#
# 1 0.011996 -0.003710 -0.002127 0.000000 0.001826 0.000000
# 2 -0.003710 0.007927 -0.003223 0.000000 -0.000364 0.000000
# 3 -0.002127 -0.003223 0.012926 0.000000 0.003614 0.000000
# 4 0.000000 0.000000 0.000000 0.235088 0.000000 0.061419
# 5 0.001826 -0.000364 0.003614 0.000000 0.029796 0.000000
# 6 0.000000 0.000000 0.000000 0.061419 0.000000 0.046393
#
#
# Mechanical properties :
#
#
# Convention : Reuss Voigt Hill
#
# Bulk Modulus (GPa) = 67.89014 80.86311 74.37662
# Shear Modulus (GPa) = 13.61819 30.46864 22.04341
#
# Velocity S-wave (km/s) = 2.58312 3.86377 3.28643
# Velocity P-wave (km/s) = 6.49313 7.71527 7.13043
#
# Compressibility (1/GPa) = 0.01472968
#
# Stress axis : x y z
#
# Youngs Moduli (GPa) = 83.35987 126.15110 77.36204
#
# Poissons Ratio (x) = 0.46804 0.16453
# Poissons Ratio (y) = 0.30928 0.24934
# Poissons Ratio (z) = 0.17728 0.40659
#
# Static dielectric constant tensor:
#      x y z
#    x 3.994410 0.000000 -0.240550 
#    y 0.000000 4.304540 0.000000 
#    z -0.240550 0.000000 3.446510 
# 
# 
# High freq. dielectric constant tensor:
#      x y z
#    x 1.816230 0.000000 -0.005600 
#    y 0.000000 1.806180 0.000000 
#    z -0.005600 0.000000 1.776260 
# 
# From -- ./inp_files/5965.got.cif
#   From: 2010.03.12/outbox.cif.g09.slc.cpg/sg3_3_cif.got.tgz:5965.got - 2010.03.31 09:20:49.
