data_PCOD8045045
_publ_section_title
;
Structure prediction by ZEFSAII (Michael W. Deem and Ramdas Pophale) SiO2 
 PCOD8045045
Probable space group: P 2
;
_chemical_formula_sum "Si O2"
_cell_formula_units_Z 16
_cell_length_a 9.502959
_cell_length_b 9.267551
_cell_length_c 17.074459
_cell_angle_alpha 90.000000
_cell_angle_beta 31.163809
_cell_angle_gamma 90.000000
_cell_volume 778.161808
_symmetry_space_group_name_H-M "P 2"
_symmetry_group_IT_number 3
_symmetry_cell_setting 'monoclinic'
loop_
_space_group_symop_operation_xyz
x,y,z
-x,y,-z
loop_
_atom_site_type_symbol
_atom_site_label
_atom_site_fract_x
_atom_site_fract_y
_atom_site_fract_z
Si Si1 0.172462 0.626280 0.340046
Si Si2 0.367172 0.341347 0.664868
Si Si3 0.740512 0.133390 0.824341
Si Si4 0.757048 0.853140 0.177940
Si Si5 0.761094 0.029344 0.324538
Si Si6 0.057820 0.415090 0.672354
Si Si7 0.745182 0.953830 0.672196
Si Si8 0.308311 0.541505 0.829152
O O1 0.192309 0.797947 0.318444
O O2 0.474480 0.555437 0.203041
O O3 0.000000 0.588269 0.500000
O O4 0.022858 0.561022 0.334675
O O5 0.265831 0.177649 0.710955
O O6 0.151246 0.441971 0.718253
O O7 0.674258 0.338134 0.488549
O O8 0.381489 0.400105 0.745503
O O9 0.993746 0.038942 0.731811
O O10 0.809730 0.302843 0.783769
O O11 0.662403 0.070307 0.776930
O O12 0.500000 0.113001 0.000000
O O13 0.507192 0.947706 0.266374
O O14 0.659922 0.688294 0.235935
O O15 0.839010 0.907354 0.224571
O O16 0.000000 0.862331 0.000000
O O17 0.500000 0.986085 0.500000
O O18 0.000000 0.009440 0.500000
O O19 0.000000 0.521420 0.000000
#
# Coordination Sequence:
#
# PCOD8045045 Si02
#       8
#     2   2   2   2   2   2   2   2
#     4  10  20  37  60  86 116 151 195 239 281 343
#     4  10  20  39  59  83 117 152 191 241 283 341
#     4  11  23  39  59  87 119 151 190 241 289 338
#     4  10  22  40  59  85 120 153 189 237 290 343
#     4  11  21  39  60  86 117 153 195 236 281 344
#     4  10  21  38  59  84 117 151 192 237 287 340
#     4  10  22  38  59  88 118 149 194 239 282 341
#     4  10  22  39  59  86 118 151 191 240 289 341
#
# _framework density 20.561274999999998
#
# number of rings (size 3 to 8) (size 9 to 14) (size 15 to 20)
#    0.000    1.750    3.750    1.500    0.000    5.000 
#    2.250    0.625    0.000    0.000    0.000    0.000 
#    0.000    0.000    0.000    0.000    0.000    0.000 
#
# Total GULP energy -198374.386934 kJ/mol
# GULP energy per Si atom -12398.399183 kJ/mol
# Density = 2.051448 g / cm^3
# Si number density = 20.561275 Si / 1000 Ang^3
#
#
#
# Elastic Constant Matrix: (Units=GPa)
#
#
# Indices 1 2 3 4 5 6 
#
# 1 44.4779 16.0394 4.1931 0.0000 5.6971 0.0000
# 2 16.0394 40.0518 4.0584 0.0000 11.2411 0.0000
# 3 4.1931 4.0584 95.8794 0.0000 -1.1819 0.0000
# 4 0.0000 0.0000 0.0000 -6.4843 0.0000 6.9832
# 5 5.6971 11.2411 -1.1819 0.0000 32.0655 0.0000
# 6 0.0000 0.0000 0.0000 6.9832 0.0000 31.3941
#
#
#
# Elastic Compliance Matrix: (Units=1/GPa)
#
#
# Indices 1 2 3 4 5 6 
#
# 1 0.026364 -0.010161 -0.000737 0.000000 -0.001149 0.000000
# 2 -0.010161 0.031769 -0.001016 0.000000 -0.009369 0.000000
# 3 -0.000737 -0.001016 0.010516 0.000000 0.000875 0.000000
# 4 0.000000 0.000000 0.000000 -0.124416 0.000000 0.027674
# 5 -0.001149 -0.009369 0.000875 0.000000 0.034707 0.000000
# 6 0.000000 0.000000 0.000000 0.027674 0.000000 0.025697
#
#
# Mechanical properties :
#
#
# Convention : Reuss Voigt Hill
#
# Bulk Modulus (GPa) = 22.31056 25.44344 23.87700
# Shear Modulus (GPa) = 115.19370 21.80295 68.49833
#
# Velocity S-wave (km/s) = 7.49308 3.25989 5.77811
# Velocity P-wave (km/s) = 9.25937 5.15466 7.49355
#
# Compressibility (1/GPa) = 0.04482182
#
# Stress axis : x y z
#
# Youngs Moduli (GPa) = 37.93075 31.47702 95.09514
#
# Poissons Ratio (x) = 0.31982 0.07009
# Poissons Ratio (y) = 0.38540 0.09661
# Poissons Ratio (z) = 0.02796 0.03198
#
# Static dielectric constant tensor:
#      x y z
#    x 3.934840 0.000000 -0.100270 
#    y 0.000000 3.560080 0.000000 
#    z -0.100270 0.000000 3.814640 
# 
# 
# High freq. dielectric constant tensor:
#      x y z
#    x 1.800880 0.000000 -0.015010 
#    y 0.000000 1.791730 0.000000 
#    z -0.015010 0.000000 1.805510 
# 
# From -- ./inp_files/15039.got.cif
#   From: 2010.03.12/outbox.cif.g09.slc.cpg/sg3_8_cif.got.tgz:15039.got - 2010.03.31 09:20:49.
