data_PCOD8045013
_publ_section_title
;
Structure prediction by ZEFSAII (Michael W. Deem and Ramdas Pophale) SiO2 
 PCOD8045013
Probable space group: P 2
;
_chemical_formula_sum "Si O2"
_cell_formula_units_Z 12
_cell_length_a 8.820225
_cell_length_b 9.366861
_cell_length_c 9.007341
_cell_angle_alpha 90.000000
_cell_angle_beta 120.654906
_cell_angle_gamma 90.000000
_cell_volume 640.172413
_symmetry_space_group_name_H-M "P 2"
_symmetry_group_IT_number 3
_symmetry_cell_setting 'monoclinic'
loop_
_space_group_symop_operation_xyz
x,y,z
-x,y,-z
loop_
_atom_site_type_symbol
_atom_site_label
_atom_site_fract_x
_atom_site_fract_y
_atom_site_fract_z
Si Si1 0.522597 0.535720 0.678841
Si Si2 0.693136 0.835914 0.168418
Si Si3 0.828130 0.542934 0.315054
Si Si4 0.317763 0.347345 0.996161
Si Si5 0.815377 0.039330 0.989315
Si Si6 0.470044 0.863074 0.319903
O O1 0.500000 0.477877 0.500000
O O2 0.331819 0.525640 0.653630
O O3 0.594339 0.698280 0.716621
O O4 0.656085 0.440535 0.841762
O O5 0.814972 0.695830 0.226894
O O6 0.651338 0.883528 0.316630
O O7 0.500000 0.802915 0.000000
O O8 0.805652 0.957300 0.142222
O O9 0.821186 0.424216 0.182572
O O10 0.000000 0.525882 0.500000
O O11 0.500000 0.320160 0.000000
O O12 0.231059 0.201969 0.004900
O O13 0.676827 0.967689 0.812533
O O14 0.000000 0.025316 0.000000
O O15 0.500000 0.915748 0.500000
#
# Coordination Sequence:
#
# PCOD8045013 Si02
#       6
#     2   2   2   2   2   2
#     4   9  19  36  60  84 107 140 181 219 268 332
#     4   9  18  37  59  79 108 146 180 216 271 333
#     4  10  20  35  58  85 108 137 180 228 274 317
#     4  10  20  38  57  75 110 152 181 215 270 333
#     4  11  23  36  53  80 110 145 185 226 270 314
#     4   9  18  36  59  83 107 138 181 222 267 331
#
# _framework density 18.744951
#
# number of rings (size 3 to 8) (size 9 to 14) (size 15 to 20)
#    0.000    2.333    0.000    5.000    0.000    6.000 
#    0.000    5.833    0.000    0.000    0.000    0.000 
#    0.000    0.000    0.000    0.000    0.000    0.000 
#
# Total GULP energy -148766.699312 kJ/mol
# GULP energy per Si atom -12397.224943 kJ/mol
# Density = 1.870229 g / cm^3
# Si number density = 18.744951 Si / 1000 Ang^3
#
#
#
# Elastic Constant Matrix: (Units=GPa)
#
#
# Indices 1 2 3 4 5 6 
#
# 1 79.6551 61.1161 48.1498 0.0000 -13.0116 0.0000
# 2 61.1161 135.0232 74.1265 0.0000 -1.4535 0.0000
# 3 48.1498 74.1265 127.5548 0.0000 -14.4423 0.0000
# 4 0.0000 0.0000 0.0000 0.6114 0.0000 2.8319
# 5 -13.0116 -1.4535 -14.4423 0.0000 37.7287 0.0000
# 6 0.0000 0.0000 0.0000 2.8319 0.0000 19.6339
#
#
#
# Elastic Compliance Matrix: (Units=1/GPa)
#
#
# Indices 1 2 3 4 5 6 
#
# 1 0.021416 -0.008175 -0.002648 0.000000 0.006057 0.000000
# 2 -0.008175 0.014157 -0.005643 0.000000 -0.004434 0.000000
# 3 -0.002648 -0.005643 0.012534 0.000000 0.003667 0.000000
# 4 0.000000 0.000000 0.000000 4.928592 0.000000 -0.710879
# 5 0.006057 -0.004434 0.003667 0.000000 0.029827 0.000000
# 6 0.000000 0.000000 0.000000 -0.710879 0.000000 0.153466
#
#
# Mechanical properties :
#
#
# Convention : Reuss Voigt Hill
#
# Bulk Modulus (GPa) = 65.89608 78.77975 72.33792
# Shear Modulus (GPa) = 0.96191 22.18417 11.57304
#
# Velocity S-wave (km/s) = 0.71713 3.44390 2.48744
# Velocity P-wave (km/s) = 5.99300 7.61133 6.85012
#
# Compressibility (1/GPa) = 0.01517541
#
# Stress axis : x y z
#
# Youngs Moduli (GPa) = 46.69298 70.63792 79.78408
#
# Poissons Ratio (x) = 0.57747 0.21124
# Poissons Ratio (y) = 0.38172 0.45023
# Poissons Ratio (z) = 0.12363 0.39861
#
# Static dielectric constant tensor:
#      x y z
#    x 3.414570 0.000000 -0.326390 
#    y 0.000000 3.478270 0.000000 
#    z -0.326390 0.000000 3.617950 
# 
# 
# High freq. dielectric constant tensor:
#      x y z
#    x 1.716380 0.000000 -0.022410 
#    y 0.000000 1.726350 0.000000 
#    z -0.022410 0.000000 1.731600 
# 
# From -- ./inp_files/4945.got.cif
#   From: 2010.03.12/outbox.cif.g09.slc.cpg/sg3_3_cif.got.tgz:4945.got - 2010.03.31 09:20:49.
