data_PCOD8045537
_publ_section_title
;
Structure prediction by ZEFSAII (Michael W. Deem and Ramdas Pophale) SiO2 
 PCOD8045537
Probable space group: P 2
;
_chemical_formula_sum "Si O2"
_cell_formula_units_Z 12
_cell_length_a 23.697255
_cell_length_b 4.993704
_cell_length_c 9.348290
_cell_angle_alpha 90.000000
_cell_angle_beta 152.250157
_cell_angle_gamma 90.000000
_cell_volume 515.083061
_symmetry_space_group_name_H-M "P 2"
_symmetry_group_IT_number 3
_symmetry_cell_setting 'monoclinic'
loop_
_space_group_symop_operation_xyz
x,y,z
-x,y,-z
loop_
_atom_site_type_symbol
_atom_site_label
_atom_site_fract_x
_atom_site_fract_y
_atom_site_fract_z
Si Si1 0.176070 0.262550 0.571243
Si Si2 0.211545 0.812858 0.180081
Si Si3 0.857968 0.761523 0.669729
Si Si4 0.061496 0.307168 0.781549
Si Si5 0.568585 0.412599 0.805174
Si Si6 0.485225 0.903999 0.793293
O O1 0.178670 0.453248 0.436892
O O2 0.045392 0.317967 0.344117
O O3 0.189743 0.950446 0.565160
O O4 0.292240 0.344376 0.927406
O O5 0.207742 0.878525 0.339066
O O6 0.348633 0.839970 0.436613
O O7 0.167447 0.510710 0.059767
O O8 0.122187 0.016424 0.897206
O O9 0.000000 0.802483 0.000000
O O10 0.000000 0.403725 0.500000
O O11 0.500000 0.435071 0.500000
O O12 0.567156 0.684675 0.895510
O O13 0.517357 0.191321 0.799727
O O14 0.500000 0.899026 0.000000
#
# Coordination Sequence:
#
# PCOD8045537 Si02
#       6
#     2   2   2   2   2   2
#     4  12  24  43  72  97 141 172 227 284 341 416
#     4  12  25  43  73  98 138 173 227 285 341 414
#     4  12  22  43  66 107 132 171 222 279 353 404
#     4  12  26  43  65 104 134 181 220 280 348 405
#     4  12  28  49  73 106 141 194 240 291 350 420
#     4  12  27  50  73 106 143 191 241 291 350 421
#
# _framework density 23.297214
#
# number of rings (size 3 to 8) (size 9 to 14) (size 15 to 20)
#    0.000    0.000    3.333    7.000    4.667    0.000 
#    0.000    0.000    0.000    0.000    0.000    0.000 
#    0.000    0.000    0.000    0.000    0.000    0.000 
#
# Total GULP energy -148803.550465 kJ/mol
# GULP energy per Si atom -12400.295872 kJ/mol
# Density = 2.324419 g / cm^3
# Si number density = 23.297214 Si / 1000 Ang^3
#
#
#
# Elastic Constant Matrix: (Units=GPa)
#
#
# Indices 1 2 3 4 5 6 
#
# 1 55.1485 25.3295 11.9622 0.0000 -13.8440 0.0000
# 2 25.3295 108.3122 9.4906 0.0000 -6.7568 0.0000
# 3 11.9622 9.4906 87.8806 0.0000 4.4384 0.0000
# 4 0.0000 0.0000 0.0000 116.3887 0.0000 107.6652
# 5 -13.8440 -6.7568 4.4384 0.0000 48.3124 0.0000
# 6 0.0000 0.0000 0.0000 107.6652 0.0000 87.0488
#
#
#
# Elastic Compliance Matrix: (Units=1/GPa)
#
#
# Indices 1 2 3 4 5 6 
#
# 1 0.022382 -0.004608 -0.002854 0.000000 0.006031 0.000000
# 2 -0.004608 0.010365 -0.000501 0.000000 0.000175 0.000000
# 3 -0.002854 -0.000501 0.011922 0.000000 -0.001983 0.000000
# 4 0.000000 0.000000 0.000000 -0.059610 0.000000 0.073728
# 5 0.006031 0.000175 -0.001983 0.000000 0.022634 0.000000
# 6 0.000000 0.000000 0.000000 0.073728 0.000000 -0.079701
#
#
# Mechanical properties :
#
#
# Convention : Reuss Voigt Hill
#
# Bulk Modulus (GPa) = 34.78992 38.32286 36.55639
# Shear Modulus (GPa) = -107.52294 63.98724 -21.76785
#
# Velocity S-wave (km/s) = -6.80095 5.24645 -3.06004
# Velocity P-wave (km/s) = 6.83411 7.29284 1.80008
#
# Compressibility (1/GPa) = 0.02874396
#
# Stress axis : x y z
#
# Youngs Moduli (GPa) = 44.67810 96.47859 83.88017
#
# Poissons Ratio (x) = 0.44457 0.23936
# Poissons Ratio (y) = 0.20587 0.04202
# Poissons Ratio (z) = 0.12750 0.04833
#
# Static dielectric constant tensor:
#      x y z
#    x 3.975750 0.000000 0.244300 
#    y 0.000000 4.223050 0.000000 
#    z 0.244300 0.000000 4.366060 
# 
# 
# High freq. dielectric constant tensor:
#      x y z
#    x 1.909950 0.000000 0.011900 
#    y 0.000000 1.935290 0.000000 
#    z 0.011900 0.000000 1.940400 
# 
# From -- ./inp_files/9302.got.cif
#   From: 2010.03.12/outbox.cif.g09.slc.cpg/sg3_5_cif.got.tgz:9302.got - 2010.03.31 09:20:49.
