data_PCOD8045833
_publ_section_title
;
Structure prediction by ZEFSAII (Michael W. Deem and Ramdas Pophale) SiO2 
 PCOD8045833
Probable space group: P 21
;
_chemical_formula_sum "Si O2"
_cell_formula_units_Z 16
_cell_length_a 18.278059
_cell_length_b 7.944357
_cell_length_c 9.014693
_cell_angle_alpha 90.000000
_cell_angle_beta 37.243658
_cell_angle_gamma 90.000000
_cell_volume 792.214713
_symmetry_space_group_name_H-M "P 21"
_symmetry_group_IT_number 4
_symmetry_cell_setting 'monoclinic'
loop_
_space_group_symop_operation_xyz
x,y,z
-x,1/2+y,-z
loop_
_atom_site_type_symbol
_atom_site_label
_atom_site_fract_x
_atom_site_fract_y
_atom_site_fract_z
Si Si1 0.555105 0.291790 0.983437
Si Si2 0.019700 0.627163 0.951270
Si Si3 0.778148 0.597155 0.203100
Si Si4 0.630327 0.778975 0.218453
Si Si5 0.645042 0.923955 0.887240
Si Si6 0.265300 0.783011 0.548415
Si Si7 0.440071 0.527185 0.409503
Si Si8 0.171737 0.330515 0.643128
O O1 0.444907 0.288153 0.042597
O O2 0.673677 0.352069 0.701115
O O3 0.528107 0.418887 0.161063
O O4 0.578556 0.103459 0.004195
O O5 0.122917 0.764386 0.744949
O O6 0.092653 0.458876 0.871743
O O7 0.925515 0.597540 0.964751
O O8 0.932385 0.689058 0.229420
O O9 0.727397 0.644215 0.123721
O O10 0.719980 0.418694 0.343487
O O11 0.732299 0.739164 0.400164
O O12 0.684858 0.869312 0.986263
O O13 0.508540 0.685293 0.369076
O O14 0.606241 0.917914 0.380342
O O15 0.769080 0.924019 0.591633
O O16 0.328202 0.603577 0.493324
#
# Coordination Sequence:
#
# PCOD8045833 Si02
#       8
#     2   2   2   2   2   2   2   2
#     4  12  24  41  64  98 124 168 224 267 324 368
#     4  10  19  40  68  95 121 165 224 272 310 370
#     4  10  23  37  68  91 129 167 216 262 325 384
#     4  12  25  42  59  93 138 175 208 260 338 397
#     4  12  24  39  65  96 134 167 217 275 319 388
#     4  12  22  40  71  97 124 164 229 274 318 375
#     4  12  26  40  64  92 135 176 213 264 332 395
#     4  10  21  41  67  96 121 170 223 276 306 373
#
# _framework density 20.196545
#
# number of rings (size 3 to 8) (size 9 to 14) (size 15 to 20)
#    0.750    0.000    5.000    3.000    5.250    0.000 
#    0.000    0.000    8.250    0.000    0.000    0.000 
#    0.000    0.000    0.000    0.000    0.000    0.000 
#
# Total GULP energy -198233.002119 kJ/mol
# GULP energy per Si atom -12389.562632 kJ/mol
# Density = 2.015058 g / cm^3
# Si number density = 20.196545 Si / 1000 Ang^3
#
#
#
# Elastic Constant Matrix: (Units=GPa)
#
#
# Indices 1 2 3 4 5 6 
#
# 1 77.7082 28.9737 45.1630 0.0000 5.8097 0.0000
# 2 28.9737 101.9031 42.9906 0.0000 9.9213 0.0000
# 3 45.1630 42.9906 104.0909 0.0000 3.4772 0.0000
# 4 0.0000 0.0000 0.0000 38.6623 0.0000 -0.8872
# 5 5.8097 9.9213 3.4772 0.0000 26.9679 0.0000
# 6 0.0000 0.0000 0.0000 -0.8872 0.0000 33.1530
#
#
#
# Elastic Compliance Matrix: (Units=1/GPa)
#
#
# Indices 1 2 3 4 5 6 
#
# 1 0.017719 -0.001949 -0.006808 0.000000 -0.002222 0.000000
# 2 -0.001949 0.012489 -0.004191 0.000000 -0.003634 0.000000
# 3 -0.006808 -0.004191 0.014253 0.000000 0.001171 0.000000
# 4 0.000000 0.000000 0.000000 0.025881 0.000000 0.000693
# 5 -0.002222 -0.003634 0.001171 0.000000 0.038746 0.000000
# 6 0.000000 0.000000 0.000000 0.000693 0.000000 0.030182
#
#
# Mechanical properties :
#
#
# Convention : Reuss Voigt Hill
#
# Bulk Modulus (GPa) = 53.86962 57.55076 55.71019
# Shear Modulus (GPa) = 29.17922 30.86163 30.02043
#
# Velocity S-wave (km/s) = 3.80513 3.91329 3.85959
# Velocity P-wave (km/s) = 6.78498 6.99826 6.89244
#
# Compressibility (1/GPa) = 0.01856334
#
# Stress axis : x y z
#
# Youngs Moduli (GPa) = 56.43803 80.06764 70.16098
#
# Poissons Ratio (x) = 0.15606 0.47769
# Poissons Ratio (y) = 0.11001 0.29406
# Poissons Ratio (z) = 0.38426 0.33558
#
# Static dielectric constant tensor:
#      x y z
#    x 3.570290 0.000000 -0.148140 
#    y 0.000000 3.910490 0.000000 
#    z -0.148140 0.000000 3.672010 
# 
# 
# High freq. dielectric constant tensor:
#      x y z
#    x 1.759090 0.000000 -0.020150 
#    y 0.000000 1.813430 0.000000 
#    z -0.020150 0.000000 1.778710 
# 
# From -- ./inp_files/9939.got.cif
#   From: 2010.03.12/outbox.cif.g09.slc.cpg/sg4_5_cif.got.tgz:9939.got - 2010.03.31 09:31:35.
