data_PCOD8045259
_publ_section_title
;
Structure prediction by ZEFSAII (Michael W. Deem and Ramdas Pophale) SiO2 
 PCOD8045259
Probable space group: P 2
;
_chemical_formula_sum "Si O2"
_cell_formula_units_Z 15
_cell_length_a 7.760908
_cell_length_b 13.388595
_cell_length_c 8.269222
_cell_angle_alpha 90.000000
_cell_angle_beta 51.287386
_cell_angle_gamma 90.000000
_cell_volume 670.455188
_symmetry_space_group_name_H-M "P 2"
_symmetry_group_IT_number 3
_symmetry_cell_setting 'monoclinic'
loop_
_space_group_symop_operation_xyz
x,y,z
-x,y,-z
loop_
_atom_site_type_symbol
_atom_site_label
_atom_site_fract_x
_atom_site_fract_y
_atom_site_fract_z
Si Si1 0.679821 0.864670 0.530143
Si Si2 0.740259 0.250942 0.642758
Si Si3 0.427783 0.721471 0.863686
Si Si4 0.352575 0.510883 0.848875
Si Si5 0.211093 0.450617 0.259029
Si Si6 0.114025 0.908342 0.092722
Si Si7 0.246061 0.037021 0.289903
Si Si8 0.500000 0.362032 0.500000
O O1 0.500000 0.878663 0.500000
O O2 0.645446 0.758403 0.639821
O O3 0.930683 0.867064 0.324222
O O4 0.622673 0.955017 0.685095
O O5 0.687850 0.338295 0.801228
O O6 0.632507 0.145050 0.759453
O O7 0.656072 0.290037 0.515828
O O8 0.000000 0.234794 0.500000
O O9 0.310331 0.628596 0.836898
O O10 0.500000 0.689116 0.000000
O O11 0.262481 0.814858 0.957575
O O12 0.600260 0.518700 0.774593
O O13 0.344446 0.435378 0.700948
O O14 0.173223 0.478006 0.092171
O O15 0.000000 0.459883 0.500000
O O16 0.247040 0.998990 0.102259
O O17 0.000000 0.953893 0.000000
O O18 0.000000 0.046488 0.500000
#
# Coordination Sequence:
#
# PCOD8045259 Si02
#       8
#     2   2   2   2   2   2   2   1
#     4  11  23  39  63  90 130 167 211 268 318 383
#     4   9  19  40  64  93 129 166 215 269 332 395
#     4  12  23  41  64  91 129 174 217 267 323 386
#     4  10  22  40  61  94 127 167 221 272 326 390
#     4   9  18  38  63  88 127 169 207 272 327 388
#     4  11  23  41  61  91 132 173 215 266 320 390
#     4   9  20  38  62  92 127 169 211 265 324 390
#     4  10  22  40  70  92 132 172 218 286 330 392
#
# _framework density 22.372861
#
# number of rings (size 3 to 8) (size 9 to 14) (size 15 to 20)
#    0.000    1.867    4.000    0.000    1.867    1.067 
#    0.000   18.000    0.000    0.000    0.000    0.000 
#    0.000    0.000    0.000    0.000    0.000    0.000 
#
# Total GULP energy -185836.131693 kJ/mol
# GULP energy per Si atom -12389.075446 kJ/mol
# Density = 2.232194 g / cm^3
# Si number density = 22.372861 Si / 1000 Ang^3
#
#
#
# Elastic Constant Matrix: (Units=GPa)
#
#
# Indices 1 2 3 4 5 6 
#
# 1 69.8947 46.8214 17.0102 0.0000 21.3863 0.0000
# 2 46.8214 177.7309 48.5305 0.0000 27.6738 0.0000
# 3 17.0102 48.5305 123.1596 0.0000 17.1276 0.0000
# 4 0.0000 0.0000 0.0000 9.5783 0.0000 16.2658
# 5 21.3863 27.6738 17.1276 0.0000 32.1808 0.0000
# 6 0.0000 0.0000 0.0000 16.2658 0.0000 21.9871
#
#
#
# Elastic Compliance Matrix: (Units=1/GPa)
#
#
# Indices 1 2 3 4 5 6 
#
# 1 0.019830 -0.003688 0.000114 0.000000 -0.010068 0.000000
# 2 -0.003688 0.007634 -0.002081 0.000000 -0.003007 0.000000
# 3 0.000114 -0.002081 0.009380 0.000000 -0.003279 0.000000
# 4 0.000000 0.000000 0.000000 -0.407350 0.000000 0.301352
# 5 -0.010068 -0.003007 -0.003279 0.000000 0.042096 0.000000
# 6 0.000000 0.000000 0.000000 0.301352 0.000000 -0.177455
#
#
# Mechanical properties :
#
#
# Convention : Reuss Voigt Hill
#
# Bulk Modulus (GPa) = 39.15989 66.16770 52.66379
# Shear Modulus (GPa) = -10.28714 29.97746 9.84516
#
# Velocity S-wave (km/s) = -2.14663 3.66444 2.10001
# Velocity P-wave (km/s) = 3.37598 6.89517 5.42866
#
# Compressibility (1/GPa) = 0.02553633
#
# Stress axis : x y z
#
# Youngs Moduli (GPa) = 50.42763 130.98735 106.61387
#
# Poissons Ratio (x) = 0.48304 -0.01220
# Poissons Ratio (y) = 0.18596 0.22184
# Poissons Ratio (z) = -0.00577 0.27256
#
# Static dielectric constant tensor:
#      x y z
#    x 4.659980 0.000000 -1.207280 
#    y 0.000000 4.527900 0.000000 
#    z -1.207280 0.000000 6.648860 
# 
# 
# High freq. dielectric constant tensor:
#      x y z
#    x 1.863840 0.000000 0.005160 
#    y 0.000000 1.888710 0.000000 
#    z 0.005160 0.000000 1.884560 
# 
# From -- ./inp_files/5974.got.cif
#   From: 2010.03.12/outbox.cif.g09.slc.cpg/sg3_3_cif.got.tgz:5974.got - 2010.03.31 09:20:49.
