data_PCOD8045691
_publ_section_title
;
Structure prediction by ZEFSAII (Michael W. Deem and Ramdas Pophale) SiO2 
 PCOD8045691
Probable space group: P 21
;
_chemical_formula_sum "Si O2"
_cell_formula_units_Z 16
_cell_length_a 7.202232
_cell_length_b 9.600789
_cell_length_c 17.449633
_cell_angle_alpha 90.000000
_cell_angle_beta 141.159627
_cell_angle_gamma 90.000000
_cell_volume 756.717368
_symmetry_space_group_name_H-M "P 21"
_symmetry_group_IT_number 4
_symmetry_cell_setting 'monoclinic'
loop_
_space_group_symop_operation_xyz
x,y,z
-x,1/2+y,-z
loop_
_atom_site_type_symbol
_atom_site_label
_atom_site_fract_x
_atom_site_fract_y
_atom_site_fract_z
Si Si1 0.885462 0.740790 0.696463
Si Si2 0.636136 0.106923 0.711886
Si Si3 0.310866 0.848253 0.545394
Si Si4 0.717826 0.095076 0.914145
Si Si5 0.765652 0.488877 0.121393
Si Si6 0.123514 0.245199 0.474236
Si Si7 0.100298 0.494881 0.681590
Si Si8 0.718164 0.415547 0.936431
O O1 0.547104 0.721194 0.618000
O O2 0.849582 0.814035 0.600944
O O3 0.098429 0.837537 0.815061
O O4 0.023306 0.585066 0.733375
O O5 0.582255 0.088700 0.785337
O O6 0.445507 0.237212 0.619507
O O7 0.526977 0.976676 0.628427
O O8 0.987392 0.112677 0.805054
O O9 0.087392 0.839591 0.543464
O O10 0.123435 0.864707 0.405413
O O11 0.803265 0.252651 0.963744
O O12 0.482732 0.033546 0.898530
O O13 0.010757 0.000755 0.012937
O O14 0.633401 0.467909 0.994046
O O15 0.963233 0.093384 0.413392
O O16 0.434313 0.440592 0.791479
#
# Coordination Sequence:
#
# PCOD8045691 Si02
#       8
#     2   2   2   2   2   2   2   2
#     4   9  21  38  63  87 125 166 208 264 318 395
#     4   9  20  38  59  93 121 160 220 258 325 393
#     4  10  18  39  60  90 126 169 198 260 336 384
#     4  11  25  42  68  91 128 176 215 287 322 393
#     4  10  23  41  67  87 128 176 219 268 336 379
#     4   9  19  35  62  86 127 156 203 261 318 391
#     4   9  22  40  58  95 129 153 217 272 299 402
#     4  11  26  43  65  97 130 170 232 270 328 393
#
# _framework density 21.143955999999999
#
# number of rings (size 3 to 8) (size 9 to 14) (size 15 to 20)
#    0.750    1.500    0.000    1.500    3.500    5.000 
#    4.500    0.000    0.000    0.000    0.000    0.000 
#    0.000    0.000    0.000    0.000    0.000    0.000 
#
# Total GULP energy -198219.119036 kJ/mol
# GULP energy per Si atom -12388.694940 kJ/mol
# Density = 2.109583 g / cm^3
# Si number density = 21.143956 Si / 1000 Ang^3
#
#
#
# Elastic Constant Matrix: (Units=GPa)
#
#
# Indices 1 2 3 4 5 6 
#
# 1 111.2730 8.0660 39.0975 0.0000 9.2732 0.0000
# 2 8.0660 40.5506 27.5352 0.0000 7.8088 0.0000
# 3 39.0975 27.5352 120.1955 0.0000 10.4643 0.0000
# 4 0.0000 0.0000 0.0000 17.8135 0.0000 -0.7623
# 5 9.2732 7.8088 10.4643 0.0000 26.2063 0.0000
# 6 0.0000 0.0000 0.0000 -0.7623 0.0000 26.6293
#
#
#
# Elastic Compliance Matrix: (Units=1/GPa)
#
#
# Indices 1 2 3 4 5 6 
#
# 1 0.010304 0.000668 -0.003284 0.000000 -0.002534 0.000000
# 2 0.000668 0.030269 -0.006574 0.000000 -0.006631 0.000000
# 3 -0.003284 -0.006574 0.011005 0.000000 -0.001273 0.000000
# 4 0.000000 0.000000 0.000000 0.056206 0.000000 0.001609
# 5 -0.002534 -0.006631 -0.001273 0.000000 0.041539 0.000000
# 6 0.000000 0.000000 0.000000 0.001609 0.000000 0.037599
#
#
# Mechanical properties :
#
#
# Convention : Reuss Voigt Hill
#
# Bulk Modulus (GPa) = 30.12302 46.82405 38.47354
# Shear Modulus (GPa) = 23.10888 27.28451 25.19670
#
# Velocity S-wave (km/s) = 3.30954 3.59613 3.45581
# Velocity P-wave (km/s) = 5.37416 6.27984 5.84457
#
# Compressibility (1/GPa) = 0.03319720
#
# Stress axis : x y z
#
# Youngs Moduli (GPa) = 97.05413 33.03751 90.86794
#
# Poissons Ratio (x) = -0.02208 0.29842
# Poissons Ratio (y) = -0.06488 0.59740
# Poissons Ratio (z) = 0.31874 0.21720
#
# Static dielectric constant tensor:
#      x y z
#    x 3.657680 0.000000 0.060390 
#    y 0.000000 3.604540 0.000000 
#    z 0.060390 0.000000 3.941380 
# 
# 
# High freq. dielectric constant tensor:
#      x y z
#    x 1.821520 0.000000 0.002300 
#    y 0.000000 1.803190 0.000000 
#    z 0.002300 0.000000 1.841770 
# 
# From -- ./inp_files/14741.got.cif
#   From: 2010.03.12/outbox.cif.g09.slc.cpg/sg4_8_cif.got.tgz:14741.got - 2010.03.31 09:31:35.
