data_PCOD8045567
_publ_section_title
;
Structure prediction by ZEFSAII (Michael W. Deem and Ramdas Pophale) SiO2 
 PCOD8045567
Probable space group: P 2
;
_chemical_formula_sum "Si O2"
_cell_formula_units_Z 11
_cell_length_a 17.549179
_cell_length_b 5.341666
_cell_length_c 17.548370
_cell_angle_alpha 90.000000
_cell_angle_beta 163.712819
_cell_angle_gamma 90.000000
_cell_volume 461.348164
_symmetry_space_group_name_H-M "P 2"
_symmetry_group_IT_number 3
_symmetry_cell_setting 'monoclinic'
loop_
_space_group_symop_operation_xyz
x,y,z
-x,y,-z
loop_
_atom_site_type_symbol
_atom_site_label
_atom_site_fract_x
_atom_site_fract_y
_atom_site_fract_z
Si Si1 0.676768 0.247660 0.823147
Si Si2 0.724018 0.747659 0.776015
Si Si3 0.125863 0.247748 0.374184
Si Si4 0.698824 0.588980 0.321696
Si Si5 0.177630 0.906191 0.800442
Si Si6 0.500000 0.247395 0.000000
O O1 0.619381 0.496904 0.718489
O O2 0.397959 0.153184 0.594343
O O3 0.781492 0.998331 0.880653
O O4 0.905435 0.342199 0.101874
O O5 0.500000 0.827431 0.500000
O O6 0.000000 0.667980 0.000000
O O7 0.221118 0.466531 0.521570
O O8 0.978722 0.029145 0.279281
O O9 0.664454 0.402091 0.219465
O O10 0.956487 0.747723 0.542457
O O11 0.425877 0.747395 0.073149
O O12 0.280271 0.092610 0.835140
#
# Coordination Sequence:
#
# PCOD8045567 Si02
#       6
#     2   2   2   2   2   1
#     4  12  27  47  82 111 160 205 250 317 386 459
#     4  12  26  50  78 118 154 201 254 311 376 464
#     4  12  28  48  70 114 145 201 256 313 385 464
#     4  12  28  48  75 102 152 196 262 323 392 463
#     4  12  28  48  75 102 152 196 262 323 392 463
#     4  12  28  50  68 116 134 210 254 330 394 456
#
# _framework density 23.843162
#
# number of rings (size 3 to 8) (size 9 to 14) (size 15 to 20)
#    0.000    0.000    0.000    9.273    7.636   10.909 
#    0.000    0.000    0.000    0.000    0.000    0.000 
#    0.000    0.000    0.000    0.000    0.000    0.000 
#
# Total GULP energy -136421.458192 kJ/mol
# GULP energy per Si atom -12401.950745 kJ/mol
# Density = 2.378889 g / cm^3
# Si number density = 23.843162 Si / 1000 Ang^3
#
#
#
# Elastic Constant Matrix: (Units=GPa)
#
#
# Indices 1 2 3 4 5 6 
#
# 1 140.6046 64.6244 65.8227 0.0000 17.1631 0.0000
# 2 64.6244 159.3450 60.0111 0.0000 -1.1760 0.0000
# 3 65.8227 60.0111 205.4047 0.0000 -5.9725 0.0000
# 4 0.0000 0.0000 0.0000 43.2536 0.0000 1.8180
# 5 17.1631 -1.1760 -5.9725 0.0000 81.1182 0.0000
# 6 0.0000 0.0000 0.0000 1.8180 0.0000 33.2019
#
#
#
# Elastic Compliance Matrix: (Units=1/GPa)
#
#
# Indices 1 2 3 4 5 6 
#
# 1 0.009943 -0.003174 -0.002327 0.000000 -0.002321 0.000000
# 2 -0.003174 0.008065 -0.001319 0.000000 0.000691 0.000000
# 3 -0.002327 -0.001319 0.006026 0.000000 0.000917 0.000000
# 4 0.000000 0.000000 0.000000 0.023173 0.000000 -0.001269
# 5 -0.002321 0.000691 0.000917 0.000000 0.012896 0.000000
# 6 0.000000 0.000000 0.000000 -0.001269 0.000000 0.030188
#
#
# Mechanical properties :
#
#
# Convention : Reuss Voigt Hill
#
# Bulk Modulus (GPa) = 96.19620 98.47453 97.33536
# Shear Modulus (GPa) = 46.55707 52.50782 49.53245
#
# Velocity S-wave (km/s) = 4.42366 4.69787 4.56283
# Velocity P-wave (km/s) = 8.15627 8.41530 8.28679
#
# Compressibility (1/GPa) = 0.01039542
#
# Stress axis : x y z
#
# Youngs Moduli (GPa) = 100.57032 123.99809 165.94532
#
# Poissons Ratio (x) = 0.39351 0.38610
# Poissons Ratio (y) = 0.31916 0.21890
# Poissons Ratio (z) = 0.23400 0.16357
#
# Static dielectric constant tensor:
#      x y z
#    x 4.460220 0.000000 0.007450 
#    y 0.000000 4.307220 0.000000 
#    z 0.007450 0.000000 4.494000 
# 
# 
# High freq. dielectric constant tensor:
#      x y z
#    x 1.957360 0.000000 0.002920 
#    y 0.000000 1.953650 0.000000 
#    z 0.002920 0.000000 1.973260 
# 
# From -- ./inp_files/13921.got.cif
#   From: 2010.03.12/outbox.cif.g09.slc.cpg/sg3_7_cif.got.tgz:13921.got - 2010.03.31 09:20:49.
