data_PCOD8045778
_publ_section_title
;
Structure prediction by ZEFSAII (Michael W. Deem and Ramdas Pophale) SiO2 
 PCOD8045778
Probable space group: P 21
;
_chemical_formula_sum "Si O2"
_cell_formula_units_Z 14
_cell_length_a 12.415438
_cell_length_b 8.996657
_cell_length_c 7.480294
_cell_angle_alpha 90.000000
_cell_angle_beta 43.390182
_cell_angle_gamma 90.000000
_cell_volume 573.977966
_symmetry_space_group_name_H-M "P 21"
_symmetry_group_IT_number 4
_symmetry_cell_setting 'monoclinic'
loop_
_space_group_symop_operation_xyz
x,y,z
-x,1/2+y,-z
loop_
_atom_site_type_symbol
_atom_site_label
_atom_site_fract_x
_atom_site_fract_y
_atom_site_fract_z
Si Si1 0.027806 0.647460 0.748191
Si Si2 0.616415 0.125386 0.691213
Si Si3 0.105229 0.965640 0.386968
Si Si4 0.020064 0.238098 0.706851
Si Si5 0.894977 0.917597 0.075345
Si Si6 0.689764 0.160939 0.217927
Si Si7 0.560896 0.328693 0.053919
O O1 0.202872 0.629124 0.456543
O O2 0.015366 0.565849 0.958017
O O3 0.897745 0.577635 0.777860
O O4 0.994812 0.823572 0.811063
O O5 0.606909 0.198461 0.506063
O O6 0.566069 0.953318 0.748990
O O7 0.507843 0.225470 0.951074
O O8 0.987201 0.829036 0.475226
O O9 0.280586 0.909787 0.198383
O O10 0.054146 0.063582 0.623712
O O11 0.140259 0.315116 0.704218
O O12 0.847086 0.258206 0.001741
O O13 0.736801 0.983280 0.171594
O O14 0.573317 0.209729 0.201205
#
# Coordination Sequence:
#
# PCOD8045778 Si02
#       7
#     2   2   2   2   2   2   2
#     4  10  21  40  67 106 137 176 230 293 357 403
#     4  11  25  49  73  99 147 191 237 290 350 427
#     4  10  23  39  65 106 140 177 238 289 357 417
#     4  10  20  37  65 104 141 178 229 299 360 406
#     4  10  19  36  66 101 139 172 222 294 352 405
#     4  10  23  44  70 101 140 183 241 287 354 420
#     4  11  27  49  68 101 144 195 237 284 352 432
#
# _framework density 24.391179999999999
#
# number of rings (size 3 to 8) (size 9 to 14) (size 15 to 20)
#    0.000    1.714    2.857    1.714    4.000    4.571 
#    7.714    0.000    0.000    0.000    0.000    0.000 
#    0.000    0.000    0.000    0.000    0.000    0.000 
#
# Total GULP energy -173451.627327 kJ/mol
# GULP energy per Si atom -12389.401952 kJ/mol
# Density = 2.433566 g / cm^3
# Si number density = 24.391180 Si / 1000 Ang^3
#
#
#
# Elastic Constant Matrix: (Units=GPa)
#
#
# Indices 1 2 3 4 5 6 
#
# 1 71.9934 51.7617 39.3902 0.0000 15.1795 0.0000
# 2 51.7617 181.6499 43.7816 0.0000 15.6403 0.0000
# 3 39.3902 43.7816 75.8825 0.0000 25.5781 0.0000
# 4 0.0000 0.0000 0.0000 58.7231 0.0000 8.4058
# 5 15.1795 15.6403 25.5781 0.0000 20.6611 0.0000
# 6 0.0000 0.0000 0.0000 8.4058 0.0000 45.1785
#
#
#
# Elastic Compliance Matrix: (Units=1/GPa)
#
#
# Indices 1 2 3 4 5 6 
#
# 1 0.021784 -0.004027 -0.007924 0.000000 -0.003146 0.000000
# 2 -0.004027 0.007141 -0.002068 0.000000 0.000113 0.000000
# 3 -0.007924 -0.002068 0.027449 0.000000 -0.026594 0.000000
# 4 0.000000 0.000000 0.000000 0.017495 0.000000 -0.003255
# 5 -0.003146 0.000113 -0.026594 0.000000 0.083550 0.000000
# 6 0.000000 0.000000 0.000000 -0.003255 0.000000 0.022740
#
#
# Mechanical properties :
#
#
# Convention : Reuss Voigt Hill
#
# Bulk Modulus (GPa) = 35.28980 66.59920 50.94450
# Shear Modulus (GPa) = 22.97337 37.88535 30.42936
#
# Velocity S-wave (km/s) = 3.07232 3.94539 3.53591
# Velocity P-wave (km/s) = 5.20435 6.93677 6.13205
#
# Compressibility (1/GPa) = 0.02833680
#
# Stress axis : x y z
#
# Youngs Moduli (GPa) = 45.90454 140.03165 36.43100
#
# Poissons Ratio (x) = 0.56386 0.28869
# Poissons Ratio (y) = 0.18484 0.07534
# Poissons Ratio (z) = 0.36376 0.28959
#
# Static dielectric constant tensor:
#      x y z
#    x 4.297880 0.000000 0.472030 
#    y 0.000000 4.883800 0.000000 
#    z 0.472030 0.000000 4.082930 
# 
# 
# High freq. dielectric constant tensor:
#      x y z
#    x 1.948900 0.000000 0.048300 
#    y 0.000000 1.994440 0.000000 
#    z 0.048300 0.000000 1.948180 
# 
# From -- ./inp_files/9125.got.cif
#   From: 2010.03.12/outbox.cif.g09.slc.cpg/sg4_5_cif.got.tgz:9125.got - 2010.03.31 09:31:35.
