data_PCOD8045715
_publ_section_title
;
Structure prediction by ZEFSAII (Michael W. Deem and Ramdas Pophale) SiO2 
 PCOD8045715
Probable space group: P 21
;
_chemical_formula_sum "Si O2"
_cell_formula_units_Z 12
_cell_length_a 10.644501
_cell_length_b 5.084687
_cell_length_c 19.115158
_cell_angle_alpha 90.000000
_cell_angle_beta 141.305718
_cell_angle_gamma 90.000000
_cell_volume 646.787947
_symmetry_space_group_name_H-M "P 21"
_symmetry_group_IT_number 4
_symmetry_cell_setting 'monoclinic'
loop_
_space_group_symop_operation_xyz
x,y,z
-x,1/2+y,-z
loop_
_atom_site_type_symbol
_atom_site_label
_atom_site_fract_x
_atom_site_fract_y
_atom_site_fract_z
Si Si1 0.130023 0.583340 0.054357
Si Si2 0.377272 0.736978 0.295457
Si Si3 0.335531 0.518886 0.000260
Si Si4 0.802937 0.034818 0.651899
Si Si5 0.526980 0.246789 0.420501
Si Si6 0.241731 0.016652 0.873613
O O1 0.274491 0.695875 0.176664
O O2 0.262545 0.482671 0.047395
O O3 0.012883 0.325179 0.031234
O O4 0.210167 0.719136 0.284539
O O5 0.548109 0.514310 0.384450
O O6 0.478875 0.021279 0.343105
O O7 0.236613 0.302037 0.907061
O O8 0.267428 0.804771 0.945707
O O9 0.577600 0.492869 0.103687
O O10 0.655911 0.781818 0.601699
O O11 0.730309 0.185868 0.550744
O O12 0.035202 0.959154 0.742154
#
# Coordination Sequence:
#
# PCOD8045715 Si02
#       6
#     2   2   2   2   2   2
#     4  12  23  35  57  79 112 148 183 223 276 334
#     4  10  20  32  48  78 109 139 166 238 263 317
#     4  10  22  40  50  88 105 148 186 221 273 333
#     4  10  19  33  54  80 104 145 174 229 278 308
#     4  10  20  31  51  80 111 129 187 222 274 317
#     4  10  22  35  62  73 117 141 184 231 268 331
#
# _framework density 18.553221000000001
#
# number of rings (size 3 to 8) (size 9 to 14) (size 15 to 20)
#    1.000    0.667    1.667    4.000    4.667    0.000 
#    0.000    0.000    0.000    2.000    0.000    0.000 
#    0.000    0.000    0.000    0.000    0.000    0.000 
#
# Total GULP energy -148740.109130 kJ/mol
# GULP energy per Si atom -12395.009094 kJ/mol
# Density = 1.851099 g / cm^3
# Si number density = 18.553221 Si / 1000 Ang^3
#
#
#
# Elastic Constant Matrix: (Units=GPa)
#
#
# Indices 1 2 3 4 5 6 
#
# 1 70.5550 10.3629 33.5398 0.0000 0.0170 0.0000
# 2 10.3629 85.2639 8.7720 0.0000 4.0930 0.0000
# 3 33.5398 8.7720 115.6290 0.0000 12.4251 0.0000
# 4 0.0000 0.0000 0.0000 23.7621 0.0000 -2.6164
# 5 0.0170 4.0930 12.4251 0.0000 27.5318 0.0000
# 6 0.0000 0.0000 0.0000 -2.6164 0.0000 19.0100
#
#
#
# Elastic Compliance Matrix: (Units=1/GPa)
#
#
# Indices 1 2 3 4 5 6 
#
# 1 0.016799 -0.001646 -0.005016 0.000000 0.002498 0.000000
# 2 -0.001646 0.012035 -0.000256 0.000000 -0.001673 0.000000
# 3 -0.005016 -0.000256 0.010634 0.000000 -0.004758 0.000000
# 4 0.000000 0.000000 0.000000 0.042731 0.000000 0.005881
# 5 0.002498 -0.001673 -0.004758 0.000000 0.038716 0.000000
# 6 0.000000 0.000000 0.000000 0.005881 0.000000 0.053413
#
#
# Mechanical properties :
#
#
# Convention : Reuss Voigt Hill
#
# Bulk Modulus (GPa) = 39.01332 41.86635 40.43983
# Shear Modulus (GPa) = 25.41826 28.64565 27.03196
#
# Velocity S-wave (km/s) = 3.70539 3.93360 3.82120
# Velocity P-wave (km/s) = 6.27535 6.57613 6.42750
#
# Compressibility (1/GPa) = 0.02563227
#
# Stress axis : x y z
#
# Youngs Moduli (GPa) = 59.52698 83.09149 94.03677
#
# Poissons Ratio (x) = 0.13673 0.47173
# Poissons Ratio (y) = 0.09796 0.02407
# Poissons Ratio (z) = 0.29861 0.02127
#
# Static dielectric constant tensor:
#      x y z
#    x 3.068850 0.000000 0.089560 
#    y 0.000000 3.522980 0.000000 
#    z 0.089560 0.000000 3.240310 
# 
# 
# High freq. dielectric constant tensor:
#      x y z
#    x 1.670980 0.000000 -0.004310 
#    y 0.000000 1.736570 0.000000 
#    z -0.004310 0.000000 1.716650 
# 
# From -- ./inp_files/14864.got.cif
#   From: 2010.03.12/outbox.cif.g09.slc.cpg/sg4_8_cif.got.tgz:14864.got - 2010.03.31 09:31:35.
