data_PCOD8045736
_publ_section_title
;
Structure prediction by ZEFSAII (Michael W. Deem and Ramdas Pophale) SiO2 
 PCOD8045736
Probable space group: P 21
;
_chemical_formula_sum "Si O2"
_cell_formula_units_Z 16
_cell_length_a 11.403160
_cell_length_b 13.223528
_cell_length_c 8.712173
_cell_angle_alpha 90.000000
_cell_angle_beta 40.328829
_cell_angle_gamma 90.000000
_cell_volume 850.197327
_symmetry_space_group_name_H-M "P 21"
_symmetry_group_IT_number 4
_symmetry_cell_setting 'monoclinic'
loop_
_space_group_symop_operation_xyz
x,y,z
-x,1/2+y,-z
loop_
_atom_site_type_symbol
_atom_site_label
_atom_site_fract_x
_atom_site_fract_y
_atom_site_fract_z
Si Si1 0.825153 0.913960 0.755694
Si Si2 0.945624 0.133099 0.575244
Si Si3 0.931090 0.263468 0.308097
Si Si4 0.790707 0.798951 0.215431
Si Si5 0.656989 0.198901 0.105921
Si Si6 0.641345 0.981027 0.232613
Si Si7 0.395434 0.821959 0.563352
Si Si8 0.264490 0.247822 0.390722
O O1 0.733720 0.849529 0.711943
O O2 0.988724 0.854337 0.671928
O O3 0.917567 0.014246 0.598685
O O4 0.665564 0.942957 0.032705
O O5 0.912317 0.165880 0.433523
O O6 0.149691 0.159643 0.423522
O O7 0.811881 0.192431 0.824298
O O8 0.731555 0.289910 0.448696
O O9 0.060401 0.240356 0.033653
O O10 0.796743 0.922023 0.178715
O O11 0.588865 0.761594 0.364124
O O12 0.827581 0.774324 0.355007
O O13 0.691065 0.296293 0.182724
O O14 0.467200 0.206607 0.206515
O O15 0.658899 0.101607 0.219390
O O16 0.444500 0.941980 0.492900
#
# Coordination Sequence:
#
# PCOD8045736 Si02
#       8
#     2   2   2   2   2   2   2   2
#     4   9  20  37  53  79 112 142 181 224 271 318
#     4  10  22  34  55  83 107 144 182 222 270 328
#     4  10  19  34  57  74 108 141 179 219 269 318
#     4   8  18  35  54  78 105 139 173 225 267 313
#     4  10  20  36  56  81 107 144 181 226 270 324
#     4   8  18  35  53  79 107 141 179 214 277 315
#     4   9  19  33  57  76 105 139 182 218 266 318
#     4  10  20  36  59  76 113 142 181 224 274 316
#
# _framework density 18.819161999999999
#
# number of rings (size 3 to 8) (size 9 to 14) (size 15 to 20)
#    0.750    2.000    0.000    0.750    3.500    1.000 
#    0.000    1.250   11.000    0.000    0.000    0.000 
#    0.000    0.000    0.000    0.000    0.000    0.000 
#
# Total GULP energy -198244.388031 kJ/mol
# GULP energy per Si atom -12390.274252 kJ/mol
# Density = 1.877633 g / cm^3
# Si number density = 18.819162 Si / 1000 Ang^3
#
#
#
# Elastic Constant Matrix: (Units=GPa)
#
#
# Indices 1 2 3 4 5 6 
#
# 1 62.4083 2.3486 4.4357 0.0000 -5.3122 0.0000
# 2 2.3486 54.9600 16.2935 0.0000 2.9562 0.0000
# 3 4.4357 16.2935 56.5613 0.0000 6.7224 0.0000
# 4 0.0000 0.0000 0.0000 30.5970 0.0000 4.8710
# 5 -5.3122 2.9562 6.7224 0.0000 24.8723 0.0000
# 6 0.0000 0.0000 0.0000 4.8710 0.0000 18.1636
#
#
#
# Elastic Compliance Matrix: (Units=1/GPa)
#
#
# Indices 1 2 3 4 5 6 
#
# 1 0.016499 -0.000433 -0.001647 0.000000 0.004020 0.000000
# 2 -0.000433 0.019923 -0.005592 0.000000 -0.000949 0.000000
# 3 -0.001647 -0.005592 0.020026 0.000000 -0.005100 0.000000
# 4 0.000000 0.000000 0.000000 0.034141 0.000000 -0.009156
# 5 0.004020 -0.000949 -0.005100 0.000000 0.042555 0.000000
# 6 0.000000 0.000000 0.000000 -0.009156 0.000000 0.057510
#
#
# Mechanical properties :
#
#
# Convention : Reuss Voigt Hill
#
# Bulk Modulus (GPa) = 24.32908 24.45392 24.39150
# Shear Modulus (GPa) = 22.75834 24.78335 23.77084
#
# Velocity S-wave (km/s) = 3.48130 3.63288 3.55789
# Velocity P-wave (km/s) = 5.39584 5.53348 5.46510
#
# Compressibility (1/GPa) = 0.04110308
#
# Stress axis : x y z
#
# Youngs Moduli (GPa) = 60.60943 50.19447 49.93466
#
# Poissons Ratio (x) = 0.02174 0.08224
# Poissons Ratio (y) = 0.02625 0.27925
# Poissons Ratio (z) = 0.09982 0.28070
#
# Static dielectric constant tensor:
#      x y z
#    x 3.350790 0.000000 0.097760 
#    y 0.000000 3.329020 0.000000 
#    z 0.097760 0.000000 3.462560 
# 
# 
# High freq. dielectric constant tensor:
#      x y z
#    x 1.729080 0.000000 0.004940 
#    y 0.000000 1.708010 0.000000 
#    z 0.004940 0.000000 1.730420 
# 
# From -- ./inp_files/5922.got.cif
#   From: 2010.03.12/outbox.cif.g09.slc.cpg/sg4_3_cif.got.tgz:5922.got - 2010.03.31 09:31:35.
