data_PCOD8045976
_publ_section_title
;
Structure prediction by ZEFSAII (Michael W. Deem and Ramdas Pophale) SiO2 
 PCOD8045976
Probable space group: P 21
;
_chemical_formula_sum "Si O2"
_cell_formula_units_Z 12
_cell_length_a 27.654438
_cell_length_b 4.901712
_cell_length_c 21.824389
_cell_angle_alpha 90.000000
_cell_angle_beta 168.627234
_cell_angle_gamma 90.000000
_cell_volume 583.368039
_symmetry_space_group_name_H-M "P 21"
_symmetry_group_IT_number 4
_symmetry_cell_setting 'monoclinic'
loop_
_space_group_symop_operation_xyz
x,y,z
-x,1/2+y,-z
loop_
_atom_site_type_symbol
_atom_site_label
_atom_site_fract_x
_atom_site_fract_y
_atom_site_fract_z
Si Si1 0.648392 0.110870 0.682302
Si Si2 0.145960 0.967534 0.343913
Si Si3 0.623385 0.967537 0.310071
Si Si4 0.346037 0.469630 0.791909
Si Si5 0.937454 0.465375 0.383329
Si Si6 0.012723 0.324055 0.978806
O O1 0.590272 0.428342 0.596854
O O2 0.864341 0.075294 0.001394
O O3 0.731066 0.967473 0.721595
O O4 0.197844 0.719525 0.453998
O O5 0.183958 0.859650 0.321020
O O6 0.326704 0.215714 0.582806
O O7 0.681801 0.876917 0.313043
O O8 0.343167 0.058091 0.974409
O O9 0.084353 0.467456 0.501531
O O10 0.463505 0.769951 0.937682
O O11 0.066823 0.665081 0.592640
O O12 0.936120 0.506555 0.942731
#
# Coordination Sequence:
#
# PCOD8045976 Si02
#       6
#     2   2   2   2   2   2
#     4  10  20  38  63  90 119 162 214 243 308 388
#     4  10  24  38  64  90 130 170 192 264 346 342
#     4  12  22  42  64  92 140 160 208 278 314 374
#     4  12  23  41  66  96 122 173 220 255 313 389
#     4  12  23  41  66  96 122 173 220 255 313 389
#     4  10  20  38  63  90 119 162 214 243 308 388
#
# _framework density 20.570205000000001
#
# number of rings (size 3 to 8) (size 9 to 14) (size 15 to 20)
#    1.000    0.000    3.333    5.000    0.000    0.000 
#    0.000   10.000    0.000    0.000    0.000    0.000 
#    0.000    0.000    0.000    0.000    0.000    0.000 
#
# Total GULP energy -148748.486542 kJ/mol
# GULP energy per Si atom -12395.707212 kJ/mol
# Density = 2.052339 g / cm^3
# Si number density = 20.570205 Si / 1000 Ang^3
#
#
#
# Elastic Constant Matrix: (Units=GPa)
#
#
# Indices 1 2 3 4 5 6 
#
# 1 85.6742 0.3272 48.0351 0.0000 9.7283 0.0000
# 2 0.3272 79.0336 11.9661 0.0000 -13.0275 0.0000
# 3 48.0351 11.9661 84.4038 0.0000 -8.3617 0.0000
# 4 0.0000 0.0000 0.0000 108.1334 0.0000 -49.3967
# 5 9.7283 -13.0275 -8.3617 0.0000 34.7258 0.0000
# 6 0.0000 0.0000 0.0000 -49.3967 0.0000 63.9936
#
#
#
# Elastic Compliance Matrix: (Units=1/GPa)
#
#
# Indices 1 2 3 4 5 6 
#
# 1 0.019187 0.000373 -0.011772 0.000000 -0.008070 0.000000
# 2 0.000373 0.013668 -0.001693 0.000000 0.004616 0.000000
# 3 -0.011772 -0.001693 0.019517 0.000000 0.007362 0.000000
# 4 0.000000 0.000000 0.000000 0.014285 0.000000 0.011027
# 5 -0.008070 0.004616 0.007362 0.000000 0.034562 0.000000
# 6 0.000000 0.000000 0.000000 0.011027 0.000000 0.024138
#
#
# Mechanical properties :
#
#
# Convention : Reuss Voigt Hill
#
# Bulk Modulus (GPa) = 38.18466 41.08539 39.63503
# Shear Modulus (GPa) = 31.19715 53.95611 42.57663
#
# Velocity S-wave (km/s) = 3.89860 5.12710 4.55446
# Velocity P-wave (km/s) = 6.23449 7.42066 6.85329
#
# Compressibility (1/GPa) = 0.02618853
#
# Stress axis : x y z
#
# Youngs Moduli (GPa) = 52.11778 73.16140 51.23807
#
# Poissons Ratio (x) = -0.02727 0.60318
# Poissons Ratio (y) = -0.01942 0.08673
# Poissons Ratio (z) = 0.61353 0.12384
#
# Static dielectric constant tensor:
#      x y z
#    x 3.413740 0.000000 -0.075050 
#    y 0.000000 3.971280 0.000000 
#    z -0.075050 0.000000 3.480080 
# 
# 
# High freq. dielectric constant tensor:
#      x y z
#    x 1.790470 0.000000 0.002200 
#    y 0.000000 1.824710 0.000000 
#    z 0.002200 0.000000 1.788490 
# 
# From -- ./inp_files/15792.got.cif
#   From: 2010.03.12/outbox.cif.g09.slc.cpg/sg4_8_cif.got.tgz:15792.got - 2010.03.31 09:31:35.
