data_PCOD8045426
_publ_section_title
;
Structure prediction by ZEFSAII (Michael W. Deem and Ramdas Pophale) SiO2 
 PCOD8045426
Probable space group: P 2
;
_chemical_formula_sum "Si O2"
_cell_formula_units_Z 10
_cell_length_a 8.923972
_cell_length_b 5.060869
_cell_length_c 9.187031
_cell_angle_alpha 90.000000
_cell_angle_beta 110.631609
_cell_angle_gamma 90.000000
_cell_volume 388.303957
_symmetry_space_group_name_H-M "P 2"
_symmetry_group_IT_number 3
_symmetry_cell_setting 'monoclinic'
loop_
_space_group_symop_operation_xyz
x,y,z
-x,y,-z
loop_
_atom_site_type_symbol
_atom_site_label
_atom_site_fract_x
_atom_site_fract_y
_atom_site_fract_z
Si Si1 0.457388 0.032840 0.820194
Si Si2 0.365979 0.700635 0.549440
Si Si3 0.949195 0.585080 0.821306
Si Si4 0.741861 0.096356 0.716751
Si Si5 0.145652 0.365936 0.637544
O O1 0.287698 0.180630 0.743093
O O2 0.439781 0.749478 0.735313
O O3 0.610270 0.163215 0.794894
O O4 0.500000 0.983042 0.000000
O O5 0.500000 0.540983 0.500000
O O6 0.334667 0.982930 0.458717
O O7 0.203781 0.544679 0.521253
O O8 0.878128 0.881220 0.808454
O O9 0.095720 0.553095 0.757234
O O10 0.816872 0.381766 0.715760
O O11 0.000000 0.496144 0.000000
O O12 0.000000 0.214081 0.500000
#
# Coordination Sequence:
#
# PCOD8045426 Si02
#       5
#     2   2   2   2   2
#     4  11  27  46  78 111 156 204 266 322 392 468
#     4  10  25  45  74 106 151 205 261 321 383 471
#     4  12  27  47  78 113 162 201 258 326 400 455
#     4  11  26  50  74 112 157 208 258 319 391 474
#     4  12  26  45  78 113 155 205 263 323 391 465
#
# _framework density 25.753022000000001
#
# number of rings (size 3 to 8) (size 9 to 14) (size 15 to 20)
#    0.000    0.800    2.000    3.000   11.200    2.400 
#    0.000    0.000    0.000    0.000    0.000    0.000 
#    0.000    0.000    0.000    0.000    0.000    0.000 
#
# Total GULP energy -123892.163541 kJ/mol
# GULP energy per Si atom -12389.216354 kJ/mol
# Density = 2.569441 g / cm^3
# Si number density = 25.753022 Si / 1000 Ang^3
#
#
#
# Elastic Constant Matrix: (Units=GPa)
#
#
# Indices 1 2 3 4 5 6 
#
# 1 187.8363 29.0309 74.1772 0.0000 -18.0624 0.0000
# 2 29.0309 32.7023 12.4644 0.0000 -8.4052 0.0000
# 3 74.1772 12.4644 198.0573 0.0000 -20.2415 0.0000
# 4 0.0000 0.0000 0.0000 25.8506 0.0000 2.7447
# 5 -18.0624 -8.4052 -20.2415 0.0000 34.1165 0.0000
# 6 0.0000 0.0000 0.0000 2.7447 0.0000 37.2579
#
#
#
# Elastic Compliance Matrix: (Units=1/GPa)
#
#
# Indices 1 2 3 4 5 6 
#
# 1 0.007111 -0.005165 -0.002218 0.000000 0.001176 0.000000
# 2 -0.005165 0.036721 0.000286 0.000000 0.006482 0.000000
# 3 -0.002218 0.000286 0.006120 0.000000 0.002527 0.000000
# 4 0.000000 0.000000 0.000000 0.038989 0.000000 -0.002872
# 5 0.001176 0.006482 0.002527 0.000000 0.033031 0.000000
# 6 0.000000 0.000000 0.000000 -0.002872 0.000000 0.027052
#
#
# Mechanical properties :
#
#
# Convention : Reuss Voigt Hill
#
# Bulk Modulus (GPa) = 27.96579 72.21566 50.09073
# Shear Modulus (GPa) = 28.54918 39.63990 34.09454
#
# Velocity S-wave (km/s) = 3.33314 3.92756 3.64250
# Velocity P-wave (km/s) = 5.06911 6.97640 6.09779
#
# Compressibility (1/GPa) = 0.03575797
#
# Stress axis : x y z
#
# Youngs Moduli (GPa) = 140.62600 27.23237 163.39817
#
# Poissons Ratio (x) = 0.14065 0.36241
# Poissons Ratio (y) = 0.72633 -0.04671
# Poissons Ratio (z) = 0.31191 -0.00779
#
# Static dielectric constant tensor:
#      x y z
#    x 5.293790 0.000000 -0.122560 
#    y 0.000000 4.171480 0.000000 
#    z -0.122560 0.000000 4.682580 
# 
# 
# High freq. dielectric constant tensor:
#      x y z
#    x 2.060060 0.000000 -0.007690 
#    y 0.000000 2.000500 0.000000 
#    z -0.007690 0.000000 2.047360 
# 
# From -- ./inp_files/4692.got.cif
#   From: 2010.03.12/outbox.cif.g09.slc.cpg/sg3_3_cif.got.tgz:4692.got - 2010.03.31 09:20:49.
