data_PCOD8045027
_publ_section_title
;
Structure prediction by ZEFSAII (Michael W. Deem and Ramdas Pophale) SiO2 
 PCOD8045027
Probable space group: P 2
;
_chemical_formula_sum "Si O2"
_cell_formula_units_Z 16
_cell_length_a 10.122190
_cell_length_b 11.764309
_cell_length_c 10.122227
_cell_angle_alpha 90.000000
_cell_angle_beta 135.505060
_cell_angle_gamma 90.000000
_cell_volume 844.772462
_symmetry_space_group_name_H-M "P 2"
_symmetry_group_IT_number 3
_symmetry_cell_setting 'monoclinic'
loop_
_space_group_symop_operation_xyz
x,y,z
-x,y,-z
loop_
_atom_site_type_symbol
_atom_site_label
_atom_site_fract_x
_atom_site_fract_y
_atom_site_fract_z
Si Si1 0.721129 0.826000 0.888829
Si Si2 0.888831 0.826000 0.721132
Si Si3 0.634018 0.359677 0.973285
Si Si4 0.585095 0.242911 0.414905
Si Si5 0.973286 0.359679 0.634018
Si Si6 0.415205 0.985237 0.584792
Si Si7 0.875546 0.612577 0.531171
Si Si8 0.468831 0.612575 0.124458
O O1 0.781229 0.813578 0.781229
O O2 0.651315 0.702468 0.880435
O O3 0.556719 0.919895 0.785398
O O4 0.895723 0.865611 0.104274
O O5 0.880438 0.702467 0.651319
O O6 0.785400 0.919894 0.556721
O O7 0.560714 0.301776 0.788098
O O8 0.644260 0.495051 0.961934
O O9 0.500000 0.327483 0.000000
O O10 0.845083 0.315803 0.154918
O O11 0.500000 0.251305 0.500000
O O12 0.788094 0.301784 0.560710
O O13 0.613271 0.113382 0.386739
O O14 0.961944 0.495053 0.644262
O O15 0.000000 0.327480 0.500000
O O16 0.500000 0.986027 0.500000
O O17 0.664835 0.587766 0.335167
O O18 0.000000 0.661814 0.500000
O O19 0.500000 0.661809 0.000000
#
# Coordination Sequence:
#
# PCOD8045027 Si02
#       8
#     2   2   2   2   2   2   2   2
#     4  10  20  36  59  85 116 154 193 237 294 356
#     4  10  20  36  59  85 116 154 193 237 294 356
#     4  11  21  40  65  88 121 166 201 242 311 372
#     4  11  24  41  63  93 122 157 213 262 293 350
#     4  11  21  40  65  88 121 166 201 242 311 372
#     4   9  20  39  59  81 117 159 197 244 300 342
#     4  11  20  35  59  87 119 153 190 238 297 358
#     4  11  20  35  59  87 119 153 190 238 297 358
#
# _framework density 18.940011999999999
#
# number of rings (size 3 to 8) (size 9 to 14) (size 15 to 20)
#    0.000    1.500    3.750    3.750    0.000    2.500 
#    0.000    3.750    0.000    0.000    0.000    0.000 
#    0.000    0.000    0.000    0.000    0.000    0.000 
#
# Total GULP energy -198438.864677 kJ/mol
# GULP energy per Si atom -12402.429042 kJ/mol
# Density = 1.889690 g / cm^3
# Si number density = 18.940012 Si / 1000 Ang^3
#
#
#
# Elastic Constant Matrix: (Units=GPa)
#
#
# Indices 1 2 3 4 5 6 
#
# 1 66.5054 37.1000 51.2417 0.0000 20.2325 0.0000
# 2 37.1000 89.6472 46.8171 0.0000 5.7866 0.0000
# 3 51.2417 46.8171 149.6970 0.0000 29.3310 0.0000
# 4 0.0000 0.0000 0.0000 25.1661 0.0000 -22.9946
# 5 20.2325 5.7866 29.3310 0.0000 30.0324 0.0000
# 6 0.0000 0.0000 0.0000 -22.9946 0.0000 63.7416
#
#
#
# Elastic Compliance Matrix: (Units=1/GPa)
#
#
# Indices 1 2 3 4 5 6 
#
# 1 0.026387 -0.007964 -0.004154 0.000000 -0.012185 0.000000
# 2 -0.007964 0.015821 -0.003309 0.000000 0.005549 0.000000
# 3 -0.004154 -0.003309 0.010467 0.000000 -0.006786 0.000000
# 4 0.000000 0.000000 0.000000 0.059274 0.000000 0.021383
# 5 -0.012185 0.005549 -0.006786 0.000000 0.047065 0.000000
# 6 0.000000 0.000000 0.000000 0.021383 0.000000 0.023402
#
#
# Mechanical properties :
#
#
# Convention : Reuss Voigt Hill
#
# Bulk Modulus (GPa) = 45.82982 64.01858 54.92420
# Shear Modulus (GPa) = 22.67144 35.16739 28.91941
#
# Velocity S-wave (km/s) = 3.46354 4.31371 3.91179
# Velocity P-wave (km/s) = 6.34387 7.66060 7.03312
#
# Compressibility (1/GPa) = 0.02181985
#
# Stress axis : x y z
#
# Youngs Moduli (GPa) = 37.89786 63.20874 95.54221
#
# Poissons Ratio (x) = 0.50340 0.39689
# Poissons Ratio (y) = 0.30182 0.31614
# Poissons Ratio (z) = 0.15743 0.20915
#
# Static dielectric constant tensor:
#      x y z
#    x 3.409720 0.000000 0.216600 
#    y 0.000000 3.527320 0.000000 
#    z 0.216600 0.000000 3.773210 
# 
# 
# High freq. dielectric constant tensor:
#      x y z
#    x 1.725740 0.000000 0.016170 
#    y 0.000000 1.726990 0.000000 
#    z 0.016170 0.000000 1.752880 
# 
# From -- ./inp_files/6080.got.cif
#   From: 2010.03.12/outbox.cif.g09.slc.cpg/sg3_4_cif.got.tgz:6080.got - 2010.03.31 09:20:49.
