data_PCOD8045273
_publ_section_title
;
Structure prediction by ZEFSAII (Michael W. Deem and Ramdas Pophale) SiO2 
 PCOD8045273
Probable space group: P 2
;
_chemical_formula_sum "Si O2"
_cell_formula_units_Z 16
_cell_length_a 27.053941
_cell_length_b 6.940446
_cell_length_c 8.778838
_cell_angle_alpha 90.000000
_cell_angle_beta 29.196959
_cell_angle_gamma 90.000000
_cell_volume 804.097320
_symmetry_space_group_name_H-M "P 2"
_symmetry_group_IT_number 3
_symmetry_cell_setting 'monoclinic'
loop_
_space_group_symop_operation_xyz
x,y,z
-x,y,-z
loop_
_atom_site_type_symbol
_atom_site_label
_atom_site_fract_x
_atom_site_fract_y
_atom_site_fract_z
Si Si1 0.096588 0.457120 0.636058
Si Si2 0.575859 0.485394 0.673131
Si Si3 0.914703 0.177828 0.604877
Si Si4 0.263287 0.184406 0.695416
Si Si5 0.233167 0.155821 0.435834
Si Si6 0.471326 0.176222 0.744294
Si Si7 0.366495 0.879770 0.615431
Si Si8 0.818373 0.868280 0.669765
O O1 0.058113 0.339877 0.592194
O O2 0.182401 0.344231 0.499056
O O3 0.147930 0.650525 0.438614
O O4 0.000000 0.503323 0.000000
O O5 0.663393 0.366647 0.523385
O O6 0.513216 0.340374 0.739248
O O7 0.623090 0.655868 0.448568
O O8 0.500000 0.578181 0.000000
O O9 0.000000 0.148818 0.500000
O O10 0.899332 0.974558 0.560837
O O11 0.814099 0.243297 0.963928
O O12 0.208462 0.144159 0.681921
O O13 0.322271 0.991317 0.587388
O O14 0.184077 0.968141 0.489497
O O15 0.352511 0.156729 0.086992
O O16 0.500000 0.246502 0.500000
O O17 0.525161 0.971342 0.632930
O O18 0.292912 0.892473 0.958529
#
# Coordination Sequence:
#
# PCOD8045273 Si02
#       8
#     2   2   2   2   2   2   2   2
#     4  11  25  42  65  94 125 160 206 258 309 369
#     4  11  23  37  60  88 125 165 207 253 304 356
#     4  10  22  43  69  88 120 161 203 251 314 363
#     4  10  22  41  60  90 124 161 207 256 300 366
#     4  11  23  41  63  90 127 162 207 253 309 363
#     4  11  23  40  61  89 124 167 210 250 304 370
#     4  10  23  38  61  88 126 166 207 255 305 360
#     4  10  23  42  62  92 125 161 205 255 309 367
#
# _framework density 19.89809
#
# number of rings (size 3 to 8) (size 9 to 14) (size 15 to 20)
#    0.000    1.500    2.500    1.500    5.250    6.000 
#    0.000    2.500    0.000    0.000    0.000    0.000 
#    0.000    0.000    0.000    0.000    0.000    0.000 
#
# Total GULP energy -198446.170757 kJ/mol
# GULP energy per Si atom -12402.885672 kJ/mol
# Density = 1.985280 g / cm^3
# Si number density = 19.898090 Si / 1000 Ang^3
#
#
#
# Elastic Constant Matrix: (Units=GPa)
#
#
# Indices 1 2 3 4 5 6 
#
# 1 121.1528 32.2437 31.1778 0.0000 -1.7281 0.0000
# 2 32.2437 111.1663 33.0938 0.0000 -8.6588 0.0000
# 3 31.1778 33.0938 71.6495 0.0000 0.7071 0.0000
# 4 0.0000 0.0000 0.0000 32.6696 0.0000 3.0919
# 5 -1.7281 -8.6588 0.7071 0.0000 36.9759 0.0000
# 6 0.0000 0.0000 0.0000 3.0919 0.0000 16.4257
#
#
#
# Elastic Compliance Matrix: (Units=1/GPa)
#
#
# Indices 1 2 3 4 5 6 
#
# 1 0.009591 -0.001776 -0.003354 0.000000 0.000097 0.000000
# 2 -0.001776 0.011002 -0.004334 0.000000 0.002576 0.000000
# 3 -0.003354 -0.004334 0.017433 0.000000 -0.001505 0.000000
# 4 0.000000 0.000000 0.000000 0.031165 0.000000 -0.005866
# 5 0.000097 0.002576 -0.001505 0.000000 0.027681 0.000000
# 6 0.000000 0.000000 0.000000 -0.005866 0.000000 0.061985
#
#
# Mechanical properties :
#
#
# Convention : Reuss Voigt Hill
#
# Bulk Modulus (GPa) = 52.36308 55.22212 53.79260
# Shear Modulus (GPa) = 27.15166 31.04444 29.09805
#
# Velocity S-wave (km/s) = 3.69797 3.95419 3.82822
# Velocity P-wave (km/s) = 6.67878 6.97568 6.82884
#
# Compressibility (1/GPa) = 0.01909743
#
# Stress axis : x y z
#
# Youngs Moduli (GPa) = 104.26178 90.89648 57.36200
#
# Poissons Ratio (x) = 0.16142 0.19241
# Poissons Ratio (y) = 0.18515 0.24861
# Poissons Ratio (z) = 0.34972 0.39396
#
# Static dielectric constant tensor:
#      x y z
#    x 3.760220 0.000000 0.086360 
#    y 0.000000 3.447050 0.000000 
#    z 0.086360 0.000000 3.707610 
# 
# 
# High freq. dielectric constant tensor:
#      x y z
#    x 1.786570 0.000000 0.006470 
#    y 0.000000 1.769520 0.000000 
#    z 0.006470 0.000000 1.785940 
# 
# From -- ./inp_files/9611.got.cif
#   From: 2010.03.12/outbox.cif.g09.slc.cpg/sg3_5_cif.got.tgz:9611.got - 2010.03.31 09:20:49.
