data_PCOD8045737
_publ_section_title
;
Structure prediction by ZEFSAII (Michael W. Deem and Ramdas Pophale) SiO2 
 PCOD8045737
Probable space group: P 21
;
_chemical_formula_sum "Si O2"
_cell_formula_units_Z 14
_cell_length_a 28.022946
_cell_length_b 5.057062
_cell_length_c 15.650170
_cell_angle_alpha 90.000000
_cell_angle_beta 162.031252
_cell_angle_gamma 90.000000
_cell_volume 684.201078
_symmetry_space_group_name_H-M "P 21"
_symmetry_group_IT_number 4
_symmetry_cell_setting 'monoclinic'
loop_
_space_group_symop_operation_xyz
x,y,z
-x,1/2+y,-z
loop_
_atom_site_type_symbol
_atom_site_label
_atom_site_fract_x
_atom_site_fract_y
_atom_site_fract_z
Si Si1 0.568306 0.140110 0.954063
Si Si2 0.990708 0.682011 0.077174
Si Si3 0.317254 0.140443 0.759281
Si Si4 0.748091 0.512111 0.536395
Si Si5 0.029161 0.657924 0.843699
Si Si6 0.835275 0.166732 0.285399
Si Si7 0.034613 0.667919 0.669522
O O1 0.394791 0.020142 0.639743
O O2 0.570730 0.429038 0.003273
O O3 0.658244 0.159155 0.016930
O O4 0.651276 0.937262 0.158378
O O5 0.892550 0.672641 0.822056
O O6 0.171411 0.735457 0.357795
O O7 0.973589 0.423284 0.105529
O O8 0.912445 0.921886 0.996866
O O9 0.140291 0.072816 0.478714
O O10 0.334691 0.143211 0.686391
O O11 0.121195 0.678147 0.910184
O O12 0.922882 0.420072 0.469466
O O13 0.832933 0.164662 0.177861
O O14 0.926498 0.920533 0.478037
#
# Coordination Sequence:
#
# PCOD8045737 Si02
#       7
#     2   2   2   2   2   2   2
#     4  12  22  37  58  86 119 148 184 238 302 342
#     4  11  25  39  57  79 111 160 205 235 277 325
#     4  11  22  35  56  85 116 149 184 237 293 347
#     4  11  25  41  57  81 117 154 203 239 275 342
#     4  11  20  38  61  83 116 150 196 241 275 345
#     4  10  19  34  57  89 119 149 179 232 299 353
#     4  10  19  34  58  87 120 146 185 234 287 354
#
# _framework density 20.461822000000002
#
# number of rings (size 3 to 8) (size 9 to 14) (size 15 to 20)
#    0.000    1.143    2.857    5.143    0.000    5.714 
#    0.000    0.000    0.000    1.714    0.000    0.000 
#    0.000    0.000    0.000    0.000    0.000    0.000 
#
# Total GULP energy -173453.999068 kJ/mol
# GULP energy per Si atom -12389.571362 kJ/mol
# Density = 2.041525 g / cm^3
# Si number density = 20.461822 Si / 1000 Ang^3
#
#
#
# Elastic Constant Matrix: (Units=GPa)
#
#
# Indices 1 2 3 4 5 6 
#
# 1 162.6781 48.7565 47.0303 0.0000 11.7813 0.0000
# 2 48.7565 127.5506 11.2885 0.0000 -3.6828 0.0000
# 3 47.0303 11.2885 59.3257 0.0000 12.0942 0.0000
# 4 0.0000 0.0000 0.0000 22.3703 0.0000 -6.4275
# 5 11.7813 -3.6828 12.0942 0.0000 26.2022 0.0000
# 6 0.0000 0.0000 0.0000 -6.4275 0.0000 28.1319
#
#
#
# Elastic Compliance Matrix: (Units=1/GPa)
#
#
# Indices 1 2 3 4 5 6 
#
# 1 0.008925 -0.002907 -0.006204 0.000000 -0.001558 0.000000
# 2 -0.002907 0.009019 0.000071 0.000000 0.002542 0.000000
# 3 -0.006204 0.000071 0.023392 0.000000 -0.007997 0.000000
# 4 0.000000 0.000000 0.000000 0.047843 0.000000 0.010931
# 5 -0.001558 0.002542 -0.007997 0.000000 0.042914 0.000000
# 6 0.000000 0.000000 0.000000 0.010931 0.000000 0.038044
#
#
# Mechanical properties :
#
#
# Convention : Reuss Voigt Hill
#
# Bulk Modulus (GPa) = 43.00629 62.63387 52.82008
# Shear Modulus (GPa) = 25.51413 31.50616 28.51014
#
# Velocity S-wave (km/s) = 3.53500 3.92823 3.73679
# Velocity P-wave (km/s) = 6.14207 7.15899 6.66994
#
# Compressibility (1/GPa) = 0.02325241
#
# Stress axis : x y z
#
# Youngs Moduli (GPa) = 112.04411 110.88226 42.75034
#
# Poissons Ratio (x) = 0.32239 0.26524
# Poissons Ratio (y) = 0.32577 -0.00302
# Poissons Ratio (z) = 0.69518 -0.00782
#
# Static dielectric constant tensor:
#      x y z
#    x 4.308670 0.000000 0.084850 
#    y 0.000000 3.778190 0.000000 
#    z 0.084850 0.000000 3.419360 
# 
# 
# High freq. dielectric constant tensor:
#      x y z
#    x 1.813380 0.000000 -0.002720 
#    y 0.000000 1.818220 0.000000 
#    z -0.002720 0.000000 1.745170 
# 
# From -- ./inp_files/14589.got.cif
#   From: 2010.03.12/outbox.cif.g09.slc.cpg/sg4_8_cif.got.tgz:14589.got - 2010.03.31 09:31:35.
