data_PCOD8045079
_publ_section_title
;
Structure prediction by ZEFSAII (Michael W. Deem and Ramdas Pophale) SiO2 
 PCOD8045079
Probable space group: P 2
;
_chemical_formula_sum "Si O2"
_cell_formula_units_Z 9
_cell_length_a 12.163848
_cell_length_b 5.084710
_cell_length_c 7.773685
_cell_angle_alpha 90.000000
_cell_angle_beta 108.757870
_cell_angle_gamma 90.000000
_cell_volume 455.262409
_symmetry_space_group_name_H-M "P 2"
_symmetry_group_IT_number 3
_symmetry_cell_setting 'monoclinic'
loop_
_space_group_symop_operation_xyz
x,y,z
-x,y,-z
loop_
_atom_site_type_symbol
_atom_site_label
_atom_site_fract_x
_atom_site_fract_y
_atom_site_fract_z
Si Si1 0.778230 0.604540 0.496592
Si Si2 0.600721 0.049767 0.914965
Si Si3 0.600322 0.550722 0.687960
Si Si4 0.222301 0.124382 0.714097
Si Si5 0.000000 0.361167 0.500000
O O1 0.724702 0.596449 0.659704
O O2 0.718270 0.379333 0.346559
O O3 0.917148 0.544438 0.578020
O O4 0.751825 0.882273 0.397736
O O5 0.593779 0.256844 0.757209
O O6 0.587041 0.757266 0.835300
O O7 0.500000 0.106065 0.000000
O O8 0.725084 0.076397 0.071729
O O9 0.500000 0.598429 0.500000
O O10 0.083092 0.177629 0.661299
#
# Coordination Sequence:
#
# PCOD8045079 Si02
#       5
#     2   2   2   2   1
#     4  10  20  39  64  88 119 163 205 241 299 362
#     4  12  24  40  63  94 125 159 200 253 308 362
#     4  12  24  40  63  94 125 159 200 253 308 362
#     4  10  20  39  64  88 119 163 205 241 299 362
#     4   8  22  36  72  80 122 168 204 238 302 364
#
# _framework density 19.768818
#
# number of rings (size 3 to 8) (size 9 to 14) (size 15 to 20)
#    1.333    0.000    0.000    7.333    0.000    0.000 
#    0.000    1.111    0.000    0.000    0.000    0.000 
#    0.000    0.000    0.000    0.000    0.000    0.000 
#
# Total GULP energy -111570.642151 kJ/mol
# GULP energy per Si atom -12396.738017 kJ/mol
# Density = 1.972382 g / cm^3
# Si number density = 19.768818 Si / 1000 Ang^3
#
#
#
# Elastic Constant Matrix: (Units=GPa)
#
#
# Indices 1 2 3 4 5 6 
#
# 1 119.5170 10.6027 38.9804 0.0000 -3.8291 0.0000
# 2 10.6027 91.7706 8.4287 0.0000 -5.6696 0.0000
# 3 38.9804 8.4287 83.1706 0.0000 11.6824 0.0000
# 4 0.0000 0.0000 0.0000 44.5084 0.0000 -8.4940
# 5 -3.8291 -5.6696 11.6824 0.0000 38.7723 0.0000
# 6 0.0000 0.0000 0.0000 -8.4940 0.0000 21.2568
#
#
#
# Elastic Compliance Matrix: (Units=1/GPa)
#
#
# Indices 1 2 3 4 5 6 
#
# 1 0.010137 -0.000558 -0.005037 0.000000 0.002437 0.000000
# 2 -0.000558 0.011185 -0.001142 0.000000 0.001925 0.000000
# 3 -0.005037 -0.001142 0.015238 0.000000 -0.005256 0.000000
# 4 0.000000 0.000000 0.000000 0.024322 0.000000 0.009719
# 5 0.002437 0.001925 -0.005256 0.000000 0.027897 0.000000
# 6 0.000000 0.000000 0.000000 0.009719 0.000000 0.050927
#
#
# Mechanical properties :
#
#
# Convention : Reuss Voigt Hill
#
# Bulk Modulus (GPa) = 43.31631 45.60909 44.46270
# Shear Modulus (GPa) = 31.07948 36.67059 33.87504
#
# Velocity S-wave (km/s) = 3.96933 4.31161 4.14401
# Velocity P-wave (km/s) = 6.55488 6.92156 6.74071
#
# Compressibility (1/GPa) = 0.02308599
#
# Stress axis : x y z
#
# Youngs Moduli (GPa) = 98.64449 89.40525 65.62434
#
# Poissons Ratio (x) = 0.04989 0.33055
# Poissons Ratio (y) = 0.05505 0.07496
# Poissons Ratio (z) = 0.49687 0.10213
#
# Static dielectric constant tensor:
#      x y z
#    x 3.615240 0.000000 0.102960 
#    y 0.000000 3.654730 0.000000 
#    z 0.102960 0.000000 3.408670 
# 
# 
# High freq. dielectric constant tensor:
#      x y z
#    x 1.769130 0.000000 0.005330 
#    y 0.000000 1.790130 0.000000 
#    z 0.005330 0.000000 1.747640 
# 
# From -- ./inp_files/1798.got.cif
#   From: 2010.03.12/outbox.cif.g09.slc.cpg/sg3_1_cif.got.tgz:1798.got - 2010.03.31 09:20:49.
