data_PCOD8045271
_publ_section_title
;
Structure prediction by ZEFSAII (Michael W. Deem and Ramdas Pophale) SiO2 
 PCOD8045271
Probable space group: P 2
;
_chemical_formula_sum "Si O2"
_cell_formula_units_Z 15
_cell_length_a 25.022441
_cell_length_b 5.292039
_cell_length_c 15.732510
_cell_angle_alpha 90.000000
_cell_angle_beta 162.186986
_cell_angle_gamma 90.000000
_cell_volume 637.303959
_symmetry_space_group_name_H-M "P 2"
_symmetry_group_IT_number 3
_symmetry_cell_setting 'monoclinic'
loop_
_space_group_symop_operation_xyz
x,y,z
-x,y,-z
loop_
_atom_site_type_symbol
_atom_site_label
_atom_site_fract_x
_atom_site_fract_y
_atom_site_fract_z
Si Si1 0.752265 0.814640 0.226807
Si Si2 0.500000 0.701206 0.500000
Si Si3 0.342874 0.784133 0.600671
Si Si4 0.242712 0.310360 0.864427
Si Si5 0.347967 0.287630 0.509226
Si Si6 0.764904 0.022605 0.821897
Si Si7 0.178304 0.383058 0.953475
Si Si8 0.081926 0.732177 0.350803
O O1 0.807563 0.543698 0.272495
O O2 0.849604 0.878640 0.462329
O O3 0.813951 0.042669 0.260274
O O4 0.545841 0.802404 0.930188
O O5 0.590862 0.851243 0.559010
O O6 0.649987 0.553404 0.776672
O O7 0.292357 0.564511 0.456931
O O8 0.249109 0.691460 0.544544
O O9 0.286046 0.058622 0.477904
O O10 0.134918 0.349104 0.788436
O O11 0.446338 0.290326 0.192939
O O12 0.254228 0.243732 0.276534
O O13 0.772443 0.117380 0.930670
O O14 0.946308 0.876719 0.083846
O O15 0.010780 0.480764 0.753269
#
# Coordination Sequence:
#
# PCOD8045271 Si02
#       8
#     2   1   2   2   2   2   2   2
#     4  10  24  46  73 100 134 186 237 291 334 417
#     4  10  22  40  70  98 134 190 228 280 342 426
#     4  10  24  46  73 100 134 186 237 291 334 417
#     4  10  23  43  73 100 131 177 237 286 344 406
#     4  10  23  43  73 100 131 177 237 286 344 406
#     4  11  25  42  67 101 141 183 225 290 348 429
#     4  11  25  42  67 101 141 183 225 290 348 429
#     4  11  27  45  65 104 142 184 235 283 369 405
#
# _framework density 23.536648
#
# number of rings (size 3 to 8) (size 9 to 14) (size 15 to 20)
#    0.000    1.600    0.000    2.400   16.800    1.067 
#    0.000    4.000    0.000    0.000    0.000    0.000 
#    0.000    0.000    0.000    0.000    0.000    0.000 
#
# Total GULP energy -185938.588144 kJ/mol
# GULP energy per Si atom -12395.905876 kJ/mol
# Density = 2.348308 g / cm^3
# Si number density = 23.536648 Si / 1000 Ang^3
#
#
#
# Elastic Constant Matrix: (Units=GPa)
#
#
# Indices 1 2 3 4 5 6 
#
# 1 112.8249 22.3251 32.1481 0.0000 9.3174 0.0000
# 2 22.3251 112.7436 18.6393 0.0000 8.0850 0.0000
# 3 32.1481 18.6393 69.5940 0.0000 4.1540 0.0000
# 4 0.0000 0.0000 0.0000 5.7246 0.0000 -15.0763
# 5 9.3174 8.0850 4.1540 0.0000 32.9900 0.0000
# 6 0.0000 0.0000 0.0000 -15.0763 0.0000 32.5839
#
#
#
# Elastic Compliance Matrix: (Units=1/GPa)
#
#
# Indices 1 2 3 4 5 6 
#
# 1 0.010536 -0.001204 -0.004418 0.000000 -0.002124 0.000000
# 2 -0.001204 0.009548 -0.001896 0.000000 -0.001761 0.000000
# 3 -0.004418 -0.001896 0.016943 0.000000 -0.000421 0.000000
# 4 0.000000 0.000000 0.000000 -0.799268 0.000000 -0.369816
# 5 -0.002124 -0.001761 -0.000421 0.000000 0.031397 0.000000
# 6 0.000000 0.000000 0.000000 -0.369816 0.000000 -0.140421
#
#
# Mechanical properties :
#
#
# Convention : Reuss Voigt Hill
#
# Bulk Modulus (GPa) = 45.47206 49.04308 47.25757
# Shear Modulus (GPa) = -5.88997 29.06302 11.58653
#
# Velocity S-wave (km/s) = -1.58364 3.51778 2.22114
# Velocity P-wave (km/s) = 4.00222 6.11407 5.16719
#
# Compressibility (1/GPa) = 0.02199153
#
# Stress axis : x y z
#
# Youngs Moduli (GPa) = 94.91595 104.73642 59.02245
#
# Poissons Ratio (x) = 0.12605 0.26074
# Poissons Ratio (y) = 0.11424 0.11191
# Poissons Ratio (z) = 0.41931 0.19859
#
# Static dielectric constant tensor:
#      x y z
#    x 4.090300 0.000000 0.042590 
#    y 0.000000 4.328120 0.000000 
#    z 0.042590 0.000000 4.262370 
# 
# 
# High freq. dielectric constant tensor:
#      x y z
#    x 1.925730 0.000000 -0.000800 
#    y 0.000000 1.932870 0.000000 
#    z -0.000800 0.000000 1.942150 
# 
# From -- ./inp_files/14431.got.cif
#   From: 2010.03.12/outbox.cif.g09.slc.cpg/sg3_8_cif.got.tgz:14431.got - 2010.03.31 09:20:49.
