data_PCOD8045482
_publ_section_title
;
Structure prediction by ZEFSAII (Michael W. Deem and Ramdas Pophale) SiO2 
 PCOD8045482
Probable space group: P 2
;
_chemical_formula_sum "Si O2"
_cell_formula_units_Z 12
_cell_length_a 11.543484
_cell_length_b 11.094541
_cell_length_c 10.652314
_cell_angle_alpha 90.000000
_cell_angle_beta 154.558854
_cell_angle_gamma 90.000000
_cell_volume 586.054543
_symmetry_space_group_name_H-M "P 2"
_symmetry_group_IT_number 3
_symmetry_cell_setting 'monoclinic'
loop_
_space_group_symop_operation_xyz
x,y,z
-x,y,-z
loop_
_atom_site_type_symbol
_atom_site_label
_atom_site_fract_x
_atom_site_fract_y
_atom_site_fract_z
Si Si1 0.873586 0.313940 0.137637
Si Si2 0.233201 0.081989 0.821743
Si Si3 0.500000 0.572410 0.500000
Si Si4 0.920177 0.820398 0.278648
Si Si5 0.378869 0.437617 0.744472
Si Si6 0.000000 0.398911 0.000000
Si Si7 0.415620 0.689773 0.677648
O O1 0.748983 0.185658 0.056025
O O2 0.114829 0.355428 0.466213
O O3 0.976261 0.309862 0.095414
O O4 0.624052 0.407233 0.890335
O O5 0.000000 0.119773 0.500000
O O6 0.166693 0.958396 0.829286
O O7 0.500000 0.068049 0.000000
O O8 0.245614 0.487244 0.263991
O O9 0.508480 0.660186 0.628037
O O10 0.000000 0.799007 0.500000
O O11 0.177515 0.789244 0.443189
O O12 0.672273 0.735020 0.004951
O O13 0.296385 0.574837 0.636403
O O14 0.500000 0.412239 0.000000
#
# Coordination Sequence:
#
# PCOD8045482 Si02
#       7
#     2   2   1   2   2   1   2
#     4  12  23  40  63  93 125 167 212 252 314 372
#     4  11  23  42  66  92 127 166 206 257 318 373
#     4  12  24  44  62  88 128 176 206 252 312 372
#     4  11  23  41  65  93 126 165 206 259 317 373
#     4  12  23  37  61  95 129 157 203 269 318 372
#     4  12  22  44  62  88 130 172 208 250 312 374
#     4  12  23  41  63  92 126 167 213 250 314 375
#
# _framework density 20.475909000000001
#
# number of rings (size 3 to 8) (size 9 to 14) (size 15 to 20)
#    0.000    0.333    3.333    8.500    0.000    0.000 
#    0.000    1.667    0.000    0.000    0.000    0.000 
#    0.000    0.000    0.000    0.000    0.000    0.000 
#
# Total GULP energy -148852.013163 kJ/mol
# GULP energy per Si atom -12404.334430 kJ/mol
# Density = 2.042931 g / cm^3
# Si number density = 20.475909 Si / 1000 Ang^3
#
#
#
# Elastic Constant Matrix: (Units=GPa)
#
#
# Indices 1 2 3 4 5 6 
#
# 1 94.0002 64.9391 20.4797 0.0000 9.9863 0.0000
# 2 64.9391 115.2426 41.3727 0.0000 0.1207 0.0000
# 3 20.4797 41.3727 117.4369 0.0000 18.2093 0.0000
# 4 0.0000 0.0000 0.0000 28.3119 0.0000 9.4717
# 5 9.9863 0.1207 18.2093 0.0000 33.8904 0.0000
# 6 0.0000 0.0000 0.0000 9.4717 0.0000 40.6756
#
#
#
# Elastic Compliance Matrix: (Units=1/GPa)
#
#
# Indices 1 2 3 4 5 6 
#
# 1 0.018591 -0.011055 0.001632 0.000000 -0.006316 0.000000
# 2 -0.011055 0.016635 -0.004831 0.000000 0.005794 0.000000
# 3 0.001632 -0.004831 0.010914 0.000000 -0.006328 0.000000
# 4 0.000000 0.000000 0.000000 0.038305 0.000000 -0.008920
# 5 -0.006316 0.005794 -0.006328 0.000000 0.034747 0.000000
# 6 0.000000 0.000000 0.000000 -0.008920 0.000000 0.026662
#
#
# Mechanical properties :
#
#
# Convention : Reuss Voigt Hill
#
# Bulk Modulus (GPa) = 56.71735 64.47362 60.59549
# Shear Modulus (GPa) = 27.74078 33.90146 30.82112
#
# Velocity S-wave (km/s) = 3.68476 4.07341 3.88395
# Velocity P-wave (km/s) = 6.77222 7.32663 7.05487
#
# Compressibility (1/GPa) = 0.01763129
#
# Stress axis : x y z
#
# Youngs Moduli (GPa) = 53.78898 60.11299 91.62777
#
# Poissons Ratio (x) = 0.66457 -0.14953
# Poissons Ratio (y) = 0.59466 0.44266
# Poissons Ratio (z) = -0.08778 0.29041
#
# Static dielectric constant tensor:
#      x y z
#    x 3.787830 0.000000 0.116660 
#    y 0.000000 3.686690 0.000000 
#    z 0.116660 0.000000 3.823260 
# 
# 
# High freq. dielectric constant tensor:
#      x y z
#    x 1.795420 0.000000 0.010890 
#    y 0.000000 1.794810 0.000000 
#    z 0.010890 0.000000 1.821210 
# 
# From -- ./inp_files/11828.got.cif
#   From: 2010.03.12/outbox.cif.g09.slc.cpg/sg3_6_cif.got.tgz:11828.got - 2010.03.31 09:20:49.
