data_PCOD8045543
_publ_section_title
;
Structure prediction by ZEFSAII (Michael W. Deem and Ramdas Pophale) SiO2 
 PCOD8045543
Probable space group: P 2
;
_chemical_formula_sum "Si O2"
_cell_formula_units_Z 13
_cell_length_a 8.295610
_cell_length_b 4.927775
_cell_length_c 13.980242
_cell_angle_alpha 90.000000
_cell_angle_beta 111.952290
_cell_angle_gamma 90.000000
_cell_volume 530.060792
_symmetry_space_group_name_H-M "P 2"
_symmetry_group_IT_number 3
_symmetry_cell_setting 'monoclinic'
loop_
_space_group_symop_operation_xyz
x,y,z
-x,y,-z
loop_
_atom_site_type_symbol
_atom_site_label
_atom_site_fract_x
_atom_site_fract_y
_atom_site_fract_z
Si Si1 0.271828 0.098090 0.302946
Si Si2 0.157791 0.845486 0.726650
Si Si3 0.696080 0.608668 0.565321
Si Si4 0.069575 0.344001 0.822713
Si Si5 0.000000 0.691288 0.500000
Si Si6 0.647513 0.363526 0.961465
Si Si7 0.451785 0.843619 0.172639
O O1 0.343828 0.349779 0.378378
O O2 0.417368 0.966171 0.269117
O O3 0.117006 0.205012 0.200348
O O4 0.207519 0.862783 0.361195
O O5 0.045397 0.636758 0.767183
O O6 0.091630 0.867312 0.602994
O O7 0.166227 0.150588 0.768206
O O8 0.352794 0.735205 0.779418
O O9 0.500000 0.713528 0.500000
O O10 0.834852 0.526272 0.511458
O O11 0.166779 0.356008 0.945192
O O12 0.500000 0.480930 0.000000
O O13 0.589281 0.065703 0.916994
O O14 0.663028 0.575546 0.876575
#
# Coordination Sequence:
#
# PCOD8045543 Si02
#       7
#     2   2   2   2   1   2   2
#     4  12  26  50  68 107 158 193 245 318 391 443
#     4  12  24  43  71 107 144 189 253 307 378 443
#     4  12  27  48  75 109 151 202 259 319 376 464
#     4  12  24  45  71 103 151 191 234 323 367 446
#     4  12  26  46  78 108 142 202 254 306 386 452
#     4  12  23  43  76 109 143 188 261 302 381 445
#     4  12  25  44  75 108 145 200 243 315 378 461
#
# _framework density 24.525492
#
# number of rings (size 3 to 8) (size 9 to 14) (size 15 to 20)
#    0.000    0.000    6.154    3.692    0.000    4.308 
#    0.000    1.538    0.000    0.000    0.000    0.000 
#    0.000    0.000    0.000    0.000    0.000    0.000 
#
# Total GULP energy -161168.217446 kJ/mol
# GULP energy per Si atom -12397.555188 kJ/mol
# Density = 2.446967 g / cm^3
# Si number density = 24.525492 Si / 1000 Ang^3
#
#
#
# Elastic Constant Matrix: (Units=GPa)
#
#
# Indices 1 2 3 4 5 6 
#
# 1 84.1650 8.4492 8.9590 0.0000 11.4762 0.0000
# 2 8.4492 119.0756 38.7224 0.0000 9.9702 0.0000
# 3 8.9590 38.7224 121.1793 0.0000 18.5524 0.0000
# 4 0.0000 0.0000 0.0000 42.7633 0.0000 -0.9766
# 5 11.4762 9.9702 18.5524 0.0000 34.1793 0.0000
# 6 0.0000 0.0000 0.0000 -0.9766 0.0000 35.0035
#
#
#
# Elastic Compliance Matrix: (Units=1/GPa)
#
#
# Indices 1 2 3 4 5 6 
#
# 1 0.012489 -0.000504 -0.000156 0.000000 -0.003962 0.000000
# 2 -0.000504 0.009438 -0.002817 0.000000 -0.001055 0.000000
# 3 -0.000156 -0.002817 0.009849 0.000000 -0.004472 0.000000
# 4 0.000000 0.000000 0.000000 0.023399 0.000000 0.000653
# 5 -0.003962 -0.001055 -0.004472 0.000000 0.033323 0.000000
# 6 0.000000 0.000000 0.000000 0.000653 0.000000 0.028587
#
#
# Mechanical properties :
#
#
# Convention : Reuss Voigt Hill
#
# Bulk Modulus (GPa) = 40.28684 48.52014 44.40349
# Shear Modulus (GPa) = 37.78948 40.27519 39.03233
#
# Velocity S-wave (km/s) = 3.92959 4.05677 3.99369
# Velocity P-wave (km/s) = 6.08696 6.46295 6.27777
#
# Compressibility (1/GPa) = 0.02482200
#
# Stress axis : x y z
#
# Youngs Moduli (GPa) = 80.07192 105.95209 101.53731
#
# Poissons Ratio (x) = 0.05338 0.01582
# Poissons Ratio (y) = 0.04034 0.28605
# Poissons Ratio (z) = 0.01247 0.29849
#
# Static dielectric constant tensor:
#      x y z
#    x 4.320960 0.000000 0.118120 
#    y 0.000000 4.238500 0.000000 
#    z 0.118120 0.000000 4.464270 
# 
# 
# High freq. dielectric constant tensor:
#      x y z
#    x 1.975230 0.000000 0.016080 
#    y 0.000000 1.975300 0.000000 
#    z 0.016080 0.000000 1.984310 
# 
# From -- ./inp_files/13257.got.cif
#   From: 2010.03.12/outbox.cif.g09.slc.cpg/sg3_7_cif.got.tgz:13257.got - 2010.03.31 09:20:49.
