data_PCOD8045311
_publ_section_title
;
Structure prediction by ZEFSAII (Michael W. Deem and Ramdas Pophale) SiO2 
 PCOD8045311
Probable space group: P 2
;
_chemical_formula_sum "Si O2"
_cell_formula_units_Z 11
_cell_length_a 17.934918
_cell_length_b 5.065750
_cell_length_c 7.627444
_cell_angle_alpha 90.000000
_cell_angle_beta 38.617509
_cell_angle_gamma 90.000000
_cell_volume 432.503033
_symmetry_space_group_name_H-M "P 2"
_symmetry_group_IT_number 3
_symmetry_cell_setting 'monoclinic'
loop_
_space_group_symop_operation_xyz
x,y,z
-x,y,-z
loop_
_atom_site_type_symbol
_atom_site_label
_atom_site_fract_x
_atom_site_fract_y
_atom_site_fract_z
Si Si1 0.405549 0.402430 0.316990
Si Si2 0.243289 0.759733 0.990839
Si Si3 0.745824 0.912803 0.395593
Si Si4 0.500000 0.564696 0.500000
Si Si5 0.076629 0.880337 0.628445
Si Si6 0.056934 0.398121 0.216358
O O1 0.299725 0.615170 0.500311
O O2 0.467558 0.386470 0.393135
O O3 0.355316 0.117113 0.359021
O O4 0.500000 0.490057 0.000000
O O5 0.222403 0.967756 0.868339
O O6 0.385124 0.741677 0.766891
O O7 0.196439 0.474381 0.996765
O O8 0.174191 0.862127 0.290832
O O9 0.859889 0.963485 0.308362
O O10 0.976106 0.099969 0.770775
O O11 0.004960 0.610268 0.801536
O O12 0.000000 0.490479 0.500000
#
# Coordination Sequence:
#
# PCOD8045311 Si02
#       6
#     2   2   2   1   2   2
#     4  11  24  43  65  98 137 179 230 274 329 409
#     4  10  24  46  69 103 138 174 234 277 332 412
#     4  11  25  42  68 101 133 176 227 279 340 401
#     4  10  24  44  72 100 138 186 218 284 344 386
#     4  11  23  44  70  96 134 179 216 279 342 388
#     4  10  22  42  69  97 132 176 222 273 334 400
#
# _framework density 25.433347999999999
#
# number of rings (size 3 to 8) (size 9 to 14) (size 15 to 20)
#    0.000    1.455    0.000    4.364    0.000   16.727 
#    0.000    5.455    0.000    0.000    0.000    0.000 
#    0.000    0.000    0.000    0.000    0.000    0.000 
#
# Total GULP energy -136297.107306 kJ/mol
# GULP energy per Si atom -12390.646119 kJ/mol
# Density = 2.537546 g / cm^3
# Si number density = 25.433348 Si / 1000 Ang^3
#
#
#
# Elastic Constant Matrix: (Units=GPa)
#
#
# Indices 1 2 3 4 5 6 
#
# 1 137.2107 23.7236 26.4475 0.0000 -22.9473 0.0000
# 2 23.7236 106.4049 34.0163 0.0000 -10.5627 0.0000
# 3 26.4475 34.0163 81.1318 0.0000 -20.2254 0.0000
# 4 0.0000 0.0000 0.0000 28.3347 0.0000 -9.5410
# 5 -22.9473 -10.5627 -20.2254 0.0000 48.3865 0.0000
# 6 0.0000 0.0000 0.0000 -9.5410 0.0000 30.1876
#
#
#
# Elastic Compliance Matrix: (Units=1/GPa)
#
#
# Indices 1 2 3 4 5 6 
#
# 1 0.008272 -0.001065 -0.001485 0.000000 0.003070 0.000000
# 2 -0.001065 0.011002 -0.004234 0.000000 0.000127 0.000000
# 3 -0.001485 -0.004234 0.015828 0.000000 0.004988 0.000000
# 4 0.000000 0.000000 0.000000 0.039496 0.000000 0.012483
# 5 0.003070 0.000127 0.004988 0.000000 0.024235 0.000000
# 6 0.000000 0.000000 0.000000 0.012483 0.000000 0.037072
#
#
# Mechanical properties :
#
#
# Convention : Reuss Voigt Hill
#
# Bulk Modulus (GPa) = 46.43692 54.79136 50.61414
# Shear Modulus (GPa) = 31.91845 37.41909 34.66877
#
# Velocity S-wave (km/s) = 3.54642 3.83986 3.69605
# Velocity P-wave (km/s) = 5.92177 6.42256 6.17724
#
# Compressibility (1/GPa) = 0.02153459
#
# Stress axis : x y z
#
# Youngs Moduli (GPa) = 120.89335 90.89592 63.17855
#
# Poissons Ratio (x) = 0.09679 0.09380
# Poissons Ratio (y) = 0.12873 0.26749
# Poissons Ratio (z) = 0.17949 0.38484
#
# Static dielectric constant tensor:
#      x y z
#    x 4.785200 0.000000 0.086030 
#    y 0.000000 4.154650 0.000000 
#    z 0.086030 0.000000 5.017270 
# 
# 
# High freq. dielectric constant tensor:
#      x y z
#    x 2.021150 0.000000 -0.002870 
#    y 0.000000 2.002180 0.000000 
#    z -0.002870 0.000000 2.039760 
# 
# From -- ./inp_files/8680.got.cif
#   From: 2010.03.12/outbox.cif.g09.slc.cpg/sg3_5_cif.got.tgz:8680.got - 2010.03.31 09:20:49.
