data_PCOD8045166
_publ_section_title
;
Structure prediction by ZEFSAII (Michael W. Deem and Ramdas Pophale) SiO2 
 PCOD8045166
Probable space group: P 2
;
_chemical_formula_sum "Si O2"
_cell_formula_units_Z 15
_cell_length_a 8.138714
_cell_length_b 16.359999
_cell_length_c 8.691178
_cell_angle_alpha 90.000000
_cell_angle_beta 144.069382
_cell_angle_gamma 90.000000
_cell_volume 679.065426
_symmetry_space_group_name_H-M "P 2"
_symmetry_group_IT_number 3
_symmetry_cell_setting 'monoclinic'
loop_
_space_group_symop_operation_xyz
x,y,z
-x,y,-z
loop_
_atom_site_type_symbol
_atom_site_label
_atom_site_fract_x
_atom_site_fract_y
_atom_site_fract_z
Si Si1 0.992402 0.029720 0.312329
Si Si2 0.888760 0.702074 0.086556
Si Si3 0.232734 0.160915 0.079429
Si Si4 0.317160 0.457168 0.708210
Si Si5 0.188924 0.858647 0.795165
Si Si6 0.388718 0.614704 0.586323
Si Si7 0.500000 0.040923 0.500000
Si Si8 0.679977 0.274015 0.289033
O O1 0.000000 0.046025 0.500000
O O2 0.294454 0.998550 0.470416
O O3 0.797241 0.951341 0.128206
O O4 0.870458 0.116099 0.155204
O O5 0.927180 0.796026 0.165864
O O6 0.067323 0.645870 0.341153
O O7 0.567648 0.670369 0.841434
O O8 0.000000 0.692926 0.000000
O O9 0.276141 0.090055 0.233925
O O10 0.521905 0.211110 0.281653
O O11 0.000000 0.214732 0.000000
O O12 0.425294 0.520345 0.663050
O O13 0.327404 0.365243 0.645741
O O14 0.000000 0.481459 0.500000
O O15 0.500000 0.463562 0.000000
O O16 0.000000 0.856306 0.500000
O O17 0.500000 0.828140 0.000000
O O18 0.500000 0.624086 0.500000
O O19 0.000000 0.246538 0.500000
O O20 0.500000 0.273795 0.000000
#
# Coordination Sequence:
#
# PCOD8045166 Si02
#       8
#     2   2   2   2   2   2   1   2
#     4  10  25  44  67  96 132 175 224 280 333 401
#     4  10  22  40  62  91 128 165 210 258 321 387
#     4  10  24  43  64  96 130 170 226 273 334 404
#     4  10  21  40  61  92 125 163 214 264 321 386
#     4  11  25  43  63  96 129 164 218 265 323 389
#     4  10  21  39  62  92 124 168 210 256 322 389
#     4  10  24  42  64  96 126 168 228 266 338 396
#     4  10  24  41  65  95 129 171 219 271 334 398
#
# _framework density 22.089181
#
# number of rings (size 3 to 8) (size 9 to 14) (size 15 to 20)
#    0.000    1.867    0.000    1.600    9.333    4.800 
#    4.800    2.000    0.000    0.000    0.000    0.000 
#    0.000    0.000    0.000    0.000    0.000    0.000 
#
# Total GULP energy -185832.205607 kJ/mol
# GULP energy per Si atom -12388.813707 kJ/mol
# Density = 2.203891 g / cm^3
# Si number density = 22.089181 Si / 1000 Ang^3
#
#
#
# Elastic Constant Matrix: (Units=GPa)
#
#
# Indices 1 2 3 4 5 6 
#
# 1 89.7457 43.4670 44.8214 0.0000 11.7299 0.0000
# 2 43.4670 118.4435 39.0339 0.0000 1.8290 0.0000
# 3 44.8214 39.0339 140.3033 0.0000 18.2742 0.0000
# 4 0.0000 0.0000 0.0000 39.8939 0.0000 16.2126
# 5 11.7299 1.8290 18.2742 0.0000 31.6247 0.0000
# 6 0.0000 0.0000 0.0000 16.2126 0.0000 17.0250
#
#
#
# Elastic Compliance Matrix: (Units=1/GPa)
#
#
# Indices 1 2 3 4 5 6 
#
# 1 0.015409 -0.004549 -0.003187 0.000000 -0.003611 0.000000
# 2 -0.004549 0.010669 -0.001789 0.000000 0.002104 0.000000
# 3 -0.003187 -0.001789 0.009166 0.000000 -0.004011 0.000000
# 4 0.000000 0.000000 0.000000 0.040891 0.000000 -0.038940
# 5 -0.003611 0.002104 -0.004011 0.000000 0.035156 0.000000
# 6 0.000000 0.000000 0.000000 -0.038940 0.000000 0.095819
#
#
# Mechanical properties :
#
#
# Convention : Reuss Voigt Hill
#
# Bulk Modulus (GPa) = 61.74948 67.01525 64.38236
# Shear Modulus (GPa) = 21.59279 32.45340 27.02310
#
# Velocity S-wave (km/s) = 3.12994 3.83717 3.50146
# Velocity P-wave (km/s) = 6.40916 7.07363 6.74957
#
# Compressibility (1/GPa) = 0.01619447
#
# Stress axis : x y z
#
# Youngs Moduli (GPa) = 64.89564 93.72600 109.10312
#
# Poissons Ratio (x) = 0.42636 0.34769
# Poissons Ratio (y) = 0.29521 0.19520
# Poissons Ratio (z) = 0.20681 0.16769
#
# Static dielectric constant tensor:
#      x y z
#    x 4.266570 0.000000 0.104340 
#    y 0.000000 4.007340 0.000000 
#    z 0.104340 0.000000 4.223700 
# 
# 
# High freq. dielectric constant tensor:
#      x y z
#    x 1.863320 0.000000 0.008740 
#    y 0.000000 1.858070 0.000000 
#    z 0.008740 0.000000 1.887540 
# 
# From -- ./inp_files/6272.got.cif
#   From: 2010.03.12/outbox.cif.g09.slc.cpg/sg3_4_cif.got.tgz:6272.got - 2010.03.31 09:20:49.
