data_PCOD8045150
_publ_section_title
;
Structure prediction by ZEFSAII (Michael W. Deem and Ramdas Pophale) SiO2 
 PCOD8045150
Probable space group: P 2
;
_chemical_formula_sum "Si O2"
_cell_formula_units_Z 16
_cell_length_a 8.839305
_cell_length_b 9.083511
_cell_length_c 20.396791
_cell_angle_alpha 90.000000
_cell_angle_beta 150.084936
_cell_angle_gamma 90.000000
_cell_volume 816.745412
_symmetry_space_group_name_H-M "P 2"
_symmetry_group_IT_number 3
_symmetry_cell_setting 'monoclinic'
loop_
_space_group_symop_operation_xyz
x,y,z
-x,y,-z
loop_
_atom_site_type_symbol
_atom_site_label
_atom_site_fract_x
_atom_site_fract_y
_atom_site_fract_z
Si Si1 0.680897 0.464940 0.754147
Si Si2 0.297215 0.623786 0.715451
Si Si3 0.177497 0.653862 0.000467
Si Si4 0.333230 0.958225 0.006316
Si Si5 0.608830 0.626979 0.468232
Si Si6 0.289799 0.117749 0.231056
Si Si7 0.690548 0.964928 0.272932
Si Si8 0.614601 0.963638 0.469497
O O1 0.416905 0.528719 0.700416
O O2 0.606260 0.519638 0.653481
O O3 0.690215 0.291757 0.761390
O O4 0.008676 0.524190 0.899124
O O5 0.330253 0.796439 0.711298
O O6 0.954998 0.573472 0.597023
O O7 0.491172 0.592533 0.854444
O O8 0.200444 0.793179 0.960960
O O9 0.000000 0.702637 0.000000
O O10 0.569975 0.985820 0.153828
O O11 0.500000 0.980703 0.000000
O O12 0.057992 0.072112 0.909785
O O13 0.500000 0.612527 0.500000
O O14 0.582139 0.794937 0.433657
O O15 0.495332 0.061473 0.248936
O O16 0.407384 0.060575 0.344733
O O17 0.038381 0.017619 0.405315
O O18 0.500000 0.984861 0.500000
#
# Coordination Sequence:
#
# PCOD8045150 Si02
#       8
#     2   2   2   2   2   2   2   2
#     4  11  23  37  57  85 118 154 189 231 285 345
#     4   9  19  37  60  85 110 144 195 245 284 329
#     4   9  19  38  62  87 111 144 194 245 287 335
#     4  11  22  39  63  89 115 148 192 245 294 339
#     4  10  21  38  60  85 113 148 193 241 288 336
#     4  12  24  38  57  86 122 158 193 231 285 353
#     4  10  21  38  62  88 113 150 199 246 287 335
#     4  10  21  39  63  89 116 150 195 246 292 338
#
# _framework density 19.589950000000002
#
# number of rings (size 3 to 8) (size 9 to 14) (size 15 to 20)
#    0.000    1.750    0.000    5.625    0.000   11.500 
#    0.000    3.125    0.000    0.000    0.000    0.000 
#    0.000    0.000    0.000    0.000    0.000    0.000 
#
# Total GULP energy -198447.236502 kJ/mol
# GULP energy per Si atom -12402.952281 kJ/mol
# Density = 1.954536 g / cm^3
# Si number density = 19.589950 Si / 1000 Ang^3
#
#
#
# Elastic Constant Matrix: (Units=GPa)
#
#
# Indices 1 2 3 4 5 6 
#
# 1 75.6606 36.8889 20.9618 0.0000 -0.9139 0.0000
# 2 36.8889 102.8252 42.9596 0.0000 -4.2269 0.0000
# 3 20.9618 42.9596 92.4168 0.0000 -7.7978 0.0000
# 4 0.0000 0.0000 0.0000 11.6290 0.0000 -2.3169
# 5 -0.9139 -4.2269 -7.7978 0.0000 25.7575 0.0000
# 6 0.0000 0.0000 0.0000 -2.3169 0.0000 3.3090
#
#
#
# Elastic Compliance Matrix: (Units=1/GPa)
#
#
# Indices 1 2 3 4 5 6 
#
# 1 0.016137 -0.005292 -0.001257 0.000000 -0.000677 0.000000
# 2 -0.005292 0.013807 -0.005175 0.000000 0.000511 0.000000
# 3 -0.001257 -0.005175 0.013788 0.000000 0.003280 0.000000
# 4 0.000000 0.000000 0.000000 0.099933 0.000000 0.069973
# 5 -0.000677 0.000511 0.003280 0.000000 0.039877 0.000000
# 6 0.000000 0.000000 0.000000 0.069973 0.000000 0.351206
#
#
# Mechanical properties :
#
#
# Convention : Reuss Voigt Hill
#
# Bulk Modulus (GPa) = 49.29933 52.50257 50.90095
# Shear Modulus (GPa) = 8.85025 19.47858 14.16442
#
# Velocity S-wave (km/s) = 2.12781 3.15670 2.69187
# Velocity P-wave (km/s) = 5.59080 6.33603 5.97504
#
# Compressibility (1/GPa) = 0.02028425
#
# Stress axis : x y z
#
# Youngs Moduli (GPa) = 61.96883 72.42926 72.52735
#
# Poissons Ratio (x) = 0.38328 0.09120
# Poissons Ratio (y) = 0.32792 0.37529
# Poissons Ratio (z) = 0.07792 0.37479
#
# Static dielectric constant tensor:
#      x y z
#    x 3.513190 0.000000 0.050620 
#    y 0.000000 3.420850 0.000000 
#    z 0.050620 0.000000 3.928770 
# 
# 
# High freq. dielectric constant tensor:
#      x y z
#    x 1.763240 0.000000 -0.000390 
#    y 0.000000 1.741190 0.000000 
#    z -0.000390 0.000000 1.786070 
# 
# From -- ./inp_files/9469.got.cif
#   From: 2010.03.12/outbox.cif.g09.slc.cpg/sg3_5_cif.got.tgz:9469.got - 2010.03.31 09:20:49.
