data_PCOD8045089
_publ_section_title
;
Structure prediction by ZEFSAII (Michael W. Deem and Ramdas Pophale) SiO2 
 PCOD8045089
Probable space group: P 2
;
_chemical_formula_sum "Si O2"
_cell_formula_units_Z 15
_cell_length_a 8.286743
_cell_length_b 10.863279
_cell_length_c 9.024812
_cell_angle_alpha 90.000000
_cell_angle_beta 64.457601
_cell_angle_gamma 90.000000
_cell_volume 733.023301
_symmetry_space_group_name_H-M "P 2"
_symmetry_group_IT_number 3
_symmetry_cell_setting 'monoclinic'
loop_
_space_group_symop_operation_xyz
x,y,z
-x,y,-z
loop_
_atom_site_type_symbol
_atom_site_label
_atom_site_fract_x
_atom_site_fract_y
_atom_site_fract_z
Si Si1 0.125672 0.295060 0.595131
Si Si2 0.992403 0.540130 0.676300
Si Si3 0.024448 0.032127 0.666523
Si Si4 0.299269 0.671490 0.052064
Si Si5 0.694695 0.629580 0.273364
Si Si6 0.345074 0.904927 0.667395
Si Si7 0.309632 0.955323 0.018548
Si Si8 0.500000 0.418153 0.500000
O O1 0.337089 0.335614 0.495967
O O2 0.000000 0.280559 0.500000
O O3 0.031443 0.403566 0.729482
O O4 0.120946 0.161318 0.672561
O O5 0.800847 0.594589 0.784320
O O6 0.000000 0.524626 0.500000
O O7 0.142539 0.632580 0.676052
O O8 0.154595 0.920814 0.662292
O O9 0.000000 0.017969 0.500000
O O10 0.843094 0.032222 0.835903
O O11 0.269990 0.816031 0.083217
O O12 0.500000 0.633554 0.000000
O O13 0.227840 0.623856 0.922799
O O14 0.598304 0.762275 0.329171
O O15 0.564780 0.512649 0.346097
O O16 0.500000 0.963397 0.500000
O O17 0.319420 0.971670 0.836838
O O18 0.500000 0.002952 0.000000
#
# Coordination Sequence:
#
# PCOD8045089 Si02
#       8
#     2   2   2   2   2   2   2   1
#     4   9  22  40  63  88 126 165 219 262 307 368
#     4  10  21  37  60  85 120 162 206 254 308 369
#     4  11  23  41  62  89 126 170 215 260 312 372
#     4  10  22  35  58  90 127 159 199 254 317 377
#     4  10  21  36  60  90 127 155 202 252 319 380
#     4  11  22  37  63  93 124 161 208 253 321 380
#     4  10  22  41  59  89 129 162 204 263 314 379
#     4  10  20  40  66  94 124 166 204 264 322 374
#
# _framework density 20.463198999999999
#
# number of rings (size 3 to 8) (size 9 to 14) (size 15 to 20)
#    0.000    1.867    0.667    2.400    6.533    5.333 
#    0.000    6.000    0.000    0.000    0.000    0.000 
#    0.000    0.000    0.000    0.000    0.000    0.000 
#
# Total GULP energy -185833.398811 kJ/mol
# GULP energy per Si atom -12388.893254 kJ/mol
# Density = 2.041662 g / cm^3
# Si number density = 20.463199 Si / 1000 Ang^3
#
#
#
# Elastic Constant Matrix: (Units=GPa)
#
#
# Indices 1 2 3 4 5 6 
#
# 1 122.3108 39.5801 41.8696 0.0000 -11.9492 0.0000
# 2 39.5801 83.1384 41.5055 0.0000 -13.7450 0.0000
# 3 41.8696 41.5055 126.9520 0.0000 -12.7086 0.0000
# 4 0.0000 0.0000 0.0000 5.9124 0.0000 -10.7879
# 5 -11.9492 -13.7450 -12.7086 0.0000 38.6925 0.0000
# 6 0.0000 0.0000 0.0000 -10.7879 0.0000 30.4154
#
#
#
# Elastic Compliance Matrix: (Units=1/GPa)
#
#
# Indices 1 2 3 4 5 6 
#
# 1 0.010165 -0.003620 -0.002051 0.000000 0.001179 0.000000
# 2 -0.003620 0.016190 -0.003759 0.000000 0.003399 0.000000
# 3 -0.002051 -0.003759 0.009911 0.000000 0.001287 0.000000
# 4 0.000000 0.000000 0.000000 0.479357 0.000000 0.170021
# 5 0.001179 0.003399 0.001287 0.000000 0.027839 0.000000
# 6 0.000000 0.000000 0.000000 0.170021 0.000000 0.093182
#
#
# Mechanical properties :
#
#
# Convention : Reuss Voigt Hill
#
# Bulk Modulus (GPa) = 57.45165 64.25685 60.85425
# Shear Modulus (GPa) = 7.56080 28.96712 18.26396
#
# Velocity S-wave (km/s) = 1.92428 3.76649 2.99076
# Velocity P-wave (km/s) = 5.75097 7.09821 6.45981
#
# Compressibility (1/GPa) = 0.01740594
#
# Stress axis : x y z
#
# Youngs Moduli (GPa) = 98.37997 61.76576 100.89741
#
# Poissons Ratio (x) = 0.22362 0.20691
# Poissons Ratio (y) = 0.35617 0.37927
# Poissons Ratio (z) = 0.20174 0.23217
#
# Static dielectric constant tensor:
#      x y z
#    x 3.830860 0.000000 0.087070 
#    y 0.000000 3.868510 0.000000 
#    z 0.087070 0.000000 3.992520 
# 
# 
# High freq. dielectric constant tensor:
#      x y z
#    x 1.810790 0.000000 -0.002170 
#    y 0.000000 1.791510 0.000000 
#    z -0.002170 0.000000 1.788700 
# 
# From -- ./inp_files/5793.got.cif
#   From: 2010.03.12/outbox.cif.g09.slc.cpg/sg3_3_cif.got.tgz:5793.got - 2010.03.31 09:20:49.
