data_PCOD8045877
_publ_section_title
;
Structure prediction by ZEFSAII (Michael W. Deem and Ramdas Pophale) SiO2 
 PCOD8045877
Probable space group: P 21
;
_chemical_formula_sum "Si O2"
_cell_formula_units_Z 14
_cell_length_a 24.272817
_cell_length_b 4.921462
_cell_length_c 17.085014
_cell_angle_alpha 90.000000
_cell_angle_beta 160.530952
_cell_angle_gamma 90.000000
_cell_volume 680.239458
_symmetry_space_group_name_H-M "P 21"
_symmetry_group_IT_number 4
_symmetry_cell_setting 'monoclinic'
loop_
_space_group_symop_operation_xyz
x,y,z
-x,1/2+y,-z
loop_
_atom_site_type_symbol
_atom_site_label
_atom_site_fract_x
_atom_site_fract_y
_atom_site_fract_z
Si Si1 0.434844 0.598700 0.128086
Si Si2 0.938597 0.050571 0.377171
Si Si3 0.462638 0.085726 0.266580
Si Si4 0.408393 0.800505 0.408390
Si Si5 0.145248 0.015317 0.949180
Si Si6 0.951601 0.502350 0.644834
Si Si7 0.432797 0.050507 0.865576
O O1 0.452323 0.292624 0.181005
O O2 0.514557 0.637619 0.150467
O O3 0.520200 0.801869 0.305297
O O4 0.243173 0.679125 0.866924
O O5 0.059040 0.300602 0.559036
O O6 0.995825 0.921942 0.372137
O O7 0.597012 0.189884 0.510009
O O8 0.287543 0.050515 0.075079
O O9 0.460900 0.550503 0.421801
O O10 0.228980 0.911149 0.141966
O O11 0.005039 0.808423 0.733706
O O12 0.050011 0.299192 0.835100
O O13 0.757235 0.463441 0.393200
O O14 0.543383 0.800497 0.043385
#
# Coordination Sequence:
#
# PCOD8045877 Si02
#       7
#     2   2   2   2   2   2   2
#     4  12  23  39  63  88 125 162 208 259 302 374
#     4  12  22  36  56  86 116 154 200 260 314 342
#     4  11  20  38  61  96 126 157 203 253 315 365
#     4  10  20  34  60  96 134 162 192 254 314 380
#     4  11  20  38  61  96 126 157 203 253 315 365
#     4  12  23  39  63  88 125 162 208 259 302 374
#     4  12  26  46  62  86 124 172 220 252 308 376
#
# _framework density 20.580988999999999
#
# number of rings (size 3 to 8) (size 9 to 14) (size 15 to 20)
#    0.000    0.571    2.857    8.571    0.000    0.000 
#    0.000    0.000    0.000    3.429    0.000    2.000 
#    0.000    0.000    0.000    0.000    0.000    0.000 
#
# Total GULP energy -173655.135718 kJ/mol
# GULP energy per Si atom -12403.938266 kJ/mol
# Density = 2.053415 g / cm^3
# Si number density = 20.580989 Si / 1000 Ang^3
#
#
#
# Elastic Constant Matrix: (Units=GPa)
#
#
# Indices 1 2 3 4 5 6 
#
# 1 97.3867 22.4206 54.3282 0.0000 -0.7987 0.0000
# 2 22.4206 114.1897 28.2229 0.0000 -8.7381 0.0000
# 3 54.3282 28.2229 101.9414 0.0000 -5.9759 0.0000
# 4 0.0000 0.0000 0.0000 45.5132 0.0000 -13.7768
# 5 -0.7987 -8.7381 -5.9759 0.0000 29.6143 0.0000
# 6 0.0000 0.0000 0.0000 -13.7768 0.0000 36.3437
#
#
#
# Elastic Compliance Matrix: (Units=1/GPa)
#
#
# Indices 1 2 3 4 5 6 
#
# 1 0.014786 -0.001124 -0.007655 0.000000 -0.001478 0.000000
# 2 -0.001124 0.009640 -0.001928 0.000000 0.002425 0.000000
# 3 -0.007655 -0.001928 0.014550 0.000000 0.002161 0.000000
# 4 0.000000 0.000000 0.000000 0.024820 0.000000 0.009408
# 5 -0.001478 0.002425 0.002161 0.000000 0.034879 0.000000
# 6 0.000000 0.000000 0.000000 0.009408 0.000000 0.031081
#
#
# Mechanical properties :
#
#
# Convention : Reuss Voigt Hill
#
# Bulk Modulus (GPa) = 56.94310 58.16237 57.55274
# Shear Modulus (GPa) = 31.84245 36.19731 34.01988
#
# Velocity S-wave (km/s) = 3.93769 4.19832 4.07009
# Velocity P-wave (km/s) = 6.95713 7.19881 7.07900
#
# Compressibility (1/GPa) = 0.01756139
#
# Stress axis : x y z
#
# Youngs Moduli (GPa) = 67.63374 103.73356 68.73038
#
# Poissons Ratio (x) = 0.11661 0.52614
# Poissons Ratio (y) = 0.07603 0.13249
# Poissons Ratio (z) = 0.51775 0.19996
#
# Static dielectric constant tensor:
#      x y z
#    x 3.733130 0.000000 -0.111650 
#    y 0.000000 3.867520 0.000000 
#    z -0.111650 0.000000 3.806770 
# 
# 
# High freq. dielectric constant tensor:
#      x y z
#    x 1.775710 0.000000 -0.027390 
#    y 0.000000 1.830860 0.000000 
#    z -0.027390 0.000000 1.793920 
# 
# From -- ./inp_files/14447.got.cif
#   From: 2010.03.12/outbox.cif.g09.slc.cpg/sg4_8_cif.got.tgz:14447.got - 2010.03.31 09:31:35.
