data_PCOD8045402
_publ_section_title
;
Structure prediction by ZEFSAII (Michael W. Deem and Ramdas Pophale) SiO2 
 PCOD8045402
Probable space group: P 2
;
_chemical_formula_sum "Si O2"
_cell_formula_units_Z 14
_cell_length_a 11.253260
_cell_length_b 7.001995
_cell_length_c 8.507457
_cell_angle_alpha 90.000000
_cell_angle_beta 106.660652
_cell_angle_gamma 90.000000
_cell_volume 642.205932
_symmetry_space_group_name_H-M "P 2"
_symmetry_group_IT_number 3
_symmetry_cell_setting 'monoclinic'
loop_
_space_group_symop_operation_xyz
x,y,z
-x,y,-z
loop_
_atom_site_type_symbol
_atom_site_label
_atom_site_fract_x
_atom_site_fract_y
_atom_site_fract_z
Si Si1 0.807555 0.119880 0.591617
Si Si2 0.952240 0.006164 0.145459
Si Si3 0.306973 0.450062 0.258087
Si Si4 0.632370 0.766316 0.477815
Si Si5 0.799383 0.293521 0.262876
Si Si6 0.446112 0.503343 0.813917
Si Si7 0.111982 0.573354 0.938582
O O1 0.750076 0.248462 0.709046
O O2 0.838334 0.255684 0.456328
O O3 0.712257 0.957642 0.501455
O O4 0.934689 0.018393 0.689437
O O5 0.907448 0.793255 0.102064
O O6 0.831219 0.115367 0.162336
O O7 0.000000 0.095853 0.000000
O O8 0.298075 0.604960 0.393590
O O9 0.449478 0.416534 0.262223
O O10 0.238475 0.535956 0.080498
O O11 0.500000 0.820307 0.500000
O O12 0.617880 0.685106 0.295258
O O13 0.652941 0.335045 0.195151
O O14 0.881425 0.469826 0.227813
O O15 0.500000 0.574838 0.000000
O O16 0.000000 0.488868 0.000000
#
# Coordination Sequence:
#
# PCOD8045402 Si02
#       7
#     2   2   2   2   2   2   2
#     4  12  26  44  73 107 139 183 235 290 346 424
#     4  11  26  47  68 103 135 180 241 284 355 415
#     4  11  23  45  73 101 141 187 228 286 355 418
#     4  10  24  43  70 102 141 183 233 285 354 417
#     4  12  25  43  70 101 141 182 230 290 347 417
#     4  11  24  46  70 102 139 185 233 286 353 416
#     4  11  24  46  73  95 141 182 230 292 349 419
#
# _framework density 21.799862000000001
#
# number of rings (size 3 to 8) (size 9 to 14) (size 15 to 20)
#    0.000    0.857    2.857    4.286    4.000    0.000 
#    2.571    2.143    0.000    0.000    0.000    0.000 
#    0.000    0.000    0.000    0.000    0.000    0.000 
#
# Total GULP energy -173651.464651 kJ/mol
# GULP energy per Si atom -12403.676047 kJ/mol
# Density = 2.175024 g / cm^3
# Si number density = 21.799862 Si / 1000 Ang^3
#
#
#
# Elastic Constant Matrix: (Units=GPa)
#
#
# Indices 1 2 3 4 5 6 
#
# 1 134.0821 71.0835 48.1451 0.0000 -5.9668 0.0000
# 2 71.0835 127.5490 62.1846 0.0000 1.4111 0.0000
# 3 48.1451 62.1846 142.2140 0.0000 1.1993 0.0000
# 4 0.0000 0.0000 0.0000 36.6796 0.0000 -0.3704
# 5 -5.9668 1.4111 1.1993 0.0000 38.3555 0.0000
# 6 0.0000 0.0000 0.0000 -0.3704 0.0000 37.6790
#
#
#
# Elastic Compliance Matrix: (Units=1/GPa)
#
#
# Indices 1 2 3 4 5 6 
#
# 1 0.010914 -0.005458 -0.001325 0.000000 0.001940 0.000000
# 2 -0.005458 0.012696 -0.003694 0.000000 -0.001201 0.000000
# 3 -0.001325 -0.003694 0.009098 0.000000 -0.000355 0.000000
# 4 0.000000 0.000000 0.000000 0.027266 0.000000 0.000268
# 5 0.001940 -0.001201 -0.000355 0.000000 0.026429 0.000000
# 6 0.000000 0.000000 0.000000 0.000268 0.000000 0.026543
#
#
# Mechanical properties :
#
#
# Convention : Reuss Voigt Hill
#
# Bulk Modulus (GPa) = 85.06598 85.18573 85.12585
# Shear Modulus (GPa) = 36.28047 37.37163 36.82605
#
# Velocity S-wave (km/s) = 4.08395 4.14491 4.11454
# Velocity P-wave (km/s) = 7.83226 7.87833 7.85533
#
# Compressibility (1/GPa) = 0.01175558
#
# Stress axis : x y z
#
# Youngs Moduli (GPa) = 91.62946 78.76597 109.91310
#
# Poissons Ratio (x) = 0.42989 0.14558
# Poissons Ratio (y) = 0.50010 0.40597
# Poissons Ratio (z) = 0.12136 0.29093
#
# Static dielectric constant tensor:
#      x y z
#    x 4.174390 0.000000 -0.094330 
#    y 0.000000 3.767720 0.000000 
#    z -0.094330 0.000000 4.157170 
# 
# 
# High freq. dielectric constant tensor:
#      x y z
#    x 1.868950 0.000000 -0.007710 
#    y 0.000000 1.848680 0.000000 
#    z -0.007710 0.000000 1.866520 
# 
# From -- ./inp_files/6704.got.cif
#   From: 2010.03.12/outbox.cif.g09.slc.cpg/sg3_4_cif.got.tgz:6704.got - 2010.03.31 09:20:49.
