data_PCOD8045856
_publ_section_title
;
Structure prediction by ZEFSAII (Michael W. Deem and Ramdas Pophale) SiO2 
 PCOD8045856
Probable space group: P 21
;
_chemical_formula_sum "Si O2"
_cell_formula_units_Z 14
_cell_length_a 14.389777
_cell_length_b 5.113797
_cell_length_c 23.074002
_cell_angle_alpha 90.000000
_cell_angle_beta 153.695109
_cell_angle_gamma 90.000000
_cell_volume 752.435002
_symmetry_space_group_name_H-M "P 21"
_symmetry_group_IT_number 4
_symmetry_cell_setting 'monoclinic'
loop_
_space_group_symop_operation_xyz
x,y,z
-x,1/2+y,-z
loop_
_atom_site_type_symbol
_atom_site_label
_atom_site_fract_x
_atom_site_fract_y
_atom_site_fract_z
Si Si1 0.678729 0.145690 0.291810
Si Si2 0.882915 0.842483 0.497564
Si Si3 0.545839 0.602721 0.950514
Si Si4 0.755637 0.107732 0.114929
Si Si5 0.333083 0.830302 0.595713
Si Si6 0.756254 0.661011 0.614906
Si Si7 0.463249 0.665375 0.552825
O O1 0.504526 0.112935 0.145725
O O2 0.572640 0.306411 0.286349
O O3 0.871503 0.305155 0.372521
O O4 0.772594 0.874728 0.371726
O O5 0.770235 0.613498 0.471263
O O6 0.853186 0.114017 0.515804
O O7 0.333759 0.627046 0.869745
O O8 0.641925 0.318313 0.011553
O O9 0.712863 0.824521 0.062569
O O10 0.996454 0.188558 0.251325
O O11 0.505454 0.752631 0.643330
O O12 0.681577 0.690693 0.640144
O O13 0.704732 0.370516 0.565407
O O14 0.637052 0.877180 0.509297
#
# Coordination Sequence:
#
# PCOD8045856 Si02
#       7
#     2   2   2   2   2   2   2
#     4  10  21  33  52  77 112 138 182 211 279 320
#     4  10  20  32  49  81 107 144 167 218 274 329
#     4  10  23  35  55  76 109 148 188 214 265 330
#     4  10  22  39  51  79 106 148 188 224 260 312
#     4  10  20  32  50  82 110 132 174 216 277 329
#     4  10  21  38  58  80 112 143 180 232 271 320
#     4  10  21  35  59  87 106 141 181 221 290 326
#
# _framework density 18.606258
#
# number of rings (size 3 to 8) (size 9 to 14) (size 15 to 20)
#    0.857    1.143    1.429    1.714    6.000    0.000 
#    0.000    0.000    0.000    1.714    0.000    0.000 
#    0.000    0.000    0.000    0.000    0.000    0.000 
#
# Total GULP energy -173463.581938 kJ/mol
# GULP energy per Si atom -12390.255853 kJ/mol
# Density = 1.856391 g / cm^3
# Si number density = 18.606258 Si / 1000 Ang^3
#
#
#
# Elastic Constant Matrix: (Units=GPa)
#
#
# Indices 1 2 3 4 5 6 
#
# 1 69.8588 0.7788 15.1901 0.0000 2.9359 0.0000
# 2 0.7788 84.4867 -1.5789 0.0000 4.8852 0.0000
# 3 15.1901 -1.5789 54.3200 0.0000 10.0439 0.0000
# 4 0.0000 0.0000 0.0000 15.3807 0.0000 0.6567
# 5 2.9359 4.8852 10.0439 0.0000 24.1789 0.0000
# 6 0.0000 0.0000 0.0000 0.6567 0.0000 27.2902
#
#
#
# Elastic Compliance Matrix: (Units=1/GPa)
#
#
# Indices 1 2 3 4 5 6 
#
# 1 0.015245 -0.000218 -0.004263 0.000000 -0.000036 0.000000
# 2 -0.000218 0.012017 0.000925 0.000000 -0.002786 0.000000
# 3 -0.004263 0.000925 0.021195 0.000000 -0.008474 0.000000
# 4 0.000000 0.000000 0.000000 0.065083 0.000000 -0.001566
# 5 -0.000036 -0.002786 -0.008474 0.000000 0.045446 0.000000
# 6 0.000000 0.000000 0.000000 -0.001566 0.000000 0.036681
#
#
# Mechanical properties :
#
#
# Convention : Reuss Voigt Hill
#
# Bulk Modulus (GPa) = 24.18611 26.38283 25.28447
# Shear Modulus (GPa) = 23.08824 26.32166 24.70495
#
# Velocity S-wave (km/s) = 3.52644 3.76529 3.64782
# Velocity P-wave (km/s) = 5.44134 5.75443 5.60008
#
# Compressibility (1/GPa) = 0.04134605
#
# Stress axis : x y z
#
# Youngs Moduli (GPa) = 65.59326 83.21847 47.18041
#
# Poissons Ratio (x) = 0.01815 0.20112
# Poissons Ratio (y) = 0.01431 -0.04366
# Poissons Ratio (z) = 0.27962 -0.07701
#
# Static dielectric constant tensor:
#      x y z
#    x 3.687210 0.000000 0.110290 
#    y 0.000000 3.590330 0.000000 
#    z 0.110290 0.000000 2.855550 
# 
# 
# High freq. dielectric constant tensor:
#      x y z
#    x 1.730760 0.000000 0.003960 
#    y 0.000000 1.742540 0.000000 
#    z 0.003960 0.000000 1.661500 
# 
# From -- ./inp_files/16412.got.cif
#   From: 2010.03.12/outbox.cif.g09.slc.cpg/sg4_9_cif.got.tgz:16412.got - 2010.03.31 09:31:35.
