data_PCOD8045879
_publ_section_title
;
Structure prediction by ZEFSAII (Michael W. Deem and Ramdas Pophale) SiO2 
 PCOD8045879
Probable space group: P 21
;
_chemical_formula_sum "Si O2"
_cell_formula_units_Z 16
_cell_length_a 14.335060
_cell_length_b 5.072941
_cell_length_c 13.415317
_cell_angle_alpha 90.000000
_cell_angle_beta 119.841538
_cell_angle_gamma 90.000000
_cell_volume 846.217793
_symmetry_space_group_name_H-M "P 21"
_symmetry_group_IT_number 4
_symmetry_cell_setting 'monoclinic'
loop_
_space_group_symop_operation_xyz
x,y,z
-x,1/2+y,-z
loop_
_atom_site_type_symbol
_atom_site_label
_atom_site_fract_x
_atom_site_fract_y
_atom_site_fract_z
Si Si1 0.750019 0.731710 0.085570
Si Si2 0.525868 0.972673 0.952314
Si Si3 0.862360 0.494073 0.965172
Si Si4 0.787417 0.051294 0.392276
Si Si5 0.111770 0.494188 0.141410
Si Si6 0.938026 0.978069 0.292035
Si Si7 0.322165 0.056196 0.741554
Si Si8 0.082987 0.481082 0.346605
O O1 0.843750 0.946003 0.159299
O O2 0.724512 0.558656 0.170283
O O3 0.646820 0.890689 0.990127
O O4 0.785429 0.529673 0.018969
O O5 0.449760 0.992535 0.813658
O O6 0.471288 0.758618 0.995730
O O7 0.841640 0.719400 0.872345
O O8 0.834530 0.218851 0.898088
O O9 0.983501 0.509199 0.068014
O O10 0.890630 0.035108 0.375653
O O11 0.694825 0.845501 0.312758
O O12 0.822810 0.978154 0.522149
O O13 0.738755 0.343779 0.358853
O O14 0.141950 0.536193 0.273004
O O15 0.999214 0.703384 0.332689
O O16 0.019828 0.205280 0.303408
#
# Coordination Sequence:
#
# PCOD8045879 Si02
#       8
#     2   2   2   2   2   2   2   2
#     4  10  21  35  59  81 113 148 173 217 281 330
#     4  10  20  35  55  82 112 143 176 220 274 333
#     4  10  21  35  52  75 105 145 179 218 267 312
#     4  11  22  35  53  76 108 147 183 219 262 320
#     4  10  22  35  50  73 107 144 184 223 254 307
#     4  11  21  32  52  78 109 141 182 217 260 328
#     4  10  21  37  53  82 111 138 178 225 266 326
#     4  12  22  36  52  75 107 150 183 223 262 306
#
# _framework density 18.907662999999999
#
# number of rings (size 3 to 8) (size 9 to 14) (size 15 to 20)
#    0.000    1.500    1.250    6.000    3.500    4.000 
#    0.000    0.000    0.000    0.000    0.000    3.500 
#    0.000    0.000    0.000    0.000    0.000    0.000 
#
# Total GULP energy -198437.489251 kJ/mol
# GULP energy per Si atom -12402.343078 kJ/mol
# Density = 1.886463 g / cm^3
# Si number density = 18.907663 Si / 1000 Ang^3
#
#
#
# Elastic Constant Matrix: (Units=GPa)
#
#
# Indices 1 2 3 4 5 6 
#
# 1 41.8628 6.1494 38.6081 0.0000 11.0957 0.0000
# 2 6.1494 68.3476 22.7253 0.0000 9.6211 0.0000
# 3 38.6081 22.7253 106.1966 0.0000 -0.2575 0.0000
# 4 0.0000 0.0000 0.0000 19.6204 0.0000 6.3477
# 5 11.0957 9.6211 -0.2575 0.0000 27.1355 0.0000
# 6 0.0000 0.0000 0.0000 6.3477 0.0000 22.8317
#
#
#
# Elastic Compliance Matrix: (Units=1/GPa)
#
#
# Indices 1 2 3 4 5 6 
#
# 1 0.044263 0.004499 -0.017103 0.000000 -0.019857 0.000000
# 2 0.004499 0.017115 -0.005317 0.000000 -0.007958 0.000000
# 3 -0.017103 -0.005317 0.016794 0.000000 0.009038 0.000000
# 4 0.000000 0.000000 0.000000 0.056005 0.000000 -0.015571
# 5 -0.019857 -0.007958 0.009038 0.000000 0.047879 0.000000
# 6 0.000000 0.000000 0.000000 -0.015571 0.000000 0.048128
#
#
# Mechanical properties :
#
#
# Convention : Reuss Voigt Hill
#
# Bulk Modulus (GPa) = 23.62411 39.04141 31.33276
# Shear Modulus (GPa) = 17.84853 23.84580 20.84716
#
# Velocity S-wave (km/s) = 3.07577 3.55515 3.32411
# Velocity P-wave (km/s) = 5.01352 6.12743 5.59825
#
# Compressibility (1/GPa) = 0.04232963
#
# Stress axis : x y z
#
# Youngs Moduli (GPa) = 22.59226 58.42972 59.54455
#
# Poissons Ratio (x) = -0.26290 1.01839
# Poissons Ratio (y) = -0.10165 0.31663
# Poissons Ratio (z) = 0.38639 0.31070
#
# Static dielectric constant tensor:
#      x y z
#    x 3.225200 0.000000 0.095950 
#    y 0.000000 3.652750 0.000000 
#    z 0.095950 0.000000 3.506140 
# 
# 
# High freq. dielectric constant tensor:
#      x y z
#    x 1.692500 0.000000 0.004120 
#    y 0.000000 1.756300 0.000000 
#    z 0.004120 0.000000 1.722820 
# 
# From -- ./inp_files/12444.got.cif
#   From: 2010.03.12/outbox.cif.g09.slc.cpg/sg4_7_cif.got.tgz:12444.got - 2010.03.31 09:31:35.
