data_PCOD8045684
_publ_section_title
;
Structure prediction by ZEFSAII (Michael W. Deem and Ramdas Pophale) SiO2 
 PCOD8045684
Probable space group: P 21
;
_chemical_formula_sum "Si O2"
_cell_formula_units_Z 14
_cell_length_a 22.561777
_cell_length_b 5.056773
_cell_length_c 17.960826
_cell_angle_alpha 90.000000
_cell_angle_beta 159.311364
_cell_angle_gamma 90.000000
_cell_volume 723.941632
_symmetry_space_group_name_H-M "P 21"
_symmetry_group_IT_number 4
_symmetry_cell_setting 'monoclinic'
loop_
_space_group_symop_operation_xyz
x,y,z
-x,1/2+y,-z
loop_
_atom_site_type_symbol
_atom_site_label
_atom_site_fract_x
_atom_site_fract_y
_atom_site_fract_z
Si Si1 0.956082 0.696160 0.641169
Si Si2 0.973094 0.167598 0.019750
Si Si3 0.597976 0.182733 0.585641
Si Si4 0.735463 0.674051 0.518551
Si Si5 0.984874 0.426831 0.435889
Si Si6 0.449562 0.680197 0.642844
Si Si7 0.167021 0.160464 0.875186
O O1 0.063954 0.430201 0.761639
O O2 0.793782 0.662431 0.501567
O O3 0.894322 0.795772 0.485972
O O4 0.073623 0.930872 0.813453
O O5 0.788198 0.174714 0.839432
O O6 0.007894 0.415158 0.009231
O O7 0.102162 0.158832 0.238837
O O8 0.505264 0.434630 0.508373
O O9 0.614120 0.190122 0.516078
O O10 0.614591 0.429540 0.387804
O O11 0.622907 0.927554 0.401037
O O12 0.827889 0.558414 0.205764
O O13 0.072699 0.676663 0.580821
O O14 0.649154 0.691463 0.876612
#
# Coordination Sequence:
#
# PCOD8045684 Si02
#       7
#     2   2   2   2   2   2   2
#     4  10  22  38  63  98 114 161 206 249 296 359
#     4  12  23  44  60  86 119 167 216 248 315 360
#     4  12  26  40  61  88 120 161 214 267 302 357
#     4  12  24  41  63  87 128 165 205 259 301 376
#     4  10  18  37  66  96 121 153 200 252 296 360
#     4  12  25  42  59  90 128 164 200 254 325 352
#     4  10  22  38  62  95 120 155 205 247 305 358
#
# _framework density 19.338574000000001
#
# number of rings (size 3 to 8) (size 9 to 14) (size 15 to 20)
#    0.857    0.000    4.286    3.429    4.000    0.000 
#    0.000    0.000    0.000    3.429    0.000    0.000 
#    0.000    0.000    0.000    0.000    0.000    0.000 
#
# Total GULP energy -173504.504351 kJ/mol
# GULP energy per Si atom -12393.178882 kJ/mol
# Density = 1.929456 g / cm^3
# Si number density = 19.338574 Si / 1000 Ang^3
#
#
#
# Elastic Constant Matrix: (Units=GPa)
#
#
# Indices 1 2 3 4 5 6 
#
# 1 86.3828 40.7113 8.0607 0.0000 12.6438 0.0000
# 2 40.7113 182.3116 26.2480 0.0000 21.9277 0.0000
# 3 8.0607 26.2480 42.8283 0.0000 22.4835 0.0000
# 4 0.0000 0.0000 0.0000 32.1646 0.0000 10.7883
# 5 12.6438 21.9277 22.4835 0.0000 31.5283 0.0000
# 6 0.0000 0.0000 0.0000 10.7883 0.0000 37.0085
#
#
#
# Elastic Compliance Matrix: (Units=1/GPa)
#
#
# Indices 1 2 3 4 5 6 
#
# 1 0.013356 -0.002649 0.001525 0.000000 -0.004602 0.000000
# 2 -0.002649 0.006666 -0.002734 0.000000 -0.001624 0.000000
# 3 0.001525 -0.002734 0.038458 0.000000 -0.026135 0.000000
# 4 0.000000 0.000000 0.000000 0.034459 0.000000 -0.010045
# 5 -0.004602 -0.001624 -0.026135 0.000000 0.053330 0.000000
# 6 0.000000 0.000000 0.000000 -0.010045 0.000000 0.029949
#
#
# Mechanical properties :
#
#
# Convention : Reuss Voigt Hill
#
# Bulk Modulus (GPa) = 19.69882 51.28475 35.49178
# Shear Modulus (GPa) = 24.89374 35.90711 30.40043
#
# Velocity S-wave (km/s) = 3.59173 4.31369 3.96916
# Velocity P-wave (km/s) = 5.23537 7.16851 6.27681
#
# Compressibility (1/GPa) = 0.05076447
#
# Stress axis : x y z
#
# Youngs Moduli (GPa) = 74.87355 150.02603 26.00259
#
# Poissons Ratio (x) = 0.39735 -0.03966
# Poissons Ratio (y) = 0.19831 0.07109
# Poissons Ratio (z) = -0.11421 0.41018
#
# Static dielectric constant tensor:
#      x y z
#    x 3.613550 0.000000 -0.013650 
#    y 0.000000 3.808660 0.000000 
#    z -0.013650 0.000000 3.415100 
# 
# 
# High freq. dielectric constant tensor:
#      x y z
#    x 1.750770 0.000000 0.000140 
#    y 0.000000 1.785580 0.000000 
#    z 0.000140 0.000000 1.725590 
# 
# From -- ./inp_files/15345.got.cif
#   From: 2010.03.12/outbox.cif.g09.slc.cpg/sg4_8_cif.got.tgz:15345.got - 2010.03.31 09:31:35.
