data_PCOD8045205
_publ_section_title
;
Structure prediction by ZEFSAII (Michael W. Deem and Ramdas Pophale) SiO2 
 PCOD8045205
Probable space group: P 2
;
_chemical_formula_sum "Si O2"
_cell_formula_units_Z 14
_cell_length_a 5.931183
_cell_length_b 6.467887
_cell_length_c 16.838354
_cell_angle_alpha 90.000000
_cell_angle_beta 76.853937
_cell_angle_gamma 90.000000
_cell_volume 629.028360
_symmetry_space_group_name_H-M "P 2"
_symmetry_group_IT_number 3
_symmetry_cell_setting 'monoclinic'
loop_
_space_group_symop_operation_xyz
x,y,z
-x,y,-z
loop_
_atom_site_type_symbol
_atom_site_label
_atom_site_fract_x
_atom_site_fract_y
_atom_site_fract_z
Si Si1 0.570659 0.294140 0.082494
Si Si2 0.748362 0.960848 0.278029
Si Si3 0.067973 0.026885 0.576487
Si Si4 0.500000 0.301157 0.500000
Si Si5 0.815402 0.965033 0.854479
Si Si6 0.000000 0.047211 0.000000
Si Si7 0.543731 0.625697 0.787947
Si Si8 0.367328 0.302517 0.345642
O O1 0.819541 0.187688 0.062241
O O2 0.594636 0.495266 0.135265
O O3 0.382699 0.138283 0.135368
O O4 0.500000 0.363518 0.000000
O O5 0.846077 0.885581 0.356886
O O6 0.568567 0.147671 0.300763
O O7 0.639887 0.763643 0.244128
O O8 0.957669 0.049236 0.208172
O O9 0.277474 0.164642 0.531956
O O10 0.000000 0.902031 0.500000
O O11 0.863494 0.170424 0.625893
O O12 0.443878 0.420757 0.422052
O O13 0.737039 0.756918 0.817671
O O14 0.869699 0.912067 0.943107
O O15 0.677132 0.479456 0.715198
#
# Coordination Sequence:
#
# PCOD8045205 Si02
#       8
#     2   2   2   1   2   1   2   2
#     4  10  24  44  64  88 122 162 203 250 303 362
#     4  11  23  39  63  93 125 162 201 250 306 360
#     4   9  18  38  66  89 119 165 208 248 299 356
#     4   8  18  36  64  90 118 164 208 248 298 354
#     4  11  24  42  63  91 124 159 201 252 304 362
#     4  10  22  46  68  84 120 164 202 250 304 360
#     4  12  24  38  62  96 125 157 201 251 307 362
#     4  10  21  41  63  89 125 164 204 250 302 358
#
# _framework density 22.256547000000001
#
# number of rings (size 3 to 8) (size 9 to 14) (size 15 to 20)
#    0.000    1.714    0.000    4.286    0.000    8.571 
#    0.000    7.143    0.000    8.571    0.000    0.000 
#    0.000    0.000    0.000    0.000    0.000    0.000 
#
# Total GULP energy -173505.008766 kJ/mol
# GULP energy per Si atom -12393.214912 kJ/mol
# Density = 2.220589 g / cm^3
# Si number density = 22.256547 Si / 1000 Ang^3
#
#
#
# Elastic Constant Matrix: (Units=GPa)
#
#
# Indices 1 2 3 4 5 6 
#
# 1 135.8369 49.3044 69.2764 0.0000 -9.2910 0.0000
# 2 49.3044 91.0047 74.9889 0.0000 13.8128 0.0000
# 3 69.2764 74.9889 167.4230 0.0000 21.7549 0.0000
# 4 0.0000 0.0000 0.0000 27.2594 0.0000 13.8811
# 5 -9.2910 13.8128 21.7549 0.0000 66.6408 0.0000
# 6 0.0000 0.0000 0.0000 13.8811 0.0000 22.2208
#
#
#
# Elastic Compliance Matrix: (Units=1/GPa)
#
#
# Indices 1 2 3 4 5 6 
#
# 1 0.010492 -0.003569 -0.003163 0.000000 0.003235 0.000000
# 2 -0.003569 0.018709 -0.006615 0.000000 -0.002216 0.000000
# 3 -0.003163 -0.006615 0.010572 0.000000 -0.002521 0.000000
# 4 0.000000 0.000000 0.000000 0.053798 0.000000 -0.033607
# 5 0.003235 -0.002216 -0.002521 0.000000 0.016739 0.000000
# 6 0.000000 0.000000 0.000000 -0.033607 0.000000 0.065997
#
#
# Mechanical properties :
#
#
# Convention : Reuss Voigt Hill
#
# Bulk Modulus (GPa) = 76.45880 86.82264 81.64072
# Shear Modulus (GPa) = 24.11247 36.60386 30.35817
#
# Velocity S-wave (km/s) = 3.29506 4.05981 3.69726
# Velocity P-wave (km/s) = 6.99318 7.81477 7.41536
#
# Compressibility (1/GPa) = 0.01307894
#
# Stress axis : x y z
#
# Youngs Moduli (GPa) = 95.31501 53.44936 94.58614
#
# Poissons Ratio (x) = 0.19074 0.29919
# Poissons Ratio (y) = 0.34014 0.62572
# Poissons Ratio (z) = 0.30150 0.35359
#
# Static dielectric constant tensor:
#      x y z
#    x 4.218130 0.000000 0.368180 
#    y 0.000000 3.453940 0.000000 
#    z 0.368180 0.000000 4.871150 
# 
# 
# High freq. dielectric constant tensor:
#      x y z
#    x 1.896170 0.000000 0.008510 
#    y 0.000000 1.819950 0.000000 
#    z 0.008510 0.000000 1.918940 
# 
# From -- ./inp_files/3536.got.cif
#   From: 2010.03.12/outbox.cif.g09.slc.cpg/sg3_2_cif.got.tgz:3536.got - 2010.03.31 09:20:49.
