data_PCOD8045409
_publ_section_title
;
Structure prediction by ZEFSAII (Michael W. Deem and Ramdas Pophale) SiO2 
 PCOD8045409
Probable space group: P 2
;
_chemical_formula_sum "Si O2"
_cell_formula_units_Z 16
_cell_length_a 12.254057
_cell_length_b 8.473803
_cell_length_c 9.356057
_cell_angle_alpha 90.000000
_cell_angle_beta 48.421299
_cell_angle_gamma 90.000000
_cell_volume 726.739479
_symmetry_space_group_name_H-M "P 2"
_symmetry_group_IT_number 3
_symmetry_cell_setting 'monoclinic'
loop_
_space_group_symop_operation_xyz
x,y,z
-x,y,-z
loop_
_atom_site_type_symbol
_atom_site_label
_atom_site_fract_x
_atom_site_fract_y
_atom_site_fract_z
Si Si1 0.145474 0.306010 0.309219
Si Si2 0.361390 0.263502 0.885156
Si Si3 0.433467 0.589169 0.709958
Si Si4 0.848633 0.773689 0.048644
Si Si5 0.663321 0.125942 0.654813
Si Si6 0.873086 0.667476 0.707308
Si Si7 0.666886 0.055969 0.339654
Si Si8 0.609818 0.789244 0.781347
O O1 0.262225 0.275502 0.333214
O O2 0.101907 0.480995 0.295726
O O3 0.000000 0.222620 0.500000
O O4 0.218926 0.228953 0.105391
O O5 0.419096 0.443604 0.832984
O O6 0.490184 0.148854 0.825498
O O7 0.325312 0.216831 0.755667
O O8 0.500000 0.540501 0.500000
O O9 0.269658 0.640792 0.813459
O O10 0.530347 0.722540 0.707188
O O11 0.777404 0.935525 0.166967
O O12 0.872092 0.766248 0.856285
O O13 0.000000 0.740335 0.000000
O O14 0.722397 0.119594 0.442224
O O15 0.699197 0.950344 0.677991
O O16 0.723834 0.666608 0.747422
O O17 0.000000 0.742525 0.500000
O O18 0.500000 0.986576 0.500000
O O19 0.500000 0.830679 0.000000
#
# Coordination Sequence:
#
# PCOD8045409 Si02
#       8
#     2   2   2   2   2   2   2   2
#     4  11  24  45  66  95 138 181 227 278 343 414
#     4  11  22  45  67 101 133 177 230 283 345 407
#     4  12  24  43  72 103 135 183 235 288 350 415
#     4  12  26  46  68  98 143 184 231 293 350 419
#     4  11  24  41  69 102 134 177 222 286 350 408
#     4  11  27  46  66 102 140 184 231 289 352 416
#     4  10  24  45  69 100 137 177 230 288 342 419
#     4  12  23  42  71 103 134 177 230 292 347 409
#
# _framework density 22.016143
#
# number of rings (size 3 to 8) (size 9 to 14) (size 15 to 20)
#    0.000    0.750    2.500    5.625    5.250    1.500 
#    2.250    0.625    0.000    0.000    0.000    0.000 
#    0.000    0.000    0.000    0.000    0.000    0.000 
#
# Total GULP energy -198248.436229 kJ/mol
# GULP energy per Si atom -12390.527264 kJ/mol
# Density = 2.196603 g / cm^3
# Si number density = 22.016143 Si / 1000 Ang^3
#
#
#
# Elastic Constant Matrix: (Units=GPa)
#
#
# Indices 1 2 3 4 5 6 
#
# 1 110.5648 22.3305 57.0317 0.0000 1.6594 0.0000
# 2 22.3305 68.7089 29.5935 0.0000 2.0268 0.0000
# 3 57.0317 29.5935 189.0859 0.0000 4.7543 0.0000
# 4 0.0000 0.0000 0.0000 47.7642 0.0000 16.4639
# 5 1.6594 2.0268 4.7543 0.0000 31.9573 0.0000
# 6 0.0000 0.0000 0.0000 16.4639 0.0000 50.8621
#
#
#
# Elastic Compliance Matrix: (Units=1/GPa)
#
#
# Indices 1 2 3 4 5 6 
#
# 1 0.011043 -0.002310 -0.002969 0.000000 0.000015 0.000000
# 2 -0.002310 0.016102 -0.001807 0.000000 -0.000632 0.000000
# 3 -0.002969 -0.001807 0.006485 0.000000 -0.000696 0.000000
# 4 0.000000 0.000000 0.000000 0.023565 0.000000 -0.007628
# 5 0.000015 -0.000632 -0.000696 0.000000 0.031435 0.000000
# 6 0.000000 0.000000 0.000000 -0.007628 0.000000 0.022130
#
#
# Mechanical properties :
#
#
# Convention : Reuss Voigt Hill
#
# Bulk Modulus (GPa) = 51.40062 65.14123 58.27093
# Shear Modulus (GPa) = 38.04629 43.41031 40.72830
#
# Velocity S-wave (km/s) = 4.16156 4.44526 4.30575
# Velocity P-wave (km/s) = 6.81828 7.48326 7.15850
#
# Compressibility (1/GPa) = 0.01945502
#
# Stress axis : x y z
#
# Youngs Moduli (GPa) = 90.55877 62.10357 154.21157
#
# Poissons Ratio (x) = 0.14348 0.45792
# Poissons Ratio (y) = 0.20922 0.27872
# Poissons Ratio (z) = 0.26891 0.11224
#
# Static dielectric constant tensor:
#      x y z
#    x 3.738330 0.000000 0.030600 
#    y 0.000000 3.830600 0.000000 
#    z 0.030600 0.000000 4.318570 
# 
# 
# High freq. dielectric constant tensor:
#      x y z
#    x 1.851470 0.000000 0.007450 
#    y 0.000000 1.858650 0.000000 
#    z 0.007450 0.000000 1.889890 
# 
# From -- ./inp_files/7414.got.cif
#   From: 2010.03.12/outbox.cif.g09.slc.cpg/sg3_4_cif.got.tgz:7414.got - 2010.03.31 09:20:49.
