data_PCOD8045637
_publ_section_title
;
Structure prediction by ZEFSAII (Michael W. Deem and Ramdas Pophale) SiO2 
 PCOD8045637
Probable space group: P 21
;
_chemical_formula_sum "Si O2"
_cell_formula_units_Z 16
_cell_length_a 14.784088
_cell_length_b 5.431369
_cell_length_c 12.062656
_cell_angle_alpha 90.000000
_cell_angle_beta 64.960730
_cell_angle_gamma 90.000000
_cell_volume 877.573654
_symmetry_space_group_name_H-M "P 21"
_symmetry_group_IT_number 4
_symmetry_cell_setting 'monoclinic'
loop_
_space_group_symop_operation_xyz
x,y,z
-x,1/2+y,-z
loop_
_atom_site_type_symbol
_atom_site_label
_atom_site_fract_x
_atom_site_fract_y
_atom_site_fract_z
Si Si1 0.868510 0.431640 0.549124
Si Si2 0.871669 0.367481 0.043201
Si Si3 0.511048 0.665375 0.426063
Si Si4 0.986300 0.653391 0.667345
Si Si5 0.933033 0.869198 0.910816
Si Si6 0.697186 0.193275 0.529447
Si Si7 0.846779 0.813293 0.376034
Si Si8 0.723327 0.499830 0.292081
O O1 0.889135 0.521064 0.663826
O O2 0.753359 0.340359 0.599023
O O3 0.890859 0.627221 0.442053
O O4 0.947113 0.219174 0.475165
O O5 0.767090 0.352908 0.164759
O O6 0.962110 0.369255 0.081943
O O7 0.872089 0.619078 0.971006
O O8 0.873376 0.120910 0.967292
O O9 0.486722 0.434643 0.518928
O O10 0.420598 0.664707 0.382339
O O11 0.618058 0.625034 0.312313
O O12 0.950299 0.869053 0.768297
O O13 0.059569 0.485477 0.705868
O O14 0.707083 0.328991 0.406439
O O15 0.751355 0.933844 0.486279
O O16 0.808144 0.699834 0.280637
#
# Coordination Sequence:
#
# PCOD8045637 Si02
#       8
#     2   2   2   2   2   2   2   2
#     4  10  20  32  51  74 110 142 187 222 273 335
#     4  10  22  36  50  77 102 153 184 226 263 316
#     4  10  19  33  52  80 111 147 178 219 276 336
#     4  11  21  33  51  78 105 153 184 225 274 320
#     4  10  23  35  53  70 111 144 192 222 264 316
#     4   9  19  32  49  78 110 145 176 223 277 329
#     4  10  18  31  51  74 106 145 179 223 264 337
#     4  10  20  32  55  75 111 145 184 218 279 327
#
# _framework density 18.232085999999999
#
# number of rings (size 3 to 8) (size 9 to 14) (size 15 to 20)
#    0.000    2.000    2.500    2.250    8.750    0.000 
#    0.000    0.000    0.000    0.000    0.000    0.000 
#    3.750    0.000    0.000    0.000    0.000    0.000 
#
# Total GULP energy -198261.369403 kJ/mol
# GULP energy per Si atom -12391.335588 kJ/mol
# Density = 1.819059 g / cm^3
# Si number density = 18.232086 Si / 1000 Ang^3
#
#
#
# Elastic Constant Matrix: (Units=GPa)
#
#
# Indices 1 2 3 4 5 6 
#
# 1 116.7920 29.6710 40.0351 0.0000 -8.1980 0.0000
# 2 29.6710 86.6739 20.3823 0.0000 -3.7669 0.0000
# 3 40.0351 20.3823 61.8589 0.0000 -5.6833 0.0000
# 4 0.0000 0.0000 0.0000 25.1055 0.0000 -0.0594
# 5 -8.1980 -3.7669 -5.6833 0.0000 17.7982 0.0000
# 6 0.0000 0.0000 0.0000 -0.0594 0.0000 22.3754
#
#
#
# Elastic Compliance Matrix: (Units=1/GPa)
#
#
# Indices 1 2 3 4 5 6 
#
# 1 0.011561 -0.002317 -0.006464 0.000000 0.002771 0.000000
# 2 -0.002317 0.013004 -0.002710 0.000000 0.000820 0.000000
# 3 -0.006464 -0.002710 0.021548 0.000000 0.003330 0.000000
# 4 0.000000 0.000000 0.000000 0.039832 0.000000 0.000106
# 5 0.002771 0.000820 0.003330 0.000000 0.058698 0.000000
# 6 0.000000 0.000000 0.000000 0.000106 0.000000 0.044692
#
#
# Mechanical properties :
#
#
# Convention : Reuss Voigt Hill
#
# Bulk Modulus (GPa) = 43.23258 49.50018 46.36638
# Shear Modulus (GPa) = 22.72428 24.73823 23.73126
#
# Velocity S-wave (km/s) = 3.53425 3.68754 3.61171
# Velocity P-wave (km/s) = 6.35755 6.73347 6.54821
#
# Compressibility (1/GPa) = 0.02313070
#
# Stress axis : x y z
#
# Youngs Moduli (GPa) = 86.49520 76.90203 46.40726
#
# Poissons Ratio (x) = 0.17820 0.30000
# Poissons Ratio (y) = 0.20043 0.12575
# Poissons Ratio (z) = 0.55914 0.20838
#
# Static dielectric constant tensor:
#      x y z
#    x 3.563710 0.000000 -0.161050 
#    y 0.000000 3.667720 0.000000 
#    z -0.161050 0.000000 2.942560 
# 
# 
# High freq. dielectric constant tensor:
#      x y z
#    x 1.692450 0.000000 -0.008440 
#    y 0.000000 1.725960 0.000000 
#    z -0.008440 0.000000 1.652150 
# 
# From -- ./inp_files/11716.got.cif
#   From: 2010.03.12/outbox.cif.g09.slc.cpg/sg4_6_cif.got.tgz:11716.got - 2010.03.31 09:31:35.
