data_PCOD8045206
_publ_section_title
;
Structure prediction by ZEFSAII (Michael W. Deem and Ramdas Pophale) SiO2 
 PCOD8045206
Probable space group: P 2
;
_chemical_formula_sum "Si O2"
_cell_formula_units_Z 16
_cell_length_a 8.351304
_cell_length_b 6.758960
_cell_length_c 16.545811
_cell_angle_alpha 90.000000
_cell_angle_beta 53.774678
_cell_angle_gamma 90.000000
_cell_volume 753.414305
_symmetry_space_group_name_H-M "P 2"
_symmetry_group_IT_number 3
_symmetry_cell_setting 'monoclinic'
loop_
_space_group_symop_operation_xyz
x,y,z
-x,y,-z
loop_
_atom_site_type_symbol
_atom_site_label
_atom_site_fract_x
_atom_site_fract_y
_atom_site_fract_z
Si Si1 0.480053 0.257040 0.099682
Si Si2 0.848470 0.568024 0.762218
Si Si3 0.699525 0.064863 0.392769
Si Si4 0.210847 0.430485 0.741509
Si Si5 0.783195 0.521610 0.087809
Si Si6 0.467968 0.848542 0.191034
Si Si7 0.083396 0.784429 0.561912
Si Si8 0.524351 0.748559 0.635496
O O1 0.277103 0.363992 0.190842
O O2 0.668214 0.400343 0.053885
O O3 0.505814 0.067533 0.148805
O O4 0.500000 0.195918 0.000000
O O5 0.692347 0.747359 0.821699
O O6 0.022940 0.571406 0.776183
O O7 0.954077 0.609781 0.643084
O O8 0.500000 0.130760 0.500000
O O9 0.796064 0.246149 0.316174
O O10 0.881445 0.980702 0.393471
O O11 0.640308 0.901366 0.345485
O O12 0.196861 0.377572 0.840084
O O13 0.421648 0.537573 0.673434
O O14 0.672876 0.728762 0.136131
O O15 0.000000 0.588950 0.000000
O O16 0.382662 0.836794 0.308435
O O17 0.306274 0.705124 0.480920
O O18 0.000000 0.848488 0.500000
#
# Coordination Sequence:
#
# PCOD8045206 Si02
#       8
#     2   2   2   2   2   2   2   2
#     4  11  25  44  68  97 131 168 218 275 325 395
#     4  11  24  40  65  94 133 172 219 265 329 390
#     4  10  23  38  62  94 126 170 220 265 317 384
#     4  11  23  39  66  94 129 172 214 269 322 384
#     4  10  23  45  67  97 130 165 214 267 329 390
#     4  10  23  43  67  95 131 170 214 267 330 386
#     4  11  22  42  64  92 132 177 217 272 325 388
#     4  10  21  41  63  91 134 168 216 269 317 386
#
# _framework density 21.236656
#
# number of rings (size 3 to 8) (size 9 to 14) (size 15 to 20)
#    0.000    1.500    2.500    1.500    3.500    3.500 
#    0.000    3.125    0.000    0.000    0.000    0.000 
#    0.000    0.000    0.000    0.000    0.000    0.000 
#
# Total GULP energy -198276.487728 kJ/mol
# GULP energy per Si atom -12392.280483 kJ/mol
# Density = 2.118832 g / cm^3
# Si number density = 21.236656 Si / 1000 Ang^3
#
#
#
# Elastic Constant Matrix: (Units=GPa)
#
#
# Indices 1 2 3 4 5 6 
#
# 1 98.4277 26.2043 32.6651 0.0000 5.7830 0.0000
# 2 26.2043 82.1416 48.5348 0.0000 4.8226 0.0000
# 3 32.6651 48.5348 113.5426 0.0000 -4.4273 0.0000
# 4 0.0000 0.0000 0.0000 21.1781 0.0000 9.9898
# 5 5.7830 4.8226 -4.4273 0.0000 37.1303 0.0000
# 6 0.0000 0.0000 0.0000 9.9898 0.0000 28.7194
#
#
#
# Elastic Compliance Matrix: (Units=1/GPa)
#
#
# Indices 1 2 3 4 5 6 
#
# 1 0.011670 -0.002125 -0.002521 0.000000 -0.001842 0.000000
# 2 -0.002125 0.017005 -0.006762 0.000000 -0.002684 0.000000
# 3 -0.002521 -0.006762 0.012531 0.000000 0.002765 0.000000
# 4 0.000000 0.000000 0.000000 0.056487 0.000000 -0.019648
# 5 -0.001842 -0.002684 0.002765 0.000000 0.027897 0.000000
# 6 0.000000 0.000000 0.000000 -0.019648 0.000000 0.041654
#
#
# Mechanical properties :
#
#
# Convention : Reuss Voigt Hill
#
# Bulk Modulus (GPa) = 54.37831 56.54669 55.46250
# Shear Modulus (GPa) = 25.48526 29.85273 27.66900
#
# Velocity S-wave (km/s) = 3.46795 3.75336 3.61347
# Velocity P-wave (km/s) = 6.45732 6.74302 6.60172
#
# Compressibility (1/GPa) = 0.01838969
#
# Stress axis : x y z
#
# Youngs Moduli (GPa) = 85.68701 58.80503 79.80282
#
# Poissons Ratio (x) = 0.12499 0.20116
# Poissons Ratio (y) = 0.18212 0.53965
# Poissons Ratio (z) = 0.21600 0.39766
#
# Static dielectric constant tensor:
#      x y z
#    x 4.081240 0.000000 0.040540 
#    y 0.000000 3.496450 0.000000 
#    z 0.040540 0.000000 3.926920 
# 
# 
# High freq. dielectric constant tensor:
#      x y z
#    x 1.851390 0.000000 -0.004070 
#    y 0.000000 1.805300 0.000000 
#    z -0.004070 0.000000 1.835780 
# 
# From -- ./inp_files/14854.got.cif
#   From: 2010.03.12/outbox.cif.g09.slc.cpg/sg3_8_cif.got.tgz:14854.got - 2010.03.31 09:20:49.
