data_PCOD8045211
_publ_section_title
;
Structure prediction by ZEFSAII (Michael W. Deem and Ramdas Pophale) SiO2 
 PCOD8045211
Probable space group: P 2
;
_chemical_formula_sum "Si O2"
_cell_formula_units_Z 12
_cell_length_a 14.112256
_cell_length_b 8.929174
_cell_length_c 9.761892
_cell_angle_alpha 90.000000
_cell_angle_beta 29.240856
_cell_angle_gamma 90.000000
_cell_volume 600.883513
_symmetry_space_group_name_H-M "P 2"
_symmetry_group_IT_number 3
_symmetry_cell_setting 'monoclinic'
loop_
_space_group_symop_operation_xyz
x,y,z
-x,y,-z
loop_
_atom_site_type_symbol
_atom_site_label
_atom_site_fract_x
_atom_site_fract_y
_atom_site_fract_z
Si Si1 0.963184 0.388170 0.706690
Si Si2 0.562139 0.671244 0.769922
Si Si3 0.627794 0.324086 0.712484
Si Si4 0.651189 0.843422 0.191327
Si Si5 0.009238 0.674924 0.830351
Si Si6 0.591779 0.187162 0.239223
O O1 0.000000 0.423145 0.500000
O O2 0.147944 0.301216 0.533729
O O3 0.943100 0.541968 0.814081
O O4 0.772713 0.290823 0.971328
O O5 0.570360 0.492523 0.740989
O O6 0.402467 0.740718 0.870626
O O7 0.775848 0.736564 0.472047
O O8 0.500000 0.716551 0.000000
O O9 0.583971 0.213793 0.643366
O O10 0.500000 0.270410 0.000000
O O11 0.500000 0.805772 0.500000
O O12 0.655071 0.016309 0.146227
O O13 0.863823 0.810077 0.982263
O O14 0.000000 0.621877 0.000000
O O15 0.500000 0.229586 0.500000
#
# Coordination Sequence:
#
# PCOD8045211 Si02
#       6
#     2   2   2   2   2   2
#     4  11  24  43  67  98 127 161 212 266 317 371
#     4  10  23  41  65  96 122 165 214 268 313 368
#     4  10  21  41  67  91 126 163 208 265 315 367
#     4  11  24  44  63  90 133 171 209 259 313 380
#     4  11  24  41  69  96 124 166 214 263 316 370
#     4  11  26  42  63  93 128 174 211 255 314 378
#
# _framework density 19.970593000000001
#
# number of rings (size 3 to 8) (size 9 to 14) (size 15 to 20)
#    0.000    1.333    3.333    1.000    9.333    3.333 
#    3.000    0.000    0.000    0.000    0.000    0.000 
#    0.000    0.000    0.000    0.000    0.000    0.000 
#
# Total GULP energy -148835.872213 kJ/mol
# GULP energy per Si atom -12402.989351 kJ/mol
# Density = 1.992514 g / cm^3
# Si number density = 19.970593 Si / 1000 Ang^3
#
#
#
# Elastic Constant Matrix: (Units=GPa)
#
#
# Indices 1 2 3 4 5 6 
#
# 1 154.5087 57.8455 55.8881 0.0000 9.6614 0.0000
# 2 57.8455 57.4714 28.9637 0.0000 10.0489 0.0000
# 3 55.8881 28.9637 117.7721 0.0000 5.3899 0.0000
# 4 0.0000 0.0000 0.0000 -11.2067 0.0000 -45.7270
# 5 9.6614 10.0489 5.3899 0.0000 39.1506 0.0000
# 6 0.0000 0.0000 0.0000 -45.7270 0.0000 -51.4071
#
#
#
# Elastic Compliance Matrix: (Units=1/GPa)
#
#
# Indices 1 2 3 4 5 6 
#
# 1 0.011192 -0.009831 -0.002901 0.000000 0.000161 0.000000
# 2 -0.009831 0.029300 -0.002322 0.000000 -0.004775 0.000000
# 3 -0.002901 -0.002322 0.010444 0.000000 -0.000126 0.000000
# 4 0.000000 0.000000 0.000000 0.033935 0.000000 -0.030186
# 5 0.000161 -0.004775 -0.000126 0.000000 0.026746 0.000000
# 6 0.000000 0.000000 0.000000 -0.030186 0.000000 0.007398
#
#
# Mechanical properties :
#
#
# Convention : Reuss Voigt Hill
#
# Bulk Modulus (GPa) = 48.01024 68.34966 58.17995
# Shear Modulus (GPa) = 32.03793 7.77771 19.90782
#
# Velocity S-wave (km/s) = 4.00966 1.97561 3.16073
# Velocity P-wave (km/s) = 6.74753 6.28518 6.52046
#
# Compressibility (1/GPa) = 0.02082889
#
# Stress axis : x y z
#
# Youngs Moduli (GPa) = 89.35086 34.12967 95.74621
#
# Poissons Ratio (x) = 0.33553 0.27773
# Poissons Ratio (y) = 0.87841 0.22232
# Poissons Ratio (z) = 0.25918 0.07925
#
# Static dielectric constant tensor:
#      x y z
#    x 3.890010 0.000000 -0.019320 
#    y 0.000000 3.382380 0.000000 
#    z -0.019320 0.000000 3.810670 
# 
# 
# High freq. dielectric constant tensor:
#      x y z
#    x 1.801540 0.000000 -0.001270 
#    y 0.000000 1.758210 0.000000 
#    z -0.001270 0.000000 1.793420 
# 
# From -- ./inp_files/7290.got.cif
#   From: 2010.03.12/outbox.cif.g09.slc.cpg/sg3_4_cif.got.tgz:7290.got - 2010.03.31 09:20:49.
