data_PCOD8045115
_publ_section_title
;
Structure prediction by ZEFSAII (Michael W. Deem and Ramdas Pophale) SiO2 
 PCOD8045115
Probable space group: P 2
;
_chemical_formula_sum "Si O2"
_cell_formula_units_Z 14
_cell_length_a 16.681129
_cell_length_b 7.629361
_cell_length_c 17.481750
_cell_angle_alpha 90.000000
_cell_angle_beta 162.592780
_cell_angle_gamma 90.000000
_cell_volume 665.585022
_symmetry_space_group_name_H-M "P 2"
_symmetry_group_IT_number 3
_symmetry_cell_setting 'monoclinic'
loop_
_space_group_symop_operation_xyz
x,y,z
-x,y,-z
loop_
_atom_site_type_symbol
_atom_site_label
_atom_site_fract_x
_atom_site_fract_y
_atom_site_fract_z
Si Si1 0.966096 0.681020 0.249954
Si Si2 0.033904 0.086921 0.750044
Si Si3 0.566115 0.678588 0.749950
Si Si4 0.566116 0.089355 0.749951
Si Si5 0.212788 0.582202 0.750000
Si Si6 0.303522 0.383971 0.250000
Si Si7 0.212788 0.185740 0.750000
O O1 0.882972 0.579214 0.250003
O O2 0.265820 0.627109 0.500194
O O3 0.945003 0.883971 0.249993
O O4 0.765225 0.627124 0.999636
O O5 0.117029 0.188727 0.749998
O O6 0.734179 0.140831 0.499802
O O7 0.234771 0.140816 0.000361
O O8 0.645362 0.562217 0.750009
O O9 0.590436 0.883972 0.749960
O O10 0.645357 0.205728 0.750006
O O11 0.245030 0.383971 0.750000
O O12 0.000000 0.678348 0.500000
O O13 0.500000 0.678348 0.000000
O O14 0.500000 0.383970 0.500000
O O15 0.000000 0.383968 0.000000
O O16 0.000000 0.089595 0.500000
O O17 0.500000 0.089594 0.000000
#
# Coordination Sequence:
#
# PCOD8045115 Si02
#       7
#     2   2   2   2   2   2   2
#     4  10  21  38  60  85 116 159 202 241 293 344
#     4  10  21  38  60  85 116 159 202 241 293 344
#     4  10  23  41  62  91 121 154 197 243 290 350
#     4  10  23  41  62  91 121 154 197 243 290 350
#     4  10  21  34  51  82 118 155 198 246 295 336
#     4  12  26  42  66  96 118 154 194 230 302 366
#     4  10  21  34  51  82 118 155 198 246 295 336
#
# _framework density 21.034126000000001
#
# number of rings (size 3 to 8) (size 9 to 14) (size 15 to 20)
#    0.000    1.714    0.000    3.429    4.000    2.286 
#    0.000    0.000    0.000    0.000    0.000    0.000 
#    0.000    0.000    0.000    0.000    0.000    0.000 
#
# Total GULP energy -173643.543649 kJ/mol
# GULP energy per Si atom -12403.110261 kJ/mol
# Density = 2.098625 g / cm^3
# Si number density = 21.034126 Si / 1000 Ang^3
#
#
#
# Elastic Constant Matrix: (Units=GPa)
#
#
# Indices 1 2 3 4 5 6 
#
# 1 167.3694 50.9888 106.6085 0.0000 3.0576 0.0000
# 2 50.9888 64.1207 38.7903 0.0000 -1.1326 0.0000
# 3 106.6085 38.7903 245.5447 0.0000 4.1843 0.0000
# 4 0.0000 0.0000 0.0000 -6.6922 0.0000 -0.7526
# 5 3.0576 -1.1326 4.1843 0.0000 46.9936 0.0000
# 6 0.0000 0.0000 0.0000 -0.7526 0.0000 1.2931
#
#
#
# Elastic Compliance Matrix: (Units=1/GPa)
#
#
# Indices 1 2 3 4 5 6 
#
# 1 0.009914 -0.005853 -0.003372 0.000000 -0.000486 0.000000
# 2 -0.005853 0.020719 -0.000748 0.000000 0.000947 0.000000
# 3 -0.003372 -0.000748 0.005660 0.000000 -0.000303 0.000000
# 4 0.000000 0.000000 0.000000 -0.140248 0.000000 -0.081628
# 5 -0.000486 0.000947 -0.000303 0.000000 0.021361 0.000000
# 6 0.000000 0.000000 0.000000 -0.081628 0.000000 0.725825
#
#
# Mechanical properties :
#
#
# Convention : Reuss Voigt Hill
#
# Bulk Modulus (GPa) = 61.16941 96.64556 78.90748
# Shear Modulus (GPa) = 7.47803 27.02871 17.25337
#
# Velocity S-wave (km/s) = 1.88757 3.58857 2.86712
# Velocity P-wave (km/s) = 5.82192 7.95093 6.96821
#
# Compressibility (1/GPa) = 0.01634804
#
# Stress axis : x y z
#
# Youngs Moduli (GPa) = 100.86401 48.26483 176.68473
#
# Poissons Ratio (x) = 0.28248 0.59572
# Poissons Ratio (y) = 0.59033 0.13219
# Poissons Ratio (z) = 0.34008 0.03611
#
# Static dielectric constant tensor:
#      x y z
#    x 3.617950 0.000000 0.099120 
#    y 0.000000 3.626730 0.000000 
#    z 0.099120 0.000000 4.688040 
# 
# 
# High freq. dielectric constant tensor:
#      x y z
#    x 1.821120 0.000000 0.003080 
#    y 0.000000 1.819330 0.000000 
#    z 0.003080 0.000000 1.854340 
# 
# From -- ./inp_files/13013.got.cif
#   From: 2010.03.12/outbox.cif.g09.slc.cpg/sg3_7_cif.got.tgz:13013.got - 2010.03.31 09:20:49.
