data_PCOD8045005
_publ_section_title
;
Structure prediction by ZEFSAII (Michael W. Deem and Ramdas Pophale) SiO2 
 PCOD8045005
Probable space group: P 2
;
_chemical_formula_sum "Si O2"
_cell_formula_units_Z 16
_cell_length_a 8.963418
_cell_length_b 9.381491
_cell_length_c 20.744721
_cell_angle_alpha 90.000000
_cell_angle_beta 28.469332
_cell_angle_gamma 90.000000
_cell_volume 831.548540
_symmetry_space_group_name_H-M "P 2"
_symmetry_group_IT_number 3
_symmetry_cell_setting 'monoclinic'
loop_
_space_group_symop_operation_xyz
x,y,z
-x,y,-z
loop_
_atom_site_type_symbol
_atom_site_label
_atom_site_fract_x
_atom_site_fract_y
_atom_site_fract_z
Si Si1 0.069360 0.243580 0.900990
Si Si2 0.654691 0.337154 0.619599
Si Si3 0.039502 0.553816 0.297723
Si Si4 0.323396 0.507047 0.002226
Si Si5 0.766190 0.644775 0.539649
Si Si6 0.272293 0.265811 0.638112
Si Si7 0.134342 0.055322 0.132919
Si Si8 0.906024 0.736511 0.228549
O O1 0.439260 0.276194 0.758437
O O2 0.980702 0.105254 0.893437
O O3 0.000000 0.206196 0.000000
O O4 0.889987 0.379872 0.941130
O O5 0.665991 0.506973 0.618821
O O6 0.493776 0.297602 0.613917
O O7 0.000000 0.270765 0.500000
O O8 0.418750 0.542421 0.150641
O O9 0.929394 0.595877 0.410895
O O10 0.878018 0.408274 0.335007
O O11 0.936524 0.678106 0.289000
O O12 0.500000 0.456127 0.000000
O O13 0.104691 0.642783 0.101821
O O14 0.462855 0.742404 0.646175
O O15 0.000000 0.728498 0.500000
O O16 0.500000 0.192387 0.500000
O O17 0.005445 0.154056 0.757567
O O18 0.500000 0.069731 0.000000
O O19 0.034716 0.894150 0.179673
#
# Coordination Sequence:
#
# PCOD8045005 Si02
#       8
#     2   2   2   2   2   2   2   2
#     4  11  23  39  60  90 122 158 199 248 299 356
#     4  10  20  35  56  86 120 156 189 241 300 350
#     4  11  20  36  64  91 118 150 201 255 304 351
#     4  10  20  36  61  90 116 149 202 257 299 349
#     4  11  22  37  60  90 123 154 193 249 304 350
#     4  11  20  37  59  91 119 152 197 256 297 352
#     4  11  24  42  62  86 122 162 200 245 300 355
#     4  11  21  42  60  86 120 159 201 249 297 351
#
# _framework density 19.241209000000001
#
# number of rings (size 3 to 8) (size 9 to 14) (size 15 to 20)
#    0.000    1.250    3.750    4.875    3.500    2.000 
#    0.000    5.625    0.000    0.000    0.000    0.000 
#    0.000    0.000    0.000    0.000    0.000    0.000 
#
# Total GULP energy -198361.662166 kJ/mol
# GULP energy per Si atom -12397.603885 kJ/mol
# Density = 1.919742 g / cm^3
# Si number density = 19.241209 Si / 1000 Ang^3
#
#
#
# Elastic Constant Matrix: (Units=GPa)
#
#
# Indices 1 2 3 4 5 6 
#
# 1 61.5044 21.1312 49.4847 0.0000 0.7138 0.0000
# 2 21.1312 86.4509 32.9363 0.0000 3.2375 0.0000
# 3 49.4847 32.9363 155.3939 0.0000 -4.5615 0.0000
# 4 0.0000 0.0000 0.0000 25.3631 0.0000 -9.5439
# 5 0.7138 3.2375 -4.5615 0.0000 42.4670 0.0000
# 6 0.0000 0.0000 0.0000 -9.5439 0.0000 5.9802
#
#
#
# Elastic Compliance Matrix: (Units=1/GPa)
#
#
# Indices 1 2 3 4 5 6 
#
# 1 0.022594 -0.002980 -0.006589 0.000000 -0.000860 0.000000
# 2 -0.002980 0.013043 -0.001849 0.000000 -0.001143 0.000000
# 3 -0.006589 -0.001849 0.008961 0.000000 0.001214 0.000000
# 4 0.000000 0.000000 0.000000 0.098700 0.000000 0.157517
# 5 -0.000860 -0.001143 0.001214 0.000000 0.023780 0.000000
# 6 0.000000 0.000000 0.000000 0.157517 0.000000 0.418604
#
#
# Mechanical properties :
#
#
# Convention : Reuss Voigt Hill
#
# Bulk Modulus (GPa) = 45.95137 56.71707 51.33422
# Shear Modulus (GPa) = 8.11990 28.08186 18.10088
#
# Velocity S-wave (km/s) = 2.05651 3.82444 3.07047
# Velocity P-wave (km/s) = 5.43807 7.00304 6.26958
#
# Compressibility (1/GPa) = 0.02176214
#
# Stress axis : x y z
#
# Youngs Moduli (GPa) = 44.25981 76.66970 111.59608
#
# Poissons Ratio (x) = 0.22850 0.73525
# Poissons Ratio (y) = 0.13191 0.20634
# Poissons Ratio (z) = 0.29161 0.14176
#
# Static dielectric constant tensor:
#      x y z
#    x 3.704800 0.000000 -0.129170 
#    y 0.000000 3.281280 0.000000 
#    z -0.129170 0.000000 4.426210 
# 
# 
# High freq. dielectric constant tensor:
#      x y z
#    x 1.745960 0.000000 -0.008690 
#    y 0.000000 1.718950 0.000000 
#    z -0.008690 0.000000 1.777410 
# 
# From -- ./inp_files/9448.got.cif
#   From: 2010.03.12/outbox.cif.g09.slc.cpg/sg3_5_cif.got.tgz:9448.got - 2010.03.31 09:20:49.
