data_PCOD8045541
_publ_section_title
;
Structure prediction by ZEFSAII (Michael W. Deem and Ramdas Pophale) SiO2 
 PCOD8045541
Probable space group: P 2
;
_chemical_formula_sum "Si O2"
_cell_formula_units_Z 12
_cell_length_a 25.883608
_cell_length_b 4.983128
_cell_length_c 19.240248
_cell_angle_alpha 90.000000
_cell_angle_beta 167.222131
_cell_angle_gamma 90.000000
_cell_volume 548.867248
_symmetry_space_group_name_H-M "P 2"
_symmetry_group_IT_number 3
_symmetry_cell_setting 'monoclinic'
loop_
_space_group_symop_operation_xyz
x,y,z
-x,y,-z
loop_
_atom_site_type_symbol
_atom_site_label
_atom_site_fract_x
_atom_site_fract_y
_atom_site_fract_z
Si Si1 0.774046 0.159550 0.358090
Si Si2 0.501597 0.721918 0.303322
Si Si3 0.002118 0.664237 0.585306
Si Si4 0.314535 0.734605 0.201787
Si Si5 0.198913 0.217596 0.319532
Si Si6 0.985385 0.231916 0.183871
O O1 0.919190 0.382919 0.507528
O O2 0.846649 0.134276 0.534042
O O3 0.827532 0.883892 0.388370
O O4 0.500000 0.222580 0.000000
O O5 0.443479 0.839376 0.302623
O O6 0.601171 0.422649 0.442114
O O7 0.695369 0.923361 0.527085
O O8 0.270320 0.725537 0.954072
O O9 0.000000 0.657262 0.500000
O O10 0.500000 0.624810 0.500000
O O11 0.150261 0.488707 0.964511
O O12 0.177905 0.986560 0.054244
O O13 0.113011 0.326321 0.281281
O O14 0.000000 0.205975 0.000000
#
# Coordination Sequence:
#
# PCOD8045541 Si02
#       6
#     2   2   2   2   2   2
#     4  12  26  47  71 102 134 176 223 282 343 401
#     4  12  24  44  68  97 138 172 226 278 329 398
#     4  12  27  47  72 102 132 176 227 278 344 405
#     4  12  23  43  70  96 132 180 222 276 331 396
#     4  12  26  43  67 101 138 181 223 270 333 396
#     4  12  24  44  66 100 138 171 227 276 330 402
#
# _framework density 21.863209000000001
#
# number of rings (size 3 to 8) (size 9 to 14) (size 15 to 20)
#    0.000    0.000    3.333    7.000    4.667    0.000 
#    0.000    0.000    0.000    0.000    0.000    0.000 
#    0.000    0.000    0.000    0.000    0.000    0.000 
#
# Total GULP energy -148886.057632 kJ/mol
# GULP energy per Si atom -12407.171469 kJ/mol
# Density = 2.181345 g / cm^3
# Si number density = 21.863209 Si / 1000 Ang^3
#
#
#
# Elastic Constant Matrix: (Units=GPa)
#
#
# Indices 1 2 3 4 5 6 
#
# 1 141.9123 6.7542 51.8198 0.0000 -17.9782 0.0000
# 2 6.7542 97.4958 16.6305 0.0000 2.3764 0.0000
# 3 51.8198 16.6305 101.6158 0.0000 -5.2905 0.0000
# 4 0.0000 0.0000 0.0000 43.3234 0.0000 -0.6213
# 5 -17.9782 2.3764 -5.2905 0.0000 27.5241 0.0000
# 6 0.0000 0.0000 0.0000 -0.6213 0.0000 33.7968
#
#
#
# Elastic Compliance Matrix: (Units=1/GPa)
#
#
# Indices 1 2 3 4 5 6 
#
# 1 0.009353 -0.000009 -0.004495 0.000000 0.005246 0.000000
# 2 -0.000009 0.010595 -0.001795 0.000000 -0.001266 0.000000
# 3 -0.004495 -0.001795 0.012406 0.000000 -0.000396 0.000000
# 4 0.000000 0.000000 0.000000 0.023088 0.000000 0.000424
# 5 0.005246 -0.001266 -0.000396 0.000000 0.039791 0.000000
# 6 0.000000 0.000000 0.000000 0.000424 0.000000 0.029596
#
#
# Mechanical properties :
#
#
# Convention : Reuss Voigt Hill
#
# Bulk Modulus (GPa) = 50.61901 54.60365 52.61133
# Shear Modulus (GPa) = 34.71892 38.65018 36.68455
#
# Velocity S-wave (km/s) = 3.98930 4.20910 4.10068
# Velocity P-wave (km/s) = 6.66500 6.97506 6.82179
#
# Compressibility (1/GPa) = 0.01975542
#
# Stress axis : x y z
#
# Youngs Moduli (GPa) = 106.91757 94.38822 80.60338
#
# Poissons Ratio (x) = 0.00086 0.36231
# Poissons Ratio (y) = 0.00097 0.14470
# Poissons Ratio (z) = 0.48060 0.16944
#
# Static dielectric constant tensor:
#      x y z
#    x 3.770300 0.000000 0.125850 
#    y 0.000000 3.920650 0.000000 
#    z 0.125850 0.000000 3.848320 
# 
# 
# High freq. dielectric constant tensor:
#      x y z
#    x 1.873370 0.000000 0.000360 
#    y 0.000000 1.873220 0.000000 
#    z 0.000360 0.000000 1.866810 
# 
# From -- ./inp_files/16150.got.cif
#   From: 2010.03.12/outbox.cif.g09.slc.cpg/sg3_9_cif.got.tgz:16150.got - 2010.03.31 09:20:49.
