data_PCOD8045307
_publ_section_title
;
Structure prediction by ZEFSAII (Michael W. Deem and Ramdas Pophale) SiO2 
 PCOD8045307
Probable space group: P 2
;
_chemical_formula_sum "Si O2"
_cell_formula_units_Z 11
_cell_length_a 7.064752
_cell_length_b 12.907052
_cell_length_c 5.278909
_cell_angle_alpha 90.000000
_cell_angle_beta 79.688155
_cell_angle_gamma 90.000000
_cell_volume 473.583090
_symmetry_space_group_name_H-M "P 2"
_symmetry_group_IT_number 3
_symmetry_cell_setting 'monoclinic'
loop_
_space_group_symop_operation_xyz
x,y,z
-x,y,-z
loop_
_atom_site_type_symbol
_atom_site_label
_atom_site_fract_x
_atom_site_fract_y
_atom_site_fract_z
Si Si1 0.227994 0.062880 0.955535
Si Si2 0.000000 0.323942 0.500000
Si Si3 0.794690 0.456138 0.927305
Si Si4 0.227168 0.943235 0.456548
Si Si5 0.500000 0.762230 0.500000
Si Si6 0.670114 0.268436 0.261517
Si Si7 0.500000 0.631428 0.000000
O O1 0.329509 0.176187 0.945332
O O2 0.300001 0.006922 0.682547
O O3 0.000000 0.070625 0.000000
O O4 0.300648 0.000537 0.184580
O O5 0.166498 0.395379 0.340854
O O6 0.117234 0.251742 0.664309
O O7 0.662021 0.381548 0.134334
O O8 0.685599 0.561664 0.893593
O O9 0.000000 0.482568 0.000000
O O10 0.317327 0.829657 0.458852
O O11 0.000000 0.928171 0.500000
O O12 0.552260 0.695341 0.239292
O O13 0.500000 0.256439 0.500000
#
# Coordination Sequence:
#
# PCOD8045307 Si02
#       7
#     2   1   2   2   1   2   1
#     4  10  22  42  71 102 140 187 227 272 341 418
#     4  10  22  42  68  94 154 178 238 268 338 410
#     4  10  24  43  69 102 143 186 228 285 342 417
#     4  10  24  47  70  98 137 177 232 289 346 410
#     4  12  28  48  72 102 132 174 238 308 354 412
#     4  11  24  40  65 107 146 186 226 277 335 419
#     4  12  28  46  74 102 136 176 240 294 362 414
#
# _framework density 23.227177999999999
#
# number of rings (size 3 to 8) (size 9 to 14) (size 15 to 20)
#    0.000    1.455    0.000    3.818   14.000    1.455 
#    0.000    0.000    0.000    0.000    0.000    0.000 
#    0.000    0.000    0.000    0.000    0.000    0.000 
#
# Total GULP energy -136426.168386 kJ/mol
# GULP energy per Si atom -12402.378944 kJ/mol
# Density = 2.317431 g / cm^3
# Si number density = 23.227178 Si / 1000 Ang^3
#
#
#
# Elastic Constant Matrix: (Units=GPa)
#
#
# Indices 1 2 3 4 5 6 
#
# 1 80.5747 52.8755 41.0473 0.0000 10.5255 0.0000
# 2 52.8755 136.3142 62.1695 0.0000 1.9683 0.0000
# 3 41.0473 62.1695 164.8647 0.0000 6.7640 0.0000
# 4 0.0000 0.0000 0.0000 -59.9503 0.0000 -87.0270
# 5 10.5255 1.9683 6.7640 0.0000 35.0505 0.0000
# 6 0.0000 0.0000 0.0000 -87.0270 0.0000 -86.3393
#
#
#
# Elastic Compliance Matrix: (Units=1/GPa)
#
#
# Indices 1 2 3 4 5 6 
#
# 1 0.017980 -0.005981 -0.002029 0.000000 -0.004672 0.000000
# 2 -0.005981 0.010850 -0.002672 0.000000 0.001703 0.000000
# 3 -0.002029 -0.002672 0.007608 0.000000 -0.000709 0.000000
# 4 0.000000 0.000000 0.000000 0.036010 0.000000 -0.036297
# 5 -0.004672 0.001703 -0.000709 0.000000 0.029974 0.000000
# 6 0.000000 0.000000 0.000000 -0.036297 0.000000 0.025004
#
#
# Mechanical properties :
#
#
# Convention : Reuss Voigt Hill
#
# Bulk Modulus (GPa) = 66.34808 77.10427 71.72617
# Shear Modulus (GPa) = 32.50626 -7.20374 12.65126
#
# Velocity S-wave (km/s) = 3.74504 -1.76300 2.33636
# Velocity P-wave (km/s) = 6.87948 5.39663 6.18267
#
# Compressibility (1/GPa) = 0.01507203
#
# Stress axis : x y z
#
# Youngs Moduli (GPa) = 55.61701 92.16358 131.44751
#
# Poissons Ratio (x) = 0.55126 0.26676
# Poissons Ratio (y) = 0.33267 0.35125
# Poissons Ratio (z) = 0.11287 0.24628
#
# Static dielectric constant tensor:
#      x y z
#    x 4.561340 0.000000 -0.005920 
#    y 0.000000 4.054820 0.000000 
#    z -0.005920 0.000000 4.458930 
# 
# 
# High freq. dielectric constant tensor:
#      x y z
#    x 1.936330 0.000000 0.001410 
#    y 0.000000 1.906040 0.000000 
#    z 0.001410 0.000000 1.932200 
# 
# From -- ./inp_files/1082.got.cif
#   From: 2010.03.12/outbox.cif.g09.slc.cpg/sg3_1_cif.got.tgz:1082.got - 2010.03.31 09:20:49.
