data_PCOD8045270
_publ_section_title
;
Structure prediction by ZEFSAII (Michael W. Deem and Ramdas Pophale) SiO2 
 PCOD8045270
Probable space group: P 2
;
_chemical_formula_sum "Si O2"
_cell_formula_units_Z 13
_cell_length_a 15.016096
_cell_length_b 5.646747
_cell_length_c 14.255914
_cell_angle_alpha 90.000000
_cell_angle_beta 153.181038
_cell_angle_gamma 90.000000
_cell_volume 545.372775
_symmetry_space_group_name_H-M "P 2"
_symmetry_group_IT_number 3
_symmetry_cell_setting 'monoclinic'
loop_
_space_group_symop_operation_xyz
x,y,z
-x,y,-z
loop_
_atom_site_type_symbol
_atom_site_label
_atom_site_fract_x
_atom_site_fract_y
_atom_site_fract_z
Si Si1 0.759446 0.981660 0.911540
Si Si2 0.666209 0.672424 0.236009
Si Si3 0.958250 0.598707 0.797025
Si Si4 0.660362 0.900239 0.417892
Si Si5 0.000000 0.269753 0.000000
Si Si6 0.009028 0.219173 0.704195
Si Si7 0.266709 0.173212 0.762518
O O1 0.527122 0.009823 0.706354
O O2 0.823028 0.116153 0.877091
O O3 0.835030 0.711440 0.973253
O O4 0.863982 0.075234 0.102360
O O5 0.586739 0.715993 0.267552
O O6 0.777647 0.413141 0.342423
O O7 0.795179 0.911326 0.334974
O O8 0.500000 0.645772 0.000000
O O9 0.783435 0.786079 0.618869
O O10 0.894847 0.415580 0.817840
O O11 0.989935 0.486071 0.723871
O O12 0.789897 0.105399 0.489535
O O13 0.126955 0.215201 0.718986
O O14 0.500000 0.159714 0.000000
#
# Coordination Sequence:
#
# PCOD8045270 Si02
#       7
#     2   2   2   2   1   2   2
#     4  10  22  45  75  98 144 187 233 302 368 453
#     4  10  23  41  68 103 145 197 254 295 359 432
#     4  10  24  44  72 102 139 182 236 302 365 452
#     4  11  25  44  70 107 142 192 244 300 371 435
#     4  10  22  48  72 106 140 182 236 296 384 448
#     4  10  24  43  66 101 143 186 244 299 367 424
#     4  10  22  40  68  99 141 198 247 304 355 425
#
# _framework density 23.836905999999999
#
# number of rings (size 3 to 8) (size 9 to 14) (size 15 to 20)
#    0.000    1.846    0.000    2.308   10.769    3.077 
#    0.000   18.462    0.000    0.000    0.000    0.000 
#    0.000    0.000    0.000    0.000    0.000    0.000 
#
# Total GULP energy -161074.219403 kJ/mol
# GULP energy per Si atom -12390.324569 kJ/mol
# Density = 2.378265 g / cm^3
# Si number density = 23.836906 Si / 1000 Ang^3
#
#
#
# Elastic Constant Matrix: (Units=GPa)
#
#
# Indices 1 2 3 4 5 6 
#
# 1 155.4836 50.5157 38.1232 0.0000 29.3814 0.0000
# 2 50.5157 151.2589 19.2288 0.0000 15.0311 0.0000
# 3 38.1232 19.2288 88.3669 0.0000 35.0701 0.0000
# 4 0.0000 0.0000 0.0000 -295.4987 0.0000 61.3138
# 5 29.3814 15.0311 35.0701 0.0000 43.9490 0.0000
# 6 0.0000 0.0000 0.0000 61.3138 0.0000 20.3477
#
#
#
# Elastic Compliance Matrix: (Units=1/GPa)
#
#
# Indices 1 2 3 4 5 6 
#
# 1 0.008200 -0.002185 -0.001731 0.000000 -0.003353 0.000000
# 2 -0.002185 0.007467 -0.000363 0.000000 -0.000803 0.000000
# 3 -0.001731 -0.000363 0.017026 0.000000 -0.012304 0.000000
# 4 0.000000 0.000000 0.000000 -0.002082 0.000000 0.006274
# 5 -0.003353 -0.000803 -0.012304 0.000000 0.035088 0.000000
# 6 0.000000 0.000000 0.000000 0.006274 0.000000 0.030239
#
#
# Mechanical properties :
#
#
# Convention : Reuss Voigt Hill
#
# Bulk Modulus (GPa) = 41.43824 67.87165 54.65494
# Shear Modulus (GPa) = 44.42823 -27.09096 8.66864
#
# Velocity S-wave (km/s) = 4.32191 -3.37488 1.90907
# Velocity P-wave (km/s) = 6.50592 3.65359 5.27616
#
# Compressibility (1/GPa) = 0.02413230
#
# Stress axis : x y z
#
# Youngs Moduli (GPa) = 121.95774 133.92372 58.73490
#
# Poissons Ratio (x) = 0.29264 0.10169
# Poissons Ratio (y) = 0.26649 0.02135
# Poissons Ratio (z) = 0.21115 0.04868
#
# Static dielectric constant tensor:
#      x y z
#    x 4.670310 0.000000 -0.870590 
#    y 0.000000 5.216670 0.000000 
#    z -0.870590 0.000000 5.478140 
# 
# 
# High freq. dielectric constant tensor:
#      x y z
#    x 1.945470 0.000000 -0.014540 
#    y 0.000000 1.964660 0.000000 
#    z -0.014540 0.000000 1.932070 
# 
# From -- ./inp_files/13840.got.cif
#   From: 2010.03.12/outbox.cif.g09.slc.cpg/sg3_7_cif.got.tgz:13840.got - 2010.03.31 09:20:49.
