data_PCOD8045369
_publ_section_title
;
Structure prediction by ZEFSAII (Michael W. Deem and Ramdas Pophale) SiO2 
 PCOD8045369
Probable space group: P 2
;
_chemical_formula_sum "Si O2"
_cell_formula_units_Z 15
_cell_length_a 11.367240
_cell_length_b 6.547524
_cell_length_c 20.036033
_cell_angle_alpha 90.000000
_cell_angle_beta 28.412644
_cell_angle_gamma 90.000000
_cell_volume 709.553300
_symmetry_space_group_name_H-M "P 2"
_symmetry_group_IT_number 3
_symmetry_cell_setting 'monoclinic'
loop_
_space_group_symop_operation_xyz
x,y,z
-x,y,-z
loop_
_atom_site_type_symbol
_atom_site_label
_atom_site_fract_x
_atom_site_fract_y
_atom_site_fract_z
Si Si1 0.044582 0.734320 0.140939
Si Si2 0.678955 0.614191 0.220370
Si Si3 0.343217 0.950015 0.882658
Si Si4 0.524867 0.468179 0.059065
Si Si5 0.207453 0.156039 0.292337
Si Si6 0.884703 0.519529 0.489467
Si Si7 0.893280 0.783375 0.738439
Si Si8 0.000000 0.287898 0.000000
O O1 0.993540 0.787405 0.243687
O O2 0.775768 0.727767 0.239092
O O3 0.224051 0.895250 0.013810
O O4 0.191056 0.517169 0.065145
O O5 0.698883 0.765030 0.147414
O O6 0.409264 0.518098 0.360282
O O7 0.869440 0.429397 0.119559
O O8 0.639569 0.997503 0.737129
O O9 0.212794 0.154645 0.925737
O O10 0.412454 0.322623 0.170383
O O11 0.379530 0.685454 0.126343
O O12 0.500000 0.356049 0.000000
O O13 0.981677 0.283519 0.437132
O O14 0.102508 0.021297 0.284222
O O15 0.000000 0.616106 0.500000
O O16 0.945395 0.650709 0.393790
#
# Coordination Sequence:
#
# PCOD8045369 Si02
#       8
#     2   2   2   2   2   2   2   1
#     4  11  21  43  67  99 139 173 214 282 346 399
#     4  12  25  45  69  97 141 180 225 283 341 402
#     4  12  23  39  70 103 133 176 221 284 348 394
#     4   9  20  36  62 100 131 169 211 272 341 392
#     4  11  23  39  65 100 130 173 230 272 327 403
#     4  11  26  46  67  94 132 183 229 277 335 402
#     4  10  23  42  67  97 135 177 224 270 337 404
#     4  12  22  42  64 108 130 168 238 274 348 406
#
# _framework density 21.140059000000001
#
# number of rings (size 3 to 8) (size 9 to 14) (size 15 to 20)
#    0.000    1.067    4.000    2.400    3.733    3.200 
#    2.400    0.000    0.000    0.000    0.000    0.000 
#    0.000    0.000    0.000    0.000    0.000    0.000 
#
# Total GULP energy -185905.548896 kJ/mol
# GULP energy per Si atom -12393.703260 kJ/mol
# Density = 2.109194 g / cm^3
# Si number density = 21.140059 Si / 1000 Ang^3
#
#
#
# Elastic Constant Matrix: (Units=GPa)
#
#
# Indices 1 2 3 4 5 6 
#
# 1 130.8436 40.5453 55.5021 0.0000 4.4380 0.0000
# 2 40.5453 94.6228 33.1929 0.0000 4.3664 0.0000
# 3 55.5021 33.1929 101.6229 0.0000 -6.3193 0.0000
# 4 0.0000 0.0000 0.0000 33.0315 0.0000 -4.6276
# 5 4.4380 4.3664 -6.3193 0.0000 40.0601 0.0000
# 6 0.0000 0.0000 0.0000 -4.6276 0.0000 23.9089
#
#
#
# Elastic Compliance Matrix: (Units=1/GPa)
#
#
# Indices 1 2 3 4 5 6 
#
# 1 0.010688 -0.002731 -0.005050 0.000000 -0.001683 0.000000
# 2 -0.002731 0.012784 -0.002779 0.000000 -0.001529 0.000000
# 3 -0.005050 -0.002779 0.013694 0.000000 0.003023 0.000000
# 4 0.000000 0.000000 0.000000 0.031118 0.000000 0.006023
# 5 -0.001683 -0.001529 0.003023 0.000000 0.025792 0.000000
# 6 0.000000 0.000000 0.000000 0.006023 0.000000 0.042991
#
#
# Mechanical properties :
#
#
# Convention : Reuss Voigt Hill
#
# Bulk Modulus (GPa) = 62.32059 65.06332 63.69195
# Shear Modulus (GPa) = 30.57416 32.59004 31.58210
#
# Velocity S-wave (km/s) = 3.80711 3.93061 3.86935
# Velocity P-wave (km/s) = 6.99066 7.17243 7.08212
#
# Compressibility (1/GPa) = 0.01604606
#
# Stress axis : x y z
#
# Youngs Moduli (GPa) = 93.56139 78.22364 73.02318
#
# Poissons Ratio (x) = 0.21360 0.36878
# Poissons Ratio (y) = 0.25548 0.20296
# Poissons Ratio (z) = 0.47250 0.21741
#
# Static dielectric constant tensor:
#      x y z
#    x 4.053520 0.000000 0.049200 
#    y 0.000000 3.806330 0.000000 
#    z 0.049200 0.000000 3.767920 
# 
# 
# High freq. dielectric constant tensor:
#      x y z
#    x 1.837210 0.000000 0.000070 
#    y 0.000000 1.826750 0.000000 
#    z 0.000070 0.000000 1.811770 
# 
# From -- ./inp_files/11280.got.cif
#   From: 2010.03.12/outbox.cif.g09.slc.cpg/sg3_6_cif.got.tgz:11280.got - 2010.03.31 09:20:49.
