data_PCOD8045462
_publ_section_title
;
Structure prediction by ZEFSAII (Michael W. Deem and Ramdas Pophale) SiO2 
 PCOD8045462
Probable space group: P 2
;
_chemical_formula_sum "Si O2"
_cell_formula_units_Z 12
_cell_length_a 12.484710
_cell_length_b 8.280179
_cell_length_c 8.899787
_cell_angle_alpha 90.000000
_cell_angle_beta 142.324743
_cell_angle_gamma 90.000000
_cell_volume 562.303380
_symmetry_space_group_name_H-M "P 2"
_symmetry_group_IT_number 3
_symmetry_cell_setting 'monoclinic'
loop_
_space_group_symop_operation_xyz
x,y,z
-x,y,-z
loop_
_atom_site_type_symbol
_atom_site_label
_atom_site_fract_x
_atom_site_fract_y
_atom_site_fract_z
Si Si1 0.691732 0.489460 0.706015
Si Si2 0.841897 0.592923 0.561397
Si Si3 0.000000 0.072183 0.500000
Si Si4 0.000000 0.054239 0.000000
Si Si5 0.823144 0.795823 0.993520
Si Si6 0.301587 0.848111 0.810433
Si Si7 0.035584 0.289112 0.798640
O O1 0.500000 0.413113 0.500000
O O2 0.737360 0.520006 0.584514
O O3 0.690623 0.665359 0.780572
O O4 0.814553 0.365020 0.930277
O O5 0.721442 0.674898 0.299304
O O6 0.983177 0.721552 0.775821
O O7 0.931993 0.431523 0.596908
O O8 0.104594 0.177152 0.739879
O O9 0.150445 0.968360 0.580171
O O10 0.078813 0.172599 0.217770
O O11 0.844166 0.947621 0.903031
O O12 0.738593 0.842874 0.057816
O O13 0.500000 0.909451 0.000000
#
# Coordination Sequence:
#
# PCOD8045462 Si02
#       7
#     2   2   1   1   2   2   2
#     4  11  23  42  65 102 135 175 241 285 330 408
#     4  11  21  43  67  95 131 183 231 277 336 409
#     4  12  26  46  70  98 146 182 220 290 348 414
#     4  12  18  42  68  94 128 174 236 272 338 410
#     4  11  21  40  71  95 132 180 229 283 336 404
#     4  12  25  44  69 104 135 181 236 277 342 413
#     4  11  24  42  69  97 135 189 224 278 358 404
#
# _framework density 21.340792
#
# number of rings (size 3 to 8) (size 9 to 14) (size 15 to 20)
#    0.000    0.667    6.667    2.000    4.667    0.000 
#    3.000    0.833    0.000    0.000    0.000    0.000 
#    0.000    0.000    0.000    0.000    0.000    0.000 
#
# Total GULP energy -148665.705909 kJ/mol
# GULP energy per Si atom -12388.808826 kJ/mol
# Density = 2.129222 g / cm^3
# Si number density = 21.340792 Si / 1000 Ang^3
#
#
#
# Elastic Constant Matrix: (Units=GPa)
#
#
# Indices 1 2 3 4 5 6 
#
# 1 130.9087 52.7385 60.5205 0.0000 5.1664 0.0000
# 2 52.7385 126.1944 50.4103 0.0000 -6.9074 0.0000
# 3 60.5205 50.4103 79.6122 0.0000 7.3943 0.0000
# 4 0.0000 0.0000 0.0000 26.8698 0.0000 -21.8074
# 5 5.1664 -6.9074 7.3943 0.0000 42.0917 0.0000
# 6 0.0000 0.0000 0.0000 -21.8074 0.0000 31.8930
#
#
#
# Elastic Compliance Matrix: (Units=1/GPa)
#
#
# Indices 1 2 3 4 5 6 
#
# 1 0.012099 -0.001899 -0.007958 0.000000 -0.000399 0.000000
# 2 -0.001899 0.011283 -0.005992 0.000000 0.003137 0.000000
# 3 -0.007958 -0.005992 0.022777 0.000000 -0.004008 0.000000
# 4 0.000000 0.000000 0.000000 0.083622 0.000000 0.057178
# 5 -0.000399 0.003137 -0.004008 0.000000 0.025026 0.000000
# 6 0.000000 0.000000 0.000000 0.057178 0.000000 0.070451
#
#
# Mechanical properties :
#
#
# Convention : Reuss Voigt Hill
#
# Bulk Modulus (GPa) = 69.15374 73.78375 71.46875
# Shear Modulus (GPa) = 19.10026 31.70729 25.40377
#
# Velocity S-wave (km/s) = 2.99492 3.85874 3.45394
# Velocity P-wave (km/s) = 6.66590 7.38256 7.03337
#
# Compressibility (1/GPa) = 0.01446053
#
# Stress axis : x y z
#
# Youngs Moduli (GPa) = 82.65343 88.62555 43.90428
#
# Poissons Ratio (x) = 0.16832 0.34938
# Poissons Ratio (y) = 0.15698 0.26309
# Poissons Ratio (z) = 0.65773 0.53107
#
# Static dielectric constant tensor:
#      x y z
#    x 4.068160 0.000000 -0.143770 
#    y 0.000000 4.351500 0.000000 
#    z -0.143770 0.000000 3.644350 
# 
# 
# High freq. dielectric constant tensor:
#      x y z
#    x 1.838860 0.000000 -0.028860 
#    y 0.000000 1.853680 0.000000 
#    z -0.028860 0.000000 1.805330 
# 
# From -- ./inp_files/7559.got.cif
#   From: 2010.03.12/outbox.cif.g09.slc.cpg/sg3_4_cif.got.tgz:7559.got - 2010.03.31 09:20:49.
