data_PCOD8045774
_publ_section_title
;
Structure prediction by ZEFSAII (Michael W. Deem and Ramdas Pophale) SiO2 
 PCOD8045774
Probable space group: P 21
;
_chemical_formula_sum "Si O2"
_cell_formula_units_Z 14
_cell_length_a 9.234191
_cell_length_b 4.808751
_cell_length_c 16.995607
_cell_angle_alpha 90.000000
_cell_angle_beta 124.063232
_cell_angle_gamma 90.000000
_cell_volume 625.199132
_symmetry_space_group_name_H-M "P 21"
_symmetry_group_IT_number 4
_symmetry_cell_setting 'monoclinic'
loop_
_space_group_symop_operation_xyz
x,y,z
-x,1/2+y,-z
loop_
_atom_site_type_symbol
_atom_site_label
_atom_site_fract_x
_atom_site_fract_y
_atom_site_fract_z
Si Si1 0.996275 0.031150 0.954020
Si Si2 0.477022 0.889544 0.550614
Si Si3 0.677378 0.692675 0.116973
Si Si4 0.829669 0.930424 0.738747
Si Si5 0.000955 0.426638 0.712757
Si Si6 0.084847 0.908771 0.484772
Si Si7 0.706438 0.189327 0.022614
O O1 0.869297 0.036926 0.839505
O O2 0.153142 0.803117 0.994897
O O3 0.082261 0.335638 0.998554
O O4 0.509304 0.686412 0.487027
O O5 0.627547 0.847721 0.663159
O O6 0.294410 0.856044 0.543149
O O7 0.715114 0.373457 0.105863
O O8 0.727821 0.869189 0.054058
O O9 0.476877 0.738846 0.078802
O O10 0.803113 0.802769 0.223731
O O11 0.866396 0.177923 0.689044
O O12 0.960476 0.673502 0.761908
O O13 0.973520 0.535693 0.616568
O O14 0.023355 0.126179 0.532404
#
# Coordination Sequence:
#
# PCOD8045774 Si02
#       7
#     2   2   2   2   2   2   2
#     4  12  24  40  60  88 133 166 207 272 326 372
#     4  12  23  45  74  99 130 177 234 276 329 422
#     4  10  19  36  62  87 110 156 207 266 288 372
#     4  12  23  42  69  95 120 175 233 266 317 410
#     4  12  21  41  70  90 125 168 223 269 326 402
#     4  12  26  44  66  99 139 167 210 288 353 390
#     4  10  20  36  59  84 119 153 206 251 319 360
#
# _framework density 22.392863999999999
#
# number of rings (size 3 to 8) (size 9 to 14) (size 15 to 20)
#    0.000    0.571    5.714    3.429    0.000    0.000 
#    5.143    0.000    0.000    0.000    0.000    0.000 
#    0.000    0.000    0.000    0.000    0.000    0.000 
#
# Total GULP energy -173495.335220 kJ/mol
# GULP energy per Si atom -12392.523944 kJ/mol
# Density = 2.234190 g / cm^3
# Si number density = 22.392864 Si / 1000 Ang^3
#
#
#
# Elastic Constant Matrix: (Units=GPa)
#
#
# Indices 1 2 3 4 5 6 
#
# 1 89.4470 -9.5622 15.4855 0.0000 10.4814 0.0000
# 2 -9.5622 68.8586 -7.9461 0.0000 -8.7776 0.0000
# 3 15.4855 -7.9461 124.4037 0.0000 15.4352 0.0000
# 4 0.0000 0.0000 0.0000 29.0799 0.0000 0.2976
# 5 10.4814 -8.7776 15.4352 0.0000 32.0948 0.0000
# 6 0.0000 0.0000 0.0000 0.2976 0.0000 26.1294
#
#
#
# Elastic Compliance Matrix: (Units=1/GPa)
#
#
# Indices 1 2 3 4 5 6 
#
# 1 0.011837 0.001135 -0.001021 0.000000 -0.003064 0.000000
# 2 0.001135 0.015183 0.000382 0.000000 0.003598 0.000000
# 3 -0.001021 0.000382 0.008652 0.000000 -0.003723 0.000000
# 4 0.000000 0.000000 0.000000 0.034392 0.000000 -0.000392
# 5 -0.003064 0.003598 -0.003723 0.000000 0.034933 0.000000
# 6 0.000000 0.000000 0.000000 -0.000392 0.000000 0.038276
#
#
# Mechanical properties :
#
#
# Convention : Reuss Voigt Hill
#
# Bulk Modulus (GPa) = 27.27396 30.96263 29.11830
# Shear Modulus (GPa) = 32.36242 36.44297 34.40269
#
# Velocity S-wave (km/s) = 3.80572 4.03853 3.92385
# Velocity P-wave (km/s) = 5.61405 5.96685 5.79313
#
# Compressibility (1/GPa) = 0.03666501
#
# Stress axis : x y z
#
# Youngs Moduli (GPa) = 84.48113 65.86358 115.58380
#
# Poissons Ratio (x) = -0.07478 0.11798
# Poissons Ratio (y) = -0.09592 -0.04416
# Poissons Ratio (z) = 0.08623 -0.02516
#
# Static dielectric constant tensor:
#      x y z
#    x 4.120960 0.000000 0.270130 
#    y 0.000000 4.251590 0.000000 
#    z 0.270130 0.000000 3.754310 
# 
# 
# High freq. dielectric constant tensor:
#      x y z
#    x 1.879460 0.000000 0.018700 
#    y 0.000000 1.908340 0.000000 
#    z 0.018700 0.000000 1.866210 
# 
# From -- ./inp_files/10041.got.cif
#   From: 2010.03.12/outbox.cif.g09.slc.cpg/sg4_6_cif.got.tgz:10041.got - 2010.03.31 09:31:35.
