data_PCOD8045473
_publ_section_title
;
Structure prediction by ZEFSAII (Michael W. Deem and Ramdas Pophale) SiO2 
 PCOD8045473
Probable space group: P 2
;
_chemical_formula_sum "Si O2"
_cell_formula_units_Z 13
_cell_length_a 11.582759
_cell_length_b 11.480388
_cell_length_c 11.130267
_cell_angle_alpha 90.000000
_cell_angle_beta 155.022981
_cell_angle_gamma 90.000000
_cell_volume 624.954896
_symmetry_space_group_name_H-M "P 2"
_symmetry_group_IT_number 3
_symmetry_cell_setting 'monoclinic'
loop_
_space_group_symop_operation_xyz
x,y,z
-x,y,-z
loop_
_atom_site_type_symbol
_atom_site_label
_atom_site_fract_x
_atom_site_fract_y
_atom_site_fract_z
Si Si1 0.073860 0.045350 0.783290
Si Si2 0.467238 0.003332 0.600549
Si Si3 0.245284 0.755605 0.321391
Si Si4 0.229654 0.281966 0.814207
Si Si5 0.000000 0.871621 0.500000
Si Si6 0.309429 0.532183 0.935102
Si Si7 0.786616 0.672981 0.456257
O O1 0.155918 0.175629 0.828962
O O2 0.758759 0.059523 0.525393
O O3 0.128067 0.956444 0.722825
O O4 0.244302 0.002776 0.058725
O O5 0.500000 0.066152 0.500000
O O6 0.382541 0.872185 0.498881
O O7 0.500000 0.685060 0.500000
O O8 0.117301 0.695823 0.317174
O O9 0.000000 0.780028 0.000000
O O10 0.272732 0.396943 0.939043
O O11 0.000000 0.311283 0.500000
O O12 0.500000 0.244917 0.000000
O O13 0.219235 0.787726 0.637016
O O14 0.016732 0.584991 0.625551
O O15 0.500000 0.534511 0.000000
O O16 0.486557 0.614412 0.190680
#
# Coordination Sequence:
#
# PCOD8045473 Si02
#       7
#     2   2   2   2   1   2   2
#     4  12  25  41  64  95 136 165 205 276 318 393
#     4  11  24  41  63  90 126 176 218 251 316 387
#     4  11  23  41  62  90 126 174 217 254 314 391
#     4  11  23  42  63  91 130 174 219 253 317 395
#     4  12  26  38  62 108 138 162 196 260 364 378
#     4  11  22  40  60  91 124 173 209 253 310 389
#     4  12  24  38  64  93 134 159 204 270 318 386
#
# _framework density 20.801500999999998
#
# number of rings (size 3 to 8) (size 9 to 14) (size 15 to 20)
#    0.000    0.615    3.846    6.000    2.154    1.231 
#    0.000    0.000    0.000    9.231    0.000    0.000 
#    0.000    0.000    0.000    0.000    0.000    0.000 
#
# Total GULP energy -161094.813481 kJ/mol
# GULP energy per Si atom -12391.908729 kJ/mol
# Density = 2.075416 g / cm^3
# Si number density = 20.801501 Si / 1000 Ang^3
#
#
#
# Elastic Constant Matrix: (Units=GPa)
#
#
# Indices 1 2 3 4 5 6 
#
# 1 112.0936 44.7835 27.7350 0.0000 -6.6572 0.0000
# 2 44.7835 107.5584 16.4655 0.0000 -5.7311 0.0000
# 3 27.7350 16.4655 90.2561 0.0000 -4.4642 0.0000
# 4 0.0000 0.0000 0.0000 25.6698 0.0000 4.0394
# 5 -6.6572 -5.7311 -4.4642 0.0000 43.5068 0.0000
# 6 0.0000 0.0000 0.0000 4.0394 0.0000 16.3872
#
#
#
# Elastic Compliance Matrix: (Units=1/GPa)
#
#
# Indices 1 2 3 4 5 6 
#
# 1 0.011337 -0.004265 -0.002661 0.000000 0.000900 0.000000
# 2 -0.004265 0.011220 -0.000699 0.000000 0.000754 0.000000
# 3 -0.002661 -0.000699 0.012061 0.000000 0.000738 0.000000
# 4 0.000000 0.000000 0.000000 0.040528 0.000000 -0.009990
# 5 0.000900 0.000754 0.000738 0.000000 0.023298 0.000000
# 6 0.000000 0.000000 0.000000 -0.009990 0.000000 0.063486
#
#
# Mechanical properties :
#
#
# Convention : Reuss Voigt Hill
#
# Bulk Modulus (GPa) = 51.63113 54.20846 52.91979
# Shear Modulus (GPa) = 27.22770 31.84105 29.53437
#
# Velocity S-wave (km/s) = 3.62184 3.91667 3.77214
# Velocity P-wave (km/s) = 6.50884 6.82424 6.66840
#
# Compressibility (1/GPa) = 0.01936816
#
# Stress axis : x y z
#
# Youngs Moduli (GPa) = 88.20723 89.12477 82.90912
#
# Poissons Ratio (x) = 0.38011 0.22064
# Poissons Ratio (y) = 0.37620 0.05796
# Poissons Ratio (z) = 0.23474 0.06230
#
# Static dielectric constant tensor:
#      x y z
#    x 4.751940 0.000000 0.194110 
#    y 0.000000 4.101190 0.000000 
#    z 0.194110 0.000000 4.291690 
# 
# 
# High freq. dielectric constant tensor:
#      x y z
#    x 1.814060 0.000000 0.007660 
#    y 0.000000 1.795860 0.000000 
#    z 0.007660 0.000000 1.827780 
# 
# From -- ./inp_files/11882.got.cif
#   From: 2010.03.12/outbox.cif.g09.slc.cpg/sg3_6_cif.got.tgz:11882.got - 2010.03.31 09:20:49.
