data_PCOD8045719
_publ_section_title
;
Structure prediction by ZEFSAII (Michael W. Deem and Ramdas Pophale) SiO2 
 PCOD8045719
Probable space group: P 21
;
_chemical_formula_sum "Si O2"
_cell_formula_units_Z 16
_cell_length_a 9.949387
_cell_length_b 8.990282
_cell_length_c 12.166377
_cell_angle_alpha 90.000000
_cell_angle_beta 54.391537
_cell_angle_gamma 90.000000
_cell_volume 884.767870
_symmetry_space_group_name_H-M "P 21"
_symmetry_group_IT_number 4
_symmetry_cell_setting 'monoclinic'
loop_
_space_group_symop_operation_xyz
x,y,z
-x,1/2+y,-z
loop_
_atom_site_type_symbol
_atom_site_label
_atom_site_fract_x
_atom_site_fract_y
_atom_site_fract_z
Si Si1 0.042101 0.467240 0.819571
Si Si2 0.452027 0.617418 0.141690
Si Si3 0.737740 0.123346 0.119318
Si Si4 0.259861 0.967705 0.877673
Si Si5 0.456868 0.969927 0.130475
Si Si6 0.918906 0.126684 0.637712
Si Si7 0.914533 0.475153 0.646844
Si Si8 0.039671 0.124015 0.816850
O O1 0.187338 0.566275 0.801602
O O2 0.020416 0.516999 0.704216
O O3 0.092365 0.295077 0.806497
O O4 0.869361 0.497019 0.963109
O O5 0.577080 0.563371 0.176341
O O6 0.269389 0.570671 0.267308
O O7 0.467251 0.792893 0.116471
O O8 0.490073 0.536157 0.010480
O O9 0.691350 0.295569 0.153911
O O10 0.574200 0.029833 0.171199
O O11 0.866280 0.095447 0.959899
O O12 0.182687 0.020721 0.798942
O O13 0.273781 0.025621 0.246516
O O14 0.922769 0.301678 0.620952
O O15 0.016316 0.079135 0.701433
O O16 0.010338 0.057784 0.491687
#
# Coordination Sequence:
#
# PCOD8045719 Si02
#       8
#     2   2   2   2   2   2   2   2
#     4   9  18  35  54  79 114 146 180 228 279 326
#     4  11  21  36  57  84 114 145 185 233 278 326
#     4  10  19  33  55  85 113 141 184 231 278 330
#     4  10  19  33  55  85 113 141 184 231 278 330
#     4  11  21  36  57  84 114 145 185 233 278 326
#     4  10  22  39  57  81 114 148 186 228 276 333
#     4  10  22  39  57  81 114 148 186 228 276 333
#     4   9  18  35  54  79 114 146 180 228 279 326
#
# _framework density 18.083841
#
# number of rings (size 3 to 8) (size 9 to 14) (size 15 to 20)
#    0.000    2.000    2.500    1.500    0.000    4.000 
#    0.000    1.250    0.000    0.000    0.000    0.000 
#    0.000    0.000    0.000    0.000    0.000    0.000 
#
# Total GULP energy -198453.648535 kJ/mol
# GULP energy per Si atom -12403.353033 kJ/mol
# Density = 1.804268 g / cm^3
# Si number density = 18.083841 Si / 1000 Ang^3
#
#
#
# Elastic Constant Matrix: (Units=GPa)
#
#
# Indices 1 2 3 4 5 6 
#
# 1 83.1740 23.7972 13.2626 0.0000 7.4142 0.0000
# 2 23.7972 50.3914 7.3906 0.0000 -0.0880 0.0000
# 3 13.2626 7.3906 47.1422 0.0000 13.4431 0.0000
# 4 0.0000 0.0000 0.0000 28.6399 0.0000 2.0554
# 5 7.4142 -0.0880 13.4431 0.0000 25.7622 0.0000
# 6 0.0000 0.0000 0.0000 2.0554 0.0000 36.1256
#
#
#
# Elastic Compliance Matrix: (Units=1/GPa)
#
#
# Indices 1 2 3 4 5 6 
#
# 1 0.014515 -0.006540 -0.002186 0.000000 -0.003059 0.000000
# 2 -0.006540 0.023349 -0.002796 0.000000 0.003421 0.000000
# 3 -0.002186 -0.002796 0.025951 0.000000 -0.012922 0.000000
# 4 0.000000 0.000000 0.000000 0.035060 0.000000 -0.001995
# 5 -0.003059 0.003421 -0.012922 0.000000 0.046451 0.000000
# 6 0.000000 0.000000 0.000000 -0.001995 0.000000 0.027795
#
#
# Mechanical properties :
#
#
# Convention : Reuss Voigt Hill
#
# Bulk Modulus (GPa) = 24.52709 29.95650 27.24179
# Shear Modulus (GPa) = 23.83738 27.18934 25.51336
#
# Velocity S-wave (km/s) = 3.63458 3.88173 3.76019
# Velocity P-wave (km/s) = 5.58624 6.05737 5.82657
#
# Compressibility (1/GPa) = 0.04077125
#
# Stress axis : x y z
#
# Youngs Moduli (GPa) = 68.89271 42.82833 38.53478
#
# Poissons Ratio (x) = 0.28008 0.08424
# Poissons Ratio (y) = 0.45053 0.10775
# Poissons Ratio (z) = 0.15061 0.11976
#
# Static dielectric constant tensor:
#      x y z
#    x 3.687030 0.000000 -0.007220 
#    y 0.000000 3.365100 0.000000 
#    z -0.007220 0.000000 3.196700 
# 
# 
# High freq. dielectric constant tensor:
#      x y z
#    x 1.716620 0.000000 0.008050 
#    y 0.000000 1.704850 0.000000 
#    z 0.008050 0.000000 1.673240 
# 
# From -- ./inp_files/5813.got.cif
#   From: 2010.03.12/outbox.cif.g09.slc.cpg/sg4_3_cif.got.tgz:5813.got - 2010.03.31 09:31:35.
