data_PCOD8045520
_publ_section_title
;
Structure prediction by ZEFSAII (Michael W. Deem and Ramdas Pophale) SiO2 
 PCOD8045520
Probable space group: P 2
;
_chemical_formula_sum "Si O2"
_cell_formula_units_Z 14
_cell_length_a 12.563320
_cell_length_b 8.601931
_cell_length_c 9.245022
_cell_angle_alpha 90.000000
_cell_angle_beta 39.177728
_cell_angle_gamma 90.000000
_cell_volume 631.158543
_symmetry_space_group_name_H-M "P 2"
_symmetry_group_IT_number 3
_symmetry_cell_setting 'monoclinic'
loop_
_space_group_symop_operation_xyz
x,y,z
-x,y,-z
loop_
_atom_site_type_symbol
_atom_site_label
_atom_site_fract_x
_atom_site_fract_y
_atom_site_fract_z
Si Si1 0.653247 0.463110 0.170180
Si Si2 0.500000 0.919957 0.000000
Si Si3 0.180725 0.676427 0.773483
Si Si4 0.831240 0.100480 0.594828
Si Si5 0.620602 0.642105 0.708522
Si Si6 0.817997 0.447803 0.711549
Si Si7 0.833212 0.030796 0.254772
Si Si8 0.500000 0.194042 0.500000
O O1 0.689289 0.584605 0.260979
O O2 0.500061 0.523980 0.240270
O O3 0.598885 0.295794 0.280558
O O4 0.803817 0.430172 0.899654
O O5 0.532273 0.809421 0.826454
O O6 0.667603 0.023280 0.843594
O O7 0.217740 0.655123 0.565283
O O8 0.181034 0.860024 0.800691
O O9 0.000000 0.602771 0.000000
O O10 0.806020 0.285754 0.636242
O O11 0.855773 0.045740 0.403602
O O12 0.000000 0.046058 0.500000
O O13 0.679666 0.570389 0.799443
O O14 0.000000 0.523906 0.500000
O O15 0.648890 0.099086 0.418160
O O16 0.000000 0.107740 0.000000
#
# Coordination Sequence:
#
# PCOD8045520 Si02
#       8
#     2   1   2   2   2   2   2   1
#     4  12  25  45  69 105 136 186 238 289 356 418
#     4  12  26  42  76 100 146 184 228 300 356 426
#     4  11  25  46  69 100 141 184 235 293 348 423
#     4  11  28  48  72 108 144 190 241 293 360 429
#     4  12  23  46  68 105 135 183 239 285 360 415
#     4  11  26  45  71 102 140 185 235 296 350 423
#     4  11  28  48  72 107 145 192 238 293 360 429
#     4  12  28  42  76 102 146 188 230 298 356 428
#
# _framework density 22.181432000000001
#
# number of rings (size 3 to 8) (size 9 to 14) (size 15 to 20)
#    0.000    0.571    4.286    1.714   10.000    3.429 
#    0.000    0.000    0.000    0.000    0.000    0.000 
#    0.000    0.000    0.000    0.000    0.000    0.000 
#
# Total GULP energy -173536.261324 kJ/mol
# GULP energy per Si atom -12395.447237 kJ/mol
# Density = 2.213095 g / cm^3
# Si number density = 22.181432 Si / 1000 Ang^3
#
#
#
# Elastic Constant Matrix: (Units=GPa)
#
#
# Indices 1 2 3 4 5 6 
#
# 1 135.1846 40.4561 54.3662 0.0000 -8.8741 0.0000
# 2 40.4561 77.9630 22.0385 0.0000 -8.8449 0.0000
# 3 54.3662 22.0385 162.1365 0.0000 5.4134 0.0000
# 4 0.0000 0.0000 0.0000 35.6834 0.0000 -3.2944
# 5 -8.8741 -8.8449 5.4134 0.0000 41.7845 0.0000
# 6 0.0000 0.0000 0.0000 -3.2944 0.0000 23.9229
#
#
#
# Elastic Compliance Matrix: (Units=1/GPa)
#
#
# Indices 1 2 3 4 5 6 
#
# 1 0.009868 -0.004151 -0.002797 0.000000 0.001580 0.000000
# 2 -0.004151 0.015490 -0.000797 0.000000 0.002501 0.000000
# 3 -0.002797 -0.000797 0.007271 0.000000 -0.001705 0.000000
# 4 0.000000 0.000000 0.000000 0.028385 0.000000 0.003909
# 5 0.001580 0.002501 -0.001705 0.000000 0.025018 0.000000
# 6 0.000000 0.000000 0.000000 0.003909 0.000000 0.042339
#
#
# Mechanical properties :
#
#
# Convention : Reuss Voigt Hill
#
# Bulk Modulus (GPa) = 58.34998 67.66730 63.00864
# Shear Modulus (GPa) = 33.42820 37.50639 35.46729
#
# Velocity S-wave (km/s) = 3.88627 4.11651 4.00304
# Velocity P-wave (km/s) = 6.81911 7.29155 7.05928
#
# Compressibility (1/GPa) = 0.01713797
#
# Stress axis : x y z
#
# Youngs Moduli (GPa) = 101.33558 64.55983 137.53394
#
# Poissons Ratio (x) = 0.26797 0.38475
# Poissons Ratio (y) = 0.42062 0.10963
# Poissons Ratio (z) = 0.28348 0.05146
#
# Static dielectric constant tensor:
#      x y z
#    x 4.073220 0.000000 0.155090 
#    y 0.000000 3.932680 0.000000 
#    z 0.155090 0.000000 4.888100 
# 
# 
# High freq. dielectric constant tensor:
#      x y z
#    x 1.865760 0.000000 -0.002430 
#    y 0.000000 1.868870 0.000000 
#    z -0.002430 0.000000 1.909420 
# 
# From -- ./inp_files/7345.got.cif
#   From: 2010.03.12/outbox.cif.g09.slc.cpg/sg3_4_cif.got.tgz:7345.got - 2010.03.31 09:20:49.
