data_PCOD8045374
_publ_section_title
;
Structure prediction by ZEFSAII (Michael W. Deem and Ramdas Pophale) SiO2 
 PCOD8045374
Probable space group: P 2
;
_chemical_formula_sum "Si O2"
_cell_formula_units_Z 16
_cell_length_a 11.988611
_cell_length_b 8.727400
_cell_length_c 8.653947
_cell_angle_alpha 90.000000
_cell_angle_beta 127.009587
_cell_angle_gamma 90.000000
_cell_volume 723.039175
_symmetry_space_group_name_H-M "P 2"
_symmetry_group_IT_number 3
_symmetry_cell_setting 'monoclinic'
loop_
_space_group_symop_operation_xyz
x,y,z
-x,y,-z
loop_
_atom_site_type_symbol
_atom_site_label
_atom_site_fract_x
_atom_site_fract_y
_atom_site_fract_z
Si Si1 0.380743 0.854390 0.282743
Si Si2 0.881766 0.963160 0.776916
Si Si3 0.643885 0.002580 0.052956
Si Si4 0.949585 0.261352 0.631934
Si Si5 0.558861 0.510934 0.703448
Si Si6 0.280533 0.486950 0.660207
Si Si7 0.247355 0.321278 0.937467
Si Si8 0.151802 0.810673 0.562717
O O1 0.500000 0.906528 0.500000
O O2 0.253337 0.960132 0.228975
O O3 0.363754 0.670556 0.273193
O O4 0.405740 0.888119 0.123225
O O5 0.856631 0.831098 0.629019
O O6 0.907755 0.118974 0.704291
O O7 0.000000 0.924341 0.000000
O O8 0.735377 0.920725 0.261403
O O9 0.733973 0.139313 0.057167
O O10 0.500000 0.070168 0.000000
O O11 0.816379 0.373632 0.522032
O O12 0.000000 0.211330 0.500000
O O13 0.081234 0.350871 0.816259
O O14 0.500000 0.435083 0.500000
O O15 0.427321 0.533715 0.707411
O O16 0.674957 0.390543 0.851581
O O17 0.316654 0.402156 0.848353
O O18 0.192849 0.636877 0.629729
O O19 0.000000 0.848704 0.500000
#
# Coordination Sequence:
#
# PCOD8045374 Si02
#       8
#     2   2   2   2   2   2   2   2
#     4  11  25  44  64  94 132 172 218 271 328 389
#     4  12  25  43  65  94 132 172 215 271 332 389
#     4  12  24  41  67  96 127 172 221 271 324 387
#     4  10  23  44  67  96 131 167 217 273 324 390
#     4  11  24  43  62  91 132 173 214 266 323 388
#     4  11  23  42  68  96 127 169 216 270 325 386
#     4  11  23  42  66  96 129 166 215 268 324 387
#     4  12  23  41  67  95 127 171 221 272 325 388
#
# _framework density 22.128814999999999
#
# number of rings (size 3 to 8) (size 9 to 14) (size 15 to 20)
#    0.000    0.750    0.000   10.125    0.000    4.500 
#    0.000    0.625    0.000    0.000    0.000    0.000 
#    0.000    0.000    0.000    0.000    0.000    0.000 
#
# Total GULP energy -198369.685903 kJ/mol
# GULP energy per Si atom -12398.105369 kJ/mol
# Density = 2.207845 g / cm^3
# Si number density = 22.128815 Si / 1000 Ang^3
#
#
#
# Elastic Constant Matrix: (Units=GPa)
#
#
# Indices 1 2 3 4 5 6 
#
# 1 87.1180 20.4415 26.0146 0.0000 12.2005 0.0000
# 2 20.4415 94.3451 56.2024 0.0000 0.2129 0.0000
# 3 26.0146 56.2024 176.4654 0.0000 0.5180 0.0000
# 4 0.0000 0.0000 0.0000 35.6309 0.0000 -4.6142
# 5 12.2005 0.2129 0.5180 0.0000 34.0530 0.0000
# 6 0.0000 0.0000 0.0000 -4.6142 0.0000 35.9111
#
#
#
# Elastic Compliance Matrix: (Units=1/GPa)
#
#
# Indices 1 2 3 4 5 6 
#
# 1 0.012981 -0.002061 -0.001244 0.000000 -0.004619 0.000000
# 2 -0.002061 0.013409 -0.003969 0.000000 0.000715 0.000000
# 3 -0.001244 -0.003969 0.007113 0.000000 0.000362 0.000000
# 4 0.000000 0.000000 0.000000 0.028540 0.000000 0.003667
# 5 -0.004619 0.000715 0.000362 0.000000 0.031011 0.000000
# 6 0.000000 0.000000 0.000000 0.003667 0.000000 0.028318
#
#
# Mechanical properties :
#
#
# Convention : Reuss Voigt Hill
#
# Bulk Modulus (GPa) = 52.75604 62.58282 57.66943
# Shear Modulus (GPa) = 35.15269 38.13700 36.64484
#
# Velocity S-wave (km/s) = 3.98998 4.15590 4.07379
# Velocity P-wave (km/s) = 6.71705 7.16737 6.94586
#
# Compressibility (1/GPa) = 0.01895517
#
# Stress axis : x y z
#
# Youngs Moduli (GPa) = 77.03847 74.57911 140.58586
#
# Poissons Ratio (x) = 0.15373 0.17483
# Poissons Ratio (y) = 0.15879 0.55795
# Poissons Ratio (z) = 0.09580 0.29598
#
# Static dielectric constant tensor:
#      x y z
#    x 3.978050 0.000000 -0.039480 
#    y 0.000000 3.825270 0.000000 
#    z -0.039480 0.000000 4.306620 
# 
# 
# High freq. dielectric constant tensor:
#      x y z
#    x 1.870190 0.000000 0.006120 
#    y 0.000000 1.866530 0.000000 
#    z 0.006120 0.000000 1.894270 
# 
# From -- ./inp_files/7507.got.cif
#   From: 2010.03.12/outbox.cif.g09.slc.cpg/sg3_4_cif.got.tgz:7507.got - 2010.03.31 09:20:49.
