data_PCOD8045983
_publ_section_title
;
Structure prediction by ZEFSAII (Michael W. Deem and Ramdas Pophale) SiO2 
 PCOD8045983
Probable space group: P 21
;
_chemical_formula_sum "Si O2"
_cell_formula_units_Z 16
_cell_length_a 12.063876
_cell_length_b 12.069573
_cell_length_c 8.008522
_cell_angle_alpha 90.000000
_cell_angle_beta 37.427159
_cell_angle_gamma 90.000000
_cell_volume 708.692407
_symmetry_space_group_name_H-M "P 21"
_symmetry_group_IT_number 4
_symmetry_cell_setting 'monoclinic'
loop_
_space_group_symop_operation_xyz
x,y,z
-x,1/2+y,-z
loop_
_atom_site_type_symbol
_atom_site_label
_atom_site_fract_x
_atom_site_fract_y
_atom_site_fract_z
Si Si1 0.277321 0.332360 0.871805
Si Si2 0.418131 0.567416 0.712951
Si Si3 0.098373 0.818353 0.809093
Si Si4 0.689813 0.702458 0.846966
Si Si5 0.365792 0.805123 0.767109
Si Si6 0.701898 0.499288 0.620450
Si Si7 0.657532 0.117550 0.565373
Si Si8 0.423822 0.403232 0.195812
O O1 0.290282 0.461905 0.908699
O O2 0.472476 0.295011 0.565401
O O3 0.214512 0.255487 0.104029
O O4 0.120950 0.316032 0.918016
O O5 0.327238 0.682153 0.888379
O O6 0.619386 0.557084 0.553277
O O7 0.441864 0.580245 0.486081
O O8 0.186670 0.849120 0.883271
O O9 0.143071 0.912381 0.617083
O O10 0.169815 0.696566 0.670131
O O11 0.779880 0.590670 0.660438
O O12 0.692485 0.792724 0.694894
O O13 0.481610 0.677196 0.143423
O O14 0.421669 0.888340 0.845538
O O15 0.531258 0.432157 0.899188
O O16 0.714638 0.001763 0.585967
#
# Coordination Sequence:
#
# PCOD8045983 Si02
#       8
#     2   2   2   2   2   2   2   2
#     4  12  23  44  65  95 132 175 219 272 324 397
#     4  11  19  39  67  90 125 172 221 265 326 384
#     4  11  23  44  65  94 135 171 219 272 328 386
#     4  11  21  38  65  95 125 167 213 265 329 381
#     4  11  22  42  67  96 126 173 224 271 321 396
#     4  11  21  39  65  97 126 171 210 274 333 384
#     4  10  20  38  64  93 123 171 215 260 319 389
#     4  11  19  36  70  94 124 170 217 259 334 387
#
# _framework density 22.576789999999999
#
# number of rings (size 3 to 8) (size 9 to 14) (size 15 to 20)
#    0.000    1.000    8.750    0.000    0.000    0.000 
#    6.750    1.250    0.000    0.000    0.000    0.000 
#    0.000    0.000    0.000    0.000    0.000    0.000 
#
# Total GULP energy -198276.297797 kJ/mol
# GULP energy per Si atom -12392.268612 kJ/mol
# Density = 2.252540 g / cm^3
# Si number density = 22.576790 Si / 1000 Ang^3
#
#
#
# Elastic Constant Matrix: (Units=GPa)
#
#
# Indices 1 2 3 4 5 6 
#
# 1 111.1885 30.0665 22.1200 0.0000 -7.7144 0.0000
# 2 30.0665 120.4830 13.3316 0.0000 7.9227 0.0000
# 3 22.1200 13.3316 16.0815 0.0000 -2.4489 0.0000
# 4 0.0000 0.0000 0.0000 22.3750 0.0000 10.7129
# 5 -7.7144 7.9227 -2.4489 0.0000 30.1885 0.0000
# 6 0.0000 0.0000 0.0000 10.7129 0.0000 38.2928
#
#
#
# Elastic Compliance Matrix: (Units=1/GPa)
#
#
# Indices 1 2 3 4 5 6 
#
# 1 0.012740 -0.001582 -0.015849 0.000000 0.002385 0.000000
# 2 -0.001582 0.009621 -0.006323 0.000000 -0.003442 0.000000
# 3 -0.015849 -0.006323 0.089973 0.000000 0.004908 0.000000
# 4 0.000000 0.000000 0.000000 0.051605 0.000000 -0.014437
# 5 0.002385 -0.003442 0.004908 0.000000 0.035036 0.000000
# 6 0.000000 0.000000 0.000000 -0.014437 0.000000 0.030154
#
#
# Mechanical properties :
#
#
# Convention : Reuss Voigt Hill
#
# Bulk Modulus (GPa) = 15.42625 42.08768 28.75696
# Shear Modulus (GPa) = 16.76466 30.32023 23.54245
#
# Velocity S-wave (km/s) = 2.72795 3.66865 3.23270
# Velocity P-wave (km/s) = 4.09511 6.05209 5.16709
#
# Compressibility (1/GPa) = 0.06482459
#
# Stress axis : x y z
#
# Youngs Moduli (GPa) = 78.49211 103.94072 11.11446
#
# Poissons Ratio (x) = 0.16448 0.17615
# Poissons Ratio (y) = 0.12421 0.07028
# Poissons Ratio (z) = 1.24401 0.65725
#
# Static dielectric constant tensor:
#      x y z
#    x 4.014650 0.000000 0.325610 
#    y 0.000000 4.634450 0.000000 
#    z 0.325610 0.000000 3.393920 
# 
# 
# High freq. dielectric constant tensor:
#      x y z
#    x 1.884810 0.000000 0.029630 
#    y 0.000000 1.921070 0.000000 
#    z 0.029630 0.000000 1.825410 
# 
# From -- ./inp_files/8145.got.cif
#   From: 2010.03.12/outbox.cif.g09.slc.cpg/sg4_5_cif.got.tgz:8145.got - 2010.03.31 09:31:35.
