data_PCOD8045592
_publ_section_title
;
Structure prediction by ZEFSAII (Michael W. Deem and Ramdas Pophale) SiO2 
 PCOD8045592
Probable space group: P 21
;
_chemical_formula_sum "Si O2"
_cell_formula_units_Z 12
_cell_length_a 15.178410
_cell_length_b 5.133913
_cell_length_c 8.241618
_cell_angle_alpha 90.000000
_cell_angle_beta 118.833168
_cell_angle_gamma 90.000000
_cell_volume 562.606933
_symmetry_space_group_name_H-M "P 21"
_symmetry_group_IT_number 4
_symmetry_cell_setting 'monoclinic'
loop_
_space_group_symop_operation_xyz
x,y,z
-x,1/2+y,-z
loop_
_atom_site_type_symbol
_atom_site_label
_atom_site_fract_x
_atom_site_fract_y
_atom_site_fract_z
Si Si1 0.949595 0.745660 0.887780
Si Si2 0.949370 0.587431 0.518767
Si Si3 0.635401 0.351483 0.818369
Si Si4 0.535153 0.762708 0.121752
Si Si5 0.738710 0.844148 0.850663
Si Si6 0.738157 0.623141 0.183287
O O1 0.960471 0.687662 0.709622
O O2 0.837302 0.834757 0.828748
O O3 0.975230 0.484558 0.010077
O O4 0.833878 0.535731 0.370673
O O5 0.005449 0.311213 0.556442
O O6 0.662135 0.608279 0.737346
O O7 0.515314 0.328582 0.747411
O O8 0.679809 0.108853 0.759757
O O9 0.688537 0.376447 0.044515
O O10 0.656348 0.739736 0.237772
O O11 0.512147 0.986883 0.971546
O O12 0.768140 0.831524 0.068659
#
# Coordination Sequence:
#
# PCOD8045592 Si02
#       6
#     2   2   2   2   2   2
#     4  12  25  43  61  85 119 164 207 248 303 370
#     4  12  27  42  62  90 122 157 207 257 305 352
#     4   9  18  31  56  88 113 150 195 241 287 353
#     4  10  16  30  52  89 116 148 193 246 287 349
#     4  10  19  33  57  80 117 148 198 235 297 350
#     4   9  21  33  60  84 119 153 194 253 289 344
#
# _framework density 21.329277999999999
#
# number of rings (size 3 to 8) (size 9 to 14) (size 15 to 20)
#    1.000    0.667    1.667    4.000    4.667    0.000 
#    0.000    0.000    0.000    2.000    0.000    0.000 
#    0.000    0.000    0.000    0.000    0.000    0.000 
#
# Total GULP energy -148717.180530 kJ/mol
# GULP energy per Si atom -12393.098377 kJ/mol
# Density = 2.128073 g / cm^3
# Si number density = 21.329278 Si / 1000 Ang^3
#
#
#
# Elastic Constant Matrix: (Units=GPa)
#
#
# Indices 1 2 3 4 5 6 
#
# 1 125.4609 19.4047 11.0320 0.0000 15.8230 0.0000
# 2 19.4047 113.2954 6.3674 0.0000 7.5429 0.0000
# 3 11.0320 6.3674 36.6590 0.0000 6.4708 0.0000
# 4 0.0000 0.0000 0.0000 16.1628 0.0000 -0.1106
# 5 15.8230 7.5429 6.4708 0.0000 26.1052 0.0000
# 6 0.0000 0.0000 0.0000 -0.1106 0.0000 37.2807
#
#
#
# Elastic Compliance Matrix: (Units=1/GPa)
#
#
# Indices 1 2 3 4 5 6 
#
# 1 0.008875 -0.001118 -0.001657 0.000000 -0.004646 0.000000
# 2 -0.001118 0.009187 -0.000952 0.000000 -0.001741 0.000000
# 3 -0.001657 -0.000952 0.028985 0.000000 -0.005905 0.000000
# 4 0.000000 0.000000 0.000000 0.061872 0.000000 0.000184
# 5 -0.004646 -0.001741 -0.005905 0.000000 0.043089 0.000000
# 6 0.000000 0.000000 0.000000 0.000184 0.000000 0.026824
#
#
# Mechanical properties :
#
#
# Convention : Reuss Voigt Hill
#
# Bulk Modulus (GPa) = 25.25614 38.78039 32.01826
# Shear Modulus (GPa) = 25.06476 31.81715 28.44095
#
# Velocity S-wave (km/s) = 3.43174 3.86646 3.65557
# Velocity P-wave (km/s) = 5.25064 6.17689 5.73250
#
# Compressibility (1/GPa) = 0.03959433
#
# Stress axis : x y z
#
# Youngs Moduli (GPa) = 112.67518 108.84546 34.50092
#
# Poissons Ratio (x) = 0.12165 0.05716
# Poissons Ratio (y) = 0.12593 0.03285
# Poissons Ratio (z) = 0.18666 0.10363
#
# Static dielectric constant tensor:
#      x y z
#    x 3.970660 0.000000 0.139610 
#    y 0.000000 3.941670 0.000000 
#    z 0.139610 0.000000 3.182600 
# 
# 
# High freq. dielectric constant tensor:
#      x y z
#    x 1.858170 0.000000 0.012700 
#    y 0.000000 1.846820 0.000000 
#    z 0.012700 0.000000 1.771820 
# 
# From -- ./inp_files/8747.got.cif
#   From: 2010.03.12/outbox.cif.g09.slc.cpg/sg4_5_cif.got.tgz:8747.got - 2010.03.31 09:31:35.
