data_PCOD8045954
_publ_section_title
;
Structure prediction by ZEFSAII (Michael W. Deem and Ramdas Pophale) SiO2 
 PCOD8045954
Probable space group: P 21
;
_chemical_formula_sum "Si O2"
_cell_formula_units_Z 16
_cell_length_a 11.746299
_cell_length_b 9.811319
_cell_length_c 9.288390
_cell_angle_alpha 90.000000
_cell_angle_beta 50.825117
_cell_angle_gamma 90.000000
_cell_volume 829.840617
_symmetry_space_group_name_H-M "P 21"
_symmetry_group_IT_number 4
_symmetry_cell_setting 'monoclinic'
loop_
_space_group_symop_operation_xyz
x,y,z
-x,1/2+y,-z
loop_
_atom_site_type_symbol
_atom_site_label
_atom_site_fract_x
_atom_site_fract_y
_atom_site_fract_z
Si Si1 0.390778 0.940240 0.218155
Si Si2 0.075785 0.788623 0.845931
Si Si3 0.901575 0.110575 0.707032
Si Si4 0.608332 0.269482 0.293521
Si Si5 0.077659 0.090552 0.847118
Si Si6 0.072137 0.849156 0.519539
Si Si7 0.407486 0.031308 0.520368
Si Si8 0.428637 0.690086 0.000111
O O1 0.215442 0.927137 0.344738
O O2 0.439069 0.953456 0.345350
O O3 0.444702 0.075586 0.091028
O O4 0.464016 0.804789 0.091291
O O5 0.223020 0.737369 0.806002
O O6 0.101713 0.789354 0.654550
O O7 0.033375 0.939410 0.933593
O O8 0.943076 0.689336 0.999051
O O9 0.971283 0.223119 0.545712
O O10 0.969873 0.141772 0.807881
O O11 0.726458 0.117478 0.847391
O O12 0.940996 0.958272 0.623557
O O13 0.515673 0.157632 0.455557
O O14 0.565057 0.422113 0.375905
O O15 0.574316 0.262495 0.152303
O O16 0.242871 0.090736 0.655583
#
# Coordination Sequence:
#
# PCOD8045954 Si02
#       8
#     2   2   2   2   2   2   2   2
#     4  10  20  40  58  80 116 150 184 234 282 322
#     4  10  20  38  58  83 114 145 186 234 280 328
#     4  10  20  38  58  83 111 149 188 228 282 334
#     4  10  20  38  58  83 111 149 188 228 282 334
#     4  10  20  38  58  83 114 145 186 234 280 328
#     4  10  21  39  59  80 116 150 183 234 281 332
#     4  10  21  39  59  80 116 150 183 234 281 332
#     4  10  22  36  60  82 114 150 188 234 276 336
#
# _framework density 19.280809999999999
#
# number of rings (size 3 to 8) (size 9 to 14) (size 15 to 20)
#    0.000    2.000    5.000    0.000    0.000    4.000 
#    4.500    0.000    0.000    0.000    0.000    0.000 
#    0.000    0.000    0.000    0.000    0.000    0.000 
#
# Total GULP energy -198409.143495 kJ/mol
# GULP energy per Si atom -12400.571468 kJ/mol
# Density = 1.923693 g / cm^3
# Si number density = 19.280810 Si / 1000 Ang^3
#
#
#
# Elastic Constant Matrix: (Units=GPa)
#
#
# Indices 1 2 3 4 5 6 
#
# 1 59.6944 46.6009 29.9597 0.0000 1.9239 0.0000
# 2 46.6009 111.6651 71.6554 0.0000 -3.3125 0.0000
# 3 29.9597 71.6554 108.1754 0.0000 -7.8582 0.0000
# 4 0.0000 0.0000 0.0000 48.7027 0.0000 -1.4728
# 5 1.9239 -3.3125 -7.8582 0.0000 4.3093 0.0000
# 6 0.0000 0.0000 0.0000 -1.4728 0.0000 34.4450
#
#
#
# Elastic Compliance Matrix: (Units=1/GPa)
#
#
# Indices 1 2 3 4 5 6 
#
# 1 0.026832 -0.010471 -0.002248 0.000000 -0.024128 0.000000
# 2 -0.010471 0.019898 -0.010178 0.000000 0.001410 0.000000
# 3 -0.002248 -0.010178 0.018574 0.000000 0.027050 0.000000
# 4 0.000000 0.000000 0.000000 0.020559 0.000000 0.000879
# 5 -0.024128 0.001410 0.027050 0.000000 0.293243 0.000000
# 6 0.000000 0.000000 0.000000 0.000879 0.000000 0.029069
#
#
# Mechanical properties :
#
#
# Convention : Reuss Voigt Hill
#
# Bulk Modulus (GPa) = 51.25602 63.99631 57.62617
# Shear Modulus (GPa) = 10.85838 26.24599 18.55219
#
# Velocity S-wave (km/s) = 2.37570 3.69351 3.10532
# Velocity P-wave (km/s) = 5.84525 7.17309 6.54294
#
# Compressibility (1/GPa) = 0.01950990
#
# Stress axis : x y z
#
# Youngs Moduli (GPa) = 37.26874 50.25524 53.83880
#
# Poissons Ratio (x) = 0.52622 0.12103
# Poissons Ratio (y) = 0.39024 0.54799
# Poissons Ratio (z) = 0.08378 0.51151
#
# Static dielectric constant tensor:
#      x y z
#    x 3.237880 0.000000 -0.042730 
#    y 0.000000 3.602370 0.000000 
#    z -0.042730 0.000000 3.655770 
# 
# 
# High freq. dielectric constant tensor:
#      x y z
#    x 1.727520 0.000000 -0.003370 
#    y 0.000000 1.755630 0.000000 
#    z -0.003370 0.000000 1.760550 
# 
# From -- ./inp_files/7810.got.cif
#   From: 2010.03.12/outbox.cif.g09.slc.cpg/sg4_4_cif.got.tgz:7810.got - 2010.03.31 09:31:35.
