data_PCOD8045745
_publ_section_title
;
Structure prediction by ZEFSAII (Michael W. Deem and Ramdas Pophale) SiO2 
 PCOD8045745
Probable space group: P 21
;
_chemical_formula_sum "Si O2"
_cell_formula_units_Z 14
_cell_length_a 13.686086
_cell_length_b 10.750094
_cell_length_c 8.790518
_cell_angle_alpha 90.000000
_cell_angle_beta 36.605959
_cell_angle_gamma 90.000000
_cell_volume 771.217539
_symmetry_space_group_name_H-M "P 21"
_symmetry_group_IT_number 4
_symmetry_cell_setting 'monoclinic'
loop_
_space_group_symop_operation_xyz
x,y,z
-x,1/2+y,-z
loop_
_atom_site_type_symbol
_atom_site_label
_atom_site_fract_x
_atom_site_fract_y
_atom_site_fract_z
Si Si1 0.734466 0.562110 0.111861
Si Si2 0.765852 0.346358 0.277385
Si Si3 0.822072 0.869753 0.723987
Si Si4 0.013925 0.270082 0.203380
Si Si5 0.863489 0.322013 0.833228
Si Si6 0.489772 0.207920 0.807548
Si Si7 0.255525 0.644986 0.272635
O O1 0.709189 0.485912 0.300727
O O2 0.564591 0.600871 0.243131
O O3 0.832295 0.686026 0.037788
O O4 0.824309 0.470796 0.877232
O O5 0.615285 0.293657 0.559524
O O6 0.932423 0.347196 0.168341
O O7 0.814014 0.270162 0.063018
O O8 0.929425 0.871757 0.744222
O O9 0.941334 0.811766 0.444470
O O10 0.762263 0.007876 0.769990
O O11 0.666873 0.781516 0.935688
O O12 0.885655 0.170843 0.429476
O O13 0.752871 0.246633 0.851367
O O14 0.571444 0.151210 0.856461
#
# Coordination Sequence:
#
# PCOD8045745 Si02
#       7
#     2   2   2   2   2   2   2
#     4   9  19  38  58  77 117 144 185 233 280 328
#     4   9  20  37  56  83 110 152 185 228 283 334
#     4  10  20  36  58  84 110 149 189 234 276 335
#     4   9  18  37  59  82 109 152 188 230 282 326
#     4   9  20  37  59  80 110 151 191 225 278 329
#     4  10  22  36  59  82 119 149 180 235 296 324
#     4  10  19  35  57  84 115 143 192 233 279 336
#
# _framework density 18.153113999999999
#
# number of rings (size 3 to 8) (size 9 to 14) (size 15 to 20)
#    0.857    1.714    1.429    0.000    2.000    2.286 
#    0.000   11.429    0.000    0.000    0.000    0.000 
#    0.000    0.000    0.000    0.000    0.000    0.000 
#
# Total GULP energy -173463.031142 kJ/mol
# GULP energy per Si atom -12390.216510 kJ/mol
# Density = 1.811180 g / cm^3
# Si number density = 18.153114 Si / 1000 Ang^3
#
#
#
# Elastic Constant Matrix: (Units=GPa)
#
#
# Indices 1 2 3 4 5 6 
#
# 1 135.7282 50.1175 34.0576 0.0000 -20.3624 0.0000
# 2 50.1175 80.7617 13.6768 0.0000 -9.4919 0.0000
# 3 34.0576 13.6768 75.3226 0.0000 -7.9555 0.0000
# 4 0.0000 0.0000 0.0000 20.4989 0.0000 4.7069
# 5 -20.3624 -9.4919 -7.9555 0.0000 26.2788 0.0000
# 6 0.0000 0.0000 0.0000 4.7069 0.0000 33.5327
#
#
#
# Elastic Compliance Matrix: (Units=1/GPa)
#
#
# Indices 1 2 3 4 5 6 
#
# 1 0.011164 -0.005694 -0.003427 0.000000 0.005556 0.000000
# 2 -0.005694 0.016109 -0.000208 0.000000 0.001343 0.000000
# 3 -0.003427 -0.000208 0.015057 0.000000 0.001827 0.000000
# 4 0.000000 0.000000 0.000000 0.050408 0.000000 -0.007076
# 5 0.005556 0.001343 0.001827 0.000000 0.043397 0.000000
# 6 0.000000 0.000000 0.000000 -0.007076 0.000000 0.030815
#
#
# Mechanical properties :
#
#
# Convention : Reuss Voigt Hill
#
# Bulk Modulus (GPa) = 42.24793 54.16848 48.20821
# Shear Modulus (GPa) = 25.83997 28.99278 27.41637
#
# Velocity S-wave (km/s) = 3.77695 4.00074 3.89045
# Velocity P-wave (km/s) = 6.50723 7.15862 6.84068
#
# Compressibility (1/GPa) = 0.02366980
#
# Stress axis : x y z
#
# Youngs Moduli (GPa) = 89.57526 62.07704 66.41604
#
# Poissons Ratio (x) = 0.35350 0.22761
# Poissons Ratio (y) = 0.51008 0.01384
# Poissons Ratio (z) = 0.30697 0.01294
#
# Static dielectric constant tensor:
#      x y z
#    x 3.539550 0.000000 -0.086270 
#    y 0.000000 3.167390 0.000000 
#    z -0.086270 0.000000 3.225250 
# 
# 
# High freq. dielectric constant tensor:
#      x y z
#    x 1.709040 0.000000 -0.006480 
#    y 0.000000 1.690370 0.000000 
#    z -0.006480 0.000000 1.694180 
# 
# From -- ./inp_files/5896.got.cif
#   From: 2010.03.12/outbox.cif.g09.slc.cpg/sg4_3_cif.got.tgz:5896.got - 2010.03.31 09:31:35.
