data_PCOD8045132
_publ_section_title
;
Structure prediction by ZEFSAII (Michael W. Deem and Ramdas Pophale) SiO2 
 PCOD8045132
Probable space group: P 2
;
_chemical_formula_sum "Si O2"
_cell_formula_units_Z 15
_cell_length_a 5.191113
_cell_length_b 8.587532
_cell_length_c 16.873024
_cell_angle_alpha 90.000000
_cell_angle_beta 79.717265
_cell_angle_gamma 90.000000
_cell_volume 740.099130
_symmetry_space_group_name_H-M "P 2"
_symmetry_group_IT_number 3
_symmetry_cell_setting 'monoclinic'
loop_
_space_group_symop_operation_xyz
x,y,z
-x,y,-z
loop_
_atom_site_type_symbol
_atom_site_label
_atom_site_fract_x
_atom_site_fract_y
_atom_site_fract_z
Si Si1 0.443206 0.851540 0.096691
Si Si2 0.787152 0.984480 0.452600
Si Si3 0.135742 0.341899 0.833549
Si Si4 0.000000 0.685739 0.500000
Si Si5 0.739039 0.456557 0.629822
Si Si6 0.772253 0.262019 0.346753
Si Si7 0.357715 0.529671 0.186458
Si Si8 0.053888 0.024107 0.907714
O O1 0.425808 0.692090 0.144293
O O2 0.666001 0.951057 0.129070
O O3 0.500000 0.824885 0.000000
O O4 0.176788 0.944634 0.129729
O O5 0.500000 0.008437 0.500000
O O6 0.794213 0.080750 0.370491
O O7 0.000000 0.062948 0.500000
O O8 0.854876 0.798845 0.442804
O O9 0.183365 0.254835 0.748630
O O10 0.403306 0.417054 0.849805
O O11 0.049173 0.209928 0.899443
O O12 0.909231 0.470010 0.838698
O O13 0.784334 0.584957 0.558940
O O14 0.505661 0.341289 0.616321
O O15 0.667865 0.541316 0.716768
O O16 0.006508 0.361661 0.621978
O O17 0.000000 0.980291 0.000000
#
# Coordination Sequence:
#
# PCOD8045132 Si02
#       8
#     2   2   2   1   2   2   2   2
#     4  10  21  37  58  85 120 156 189 228 285 344
#     4  10  23  39  55  85 112 141 185 240 272 349
#     4  10  21  38  59  85 113 149 193 240 278 334
#     4  10  26  38  58  86 114 142 190 238 290 330
#     4  10  23  38  61  82 114 150 188 239 284 345
#     4  10  22  40  59  83 112 152 190 230 290 347
#     4  10  21  39  57  86 115 147 196 232 286 337
#     4  10  21  37  57  87 118 153 193 232 280 337
#
# _framework density 20.267554000000001
#
# number of rings (size 3 to 8) (size 9 to 14) (size 15 to 20)
#    0.400    1.600    0.000    2.400    4.667    2.133 
#    2.400    0.000    0.000    0.000    0.000    0.000 
#    0.000    0.000    0.000    0.000    0.000    0.000 
#
# Total GULP energy -185947.966780 kJ/mol
# GULP energy per Si atom -12396.531119 kJ/mol
# Density = 2.022142 g / cm^3
# Si number density = 20.267554 Si / 1000 Ang^3
#
#
#
# Elastic Constant Matrix: (Units=GPa)
#
#
# Indices 1 2 3 4 5 6 
#
# 1 142.4730 28.1511 23.4472 0.0000 -1.7043 0.0000
# 2 28.1511 95.3978 32.7170 0.0000 -2.9464 0.0000
# 3 23.4472 32.7170 29.6636 0.0000 -2.8128 0.0000
# 4 0.0000 0.0000 0.0000 36.3044 0.0000 -3.6959
# 5 -1.7043 -2.9464 -2.8128 0.0000 7.2375 0.0000
# 6 0.0000 0.0000 0.0000 -3.6959 0.0000 44.2041
#
#
#
# Elastic Compliance Matrix: (Units=1/GPa)
#
#
# Indices 1 2 3 4 5 6 
#
# 1 0.008077 -0.000310 -0.006098 0.000000 -0.000594 0.000000
# 2 -0.000310 0.016873 -0.018398 0.000000 -0.000354 0.000000
# 3 -0.006098 -0.018398 0.060195 0.000000 0.014468 0.000000
# 4 0.000000 0.000000 0.000000 0.027781 0.000000 0.002323
# 5 -0.000594 -0.000354 0.014468 0.000000 0.143509 0.000000
# 6 0.000000 0.000000 0.000000 0.002323 0.000000 0.022817
#
#
# Mechanical properties :
#
#
# Convention : Reuss Voigt Hill
#
# Bulk Modulus (GPa) = 28.14375 48.46278 38.30326
# Shear Modulus (GPa) = 14.67535 29.76380 22.21958
#
# Velocity S-wave (km/s) = 2.69379 3.83632 3.31465
# Velocity P-wave (km/s) = 4.85712 6.60201 5.79561
#
# Compressibility (1/GPa) = 0.03553187
#
# Stress axis : x y z
#
# Youngs Moduli (GPa) = 123.81326 59.26764 16.61267
#
# Poissons Ratio (x) = 0.01839 0.10131
# Poissons Ratio (y) = 0.03842 0.30563
# Poissons Ratio (z) = 0.75504 1.09039
#
# Static dielectric constant tensor:
#      x y z
#    x 4.320270 0.000000 -0.026310 
#    y 0.000000 3.554830 0.000000 
#    z -0.026310 0.000000 3.414430 
# 
# 
# High freq. dielectric constant tensor:
#      x y z
#    x 1.814690 0.000000 -0.004820 
#    y 0.000000 1.790140 0.000000 
#    z -0.004820 0.000000 1.769860 
# 
# From -- ./inp_files/14641.got.cif
#   From: 2010.03.12/outbox.cif.g09.slc.cpg/sg3_8_cif.got.tgz:14641.got - 2010.03.31 09:20:49.
