data_PCOD8045711
_publ_section_title
;
Structure prediction by ZEFSAII (Michael W. Deem and Ramdas Pophale) SiO2 
 PCOD8045711
Probable space group: P 21
;
_chemical_formula_sum "Si O2"
_cell_formula_units_Z 16
_cell_length_a 27.614024
_cell_length_b 5.169875
_cell_length_c 8.415182
_cell_angle_alpha 90.000000
_cell_angle_beta 40.377105
_cell_angle_gamma 90.000000
_cell_volume 778.259836
_symmetry_space_group_name_H-M "P 21"
_symmetry_group_IT_number 4
_symmetry_cell_setting 'monoclinic'
loop_
_space_group_symop_operation_xyz
x,y,z
-x,1/2+y,-z
loop_
_atom_site_type_symbol
_atom_site_label
_atom_site_fract_x
_atom_site_fract_y
_atom_site_fract_z
Si Si1 0.962750 0.318770 0.659387
Si Si2 0.962741 0.319036 0.026880
Si Si3 0.288852 0.368570 0.839587
Si Si4 0.199695 0.866361 0.439440
Si Si5 0.711124 0.868555 0.783849
Si Si6 0.199672 0.866373 0.062214
Si Si7 0.456581 0.389734 0.418894
Si Si8 0.543394 0.889736 0.201849
O O1 0.970714 0.249745 0.823235
O O2 0.879108 0.399443 0.825794
O O3 0.015851 0.561802 0.490402
O O4 0.879075 0.399477 0.278669
O O5 0.015775 0.562312 0.930375
O O6 0.293510 0.381966 0.016254
O O7 0.239720 0.607489 0.899815
O O8 0.250918 0.104027 0.878154
O O9 0.372484 0.384031 0.560016
O O10 0.239736 0.607443 0.401606
O O11 0.187421 0.865706 0.281485
O O12 0.250964 0.103979 0.367200
O O13 0.627481 0.884049 0.922487
O O14 0.498225 0.643210 0.250064
O O15 0.454808 0.387700 0.612986
O O16 0.501739 0.143210 0.241277
#
# Coordination Sequence:
#
# PCOD8045711 Si02
#       8
#     2   2   2   2   2   2   2   2
#     4  12  25  42  63  88 117 150 191 237 289 345
#     4  12  25  42  63  88 117 150 191 237 289 345
#     4   9  17  28  45  70 102 141 180 221 273 329
#     4  10  19  33  52  75 106 142 181 225 277 333
#     4   9  17  28  45  70 102 141 180 221 273 329
#     4  10  19  33  52  75 106 142 181 225 277 333
#     4   9  15  23  37  61  97 137 174 215 267 323
#     4   9  15  23  37  61  97 137 174 215 267 323
#
# _framework density 20.558685000000001
#
# number of rings (size 3 to 8) (size 9 to 14) (size 15 to 20)
#    0.000    2.000    0.000    5.250    0.000    8.000 
#    0.000    0.000    0.000    0.000    0.000    0.000 
#    0.000   20.000    0.000    0.000    0.000    0.000 
#
# Total GULP energy -198450.455246 kJ/mol
# GULP energy per Si atom -12403.153453 kJ/mol
# Density = 2.051189 g / cm^3
# Si number density = 20.558685 Si / 1000 Ang^3
#
#
#
# Elastic Constant Matrix: (Units=GPa)
#
#
# Indices 1 2 3 4 5 6 
#
# 1 48.1591 21.1459 39.9400 0.0000 -16.7515 0.0000
# 2 21.1459 142.6149 28.7846 0.0000 -11.4515 0.0000
# 3 39.9400 28.7846 78.9075 0.0000 -29.4521 0.0000
# 4 0.0000 0.0000 0.0000 33.1160 0.0000 -14.7763
# 5 -16.7515 -11.4515 -29.4521 0.0000 28.9230 0.0000
# 6 0.0000 0.0000 0.0000 -14.7763 0.0000 23.3077
#
#
#
# Elastic Compliance Matrix: (Units=1/GPa)
#
#
# Indices 1 2 3 4 5 6 
#
# 1 0.036452 -0.001795 -0.016423 0.000000 0.003678 0.000000
# 2 -0.001795 0.007659 -0.001842 0.000000 0.000118 0.000000
# 3 -0.016423 -0.001842 0.028770 0.000000 0.019055 0.000000
# 4 0.000000 0.000000 0.000000 0.042108 0.000000 0.026695
# 5 0.003678 0.000118 0.019055 0.000000 0.056155 0.000000
# 6 0.000000 0.000000 0.000000 0.026695 0.000000 0.059828
#
#
# Mechanical properties :
#
#
# Convention : Reuss Voigt Hill
#
# Bulk Modulus (GPa) = 30.52294 49.93584 40.22939
# Shear Modulus (GPa) = 17.72968 29.05672 23.39320
#
# Velocity S-wave (km/s) = 2.93984 3.76354 3.37690
# Velocity P-wave (km/s) = 5.13834 6.57478 5.90044
#
# Compressibility (1/GPa) = 0.03276224
#
# Stress axis : x y z
#
# Youngs Moduli (GPa) = 27.43315 130.56262 34.75845
#
# Poissons Ratio (x) = 0.23433 0.57085
# Poissons Ratio (y) = 0.04924 0.06401
# Poissons Ratio (z) = 0.45054 0.24044
#
# Static dielectric constant tensor:
#      x y z
#    x 3.393730 0.000000 -0.377790 
#    y 0.000000 3.925490 0.000000 
#    z -0.377790 0.000000 3.644630 
# 
# 
# High freq. dielectric constant tensor:
#      x y z
#    x 1.770520 0.000000 -0.038100 
#    y 0.000000 1.823100 0.000000 
#    z -0.038100 0.000000 1.795810 
# 
# From -- ./inp_files/10173.got.cif
#   From: 2010.03.12/outbox.cif.g09.slc.cpg/sg4_6_cif.got.tgz:10173.got - 2010.03.31 09:31:35.
