data_PCOD8045573
_publ_section_title
;
Structure prediction by ZEFSAII (Michael W. Deem and Ramdas Pophale) SiO2 
 PCOD8045573
Probable space group: P 2
;
_chemical_formula_sum "Si O2"
_cell_formula_units_Z 8
_cell_length_a 14.953157
_cell_length_b 4.702347
_cell_length_c 8.770295
_cell_angle_alpha 90.000000
_cell_angle_beta 28.405925
_cell_angle_gamma 90.000000
_cell_volume 293.365319
_symmetry_space_group_name_H-M "P 2"
_symmetry_group_IT_number 3
_symmetry_cell_setting 'monoclinic'
loop_
_space_group_symop_operation_xyz
x,y,z
-x,y,-z
loop_
_atom_site_type_symbol
_atom_site_label
_atom_site_fract_x
_atom_site_fract_y
_atom_site_fract_z
Si Si1 0.375684 0.687630 0.404440
Si Si2 0.875719 0.937357 0.968471
Si Si3 0.624318 0.187641 0.095579
Si Si4 0.875682 0.437355 0.468515
O O1 0.196669 0.809250 0.763983
O O2 0.475410 0.438204 0.352277
O O3 0.303300 0.559300 0.354061
O O4 0.524585 0.938205 0.147767
O O5 0.696742 0.059322 0.145889
O O6 0.975145 0.687651 0.721969
O O7 0.024894 0.187648 0.777984
O O8 0.803304 0.309265 0.736051
#
# Coordination Sequence:
#
# PCOD8045573 Si02
#       4
#     2   2   2   2
#     4  12  27  50  77 112 152 200 252 312 377 450
#     4  12  27  50  77 112 152 200 252 312 377 450
#     4  12  27  50  77 112 152 200 252 312 377 450
#     4  12  27  50  77 112 152 200 252 312 377 450
#
# _framework density 27.269756999999998
#
# number of rings (size 3 to 8) (size 9 to 14) (size 15 to 20)
#    0.000    0.000    0.000    9.000    0.000    8.000 
#    0.000    0.000    0.000    0.000    0.000    0.000 
#    0.000    0.000    0.000    0.000    0.000    0.000 
#
# Total GULP energy -99280.613383 kJ/mol
# GULP energy per Si atom -12410.076673 kJ/mol
# Density = 2.720769 g / cm^3
# Si number density = 27.269757 Si / 1000 Ang^3
#
#
#
# Elastic Constant Matrix: (Units=GPa)
#
#
# Indices 1 2 3 4 5 6 
#
# 1 19.3324 10.3007 12.0041 0.0000 1.0554 0.0000
# 2 10.3007 173.7846 30.0981 0.0000 -14.4361 0.0000
# 3 12.0041 30.0981 57.5784 0.0000 -29.4173 0.0000
# 4 0.0000 0.0000 0.0000 87.4668 0.0000 -23.8783
# 5 1.0554 -14.4361 -29.4173 0.0000 25.5229 0.0000
# 6 0.0000 0.0000 0.0000 -23.8783 0.0000 55.2921
#
#
#
# Elastic Compliance Matrix: (Units=1/GPa)
#
#
# Indices 1 2 3 4 5 6 
#
# 1 0.084509 -0.001809 -0.046168 0.000000 -0.057730 0.000000
# 2 -0.001809 0.006369 -0.002611 0.000000 0.000668 0.000000
# 3 -0.046168 -0.002611 0.069512 0.000000 0.080551 0.000000
# 4 0.000000 0.000000 0.000000 0.012961 0.000000 0.005597
# 5 -0.057730 0.000668 0.080551 0.000000 0.134787 0.000000
# 6 0.000000 0.000000 0.000000 0.005597 0.000000 0.020503
#
#
# Mechanical properties :
#
#
# Convention : Reuss Voigt Hill
#
# Bulk Modulus (GPa) = 16.88785 39.50013 28.19399
# Shear Modulus (GPa) = 11.12209 46.87585 28.99897
#
# Velocity S-wave (km/s) = 2.02173 4.15054 3.26454
# Velocity P-wave (km/s) = 3.41412 6.12256 4.95691
#
# Compressibility (1/GPa) = 0.05921417
#
# Stress axis : x y z
#
# Youngs Moduli (GPa) = 11.83302 157.00676 14.38599
#
# Poissons Ratio (x) = 0.28398 0.66418
# Poissons Ratio (y) = 0.02140 0.03756
# Poissons Ratio (z) = 0.54631 0.40997
#
# Static dielectric constant tensor:
#      x y z
#    x 4.296480 0.000000 -0.428520 
#    y 0.000000 5.551840 0.000000 
#    z -0.428520 0.000000 4.873800 
# 
# 
# High freq. dielectric constant tensor:
#      x y z
#    x 2.081720 0.000000 -0.020210 
#    y 0.000000 2.128800 0.000000 
#    z -0.020210 0.000000 2.108920 
# 
# From -- ./inp_files/8117.got.cif
#   From: 2010.03.12/outbox.cif.g09.slc.cpg/sg3_5_cif.got.tgz:8117.got - 2010.03.31 09:20:49.
