data_PCOD8045431
_publ_section_title
;
Structure prediction by ZEFSAII (Michael W. Deem and Ramdas Pophale) SiO2 
 PCOD8045431
Probable space group: P 2
;
_chemical_formula_sum "Si O2"
_cell_formula_units_Z 12
_cell_length_a 8.394604
_cell_length_b 8.394589
_cell_length_c 11.413361
_cell_angle_alpha 90.000000
_cell_angle_beta 42.649940
_cell_angle_gamma 90.000000
_cell_volume 544.921069
_symmetry_space_group_name_H-M "P 2"
_symmetry_group_IT_number 3
_symmetry_cell_setting 'monoclinic'
loop_
_space_group_symop_operation_xyz
x,y,z
-x,y,-z
loop_
_atom_site_type_symbol
_atom_site_label
_atom_site_fract_x
_atom_site_fract_y
_atom_site_fract_z
Si Si1 0.431099 0.939520 0.375000
Si Si2 0.348103 0.889795 0.969883
Si Si3 0.864059 0.063605 0.280117
Si Si4 0.075708 0.427633 0.780117
Si Si5 0.212130 0.601443 0.469884
Si Si6 0.318901 0.551719 0.875000
O O1 0.340908 0.759793 0.445312
O O2 0.681138 0.959399 0.304688
O O3 0.225885 0.054091 0.536342
O O4 0.477870 0.983393 0.213658
O O5 0.500000 0.842826 0.000000
O O6 0.268469 0.731446 0.945312
O O7 0.125285 0.995904 0.125000
O O8 0.847206 0.245619 0.250000
O O9 0.124715 0.495334 0.625000
O O10 0.209485 0.531840 0.804688
O O11 0.798568 0.437147 0.963658
O O12 0.405187 0.507845 0.286342
O O13 0.000000 0.648412 0.500000
#
# Coordination Sequence:
#
# PCOD8045431 Si02
#       6
#     2   2   2   2   2   2
#     4  10  26  42  76  98 134 186 238 294 340 418
#     4  11  26  46  72 104 140 185 237 296 351 417
#     4  11  26  46  72 104 140 185 237 296 351 417
#     4  11  26  46  72 104 140 185 237 296 351 417
#     4  11  26  46  72 104 140 185 237 296 351 417
#     4  10  26  42  76  98 134 186 238 294 340 418
#
# _framework density 22.021538
#
# number of rings (size 3 to 8) (size 9 to 14) (size 15 to 20)
#    0.000    1.333    0.000    2.000   37.333    0.000 
#    6.000    0.000    0.000    0.000    0.000    0.000 
#    0.000    0.000    0.000    0.000    0.000    0.000 
#
# Total GULP energy -148744.344461 kJ/mol
# GULP energy per Si atom -12395.362038 kJ/mol
# Density = 2.197142 g / cm^3
# Si number density = 22.021538 Si / 1000 Ang^3
#
#
#
# Elastic Constant Matrix: (Units=GPa)
#
#
# Indices 1 2 3 4 5 6 
#
# 1 109.6530 71.4739 55.2891 0.0000 0.0260 0.0000
# 2 71.4739 109.6528 55.2779 0.0000 -0.1948 0.0000
# 3 55.2891 55.2779 206.7614 0.0000 1.1425 0.0000
# 4 0.0000 0.0000 0.0000 28.2572 0.0000 0.3223
# 5 0.0260 -0.1948 1.1425 0.0000 28.2748 0.0000
# 6 0.0000 0.0000 0.0000 0.3223 0.0000 1.4685
#
#
#
# Elastic Compliance Matrix: (Units=1/GPa)
#
#
# Indices 1 2 3 4 5 6 
#
# 1 0.016396 -0.009797 -0.001765 0.000000 -0.000011 0.000000
# 2 -0.009797 0.016396 -0.001765 0.000000 0.000193 0.000000
# 3 -0.001765 -0.001765 0.005782 0.000000 -0.000244 0.000000
# 4 0.000000 0.000000 0.000000 0.035478 0.000000 -0.007787
# 5 -0.000011 0.000193 -0.000244 0.000000 0.035378 0.000000
# 6 0.000000 0.000000 0.000000 -0.007787 0.000000 0.682672
#
#
# Mechanical properties :
#
#
# Convention : Reuss Voigt Hill
#
# Bulk Modulus (GPa) = 83.89798 87.79431 85.84614
# Shear Modulus (GPa) = 6.07734 27.86852 16.97293
#
# Velocity S-wave (km/s) = 1.66304 3.56126 2.77924
# Velocity P-wave (km/s) = 6.47059 7.54083 7.02612
#
# Compressibility (1/GPa) = 0.01191924
#
# Stress axis : x y z
#
# Youngs Moduli (GPa) = 60.99184 60.99159 172.96373
#
# Poissons Ratio (x) = 0.59755 0.30526
# Poissons Ratio (y) = 0.59756 0.30522
# Poissons Ratio (z) = 0.10764 0.10763
#
# Static dielectric constant tensor:
#      x y z
#    x 3.731390 0.000000 0.018810 
#    y 0.000000 3.731160 0.000000 
#    z 0.018810 0.000000 5.294910 
# 
# 
# High freq. dielectric constant tensor:
#      x y z
#    x 1.845660 0.000000 0.000750 
#    y 0.000000 1.845650 0.000000 
#    z 0.000750 0.000000 1.908350 
# 
# From -- ./inp_files/10622.got.cif
#   From: 2010.03.12/outbox.cif.g09.slc.cpg/sg3_6_cif.got.tgz:10622.got - 2010.03.31 09:20:49.
