data_PCOD8045199
_publ_section_title
;
Structure prediction by ZEFSAII (Michael W. Deem and Ramdas Pophale) SiO2 
 PCOD8045199
Probable space group: P 2
;
_chemical_formula_sum "Si O2"
_cell_formula_units_Z 12
_cell_length_a 14.134138
_cell_length_b 8.383699
_cell_length_c 15.254258
_cell_angle_alpha 90.000000
_cell_angle_beta 19.092275
_cell_angle_gamma 90.000000
_cell_volume 591.240277
_symmetry_space_group_name_H-M "P 2"
_symmetry_group_IT_number 3
_symmetry_cell_setting 'monoclinic'
loop_
_space_group_symop_operation_xyz
x,y,z
-x,y,-z
loop_
_atom_site_type_symbol
_atom_site_label
_atom_site_fract_x
_atom_site_fract_y
_atom_site_fract_z
Si Si1 0.717786 0.294400 0.582833
Si Si2 0.307409 0.554188 0.906711
Si Si3 0.274785 0.067359 0.576068
Si Si4 0.340822 0.416694 0.051231
Si Si5 0.177891 0.867047 0.928809
Si Si6 0.808003 0.390209 0.253522
O O1 0.552344 0.423161 0.662662
O O2 0.021934 0.357304 0.352271
O O3 0.759925 0.129158 0.493809
O O4 0.516320 0.274653 0.846134
O O5 0.330922 0.568414 0.992708
O O6 0.356057 0.721418 0.815972
O O7 0.983305 0.490093 0.172251
O O8 0.028496 0.938966 0.815114
O O9 0.246784 0.211348 0.667467
O O10 0.593277 0.994370 0.307273
O O11 0.500000 0.470229 0.000000
O O12 0.000000 0.805295 0.000000
O O13 0.500000 0.473612 0.500000
O O14 0.000000 0.382607 0.000000
#
# Coordination Sequence:
#
# PCOD8045199 Si02
#       6
#     2   2   2   2   2   2
#     4  10  21  40  67  92 118 161 210 262 316 367
#     4  10  25  39  64  92 125 163 214 261 307 357
#     4  12  23  41  58  88 128 168 207 249 307 365
#     4  10  21  40  71  97 117 150 211 273 325 368
#     4  12  26  38  56  91 135 175 209 246 301 365
#     4  12  23  37  63  89 124 170 220 257 296 365
#
# _framework density 20.296317999999999
#
# number of rings (size 3 to 8) (size 9 to 14) (size 15 to 20)
#    1.000    0.000    1.667    7.000    2.333    1.333 
#    0.000    0.000    0.000    6.000    0.000    0.000 
#    0.000    0.000    0.000    0.000    0.000    0.000 
#
# Total GULP energy -148735.820700 kJ/mol
# GULP energy per Si atom -12394.651725 kJ/mol
# Density = 2.025012 g / cm^3
# Si number density = 20.296318 Si / 1000 Ang^3
#
#
#
# Elastic Constant Matrix: (Units=GPa)
#
#
# Indices 1 2 3 4 5 6 
#
# 1 136.5220 39.1707 35.1774 0.0000 -4.9408 0.0000
# 2 39.1707 68.0078 21.8669 0.0000 2.2865 0.0000
# 3 35.1774 21.8669 127.4211 0.0000 -10.0789 0.0000
# 4 0.0000 0.0000 0.0000 33.4942 0.0000 1.7613
# 5 -4.9408 2.2865 -10.0789 0.0000 36.0855 0.0000
# 6 0.0000 0.0000 0.0000 1.7613 0.0000 20.9473
#
#
#
# Elastic Compliance Matrix: (Units=1/GPa)
#
#
# Indices 1 2 3 4 5 6 
#
# 1 0.009156 -0.004791 -0.001618 0.000000 0.001105 0.000000
# 2 -0.004791 0.018181 -0.001984 0.000000 -0.002362 0.000000
# 3 -0.001618 -0.001984 0.008823 0.000000 0.002368 0.000000
# 4 0.000000 0.000000 0.000000 0.029989 0.000000 -0.002522
# 5 0.001105 -0.002362 0.002368 0.000000 0.028674 0.000000
# 6 0.000000 0.000000 0.000000 -0.002522 0.000000 0.047951
#
#
# Mechanical properties :
#
#
# Convention : Reuss Voigt Hill
#
# Bulk Modulus (GPa) = 51.61713 58.26454 54.94083
# Shear Modulus (GPa) = 30.11722 33.82112 31.96917
#
# Velocity S-wave (km/s) = 3.85629 4.08654 3.97309
# Velocity P-wave (km/s) = 6.73164 7.14393 6.94085
#
# Compressibility (1/GPa) = 0.01937341
#
# Stress axis : x y z
#
# Youngs Moduli (GPa) = 109.21426 55.00276 113.34499
#
# Poissons Ratio (x) = 0.26350 0.18342
# Poissons Ratio (y) = 0.52320 0.22491
# Poissons Ratio (z) = 0.17674 0.10914
#
# Static dielectric constant tensor:
#      x y z
#    x 3.424120 0.000000 -0.047820 
#    y 0.000000 3.345130 0.000000 
#    z -0.047820 0.000000 3.947690 
# 
# 
# High freq. dielectric constant tensor:
#      x y z
#    x 1.780590 0.000000 -0.001850 
#    y 0.000000 1.750070 0.000000 
#    z -0.001850 0.000000 1.821750 
# 
# From -- ./inp_files/13955.got.cif
#   From: 2010.03.12/outbox.cif.g09.slc.cpg/sg3_7_cif.got.tgz:13955.got - 2010.03.31 09:20:49.
