data_PCOD8045047
_publ_section_title
;
Structure prediction by ZEFSAII (Michael W. Deem and Ramdas Pophale) SiO2 
 PCOD8045047
Probable space group: P 2
;
_chemical_formula_sum "Si O2"
_cell_formula_units_Z 14
_cell_length_a 14.841369
_cell_length_b 6.766844
_cell_length_c 9.264433
_cell_angle_alpha 90.000000
_cell_angle_beta 46.054175
_cell_angle_gamma 90.000000
_cell_volume 669.898858
_symmetry_space_group_name_H-M "P 2"
_symmetry_group_IT_number 3
_symmetry_cell_setting 'monoclinic'
loop_
_space_group_symop_operation_xyz
x,y,z
-x,y,-z
loop_
_atom_site_type_symbol
_atom_site_label
_atom_site_fract_x
_atom_site_fract_y
_atom_site_fract_z
Si Si1 0.463329 0.601200 0.699414
Si Si2 0.708643 0.929928 0.025235
Si Si3 0.174643 0.600933 0.430049
Si Si4 0.360555 0.950628 0.204281
Si Si5 0.249537 0.314687 0.852314
Si Si6 0.678984 0.319972 0.554763
Si Si7 0.897418 0.600654 0.813890
O O1 0.500000 0.670378 0.500000
O O2 0.420988 0.801892 0.826766
O O3 0.348702 0.455599 0.815679
O O4 0.568973 0.482537 0.669083
O O5 0.714831 0.099117 0.135087
O O6 0.715669 0.019988 0.855374
O O7 0.825554 0.796131 0.944988
O O8 0.280632 0.763688 0.350203
O O9 0.214589 0.396116 0.457175
O O10 0.160173 0.549789 0.278409
O O11 0.042274 0.662733 0.646151
O O12 0.368721 0.114635 0.322185
O O13 0.500000 0.891367 0.000000
O O14 0.257078 0.296697 0.672095
O O15 0.120127 0.412430 0.056572
#
# Coordination Sequence:
#
# PCOD8045047 Si02
#       7
#     2   2   2   2   2   2   2
#     4   9  20  36  57  85 118 157 198 243 297 362
#     4  10  20  37  61  84 114 158 203 244 298 357
#     4  10  22  41  61  85 119 158 202 251 302 352
#     4  11  23  36  58  90 121 157 200 250 302 358
#     4  10  21  38  60  87 118 158 200 246 302 360
#     4  11  23  37  58  91 125 154 197 252 307 359
#     4   9  21  41  62  83 114 160 208 249 294 358
#
# _framework density 20.898676999999999
#
# number of rings (size 3 to 8) (size 9 to 14) (size 15 to 20)
#    0.000    2.000    0.000    2.571    0.000   10.857 
#    0.000    2.857    0.000    0.000    0.000    0.000 
#    0.000    0.000    0.000    0.000    0.000    0.000 
#
# Total GULP energy -173491.362615 kJ/mol
# GULP energy per Si atom -12392.240187 kJ/mol
# Density = 2.085111 g / cm^3
# Si number density = 20.898677 Si / 1000 Ang^3
#
#
#
# Elastic Constant Matrix: (Units=GPa)
#
#
# Indices 1 2 3 4 5 6 
#
# 1 63.8546 43.2183 39.3267 0.0000 2.7149 0.0000
# 2 43.2183 111.8312 72.2390 0.0000 10.3373 0.0000
# 3 39.3267 72.2390 130.9932 0.0000 -2.1751 0.0000
# 4 0.0000 0.0000 0.0000 33.1088 0.0000 8.0635
# 5 2.7149 10.3373 -2.1751 0.0000 28.4573 0.0000
# 6 0.0000 0.0000 0.0000 8.0635 0.0000 35.3890
#
#
#
# Elastic Compliance Matrix: (Units=1/GPa)
#
#
# Indices 1 2 3 4 5 6 
#
# 1 0.021926 -0.006568 -0.002959 0.000000 0.000068 0.000000
# 2 -0.006568 0.016824 -0.007407 0.000000 -0.006051 0.000000
# 3 -0.002959 -0.007407 0.012672 0.000000 0.003941 0.000000
# 4 0.000000 0.000000 0.000000 0.031978 0.000000 -0.007286
# 5 0.000068 -0.006051 0.003941 0.000000 0.037633 0.000000
# 6 0.000000 0.000000 0.000000 -0.007286 0.000000 0.029918
#
#
# Mechanical properties :
#
#
# Convention : Reuss Voigt Hill
#
# Bulk Modulus (GPa) = 56.96636 68.47187 62.71911
# Shear Modulus (GPa) = 26.22329 29.51737 27.87033
#
# Velocity S-wave (km/s) = 3.54613 3.76227 3.65580
# Velocity P-wave (km/s) = 6.63960 7.19081 6.92070
#
# Compressibility (1/GPa) = 0.01755422
#
# Stress axis : x y z
#
# Youngs Moduli (GPa) = 45.60863 59.43854 78.91164
#
# Poissons Ratio (x) = 0.39040 0.23352
# Poissons Ratio (y) = 0.29956 0.58447
# Poissons Ratio (z) = 0.13497 0.44024
#
# Static dielectric constant tensor:
#      x y z
#    x 3.647110 0.000000 -0.057520 
#    y 0.000000 3.699210 0.000000 
#    z -0.057520 0.000000 4.041650 
# 
# 
# High freq. dielectric constant tensor:
#      x y z
#    x 1.812020 0.000000 0.004520 
#    y 0.000000 1.812270 0.000000 
#    z 0.004520 0.000000 1.826420 
# 
# From -- ./inp_files/8227.got.cif
#   From: 2010.03.12/outbox.cif.g09.slc.cpg/sg3_5_cif.got.tgz:8227.got - 2010.03.31 09:20:49.
