data_PCOD8045722
_publ_section_title
;
Structure prediction by ZEFSAII (Michael W. Deem and Ramdas Pophale) SiO2 
 PCOD8045722
Probable space group: P 21
;
_chemical_formula_sum "Si O2"
_cell_formula_units_Z 16
_cell_length_a 8.952763
_cell_length_b 13.379499
_cell_length_c 9.317651
_cell_angle_alpha 90.000000
_cell_angle_beta 132.184462
_cell_angle_gamma 90.000000
_cell_volume 827.015808
_symmetry_space_group_name_H-M "P 21"
_symmetry_group_IT_number 4
_symmetry_cell_setting 'monoclinic'
loop_
_space_group_symop_operation_xyz
x,y,z
-x,1/2+y,-z
loop_
_atom_site_type_symbol
_atom_site_label
_atom_site_fract_x
_atom_site_fract_y
_atom_site_fract_z
Si Si1 0.019217 0.821400 0.291207
Si Si2 0.127190 0.996960 0.183515
Si Si3 0.942374 0.116538 0.826342
Si Si4 0.391720 0.881320 0.711735
Si Si5 0.593058 0.762465 0.092377
Si Si6 0.311995 0.042685 0.887366
Si Si7 0.550180 0.992715 0.555099
Si Si8 0.563235 0.406508 0.794525
O O1 0.988345 0.930958 0.199356
O O2 0.049804 0.735518 0.190025
O O3 0.214741 0.820994 0.518404
O O4 0.822860 0.799373 0.258851
O O5 0.324333 0.040892 0.394463
O O6 0.207557 0.916209 0.116564
O O7 0.010492 0.087994 0.032637
O O8 0.089098 0.064060 0.805332
O O9 0.714238 0.079434 0.662315
O O10 0.553218 0.924476 0.700346
O O11 0.291394 0.971477 0.736446
O O12 0.506614 0.802910 0.886445
O O13 0.576312 0.643849 0.085871
O O14 0.470892 0.799717 0.153094
O O15 0.461244 0.992218 0.099784
O O16 0.589972 0.924506 0.437983
#
# Coordination Sequence:
#
# PCOD8045722 Si02
#       8
#     2   2   2   2   2   2   2   2
#     4  10  21  33  57  83 105 141 184 223 263 323
#     4   8  18  36  50  78 113 133 176 224 268 314
#     4  10  19  33  58  78 104 146 180 212 275 320
#     4  10  21  37  55  82 110 141 183 225 263 320
#     4  10  20  36  55  78 111 143 178 221 276 319
#     4   9  20  36  54  78 110 145 177 223 272 317
#     4   9  19  34  56  78 106 143 175 224 266 311
#     4   8  18  35  53  75 107 144 173 222 267 316
#
# _framework density 19.346668000000001
#
# number of rings (size 3 to 8) (size 9 to 14) (size 15 to 20)
#    0.750    2.000    0.000    0.750    3.500    1.000 
#    0.000    0.000    2.750    0.000    0.000    0.000 
#    0.000    0.000    0.000    0.000    0.000    0.000 
#
# Total GULP energy -198250.028373 kJ/mol
# GULP energy per Si atom -12390.626773 kJ/mol
# Density = 1.930263 g / cm^3
# Si number density = 19.346668 Si / 1000 Ang^3
#
#
#
# Elastic Constant Matrix: (Units=GPa)
#
#
# Indices 1 2 3 4 5 6 
#
# 1 33.1935 7.0427 7.0414 0.0000 0.6448 0.0000
# 2 7.0427 68.0997 21.1033 0.0000 10.3926 0.0000
# 3 7.0414 21.1033 73.4187 0.0000 2.2547 0.0000
# 4 0.0000 0.0000 0.0000 26.8302 0.0000 0.7292
# 5 0.6448 10.3926 2.2547 0.0000 20.5050 0.0000
# 6 0.0000 0.0000 0.0000 0.7292 0.0000 29.7393
#
#
#
# Elastic Compliance Matrix: (Units=1/GPa)
#
#
# Indices 1 2 3 4 5 6 
#
# 1 0.031147 -0.002613 -0.002254 0.000000 0.000593 0.000000
# 2 -0.002613 0.017645 -0.004564 0.000000 -0.008359 0.000000
# 3 -0.002254 -0.004564 0.015127 0.000000 0.000721 0.000000
# 4 0.000000 0.000000 0.000000 0.037296 0.000000 -0.000915
# 5 0.000593 -0.008359 0.000721 0.000000 0.052907 0.000000
# 6 0.000000 0.000000 0.000000 -0.000915 0.000000 0.033648
#
#
# Mechanical properties :
#
#
# Convention : Reuss Voigt Hill
#
# Bulk Modulus (GPa) = 22.19511 27.23186 24.71348
# Shear Modulus (GPa) = 22.55786 24.71654 23.63720
#
# Velocity S-wave (km/s) = 3.41835 3.57818 3.49918
# Velocity P-wave (km/s) = 5.20359 5.58367 5.39698
#
# Compressibility (1/GPa) = 0.04505497
#
# Stress axis : x y z
#
# Youngs Moduli (GPa) = 32.10533 56.67431 66.10881
#
# Poissons Ratio (x) = 0.14809 0.14903
# Poissons Ratio (y) = 0.08389 0.30175
# Poissons Ratio (z) = 0.07238 0.25869
#
# Static dielectric constant tensor:
#      x y z
#    x 3.460680 0.000000 -0.146150 
#    y 0.000000 3.310250 0.000000 
#    z -0.146150 0.000000 3.487970 
# 
# 
# High freq. dielectric constant tensor:
#      x y z
#    x 1.744420 0.000000 -0.008210 
#    y 0.000000 1.734350 0.000000 
#    z -0.008210 0.000000 1.748870 
# 
# From -- ./inp_files/6684.got.cif
#   From: 2010.03.12/outbox.cif.g09.slc.cpg/sg4_4_cif.got.tgz:6684.got - 2010.03.31 09:31:35.
