data_PCOD8045605
_publ_section_title
;
Structure prediction by ZEFSAII (Michael W. Deem and Ramdas Pophale) SiO2 
 PCOD8045605
Probable space group: P 21
;
_chemical_formula_sum "Si O2"
_cell_formula_units_Z 12
_cell_length_a 30.807186
_cell_length_b 4.880035
_cell_length_c 21.474075
_cell_angle_alpha 90.000000
_cell_angle_beta 11.152760
_cell_angle_gamma 90.000000
_cell_volume 624.457877
_symmetry_space_group_name_H-M "P 21"
_symmetry_group_IT_number 4
_symmetry_cell_setting 'monoclinic'
loop_
_space_group_symop_operation_xyz
x,y,z
-x,1/2+y,-z
loop_
_atom_site_type_symbol
_atom_site_label
_atom_site_fract_x
_atom_site_fract_y
_atom_site_fract_z
Si Si1 0.246665 0.527330 0.310911
Si Si2 0.138690 0.252879 0.671718
Si Si3 0.601807 0.255531 0.645480
Si Si4 0.234145 0.033336 0.410128
Si Si5 0.879124 0.136180 0.147403
Si Si6 0.886077 0.920229 0.635596
O O1 0.191939 0.224753 0.410774
O O2 0.115223 0.557094 0.431258
O O3 0.170106 0.734632 0.473772
O O4 0.510494 0.559424 0.925457
O O5 0.258129 0.551744 0.505052
O O6 0.085570 0.137507 0.677492
O O7 0.311004 0.060580 0.466138
O O8 0.901535 0.245398 0.044333
O O9 0.638259 0.174895 0.520844
O O10 0.339840 0.255133 0.029228
O O11 0.053157 0.317570 0.944240
O O12 0.072458 0.679178 0.377277
#
# Coordination Sequence:
#
# PCOD8045605 Si02
#       6
#     2   2   2   2   2   2
#     4  10  21  33  47  75 102 136 175 206 255 309
#     4  10  17  30  53  78 104 135 160 208 282 321
#     4  10  19  32  49  73 109 135 173 215 251 310
#     4  10  19  31  53  74 103 134 160 214 269 314
#     4   8  16  28  46  74 103 131 161 205 265 324
#     4  12  24  36  52  72 105 153 185 210 246 300
#
# _framework density 19.216667000000001
#
# number of rings (size 3 to 8) (size 9 to 14) (size 15 to 20)
#    0.000    2.000    1.667    3.000    4.667    0.000 
#    0.000    0.000    0.000    0.000    0.000    4.667 
#    0.000    0.000    0.000    0.000    0.000    0.000 
#
# Total GULP energy -148681.768800 kJ/mol
# GULP energy per Si atom -12390.147400 kJ/mol
# Density = 1.917293 g / cm^3
# Si number density = 19.216667 Si / 1000 Ang^3
#
#
#
# Elastic Constant Matrix: (Units=GPa)
#
#
# Indices 1 2 3 4 5 6 
#
# 1 111.0169 18.2936 39.4181 0.0000 14.6720 0.0000
# 2 18.2936 82.2599 6.8926 0.0000 -8.0850 0.0000
# 3 39.4181 6.8926 36.4429 0.0000 14.2049 0.0000
# 4 0.0000 0.0000 0.0000 20.7329 0.0000 0.6222
# 5 14.6720 -8.0850 14.2049 0.0000 27.1326 0.0000
# 6 0.0000 0.0000 0.0000 0.6222 0.0000 17.7390
#
#
#
# Elastic Compliance Matrix: (Units=1/GPa)
#
#
# Indices 1 2 3 4 5 6 
#
# 1 0.014947 -0.002075 -0.015559 0.000000 -0.000556 0.000000
# 2 -0.002075 0.013518 -0.002915 0.000000 0.006676 0.000000
# 3 -0.015559 -0.002915 0.052617 0.000000 -0.020002 0.000000
# 4 0.000000 0.000000 0.000000 0.048283 0.000000 -0.001694
# 5 -0.000556 0.006676 -0.020002 0.000000 0.049618 0.000000
# 6 0.000000 0.000000 0.000000 -0.001694 0.000000 0.056432
#
#
# Mechanical properties :
#
#
# Convention : Reuss Voigt Hill
#
# Bulk Modulus (GPa) = 25.00879 39.88090 32.44484
# Shear Modulus (GPa) = 17.25083 24.12859 20.68971
#
# Velocity S-wave (km/s) = 2.99942 3.54730 3.28480
# Velocity P-wave (km/s) = 5.00377 6.12994 5.59526
#
# Compressibility (1/GPa) = 0.03998594
#
# Stress axis : x y z
#
# Youngs Moduli (GPa) = 66.90194 73.97294 19.00539
#
# Poissons Ratio (x) = 0.15350 0.29570
# Poissons Ratio (y) = 0.13882 0.05539
# Poissons Ratio (z) = 1.04089 0.21561
#
# Static dielectric constant tensor:
#      x y z
#    x 3.432610 0.000000 0.459040 
#    y 0.000000 3.668730 0.000000 
#    z 0.459040 0.000000 3.307780 
# 
# 
# High freq. dielectric constant tensor:
#      x y z
#    x 1.732550 0.000000 0.046780 
#    y 0.000000 1.775700 0.000000 
#    z 0.046780 0.000000 1.686830 
# 
# From -- ./inp_files/7045.got.cif
#   From: 2010.03.12/outbox.cif.g09.slc.cpg/sg4_4_cif.got.tgz:7045.got - 2010.03.31 09:31:35.
