data_PCOD8045534
_publ_section_title
;
Structure prediction by ZEFSAII (Michael W. Deem and Ramdas Pophale) SiO2 
 PCOD8045534
Probable space group: P 2
;
_chemical_formula_sum "Si O2"
_cell_formula_units_Z 14
_cell_length_a 13.966319
_cell_length_b 4.915139
_cell_length_c 10.136358
_cell_angle_alpha 90.000000
_cell_angle_beta 118.644465
_cell_angle_gamma 90.000000
_cell_volume 610.663367
_symmetry_space_group_name_H-M "P 2"
_symmetry_group_IT_number 3
_symmetry_cell_setting 'monoclinic'
loop_
_space_group_symop_operation_xyz
x,y,z
-x,y,-z
loop_
_atom_site_type_symbol
_atom_site_label
_atom_site_fract_x
_atom_site_fract_y
_atom_site_fract_z
Si Si1 0.326955 0.644560 0.651194
Si Si2 0.461467 0.141946 0.827501
Si Si3 0.622301 0.502200 0.601431
Si Si4 0.107289 0.129584 0.022360
Si Si5 0.940039 0.346205 0.742852
Si Si6 0.095803 0.844620 0.457685
Si Si7 0.661581 0.017102 0.785280
O O1 0.364030 0.347223 0.724332
O O2 0.325845 0.644830 0.491435
O O3 0.204513 0.739963 0.606626
O O4 0.414101 0.842886 0.775304
O O5 0.571392 0.169265 0.814140
O O6 0.500000 0.192706 0.000000
O O7 0.500000 0.406424 0.500000
O O8 0.683118 0.221207 0.676851
O O9 0.622267 0.720214 0.719296
O O10 0.125850 0.335354 0.160626
O O11 0.220389 0.976294 0.065279
O O12 0.000000 0.945877 0.000000
O O13 0.068271 0.280198 0.861652
O O14 0.934088 0.647692 0.682758
O O15 0.890319 0.141852 0.599014
O O16 0.000000 0.851227 0.500000
#
# Coordination Sequence:
#
# PCOD8045534 Si02
#       7
#     2   2   2   2   2   2   2
#     4  12  25  43  63  95 121 161 203 263 302 355
#     4  12  26  43  63  88 129 165 206 244 302 371
#     4  12  22  39  69  92 127 149 213 252 312 357
#     4   8  22  41  65  90 130 156 205 255 306 360
#     4   9  22  42  61  95 121 162 202 252 309 351
#     4  12  24  41  66  89 126 162 207 247 306 365
#     4  12  22  41  63  97 119 170 197 253 308 363
#
# _framework density 22.925889999999999
#
# number of rings (size 3 to 8) (size 9 to 14) (size 15 to 20)
#    0.857    0.000    2.857    4.714    0.000    5.714 
#    0.000    0.000    0.000    0.000    0.000    0.000 
#    0.000    0.000    0.000    0.000    0.000    0.000 
#
# Total GULP energy -173457.648410 kJ/mol
# GULP energy per Si atom -12389.832029 kJ/mol
# Density = 2.287371 g / cm^3
# Si number density = 22.925890 Si / 1000 Ang^3
#
#
#
# Elastic Constant Matrix: (Units=GPa)
#
#
# Indices 1 2 3 4 5 6 
#
# 1 97.3490 -3.5320 19.9544 0.0000 23.3865 0.0000
# 2 -3.5320 71.8456 3.1947 0.0000 2.3010 0.0000
# 3 19.9544 3.1947 80.8485 0.0000 9.9688 0.0000
# 4 0.0000 0.0000 0.0000 -28.0437 0.0000 -29.1206
# 5 23.3865 2.3010 9.9688 0.0000 37.0311 0.0000
# 6 0.0000 0.0000 0.0000 -29.1206 0.0000 1.6275
#
#
#
# Elastic Compliance Matrix: (Units=1/GPa)
#
#
# Indices 1 2 3 4 5 6 
#
# 1 0.012534 0.000951 -0.002222 0.000000 -0.007377 0.000000
# 2 0.000951 0.014035 -0.000629 0.000000 -0.001304 0.000000
# 3 -0.002222 -0.000629 0.013202 0.000000 -0.002112 0.000000
# 4 0.000000 0.000000 0.000000 -0.001821 0.000000 -0.032586
# 5 -0.007377 -0.001304 -0.002112 0.000000 0.032313 0.000000
# 6 0.000000 0.000000 0.000000 -0.032586 0.000000 0.031381
#
#
# Mechanical properties :
#
#
# Convention : Reuss Voigt Hill
#
# Bulk Modulus (GPa) = 27.79786 32.14192 29.96989
# Shear Modulus (GPa) = 42.57717 17.48474 30.03095
#
# Velocity S-wave (km/s) = 4.31416 2.76463 3.62320
# Velocity P-wave (km/s) = 6.08008 4.92354 5.53212
#
# Compressibility (1/GPa) = 0.03597399
#
# Stress axis : x y z
#
# Youngs Moduli (GPa) = 79.78037 71.24940 75.74388
#
# Poissons Ratio (x) = -0.06778 0.16827
# Poissons Ratio (y) = -0.07589 0.04762
# Poissons Ratio (z) = 0.17724 0.04479
#
# Static dielectric constant tensor:
#      x y z
#    x 4.252920 0.000000 0.169940 
#    y 0.000000 3.796690 0.000000 
#    z 0.169940 0.000000 4.442930 
# 
# 
# High freq. dielectric constant tensor:
#      x y z
#    x 1.899800 0.000000 0.026980 
#    y 0.000000 1.893640 0.000000 
#    z 0.026980 0.000000 1.905250 
# 
# From -- ./inp_files/8078.got.cif
#   From: 2010.03.12/outbox.cif.g09.slc.cpg/sg3_5_cif.got.tgz:8078.got - 2010.03.31 09:20:49.
