data_PCOD8045262
_publ_section_title
;
Structure prediction by ZEFSAII (Michael W. Deem and Ramdas Pophale) SiO2 
 PCOD8045262
Probable space group: P 2
;
_chemical_formula_sum "Si O2"
_cell_formula_units_Z 9
_cell_length_a 10.780917
_cell_length_b 8.099519
_cell_length_c 10.779054
_cell_angle_alpha 90.000000
_cell_angle_beta 153.334134
_cell_angle_gamma 90.000000
_cell_volume 422.411321
_symmetry_space_group_name_H-M "P 2"
_symmetry_group_IT_number 3
_symmetry_cell_setting 'monoclinic'
loop_
_space_group_symop_operation_xyz
x,y,z
-x,y,-z
loop_
_atom_site_type_symbol
_atom_site_label
_atom_site_fract_x
_atom_site_fract_y
_atom_site_fract_z
Si Si1 0.981200 0.695280 0.630633
Si Si2 0.107161 0.063756 0.817624
Si Si3 0.524674 0.190928 0.378677
Si Si4 0.500000 0.255462 0.000000
Si Si5 0.468300 0.495404 0.183527
O O1 0.000000 0.691045 0.500000
O O2 0.671243 0.646900 0.393000
O O3 0.036980 0.875049 0.731694
O O4 0.182165 0.563212 0.874292
O O5 0.836714 0.166907 0.610824
O O6 0.323032 0.068459 0.123996
O O7 0.246520 0.140755 0.818857
O O8 0.500000 0.146806 0.500000
O O9 0.426582 0.381523 0.268212
O O10 0.606542 0.370766 0.206958
#
# Coordination Sequence:
#
# PCOD8045262 Si02
#       5
#     2   2   2   1   2
#     4  12  24  40  61 102 139 164 200 266 341 396
#     4  11  26  40  70  96 134 168 220 263 332 383
#     4  11  25  48  68  91 127 179 230 268 303 377
#     4  10  22  40  62 102 126 172 208 266 322 394
#     4  11  23  40  66  94 133 169 214 261 327 386
#
# _framework density 21.306249000000001
#
# number of rings (size 3 to 8) (size 9 to 14) (size 15 to 20)
#    0.000    0.889    2.222    4.667    9.333    0.000 
#    0.000    6.667    0.000    0.000    0.000    0.000 
#    0.000    0.000    0.000    0.000    0.000    0.000 
#
# Total GULP energy -111611.800637 kJ/mol
# GULP energy per Si atom -12401.311182 kJ/mol
# Density = 2.125775 g / cm^3
# Si number density = 21.306249 Si / 1000 Ang^3
#
#
#
# Elastic Constant Matrix: (Units=GPa)
#
#
# Indices 1 2 3 4 5 6 
#
# 1 61.1425 25.8152 35.9286 0.0000 2.1153 0.0000
# 2 25.8152 103.5021 20.1522 0.0000 0.2400 0.0000
# 3 35.9286 20.1522 117.4848 0.0000 2.4269 0.0000
# 4 0.0000 0.0000 0.0000 46.6037 0.0000 -0.0586
# 5 2.1153 0.2400 2.4269 0.0000 26.2358 0.0000
# 6 0.0000 0.0000 0.0000 -0.0586 0.0000 16.4746
#
#
#
# Elastic Compliance Matrix: (Units=1/GPa)
#
#
# Indices 1 2 3 4 5 6 
#
# 1 0.021636 -0.004252 -0.005863 0.000000 -0.001163 0.000000
# 2 -0.004252 0.010831 -0.000564 0.000000 0.000296 0.000000
# 3 -0.005863 -0.000564 0.010412 0.000000 -0.000485 0.000000
# 4 0.000000 0.000000 0.000000 0.021458 0.000000 0.000076
# 5 -0.001163 0.000296 -0.000485 0.000000 0.038252 0.000000
# 6 0.000000 0.000000 0.000000 0.000076 0.000000 0.060700
#
#
# Mechanical properties :
#
#
# Convention : Reuss Voigt Hill
#
# Bulk Modulus (GPa) = 46.46652 49.54682 48.00667
# Shear Modulus (GPa) = 26.06614 31.21172 28.63893
#
# Velocity S-wave (km/s) = 3.50151 3.83157 3.67025
# Velocity P-wave (km/s) = 6.18091 6.54825 6.36723
#
# Compressibility (1/GPa) = 0.02152087
#
# Stress axis : x y z
#
# Youngs Moduli (GPa) = 46.21889 92.32546 96.04748
#
# Poissons Ratio (x) = 0.39258 0.56315
# Poissons Ratio (y) = 0.19653 0.05414
# Poissons Ratio (z) = 0.27099 0.05204
#
# Static dielectric constant tensor:
#      x y z
#    x 3.789210 0.000000 -0.166260 
#    y 0.000000 3.898870 0.000000 
#    z -0.166260 0.000000 4.150420 
# 
# 
# High freq. dielectric constant tensor:
#      x y z
#    x 1.807850 0.000000 -0.004220 
#    y 0.000000 1.844110 0.000000 
#    z -0.004220 0.000000 1.857050 
# 
# From -- ./inp_files/11352.got.cif
#   From: 2010.03.12/outbox.cif.g09.slc.cpg/sg3_6_cif.got.tgz:11352.got - 2010.03.31 09:20:49.
