data_PCOD8045852
_publ_section_title
;
Structure prediction by ZEFSAII (Michael W. Deem and Ramdas Pophale) SiO2 
 PCOD8045852
Probable space group: P 21
;
_chemical_formula_sum "Si O2"
_cell_formula_units_Z 10
_cell_length_a 8.946039
_cell_length_b 7.548163
_cell_length_c 13.666475
_cell_angle_alpha 90.000000
_cell_angle_beta 148.776449
_cell_angle_gamma 90.000000
_cell_volume 478.382844
_symmetry_space_group_name_H-M "P 21"
_symmetry_group_IT_number 4
_symmetry_cell_setting 'monoclinic'
loop_
_space_group_symop_operation_xyz
x,y,z
-x,1/2+y,-z
loop_
_atom_site_type_symbol
_atom_site_label
_atom_site_fract_x
_atom_site_fract_y
_atom_site_fract_z
Si Si1 0.429164 0.429360 0.131396
Si Si2 0.860898 0.543317 0.727824
Si Si3 0.420734 0.792921 0.576900
Si Si4 0.831497 0.143387 0.287780
Si Si5 0.843650 0.739774 0.344575
O O1 0.493228 0.414488 0.282500
O O2 0.541885 0.258990 0.134205
O O3 0.584125 0.605777 0.175594
O O4 0.088211 0.437034 0.921971
O O5 0.682818 0.663405 0.702421
O O6 0.635006 0.413730 0.548799
O O7 0.037536 0.657530 0.747227
O O8 0.125732 0.688124 0.437891
O O9 0.071758 0.224654 0.494338
O O10 0.750871 0.940592 0.268823
#
# Coordination Sequence:
#
# PCOD8045852 Si02
#       5
#     2   2   2   2   2
#     4  11  24  45  65  99 131 179 224 264 329 391
#     4  11  25  43  66 100 134 170 223 270 332 394
#     4  10  25  45  62 100 134 177 207 279 338 377
#     4  10  21  40  70  99 126 175 219 271 322 389
#     4  10  19  43  69  92 135 171 219 268 329 385
#
# _framework density 20.903759000000001
#
# number of rings (size 3 to 8) (size 9 to 14) (size 15 to 20)
#    0.000    1.600    6.000    0.000    8.400    1.600 
#   10.800    0.000    0.000    0.000    0.000    0.000 
#    0.000    0.000    0.000    0.000    0.000    0.000 
#
# Total GULP energy -124002.074547 kJ/mol
# GULP energy per Si atom -12400.207455 kJ/mol
# Density = 2.085618 g / cm^3
# Si number density = 20.903759 Si / 1000 Ang^3
#
#
#
# Elastic Constant Matrix: (Units=GPa)
#
#
# Indices 1 2 3 4 5 6 
#
# 1 73.3812 41.0399 34.7247 0.0000 9.9396 0.0000
# 2 41.0399 106.5264 49.0402 0.0000 23.2546 0.0000
# 3 34.7247 49.0402 102.9510 0.0000 17.7415 0.0000
# 4 0.0000 0.0000 0.0000 38.0327 0.0000 13.7074
# 5 9.9396 23.2546 17.7415 0.0000 23.3642 0.0000
# 6 0.0000 0.0000 0.0000 13.7074 0.0000 38.7280
#
#
#
# Elastic Compliance Matrix: (Units=1/GPa)
#
#
# Indices 1 2 3 4 5 6 
#
# 1 0.018368 -0.005486 -0.003655 0.000000 0.000421 0.000000
# 2 -0.005486 0.015455 -0.003754 0.000000 -0.010198 0.000000
# 3 -0.003655 -0.003754 0.013603 0.000000 -0.005038 0.000000
# 4 0.000000 0.000000 0.000000 0.030138 0.000000 -0.010667
# 5 0.000421 -0.010198 -0.005038 0.000000 0.056597 0.000000
# 6 0.000000 0.000000 0.000000 -0.010667 0.000000 0.029597
#
#
# Mechanical properties :
#
#
# Convention : Reuss Voigt Hill
#
# Bulk Modulus (GPa) = 46.21924 59.16313 52.69119
# Shear Modulus (GPa) = 25.41176 30.56188 27.98682
#
# Velocity S-wave (km/s) = 3.49041 3.82780 3.66299
# Velocity P-wave (km/s) = 6.19697 6.92099 6.56896
#
# Compressibility (1/GPa) = 0.02163601
#
# Stress axis : x y z
#
# Youngs Moduli (GPa) = 54.44257 64.70234 73.51542
#
# Poissons Ratio (x) = 0.35494 0.26869
# Poissons Ratio (y) = 0.29866 0.27600
# Poissons Ratio (z) = 0.19898 0.24291
#
# Static dielectric constant tensor:
#      x y z
#    x 3.770800 0.000000 -0.016210 
#    y 0.000000 3.810880 0.000000 
#    z -0.016210 0.000000 3.721040 
# 
# 
# High freq. dielectric constant tensor:
#      x y z
#    x 1.814960 0.000000 -0.007240 
#    y 0.000000 1.810300 0.000000 
#    z -0.007240 0.000000 1.817470 
# 
# From -- ./inp_files/5185.got.cif
#   From: 2010.03.12/outbox.cif.g09.slc.cpg/sg4_3_cif.got.tgz:5185.got - 2010.03.31 09:31:35.
