data_PCOD8045422
_publ_section_title
;
Structure prediction by ZEFSAII (Michael W. Deem and Ramdas Pophale) SiO2 
 PCOD8045422
Probable space group: P 2
;
_chemical_formula_sum "Si O2"
_cell_formula_units_Z 13
_cell_length_a 15.546764
_cell_length_b 6.837666
_cell_length_c 9.418329
_cell_angle_alpha 90.000000
_cell_angle_beta 142.336323
_cell_angle_gamma 90.000000
_cell_volume 611.759822
_symmetry_space_group_name_H-M "P 2"
_symmetry_group_IT_number 3
_symmetry_cell_setting 'monoclinic'
loop_
_space_group_symop_operation_xyz
x,y,z
-x,y,-z
loop_
_atom_site_type_symbol
_atom_site_label
_atom_site_fract_x
_atom_site_fract_y
_atom_site_fract_z
Si Si1 0.023737 0.872930 0.877973
Si Si2 0.842195 0.216418 0.541846
Si Si3 0.687151 0.262362 0.046322
Si Si4 0.686478 0.014162 0.777473
Si Si5 0.395893 0.322019 0.560107
Si Si6 0.069271 0.515037 0.736793
Si Si7 0.500000 0.657357 0.500000
O O1 0.069334 0.706769 0.830106
O O2 0.889460 0.997688 0.647455
O O3 0.000000 0.774232 0.000000
O O4 0.155219 0.016368 0.074468
O O5 0.749513 0.199557 0.278581
O O6 0.750771 0.318700 0.546365
O O7 0.980781 0.344140 0.696869
O O8 0.771596 0.443581 0.085126
O O9 0.697978 0.084732 0.952906
O O10 0.520971 0.307550 0.839871
O O11 0.597601 0.148260 0.549563
O O12 0.623862 0.797993 0.715524
O O13 0.421626 0.527514 0.516040
O O14 0.000000 0.577435 0.500000
#
# Coordination Sequence:
#
# PCOD8045422 Si02
#       7
#     2   2   2   2   2   2   1
#     4  12  26  41  68 101 138 173 224 281 334 400
#     4  11  26  44  70 101 136 175 220 285 340 391
#     4  11  22  48  70  93 138 179 223 277 334 404
#     4  12  24  41  69 101 131 183 226 267 341 402
#     4  12  24  45  68 100 137 178 225 277 336 399
#     4  10  25  44  68 101 131 180 227 272 338 404
#     4  12  24  42  72 100 134 178 234 272 334 408
#
# _framework density 21.250170000000001
#
# number of rings (size 3 to 8) (size 9 to 14) (size 15 to 20)
#    0.000    0.615    6.154    1.385    4.308    0.615 
#    0.000    0.000    3.385    0.000    0.000    0.000 
#    0.000    0.000    0.000    0.000    0.000    0.000 
#
# Total GULP energy -161146.260227 kJ/mol
# GULP energy per Si atom -12395.866171 kJ/mol
# Density = 2.120180 g / cm^3
# Si number density = 21.250170 Si / 1000 Ang^3
#
#
#
# Elastic Constant Matrix: (Units=GPa)
#
#
# Indices 1 2 3 4 5 6 
#
# 1 103.1059 31.0274 42.7575 0.0000 -11.9732 0.0000
# 2 31.0274 108.2864 63.1403 0.0000 -14.6565 0.0000
# 3 42.7575 63.1403 99.2656 0.0000 -2.5493 0.0000
# 4 0.0000 0.0000 0.0000 21.7843 0.0000 1.4745
# 5 -11.9732 -14.6565 -2.5493 0.0000 34.7259 0.0000
# 6 0.0000 0.0000 0.0000 1.4745 0.0000 26.3445
#
#
#
# Elastic Compliance Matrix: (Units=1/GPa)
#
#
# Indices 1 2 3 4 5 6 
#
# 1 0.012304 0.000051 -0.005232 0.000000 0.003880 0.000000
# 2 0.000051 0.015817 -0.009930 0.000000 0.005964 0.000000
# 3 -0.005232 -0.009930 0.018525 0.000000 -0.004635 0.000000
# 4 0.000000 0.000000 0.000000 0.046079 0.000000 -0.002579
# 5 0.003880 0.005964 -0.004635 0.000000 0.032312 0.000000
# 6 0.000000 0.000000 0.000000 -0.002579 0.000000 0.038103
#
#
# Mechanical properties :
#
#
# Convention : Reuss Voigt Hill
#
# Bulk Modulus (GPa) = 60.88950 64.94538 62.91744
# Shear Modulus (GPa) = 25.14622 28.15310 26.64966
#
# Velocity S-wave (km/s) = 3.44371 3.64379 3.54516
# Velocity P-wave (km/s) = 6.67293 6.95209 6.81394
#
# Compressibility (1/GPa) = 0.01642319
#
# Stress axis : x y z
#
# Youngs Moduli (GPa) = 81.27523 63.22148 53.98204
#
# Poissons Ratio (x) = -0.00319 0.28245
# Poissons Ratio (y) = -0.00410 0.53602
# Poissons Ratio (z) = 0.42525 0.62777
#
# Static dielectric constant tensor:
#      x y z
#    x 4.110480 0.000000 0.297970 
#    y 0.000000 3.614710 0.000000 
#    z 0.297970 0.000000 4.106080 
# 
# 
# High freq. dielectric constant tensor:
#      x y z
#    x 1.845490 0.000000 0.010240 
#    y 0.000000 1.822620 0.000000 
#    z 0.010240 0.000000 1.847720 
# 
# From -- ./inp_files/8363.got.cif
#   From: 2010.03.12/outbox.cif.g09.slc.cpg/sg3_5_cif.got.tgz:8363.got - 2010.03.31 09:20:49.
