data_PCOD8045260
_publ_section_title
;
Structure prediction by ZEFSAII (Michael W. Deem and Ramdas Pophale) SiO2 
 PCOD8045260
Probable space group: P 2
;
_chemical_formula_sum "Si O2"
_cell_formula_units_Z 9
_cell_length_a 13.207383
_cell_length_b 5.030113
_cell_length_c 19.015968
_cell_angle_alpha 90.000000
_cell_angle_beta 159.503543
_cell_angle_gamma 90.000000
_cell_volume 442.350387
_symmetry_space_group_name_H-M "P 2"
_symmetry_group_IT_number 3
_symmetry_cell_setting 'monoclinic'
loop_
_space_group_symop_operation_xyz
x,y,z
-x,y,-z
loop_
_atom_site_type_symbol
_atom_site_label
_atom_site_fract_x
_atom_site_fract_y
_atom_site_fract_z
Si Si1 0.311358 0.244380 0.168280
Si Si2 0.402734 0.735196 0.583005
Si Si3 0.500000 0.485960 0.500000
Si Si4 0.875539 0.279514 0.106694
Si Si5 0.224027 0.771530 0.868994
O O1 0.463907 0.527879 0.275610
O O2 0.504611 0.027793 0.333431
O O3 0.283537 0.187420 0.067612
O O4 0.000000 0.253834 0.000000
O O5 0.519389 0.676570 0.580402
O O6 0.056911 0.709507 0.360985
O O7 0.778725 0.294851 0.679268
O O8 0.755009 0.564724 0.052943
O O9 0.801590 0.067434 0.118088
O O10 0.500000 0.744379 0.000000
#
# Coordination Sequence:
#
# PCOD8045260 Si02
#       5
#     2   2   1   2   2
#     4  12  24  39  61 100 136 160 198 260 334 387
#     4  11  24  39  64  92 131 166 211 255 319 374
#     4  10  22  40  62 100 124 176 202 268 312 392
#     4  11  24  41  67  94 131 165 214 261 323 374
#     4  11  25  46  67  90 125 175 225 261 299 372
#
# _framework density 20.345862
#
# number of rings (size 3 to 8) (size 9 to 14) (size 15 to 20)
#    0.000    0.889    2.222    5.333    6.222    1.778 
#    0.000    6.667    0.000    0.000    0.000    0.000 
#    0.000    0.000    0.000    0.000    0.000    0.000 
#
# Total GULP energy -111657.702992 kJ/mol
# GULP energy per Si atom -12406.411444 kJ/mol
# Density = 2.029955 g / cm^3
# Si number density = 20.345862 Si / 1000 Ang^3
#
#
#
# Elastic Constant Matrix: (Units=GPa)
#
#
# Indices 1 2 3 4 5 6 
#
# 1 120.4018 -2.0837 47.1991 0.0000 33.5150 0.0000
# 2 -2.0837 88.4680 30.8381 0.0000 -13.1590 0.0000
# 3 47.1991 30.8381 122.6279 0.0000 -8.4467 0.0000
# 4 0.0000 0.0000 0.0000 26.5168 0.0000 -13.7729
# 5 33.5150 -13.1590 -8.4467 0.0000 69.9681 0.0000
# 6 0.0000 0.0000 0.0000 -13.7729 0.0000 38.6299
#
#
#
# Elastic Compliance Matrix: (Units=1/GPa)
#
#
# Indices 1 2 3 4 5 6 
#
# 1 0.012207 0.001253 -0.005445 0.000000 -0.006269 0.000000
# 2 0.001253 0.012794 -0.003605 0.000000 0.001371 0.000000
# 3 -0.005445 -0.003605 0.011385 0.000000 0.003305 0.000000
# 4 0.000000 0.000000 0.000000 0.046283 0.000000 0.016501
# 5 -0.006269 0.001371 0.003305 0.000000 0.017952 0.000000
# 6 0.000000 0.000000 0.000000 0.016501 0.000000 0.031770
#
#
# Mechanical properties :
#
#
# Convention : Reuss Voigt Hill
#
# Bulk Modulus (GPa) = 48.09866 53.71166 50.90516
# Shear Modulus (GPa) = 32.27581 44.05925 38.16753
#
# Velocity S-wave (km/s) = 3.98723 4.65856 4.33591
# Velocity P-wave (km/s) = 6.69994 7.44263 7.08103
#
# Compressibility (1/GPa) = 0.02079060
#
# Stress axis : x y z
#
# Youngs Moduli (GPa) = 81.92138 78.16398 87.83556
#
# Poissons Ratio (x) = -0.09795 0.47829
# Poissons Ratio (y) = -0.10266 0.31667
# Poissons Ratio (z) = 0.44609 0.28180
#
# Static dielectric constant tensor:
#      x y z
#    x 3.727560 0.000000 -0.241960 
#    y 0.000000 3.756010 0.000000 
#    z -0.241960 0.000000 3.966340 
# 
# 
# High freq. dielectric constant tensor:
#      x y z
#    x 1.784120 0.000000 -0.013650 
#    y 0.000000 1.810600 0.000000 
#    z -0.013650 0.000000 1.798580 
# 
# From -- ./inp_files/4779.got.cif
#   From: 2010.03.12/outbox.cif.g09.slc.cpg/sg3_3_cif.got.tgz:4779.got - 2010.03.31 09:20:49.
