data_PCOD8045938
_publ_section_title
;
Structure prediction by ZEFSAII (Michael W. Deem and Ramdas Pophale) SiO2 
 PCOD8045938
Probable space group: P 21
;
_chemical_formula_sum "Si O2"
_cell_formula_units_Z 16
_cell_length_a 10.777761
_cell_length_b 8.484463
_cell_length_c 11.598678
_cell_angle_alpha 90.000000
_cell_angle_beta 51.401733
_cell_angle_gamma 90.000000
_cell_volume 828.919289
_symmetry_space_group_name_H-M "P 21"
_symmetry_group_IT_number 4
_symmetry_cell_setting 'monoclinic'
loop_
_space_group_symop_operation_xyz
x,y,z
-x,1/2+y,-z
loop_
_atom_site_type_symbol
_atom_site_label
_atom_site_fract_x
_atom_site_fract_y
_atom_site_fract_z
Si Si1 0.419318 0.018880 0.160657
Si Si2 0.036270 0.518216 0.851783
Si Si3 0.759283 0.036292 0.872279
Si Si4 0.379690 0.691212 0.269642
Si Si5 0.878944 0.032215 0.453706
Si Si6 0.687166 0.507048 0.034710
Si Si7 0.133999 0.728150 0.993754
Si Si8 0.835327 0.765389 0.663990
O O1 0.335957 0.179685 0.252901
O O2 0.383787 0.879686 0.271732
O O3 0.608339 0.026960 0.044351
O O4 0.355247 0.971301 0.072366
O O5 0.120252 0.493438 0.681077
O O6 0.142414 0.629085 0.871447
O O7 0.859111 0.593768 0.938535
O O8 0.018488 0.344965 0.919803
O O9 0.718119 0.142151 0.786620
O O10 0.823239 0.868550 0.788463
O O11 0.890013 0.117574 0.878827
O O12 0.281622 0.632069 0.436166
O O13 0.554673 0.614475 0.171705
O O14 0.031567 0.132624 0.402792
O O15 0.873937 0.871502 0.530520
O O16 0.705597 0.335791 0.086784
#
# Coordination Sequence:
#
# PCOD8045938 Si02
#       8
#     2   2   2   2   2   2   2   2
#     4  11  19  36  62 100 125 160 203 264 318 382
#     4  10  23  40  62  86 123 166 217 258 302 371
#     4  10  21  34  64  93 122 163 207 264 320 360
#     4  10  20  37  62  92 128 157 192 268 332 373
#     4  11  24  37  59  93 133 166 200 256 326 392
#     4   9  20  37  63  89 127 154 216 264 307 377
#     4  10  22  39  65  87 121 164 220 266 297 365
#     4  11  23  34  59  94 137 166 203 256 330 384
#
# _framework density 19.302240999999999
#
# number of rings (size 3 to 8) (size 9 to 14) (size 15 to 20)
#    0.750    1.000    2.500    2.250    8.750    0.000 
#    0.000    0.000    5.500    0.000    0.000    0.000 
#    0.000    0.000    0.000    0.000    0.000    0.000 
#
# Total GULP energy -198286.384742 kJ/mol
# GULP energy per Si atom -12392.899046 kJ/mol
# Density = 1.925831 g / cm^3
# Si number density = 19.302241 Si / 1000 Ang^3
#
#
#
# Elastic Constant Matrix: (Units=GPa)
#
#
# Indices 1 2 3 4 5 6 
#
# 1 55.0506 30.0258 27.9138 0.0000 6.3070 0.0000
# 2 30.0258 124.7665 50.7221 0.0000 9.4324 0.0000
# 3 27.9138 50.7221 110.8203 0.0000 0.7076 0.0000
# 4 0.0000 0.0000 0.0000 33.0529 0.0000 4.4442
# 5 6.3070 9.4324 0.7076 0.0000 26.7612 0.0000
# 6 0.0000 0.0000 0.0000 4.4442 0.0000 34.0759
#
#
#
# Elastic Compliance Matrix: (Units=1/GPa)
#
#
# Indices 1 2 3 4 5 6 
#
# 1 0.022583 -0.003478 -0.004071 0.000000 -0.003989 0.000000
# 2 -0.003478 0.010693 -0.004000 0.000000 -0.002843 0.000000
# 3 -0.004071 -0.004000 0.011867 0.000000 0.002055 0.000000
# 4 0.000000 0.000000 0.000000 0.030795 0.000000 -0.004016
# 5 -0.003989 -0.002843 0.002055 0.000000 0.039255 0.000000
# 6 0.000000 0.000000 0.000000 -0.004016 0.000000 0.029870
#
#
# Mechanical properties :
#
#
# Convention : Reuss Voigt Hill
#
# Bulk Modulus (GPa) = 45.36195 56.44006 50.90100
# Shear Modulus (GPa) = 28.48844 30.90972 29.69908
#
# Velocity S-wave (km/s) = 3.84593 4.00603 3.92680
# Velocity P-wave (km/s) = 6.57826 7.12049 6.85474
#
# Compressibility (1/GPa) = 0.02204491
#
# Stress axis : x y z
#
# Youngs Moduli (GPa) = 44.28028 93.51801 84.26982
#
# Poissons Ratio (x) = 0.32528 0.34305
# Poissons Ratio (y) = 0.15402 0.33707
# Poissons Ratio (z) = 0.18026 0.37407
#
# Static dielectric constant tensor:
#      x y z
#    x 3.263850 0.000000 -0.193530 
#    y 0.000000 3.632930 0.000000 
#    z -0.193530 0.000000 3.541420 
# 
# 
# High freq. dielectric constant tensor:
#      x y z
#    x 1.718390 0.000000 -0.011730 
#    y 0.000000 1.764100 0.000000 
#    z -0.011730 0.000000 1.735680 
# 
# From -- ./inp_files/12001.got.cif
#   From: 2010.03.12/outbox.cif.g09.slc.cpg/sg4_7_cif.got.tgz:12001.got - 2010.03.31 09:31:35.
