data_PCOD8045556
_publ_section_title
;
Structure prediction by ZEFSAII (Michael W. Deem and Ramdas Pophale) SiO2 
 PCOD8045556
Probable space group: P 2
;
_chemical_formula_sum "Si O2"
_cell_formula_units_Z 14
_cell_length_a 15.587203
_cell_length_b 6.099335
_cell_length_c 9.449241
_cell_angle_alpha 90.000000
_cell_angle_beta 37.423632
_cell_angle_gamma 90.000000
_cell_volume 545.932948
_symmetry_space_group_name_H-M "P 2"
_symmetry_group_IT_number 3
_symmetry_cell_setting 'monoclinic'
loop_
_space_group_symop_operation_xyz
x,y,z
-x,y,-z
loop_
_atom_site_type_symbol
_atom_site_label
_atom_site_fract_x
_atom_site_fract_y
_atom_site_fract_z
Si Si1 0.000000 0.966040 0.000000
Si Si2 0.904961 0.766295 0.400386
Si Si3 0.852087 0.479967 0.839730
Si Si4 0.749991 0.136017 0.749991
Si Si5 0.404964 0.766304 0.900347
Si Si6 0.249968 0.262123 0.750041
Si Si7 0.500000 0.966162 0.500000
Si Si8 0.647923 0.479972 0.660249
O O1 0.000119 0.814123 0.138308
O O2 0.861185 0.113952 0.188120
O O3 0.988627 0.579882 0.380725
O O4 0.751386 0.677572 0.563243
O O5 0.878525 0.990315 0.520143
O O6 0.826987 0.277004 0.769424
O O7 0.748576 0.677589 0.936973
O O8 0.829808 0.409868 0.031114
O O9 0.672961 0.276896 0.730564
O O10 0.621500 0.990260 0.979803
O O11 0.488618 0.579834 0.880668
O O12 0.500158 0.814263 0.638265
O O13 0.361197 0.114094 0.688108
O O14 0.329652 0.410029 0.531338
#
# Coordination Sequence:
#
# PCOD8045556 Si02
#       8
#     1   2   2   2   2   2   1   2
#     4  12  24  50  82 114 152 206 262 328 386 456
#     4  12  28  51  81 114 157 209 262 320 394 464
#     4  12  28  51  81 114 157 209 262 320 394 464
#     4  12  30  54  76 120 168 204 258 330 388 484
#     4  12  28  51  81 114 157 209 262 320 394 464
#     4  12  24  50  82 114 152 206 262 328 386 456
#     4  12  24  50  82 114 152 206 262 328 386 456
#     4  12  28  51  81 114 157 209 262 320 394 464
#
# _framework density 25.644174
#
# number of rings (size 3 to 8) (size 9 to 14) (size 15 to 20)
#    0.000    0.000    2.857    6.000    0.000    6.857 
#    0.000    0.000    0.000    0.000    0.000    0.000 
#    0.000    0.000    0.000    0.000    0.000    0.000 
#
# Total GULP energy -173747.675727 kJ/mol
# GULP energy per Si atom -12410.548266 kJ/mol
# Density = 2.558581 g / cm^3
# Si number density = 25.644174 Si / 1000 Ang^3
#
#
#
# Elastic Constant Matrix: (Units=GPa)
#
#
# Indices 1 2 3 4 5 6 
#
# 1 127.5406 56.2587 38.4722 0.0000 -4.0236 0.0000
# 2 56.2587 142.4839 52.7540 0.0000 11.8057 0.0000
# 3 38.4722 52.7540 105.4585 0.0000 14.6321 0.0000
# 4 0.0000 0.0000 0.0000 107.0517 0.0000 -4.5322
# 5 -4.0236 11.8057 14.6321 0.0000 57.3275 0.0000
# 6 0.0000 0.0000 0.0000 -4.5322 0.0000 55.8721
#
#
#
# Elastic Compliance Matrix: (Units=1/GPa)
#
#
# Indices 1 2 3 4 5 6 
#
# 1 0.010041 -0.003277 -0.002296 0.000000 0.001966 0.000000
# 2 -0.003277 0.009710 -0.003476 0.000000 -0.001343 0.000000
# 3 -0.002296 -0.003476 0.012422 0.000000 -0.002616 0.000000
# 4 0.000000 0.000000 0.000000 0.009373 0.000000 0.000760
# 5 0.001966 -0.001343 -0.002616 0.000000 0.018526 0.000000
# 6 0.000000 0.000000 0.000000 0.000760 0.000000 0.017960
#
#
# Mechanical properties :
#
#
# Convention : Reuss Voigt Hill
#
# Bulk Modulus (GPa) = 71.05009 74.49474 72.77242
# Shear Modulus (GPa) = 49.59229 59.25013 54.42121
#
# Velocity S-wave (km/s) = 4.40234 4.81195 4.61170
# Velocity P-wave (km/s) = 7.32169 7.74504 7.53634
#
# Compressibility (1/GPa) = 0.01407458
#
# Stress axis : x y z
#
# Youngs Moduli (GPa) = 99.59202 102.98220 80.50405
#
# Poissons Ratio (x) = 0.33750 0.18487
# Poissons Ratio (y) = 0.32639 0.27980
# Poissons Ratio (z) = 0.22870 0.35793
#
# Static dielectric constant tensor:
#      x y z
#    x 4.570010 0.000000 0.264870 
#    y 0.000000 4.696080 0.000000 
#    z 0.264870 0.000000 4.628260 
# 
# 
# High freq. dielectric constant tensor:
#      x y z
#    x 2.034490 0.000000 0.009280 
#    y 0.000000 2.037070 0.000000 
#    z 0.009280 0.000000 2.042870 
# 
# From -- ./inp_files/8850.got.cif
#   From: 2010.03.12/outbox.cif.g09.slc.cpg/sg3_5_cif.got.tgz:8850.got - 2010.03.31 09:20:49.
