data_PCOD8045120
_publ_section_title
;
Structure prediction by ZEFSAII (Michael W. Deem and Ramdas Pophale) SiO2 
 PCOD8045120
Probable space group: P 2
;
_chemical_formula_sum "Si O2"
_cell_formula_units_Z 14
_cell_length_a 8.249612
_cell_length_b 16.599866
_cell_length_c 8.249120
_cell_angle_alpha 90.000000
_cell_angle_beta 35.418182
_cell_angle_gamma 90.000000
_cell_volume 654.679893
_symmetry_space_group_name_H-M "P 2"
_symmetry_group_IT_number 3
_symmetry_cell_setting 'monoclinic'
loop_
_space_group_symop_operation_xyz
x,y,z
-x,y,-z
loop_
_atom_site_type_symbol
_atom_site_label
_atom_site_fract_x
_atom_site_fract_y
_atom_site_fract_z
Si Si1 0.803944 0.451060 0.303954
Si Si2 0.687955 0.335565 0.694643
Si Si3 0.098906 0.905027 0.100856
Si Si4 0.315907 0.155647 0.297527
Si Si5 0.202499 0.746462 0.184066
Si Si6 0.600852 0.997084 0.598909
Si Si7 0.805337 0.566546 0.812069
O O1 0.500000 0.490348 0.500000
O O2 0.687787 0.388025 0.531589
O O3 0.031579 0.514092 0.187793
O O4 0.000000 0.411766 0.000000
O O5 0.586844 0.245518 0.728369
O O6 0.000000 0.335191 0.500000
O O7 0.500000 0.368654 0.000000
O O8 0.100217 0.809563 0.133563
O O9 0.891435 0.951047 0.391501
O O10 0.000000 0.916614 0.000000
O O11 0.390566 0.951063 0.890625
O O12 0.366392 0.092547 0.399829
O O13 0.000000 0.157549 0.500000
O O14 0.500000 0.124305 0.000000
O O15 0.228420 0.656592 0.086789
O O16 0.000000 0.744558 0.500000
O O17 0.500000 0.777802 0.000000
O O18 0.500000 0.985497 0.500000
O O19 0.000000 0.566922 0.500000
O O20 0.500000 0.533459 0.000000
#
# Coordination Sequence:
#
# PCOD8045120 Si02
#       7
#     2   2   2   2   2   2   2
#     4  12  25  40  63  98 126 154 208 262 305 360
#     4  10  22  42  64  86 120 164 201 242 308 373
#     4  10  21  36  54  80 115 153 188 230 293 354
#     4  10  21  37  59  86 112 148 199 244 285 344
#     4  10  21  37  59  86 112 148 199 244 285 344
#     4  10  21  36  54  80 115 153 188 230 293 354
#     4  10  22  42  64  86 120 164 201 242 308 373
#
# _framework density 21.384495999999999
#
# number of rings (size 3 to 8) (size 9 to 14) (size 15 to 20)
#    0.000    1.714    0.000    3.857    0.000    5.714 
#    0.000    4.286    0.000    0.000    0.000    0.000 
#    0.000    0.000    0.000    0.000    0.000    0.000 
#
# Total GULP energy -173457.256911 kJ/mol
# GULP energy per Si atom -12389.804065 kJ/mol
# Density = 2.133582 g / cm^3
# Si number density = 21.384496 Si / 1000 Ang^3
#
#
#
# Elastic Constant Matrix: (Units=GPa)
#
#
# Indices 1 2 3 4 5 6 
#
# 1 64.4964 48.9091 46.0304 0.0000 -11.8437 0.0000
# 2 48.9091 129.0639 44.8382 0.0000 1.1733 0.0000
# 3 46.0304 44.8382 166.8518 0.0000 -17.7188 0.0000
# 4 0.0000 0.0000 0.0000 36.4952 0.0000 -0.7126
# 5 -11.8437 1.1733 -17.7188 0.0000 31.4294 0.0000
# 6 0.0000 0.0000 0.0000 -0.7126 0.0000 34.0617
#
#
#
# Elastic Compliance Matrix: (Units=1/GPa)
#
#
# Indices 1 2 3 4 5 6 
#
# 1 0.026501 -0.008680 -0.004131 0.000000 0.007982 0.000000
# 2 -0.008680 0.011477 -0.001151 0.000000 -0.004349 0.000000
# 3 -0.004131 -0.001151 0.007745 0.000000 0.002853 0.000000
# 4 0.000000 0.000000 0.000000 0.027412 0.000000 0.000574
# 5 0.007982 -0.004349 0.002853 0.000000 0.036596 0.000000
# 6 0.000000 0.000000 0.000000 0.000574 0.000000 0.029371
#
#
# Mechanical properties :
#
#
# Convention : Reuss Voigt Hill
#
# Bulk Modulus (GPa) = 56.18377 71.10751 63.64564
# Shear Modulus (GPa) = 28.90863 35.10621 32.00742
#
# Velocity S-wave (km/s) = 3.68074 4.05614 3.87299
# Velocity P-wave (km/s) = 6.66288 7.43374 7.05884
#
# Compressibility (1/GPa) = 0.01779873
#
# Stress axis : x y z
#
# Youngs Moduli (GPa) = 37.73473 87.13112 129.11077
#
# Poissons Ratio (x) = 0.75630 0.53332
# Poissons Ratio (y) = 0.32754 0.14866
# Poissons Ratio (z) = 0.15587 0.10032
#
# Static dielectric constant tensor:
#      x y z
#    x 3.565670 0.000000 -0.229210 
#    y 0.000000 4.280900 0.000000 
#    z -0.229210 0.000000 4.358720 
# 
# 
# High freq. dielectric constant tensor:
#      x y z
#    x 1.818510 0.000000 -0.013570 
#    y 0.000000 1.841300 0.000000 
#    z -0.013570 0.000000 1.865420 
# 
# From -- ./inp_files/6175.got.cif
#   From: 2010.03.12/outbox.cif.g09.slc.cpg/sg3_4_cif.got.tgz:6175.got - 2010.03.31 09:20:49.
