data_PCOD8045448
_publ_section_title
;
Structure prediction by ZEFSAII (Michael W. Deem and Ramdas Pophale) SiO2 
 PCOD8045448
Probable space group: P 2
;
_chemical_formula_sum "Si O2"
_cell_formula_units_Z 10
_cell_length_a 14.183558
_cell_length_b 4.751696
_cell_length_c 7.610723
_cell_angle_alpha 90.000000
_cell_angle_beta 45.755493
_cell_angle_gamma 90.000000
_cell_volume 367.448466
_symmetry_space_group_name_H-M "P 2"
_symmetry_group_IT_number 3
_symmetry_cell_setting 'monoclinic'
loop_
_space_group_symop_operation_xyz
x,y,z
-x,y,-z
loop_
_atom_site_type_symbol
_atom_site_label
_atom_site_fract_x
_atom_site_fract_y
_atom_site_fract_z
Si Si1 0.810378 0.076500 0.462757
Si Si2 0.979497 0.572118 0.319283
Si Si3 0.602296 0.841308 0.507255
Si Si4 0.740300 0.407278 0.102665
Si Si5 0.651929 0.891131 0.998411
O O1 0.851748 0.398180 0.422595
O O2 0.943266 0.890477 0.311112
O O3 0.732921 0.031435 0.378049
O O4 0.704347 0.004681 0.748580
O O5 0.000000 0.543791 0.500000
O O6 0.105329 0.450039 0.050763
O O7 0.500000 0.976301 0.500000
O O8 0.648852 0.531755 0.380202
O O9 0.506761 0.835355 0.803577
O O10 0.700923 0.089327 0.100436
O O11 0.718475 0.592551 0.954376
#
# Coordination Sequence:
#
# PCOD8045448 Si02
#       5
#     2   2   2   2   2
#     4  12  24  43  76 109 139 197 248 301 363 439
#     4  12  23  44  75 108 145 182 252 306 361 433
#     4  10  27  46  67 103 151 190 237 297 367 431
#     4  11  24  44  71 103 147 192 229 306 372 425
#     4  11  22  44  73 103 142 192 247 296 359 435
#
# _framework density 27.214700000000001
#
# number of rings (size 3 to 8) (size 9 to 14) (size 15 to 20)
#    0.000    0.800    4.000    2.400    0.000   14.400 
#    0.000    8.000    0.000    0.000    0.000    0.000 
#    0.000    0.000    0.000    0.000    0.000    0.000 
#
# Total GULP energy -123941.949527 kJ/mol
# GULP energy per Si atom -12394.194953 kJ/mol
# Density = 2.715276 g / cm^3
# Si number density = 27.214700 Si / 1000 Ang^3
#
#
#
# Elastic Constant Matrix: (Units=GPa)
#
#
# Indices 1 2 3 4 5 6 
#
# 1 128.1772 14.2953 8.3933 0.0000 -18.4383 0.0000
# 2 14.2953 65.3446 -3.4115 0.0000 -6.7563 0.0000
# 3 8.3933 -3.4115 121.7657 0.0000 -26.5209 0.0000
# 4 0.0000 0.0000 0.0000 42.4601 0.0000 -13.2339
# 5 -18.4383 -6.7563 -26.5209 0.0000 34.8766 0.0000
# 6 0.0000 0.0000 0.0000 -13.2339 0.0000 28.2064
#
#
#
# Elastic Compliance Matrix: (Units=1/GPa)
#
#
# Indices 1 2 3 4 5 6 
#
# 1 0.008587 -0.001390 0.000359 0.000000 0.004543 0.000000
# 2 -0.001390 0.016019 0.001271 0.000000 0.003335 0.000000
# 3 0.000359 0.001271 0.009969 0.000000 0.008017 0.000000
# 4 0.000000 0.000000 0.000000 0.027585 0.000000 0.012942
# 5 0.004543 0.003335 0.008017 0.000000 0.037816 0.000000
# 6 0.000000 0.000000 0.000000 0.012942 0.000000 0.041525
#
#
# Mechanical properties :
#
#
# Convention : Reuss Voigt Hill
#
# Bulk Modulus (GPa) = 28.52741 39.31573 33.92157
# Shear Modulus (GPa) = 32.74229 40.84265 36.79247
#
# Velocity S-wave (km/s) = 3.47235 3.87816 3.68085
# Velocity P-wave (km/s) = 5.15572 5.87634 5.52778
#
# Compressibility (1/GPa) = 0.03505400
#
# Stress axis : x y z
#
# Youngs Moduli (GPa) = 116.45837 62.42688 100.30634
#
# Poissons Ratio (x) = 0.08678 -0.03598
# Poissons Ratio (y) = 0.16188 -0.12748
# Poissons Ratio (z) = -0.04177 -0.07934
#
# Static dielectric constant tensor:
#      x y z
#    x 4.882760 0.000000 -0.178950 
#    y 0.000000 4.621080 0.000000 
#    z -0.178950 0.000000 5.502170 
# 
# 
# High freq. dielectric constant tensor:
#      x y z
#    x 2.099000 0.000000 -0.010150 
#    y 0.000000 2.084520 0.000000 
#    z -0.010150 0.000000 2.116490 
# 
# From -- ./inp_files/7890.got.cif
#   From: 2010.03.12/outbox.cif.g09.slc.cpg/sg3_4_cif.got.tgz:7890.got - 2010.03.31 09:20:49.
