data_PCOD8045757
_publ_section_title
;
Structure prediction by ZEFSAII (Michael W. Deem and Ramdas Pophale) SiO2 
 PCOD8045757
Probable space group: P 21
;
_chemical_formula_sum "Si O2"
_cell_formula_units_Z 16
_cell_length_a 7.767882
_cell_length_b 9.175145
_cell_length_c 15.304932
_cell_angle_alpha 90.000000
_cell_angle_beta 137.876531
_cell_angle_gamma 90.000000
_cell_volume 731.635897
_symmetry_space_group_name_H-M "P 21"
_symmetry_group_IT_number 4
_symmetry_cell_setting 'monoclinic'
loop_
_space_group_symop_operation_xyz
x,y,z
-x,1/2+y,-z
loop_
_atom_site_type_symbol
_atom_site_label
_atom_site_fract_x
_atom_site_fract_y
_atom_site_fract_z
Si Si1 0.957660 0.973250 0.225296
Si Si2 0.205265 0.517239 0.163504
Si Si3 0.919952 0.225561 0.613131
Si Si4 0.384686 0.798305 0.659269
Si Si5 0.406786 0.716963 0.858005
Si Si6 0.643679 0.701540 0.596322
Si Si7 0.968196 0.811166 0.054060
Si Si8 0.980477 0.448003 0.262594
O O1 0.026176 0.924474 0.153268
O O2 0.902606 0.835705 0.266230
O O3 0.709160 0.078191 0.134557
O O4 0.207398 0.050698 0.361880
O O5 0.504914 0.463445 0.281448
O O6 0.067866 0.519742 0.205451
O O7 0.187539 0.686004 0.123931
O O8 0.057907 0.404827 0.043774
O O9 0.876315 0.286769 0.497928
O O10 0.637911 0.203421 0.553985
O O11 0.054824 0.068005 0.673381
O O12 0.329666 0.710155 0.726594
O O13 0.614650 0.721806 0.690929
O O14 0.289345 0.865750 0.853855
O O15 0.711047 0.721623 0.982837
O O16 0.812649 0.833148 0.621779
#
# Coordination Sequence:
#
# PCOD8045757 Si02
#       8
#     2   2   2   2   2   2   2   2
#     4  11  22  36  62  90 114 157 205 237 307 365
#     4  10  22  41  62  90 116 160 204 259 290 362
#     4  10  19  35  64  88 116 154 197 251 296 358
#     4   8  20  39  61  83 123 150 195 247 300 351
#     4  10  24  40  54  84 125 164 194 246 298 361
#     4   8  19  35  59  84 118 150 193 249 297 343
#     4  11  25  40  64  86 125 157 208 249 308 345
#     4  10  19  38  60  85 121 156 200 242 304 355
#
# _framework density 21.8688
#
# number of rings (size 3 to 8) (size 9 to 14) (size 15 to 20)
#    0.750    1.500    1.250    0.750    8.750    1.000 
#    0.000    2.500    0.000    0.000    0.000    0.000 
#    0.000    0.000    0.000    0.000    0.000    0.000 
#
# Total GULP energy -198241.840568 kJ/mol
# GULP energy per Si atom -12390.115035 kJ/mol
# Density = 2.181903 g / cm^3
# Si number density = 21.868800 Si / 1000 Ang^3
#
#
#
# Elastic Constant Matrix: (Units=GPa)
#
#
# Indices 1 2 3 4 5 6 
#
# 1 38.2803 19.9927 1.7370 0.0000 -8.4001 0.0000
# 2 19.9927 137.5592 39.7074 0.0000 -6.4883 0.0000
# 3 1.7370 39.7074 66.8240 0.0000 -14.8348 0.0000
# 4 0.0000 0.0000 0.0000 29.2552 0.0000 -2.9133
# 5 -8.4001 -6.4883 -14.8348 0.0000 31.2185 0.0000
# 6 0.0000 0.0000 0.0000 -2.9133 0.0000 26.4370
#
#
#
# Elastic Compliance Matrix: (Units=1/GPa)
#
#
# Indices 1 2 3 4 5 6 
#
# 1 0.030723 -0.005301 0.004407 0.000000 0.009259 0.000000
# 2 -0.005301 0.009704 -0.006146 0.000000 -0.002330 0.000000
# 3 0.004407 -0.006146 0.020661 0.000000 0.009726 0.000000
# 4 0.000000 0.000000 0.000000 0.034561 0.000000 0.003809
# 5 0.009259 -0.002330 0.009726 0.000000 0.038661 0.000000
# 6 0.000000 0.000000 0.000000 0.003809 0.000000 0.038245
#
#
# Mechanical properties :
#
#
# Convention : Reuss Voigt Hill
#
# Bulk Modulus (GPa) = 21.27243 40.61530 30.94387
# Shear Modulus (GPa) = 24.71506 29.46389 27.08948
#
# Velocity S-wave (km/s) = 3.36542 3.67454 3.52337
# Velocity P-wave (km/s) = 4.98496 6.05108 5.54371
#
# Compressibility (1/GPa) = 0.04700920
#
# Stress axis : x y z
#
# Youngs Moduli (GPa) = 32.54859 103.04951 48.39988
#
# Poissons Ratio (x) = 0.54622 -0.21327
# Poissons Ratio (y) = 0.17252 0.29745
# Poissons Ratio (z) = -0.14343 0.63331
#
# Static dielectric constant tensor:
#      x y z
#    x 3.632710 0.000000 -0.018270 
#    y 0.000000 3.874900 0.000000 
#    z -0.018270 0.000000 3.748300 
# 
# 
# High freq. dielectric constant tensor:
#      x y z
#    x 1.831620 0.000000 -0.008510 
#    y 0.000000 1.861280 0.000000 
#    z -0.008510 0.000000 1.845030 
# 
# From -- ./inp_files/9577.got.cif
#   From: 2010.03.12/outbox.cif.g09.slc.cpg/sg4_5_cif.got.tgz:9577.got - 2010.03.31 09:31:35.
