data_PCOD8045140
_publ_section_title
;
Structure prediction by ZEFSAII (Michael W. Deem and Ramdas Pophale) SiO2 
 PCOD8045140
Probable space group: P 2
;
_chemical_formula_sum "Si O2"
_cell_formula_units_Z 14
_cell_length_a 8.440975
_cell_length_b 16.231679
_cell_length_c 9.672580
_cell_angle_alpha 90.000000
_cell_angle_beta 149.346370
_cell_angle_gamma 90.000000
_cell_volume 675.675455
_symmetry_space_group_name_H-M "P 2"
_symmetry_group_IT_number 3
_symmetry_cell_setting 'monoclinic'
loop_
_space_group_symop_operation_xyz
x,y,z
-x,y,-z
loop_
_atom_site_type_symbol
_atom_site_label
_atom_site_fract_x
_atom_site_fract_y
_atom_site_fract_z
Si Si1 0.344031 0.208870 0.736537
Si Si2 0.740126 0.880259 0.919698
Si Si3 0.637638 0.515258 0.744975
Si Si4 0.323779 0.627868 0.723991
Si Si5 0.123011 0.799189 0.448692
Si Si6 0.650063 0.027620 0.256853
Si Si7 0.363300 0.330274 0.256296
O O1 0.329484 0.117522 0.653539
O O2 0.542178 0.271180 0.795431
O O3 0.000000 0.244451 0.500000
O O4 0.500000 0.203556 0.000000
O O5 0.449358 0.832679 0.637220
O O6 0.593215 0.968025 0.849646
O O7 0.000000 0.895466 0.000000
O O8 0.867331 0.823042 0.140918
O O9 0.500000 0.552072 0.500000
O O10 0.561511 0.573278 0.816792
O O11 0.509011 0.422953 0.675938
O O12 0.000000 0.514016 0.000000
O O13 0.189984 0.703497 0.530245
O O14 0.000000 0.576527 0.500000
O O15 0.500000 0.654325 0.000000
O O16 0.000000 0.840198 0.500000
O O17 0.000000 0.990583 0.500000
O O18 0.500000 0.045973 0.000000
O O19 0.500000 0.294162 0.500000
O O20 0.000000 0.331693 0.000000
#
# Coordination Sequence:
#
# PCOD8045140 Si02
#       7
#     2   2   2   2   2   2   2
#     4  10  21  37  60  89 117 154 204 249 291 347
#     4  12  24  38  59  88 114 145 194 245 293 349
#     4  10  22  39  60  88 124 164 199 239 299 359
#     4  11  23  40  62  89 116 152 203 250 294 350
#     4  11  23  41  60  81 114 154 190 235 299 360
#     4  10  21  39  61  84 117 158 196 240 301 361
#     4  10  21  38  59  87 125 165 199 238 298 358
#
# _framework density 20.720006000000001
#
# number of rings (size 3 to 8) (size 9 to 14) (size 15 to 20)
#    0.000    1.429    0.000    6.429    0.000    3.429 
#    0.000    1.429    0.000    0.000    0.000    0.000 
#    0.000    0.000    0.000    0.000    0.000    0.000 
#
# Total GULP energy -173464.371100 kJ/mol
# GULP energy per Si atom -12390.312221 kJ/mol
# Density = 2.067285 g / cm^3
# Si number density = 20.720006 Si / 1000 Ang^3
#
#
#
# Elastic Constant Matrix: (Units=GPa)
#
#
# Indices 1 2 3 4 5 6 
#
# 1 119.2084 59.4613 21.8472 0.0000 9.5215 0.0000
# 2 59.4613 103.6111 19.8563 0.0000 -4.2911 0.0000
# 3 21.8472 19.8563 107.9524 0.0000 3.7476 0.0000
# 4 0.0000 0.0000 0.0000 41.5425 0.0000 -22.6038
# 5 9.5215 -4.2911 3.7476 0.0000 35.1564 0.0000
# 6 0.0000 0.0000 0.0000 -22.6038 0.0000 119.5892
#
#
#
# Elastic Compliance Matrix: (Units=1/GPa)
#
#
# Indices 1 2 3 4 5 6 
#
# 1 0.012466 -0.007120 -0.001070 0.000000 -0.004131 0.000000
# 2 -0.007120 0.014142 -0.001292 0.000000 0.003792 0.000000
# 3 -0.001070 -0.001292 0.009749 0.000000 -0.000907 0.000000
# 4 0.000000 0.000000 0.000000 0.026831 0.000000 0.005071
# 5 -0.004131 0.003792 -0.000907 0.000000 0.030123 0.000000
# 6 0.000000 0.000000 0.000000 0.005071 0.000000 0.009321
#
#
# Mechanical properties :
#
#
# Convention : Reuss Voigt Hill
#
# Bulk Modulus (GPa) = 57.49270 59.23348 58.36309
# Shear Modulus (GPa) = 39.24819 54.56475 46.90647
#
# Velocity S-wave (km/s) = 4.35698 5.13727 4.76313
# Velocity P-wave (km/s) = 7.28826 7.98989 7.64712
#
# Compressibility (1/GPa) = 0.01739351
#
# Stress axis : x y z
#
# Youngs Moduli (GPa) = 80.21575 70.70914 102.57494
#
# Poissons Ratio (x) = 0.50348 0.10974
# Poissons Ratio (y) = 0.57117 0.13252
# Poissons Ratio (z) = 0.08582 0.09135
#
# Static dielectric constant tensor:
#      x y z
#    x 3.725680 0.000000 0.243750 
#    y 0.000000 3.909030 0.000000 
#    z 0.243750 0.000000 3.937140 
# 
# 
# High freq. dielectric constant tensor:
#      x y z
#    x 1.799470 0.000000 0.017250 
#    y 0.000000 1.809670 0.000000 
#    z 0.017250 0.000000 1.831410 
# 
# From -- ./inp_files/6242.got.cif
#   From: 2010.03.12/outbox.cif.g09.slc.cpg/sg3_4_cif.got.tgz:6242.got - 2010.03.31 09:20:49.
