data_PCOD8045188
_publ_section_title
;
Structure prediction by ZEFSAII (Michael W. Deem and Ramdas Pophale) SiO2 
 PCOD8045188
Probable space group: P 2
;
_chemical_formula_sum "Si O2"
_cell_formula_units_Z 14
_cell_length_a 6.127260
_cell_length_b 6.104732
_cell_length_c 17.078909
_cell_angle_alpha 90.000000
_cell_angle_beta 75.327408
_cell_angle_gamma 90.000000
_cell_volume 618.008139
_symmetry_space_group_name_H-M "P 2"
_symmetry_group_IT_number 3
_symmetry_cell_setting 'monoclinic'
loop_
_space_group_symop_operation_xyz
x,y,z
-x,y,-z
loop_
_atom_site_type_symbol
_atom_site_label
_atom_site_fract_x
_atom_site_fract_y
_atom_site_fract_z
Si Si1 0.843351 0.282910 0.849712
Si Si2 0.887710 0.332971 0.433731
Si Si3 0.500000 0.281763 0.000000
Si Si4 0.828049 0.000327 0.074811
Si Si5 0.450922 0.932083 0.218169
Si Si6 0.321996 0.946301 0.646513
Si Si7 0.072807 0.610364 0.286045
Si Si8 0.500000 0.659311 0.500000
O O1 0.660938 0.409731 0.923382
O O2 0.971708 0.462175 0.786396
O O3 0.034706 0.159635 0.880568
O O4 0.709936 0.109147 0.807823
O O5 0.720704 0.512397 0.484322
O O6 0.000000 0.220826 0.500000
O O7 0.069891 0.457055 0.362989
O O8 0.762044 0.151941 0.394982
O O9 0.327599 0.136213 0.968032
O O10 0.659928 0.854175 0.143137
O O11 0.000000 0.868008 0.000000
O O12 0.548557 0.037481 0.289222
O O13 0.319699 0.713456 0.254508
O O14 0.495892 0.809097 0.577867
O O15 0.113928 0.798392 0.693487
#
# Coordination Sequence:
#
# PCOD8045188 Si02
#       8
#     2   2   1   2   2   2   2   1
#     4  10  21  40  63  89 123 163 205 253 305 359
#     4  11  24  43  64  88 123 163 202 253 310 363
#     4   8  18  36  64  90 120 162 204 250 304 360
#     4   9  18  37  64  91 121 163 207 250 303 359
#     4  11  22  39  62  90 124 163 203 252 306 362
#     4  11  25  42  62  92 125 159 205 254 305 366
#     4  11  24  39  61  93 124 160 204 252 305 367
#     4  10  24  42  64  90 120 162 208 252 302 368
#
# _framework density 22.653423
#
# number of rings (size 3 to 8) (size 9 to 14) (size 15 to 20)
#    0.000    1.714    0.000    3.857    0.000   11.429 
#    0.000    5.714    0.000    8.571    0.000    0.000 
#    0.000    0.000    0.000    0.000    0.000    0.000 
#
# Total GULP energy -173493.125006 kJ/mol
# GULP energy per Si atom -12392.366072 kJ/mol
# Density = 2.260186 g / cm^3
# Si number density = 22.653423 Si / 1000 Ang^3
#
#
#
# Elastic Constant Matrix: (Units=GPa)
#
#
# Indices 1 2 3 4 5 6 
#
# 1 118.8168 42.6345 84.6384 0.0000 5.2636 0.0000
# 2 42.6345 85.7775 59.1580 0.0000 -7.3222 0.0000
# 3 84.6384 59.1580 176.3455 0.0000 -12.7669 0.0000
# 4 0.0000 0.0000 0.0000 30.2597 0.0000 -11.9233
# 5 5.2636 -7.3222 -12.7669 0.0000 67.7971 0.0000
# 6 0.0000 0.0000 0.0000 -11.9233 0.0000 17.8736
#
#
#
# Elastic Compliance Matrix: (Units=1/GPa)
#
#
# Indices 1 2 3 4 5 6 
#
# 1 0.013709 -0.003075 -0.005727 0.000000 -0.002475 0.000000
# 2 -0.003075 0.015889 -0.003764 0.000000 0.001246 0.000000
# 3 -0.005727 -0.003764 0.009819 0.000000 0.001887 0.000000
# 4 0.000000 0.000000 0.000000 0.044831 0.000000 0.029907
# 5 -0.002475 0.001246 0.001887 0.000000 0.015432 0.000000
# 6 0.000000 0.000000 0.000000 0.029907 0.000000 0.075899
#
#
# Mechanical properties :
#
#
# Convention : Reuss Voigt Hill
#
# Bulk Modulus (GPa) = 70.00965 83.75573 76.88269
# Shear Modulus (GPa) = 24.33397 36.15335 30.24366
#
# Velocity S-wave (km/s) = 3.28103 3.99925 3.65781
# Velocity P-wave (km/s) = 6.73241 7.64056 7.20082
#
# Compressibility (1/GPa) = 0.01428374
#
# Stress axis : x y z
#
# Youngs Moduli (GPa) = 72.94287 62.93730 101.84411
#
# Poissons Ratio (x) = 0.19355 0.58331
# Poissons Ratio (y) = 0.22432 0.38334
# Poissons Ratio (z) = 0.41778 0.23689
#
# Static dielectric constant tensor:
#      x y z
#    x 4.377040 0.000000 -0.382150 
#    y 0.000000 3.665350 0.000000 
#    z -0.382150 0.000000 4.994850 
# 
# 
# High freq. dielectric constant tensor:
#      x y z
#    x 1.903210 0.000000 -0.010300 
#    y 0.000000 1.851870 0.000000 
#    z -0.010300 0.000000 1.933580 
# 
# From -- ./inp_files/3561.got.cif
#   From: 2010.03.12/outbox.cif.g09.slc.cpg/sg3_2_cif.got.tgz:3561.got - 2010.03.31 09:20:49.
