data_PCOD8045469
_publ_section_title
;
Structure prediction by ZEFSAII (Michael W. Deem and Ramdas Pophale) SiO2 
 PCOD8045469
Probable space group: P 2
;
_chemical_formula_sum "Si O2"
_cell_formula_units_Z 16
_cell_length_a 8.418769
_cell_length_b 17.889650
_cell_length_c 9.869866
_cell_angle_alpha 90.000000
_cell_angle_beta 148.462916
_cell_angle_gamma 90.000000
_cell_volume 777.508530
_symmetry_space_group_name_H-M "P 2"
_symmetry_group_IT_number 3
_symmetry_cell_setting 'monoclinic'
loop_
_space_group_symop_operation_xyz
x,y,z
-x,y,-z
loop_
_atom_site_type_symbol
_atom_site_label
_atom_site_fract_x
_atom_site_fract_y
_atom_site_fract_z
Si Si1 0.680509 0.101970 0.991187
Si Si2 0.315482 0.273098 0.004089
Si Si3 0.766600 0.779523 0.952084
Si Si4 0.863391 0.854560 0.546911
Si Si5 0.185059 0.358251 0.495484
Si Si6 0.176979 0.527107 0.489454
Si Si7 0.198022 0.609458 0.010723
Si Si8 0.697382 0.018605 0.510521
O O1 0.725308 0.187784 0.980835
O O2 0.496618 0.062486 0.739873
O O3 0.500000 0.093395 0.000000
O O4 0.010240 0.066593 0.240660
O O5 0.490544 0.318763 0.247853
O O6 0.500000 0.276950 0.000000
O O7 0.989693 0.311768 0.746972
O O8 0.445590 0.808029 0.662214
O O9 0.728446 0.694709 0.974802
O O10 0.000000 0.786377 0.000000
O O11 0.885195 0.829350 0.161998
O O12 0.000000 0.839265 0.500000
O O13 0.799511 0.941355 0.519515
O O14 0.230758 0.442718 0.476711
O O15 0.000000 0.357526 0.500000
O O16 0.496612 0.565522 0.741363
O O17 0.000000 0.526183 0.500000
O O18 0.981135 0.572743 0.241354
O O19 0.000000 0.605806 0.000000
O O20 0.500000 0.002847 0.500000
#
# Coordination Sequence:
#
# PCOD8045469 Si02
#       8
#     2   2   2   2   2   2   2   2
#     4  11  22  39  64  92 118 153 204 255 294 344
#     4   9  17  31  55  84 115 149 192 245 298 346
#     4  11  24  43  64  88 120 161 200 239 296 364
#     4  12  25  42  65  93 121 152 197 252 296 344
#     4   9  17  31  53  85 117 149 192 245 298 346
#     4  11  22  37  62  91 120 155 204 255 294 344
#     4  11  24  41  61  86 123 163 198 239 298 364
#     4  12  25  42  62  87 124 164 195 236 298 364
#
# _framework density 20.578551999999998
#
# number of rings (size 3 to 8) (size 9 to 14) (size 15 to 20)
#    0.000    1.250    0.000    6.750    0.000    9.000 
#    0.000    0.000    0.000   15.000    0.000    0.000 
#    0.000    0.000    0.000    0.000    0.000    0.000 
#
# Total GULP energy -198480.774953 kJ/mol
# GULP energy per Si atom -12405.048435 kJ/mol
# Density = 2.053171 g / cm^3
# Si number density = 20.578552 Si / 1000 Ang^3
#
#
#
# Elastic Constant Matrix: (Units=GPa)
#
#
# Indices 1 2 3 4 5 6 
#
# 1 34.0292 6.4691 -11.7756 0.0000 6.9058 0.0000
# 2 6.4691 164.0600 59.3619 0.0000 5.8655 0.0000
# 3 -11.7756 59.3619 139.2196 0.0000 12.3615 0.0000
# 4 0.0000 0.0000 0.0000 31.3733 0.0000 49.2299
# 5 6.9058 5.8655 12.3615 0.0000 35.3959 0.0000
# 6 0.0000 0.0000 0.0000 49.2299 0.0000 -59.0480
#
#
#
# Elastic Compliance Matrix: (Units=1/GPa)
#
#
# Indices 1 2 3 4 5 6 
#
# 1 0.033046 -0.002704 0.004624 0.000000 -0.007614 0.000000
# 2 -0.002704 0.007429 -0.003441 0.000000 0.000498 0.000000
# 3 0.004624 -0.003441 0.009361 0.000000 -0.003601 0.000000
# 4 0.000000 0.000000 0.000000 0.013809 0.000000 0.011513
# 5 -0.007614 0.000498 -0.003601 0.000000 0.030912 0.000000
# 6 0.000000 0.000000 0.000000 0.011513 0.000000 -0.007337
#
#
# Mechanical properties :
#
#
# Convention : Reuss Voigt Hill
#
# Bulk Modulus (GPa) = 21.36987 49.49105 35.43046
# Shear Modulus (GPa) = 47.23250 20.42782 33.83016
#
# Velocity S-wave (km/s) = 4.79605 3.15409 4.05897
# Velocity P-wave (km/s) = 6.40910 6.11281 6.26271
#
# Compressibility (1/GPa) = 0.04679485
#
# Stress axis : x y z
#
# Youngs Moduli (GPa) = 30.26096 134.60643 106.82832
#
# Poissons Ratio (x) = 0.36397 -0.49399
# Poissons Ratio (y) = 0.08182 0.36755
# Poissons Ratio (z) = -0.13993 0.46313
#
# Static dielectric constant tensor:
#      x y z
#    x 3.605910 0.000000 0.048220 
#    y 0.000000 4.087330 0.000000 
#    z 0.048220 0.000000 3.815280 
# 
# 
# High freq. dielectric constant tensor:
#      x y z
#    x 1.790900 0.000000 0.005090 
#    y 0.000000 1.826610 0.000000 
#    z 0.005090 0.000000 1.826640 
# 
# From -- ./inp_files/6265.got.cif
#   From: 2010.03.12/outbox.cif.g09.slc.cpg/sg3_4_cif.got.tgz:6265.got - 2010.03.31 09:20:49.
