data_PCOD8045621
_publ_section_title
;
Structure prediction by ZEFSAII (Michael W. Deem and Ramdas Pophale) SiO2 
 PCOD8045621
Probable space group: P 21
;
_chemical_formula_sum "Si O2"
_cell_formula_units_Z 14
_cell_length_a 11.405724
_cell_length_b 11.048773
_cell_length_c 9.111837
_cell_angle_alpha 90.000000
_cell_angle_beta 38.097040
_cell_angle_gamma 90.000000
_cell_volume 708.475197
_symmetry_space_group_name_H-M "P 21"
_symmetry_group_IT_number 4
_symmetry_cell_setting 'monoclinic'
loop_
_space_group_symop_operation_xyz
x,y,z
-x,1/2+y,-z
loop_
_atom_site_type_symbol
_atom_site_label
_atom_site_fract_x
_atom_site_fract_y
_atom_site_fract_z
Si Si1 0.614624 0.535620 0.732948
Si Si2 0.911817 0.228443 0.566318
Si Si3 0.107019 0.860952 0.692846
Si Si4 0.363791 0.899571 0.008660
Si Si5 0.236194 0.299223 0.443684
Si Si6 0.819759 0.058747 0.887415
Si Si7 0.895321 0.309550 0.968234
O O1 0.708796 0.433474 0.539639
O O2 0.687770 0.664186 0.608040
O O3 0.661334 0.516360 0.860958
O O4 0.394002 0.518907 0.922322
O O5 0.914525 0.239458 0.387423
O O6 0.916047 0.092947 0.632354
O O7 0.092309 0.306058 0.447115
O O8 0.713437 0.283253 0.825128
O O9 0.133176 0.817698 0.831562
O O10 0.924072 0.945552 0.856669
O O11 0.587504 0.888324 0.752433
O O12 0.242937 0.907899 0.976521
O O13 0.114892 0.335943 0.707908
O O14 0.838386 0.174478 0.975365
#
# Coordination Sequence:
#
# PCOD8045621 Si02
#       7
#     2   2   2   2   2   2   2
#     4  11  19  36  66  79 109 155 191 242 283 332
#     4   9  19  35  59  86 108 144 195 243 269 339
#     4  11  22  39  59  86 118 157 188 230 299 345
#     4   9  19  35  59  86 108 145 195 235 282 334
#     4  10  17  38  61  78 117 149 184 243 284 323
#     4  10  20  40  59  85 115 151 196 236 286 337
#     4  10  22  39  57  86 125 151 183 239 289 350
#
# _framework density 19.760749000000001
#
# number of rings (size 3 to 8) (size 9 to 14) (size 15 to 20)
#    0.000    2.286    5.714    0.857    0.000    1.143 
#    2.571    1.429    0.000    0.000    0.000    0.000 
#    0.000    0.000    0.000    0.000    0.000    0.000 
#
# Total GULP energy -173495.408725 kJ/mol
# GULP energy per Si atom -12392.529195 kJ/mol
# Density = 1.971577 g / cm^3
# Si number density = 19.760749 Si / 1000 Ang^3
#
#
#
# Elastic Constant Matrix: (Units=GPa)
#
#
# Indices 1 2 3 4 5 6 
#
# 1 119.1848 23.6196 79.3932 0.0000 14.9142 0.0000
# 2 23.6196 39.2800 21.8329 0.0000 8.5422 0.0000
# 3 79.3932 21.8329 115.7191 0.0000 10.3451 0.0000
# 4 0.0000 0.0000 0.0000 15.7235 0.0000 -1.8318
# 5 14.9142 8.5422 10.3451 0.0000 47.8623 0.0000
# 6 0.0000 0.0000 0.0000 -1.8318 0.0000 24.8985
#
#
#
# Elastic Compliance Matrix: (Units=1/GPa)
#
#
# Indices 1 2 3 4 5 6 
#
# 1 0.016194 -0.003568 -0.010241 0.000000 -0.002196 0.000000
# 2 -0.003568 0.029996 -0.002888 0.000000 -0.003617 0.000000
# 3 -0.010241 -0.002888 0.016194 0.000000 0.000206 0.000000
# 4 0.000000 0.000000 0.000000 0.064149 0.000000 0.004720
# 5 -0.002196 -0.003617 0.000206 0.000000 0.022179 0.000000
# 6 0.000000 0.000000 0.000000 0.004720 0.000000 0.040510
#
#
# Mechanical properties :
#
#
# Convention : Reuss Voigt Hill
#
# Bulk Modulus (GPa) = 34.49465 58.20836 46.35151
# Shear Modulus (GPa) = 21.52582 27.65275 24.58929
#
# Velocity S-wave (km/s) = 3.30407 3.74488 3.53136
# Velocity P-wave (km/s) = 5.66126 6.94402 6.33519
#
# Compressibility (1/GPa) = 0.02899000
#
# Stress axis : x y z
#
# Youngs Moduli (GPa) = 61.75066 33.33819 61.75001
#
# Poissons Ratio (x) = 0.11895 0.63239
# Poissons Ratio (y) = 0.22032 0.17833
# Poissons Ratio (z) = 0.63240 0.09628
#
# Static dielectric constant tensor:
#      x y z
#    x 3.660430 0.000000 -0.211770 
#    y 0.000000 3.356210 0.000000 
#    z -0.211770 0.000000 3.709520 
# 
# 
# High freq. dielectric constant tensor:
#      x y z
#    x 1.763830 0.000000 -0.020490 
#    y 0.000000 1.742030 0.000000 
#    z -0.020490 0.000000 1.773600 
# 
# From -- ./inp_files/8121.got.cif
#   From: 2010.03.12/outbox.cif.g09.slc.cpg/sg4_5_cif.got.tgz:8121.got - 2010.03.31 09:31:35.
