data_PCOD8045990
_publ_section_title
;
Structure prediction by ZEFSAII (Michael W. Deem and Ramdas Pophale) SiO2 
 PCOD8045990
Probable space group: P 21
;
_chemical_formula_sum "Si O2"
_cell_formula_units_Z 14
_cell_length_a 14.363415
_cell_length_b 5.075055
_cell_length_c 23.407102
_cell_angle_alpha 90.000000
_cell_angle_beta 20.632634
_cell_angle_gamma 90.000000
_cell_volume 601.244175
_symmetry_space_group_name_H-M "P 21"
_symmetry_group_IT_number 4
_symmetry_cell_setting 'monoclinic'
loop_
_space_group_symop_operation_xyz
x,y,z
-x,1/2+y,-z
loop_
_atom_site_type_symbol
_atom_site_label
_atom_site_fract_x
_atom_site_fract_y
_atom_site_fract_z
Si Si1 0.853670 0.742590 0.605960
Si Si2 0.627488 0.003227 0.180578
Si Si3 0.407835 0.282348 0.126670
Si Si4 0.743124 0.782352 0.915543
Si Si5 0.419288 0.262299 0.678347
Si Si6 0.344400 0.734085 0.570232
Si Si7 0.888853 0.244106 0.129735
O O1 0.572767 0.667763 0.741284
O O2 0.816268 0.759511 0.695649
O O3 0.068924 0.524116 0.465157
O O4 0.478397 0.832506 0.316057
O O5 0.835691 0.203593 0.091602
O O6 0.801163 0.811110 0.040040
O O7 0.256920 0.267174 0.153165
O O8 0.563649 0.553959 0.045209
O O9 0.625220 0.053793 0.006348
O O10 0.044100 0.757580 0.765307
O O11 0.660485 0.285044 0.495540
O O12 0.194803 0.479077 0.788675
O O13 0.298432 0.975102 0.740694
O O14 0.462306 0.444195 0.511639
#
# Coordination Sequence:
#
# PCOD8045990 Si02
#       7
#     2   2   2   2   2   2   2
#     4  12  29  43  67 105 138 173 221 282 340 397
#     4  10  23  41  66  95 133 172 226 255 346 400
#     4  10  23  47  73  95 128 181 233 279 321 397
#     4  10  23  46  72  95 130 184 231 269 336 390
#     4  10  22  39  63  95 130 174 204 275 336 392
#     4  12  26  42  63 104 135 167 224 278 342 389
#     4  10  20  38  66  95 122 177 215 256 325 409
#
# _framework density 23.285049000000001
#
# number of rings (size 3 to 8) (size 9 to 14) (size 15 to 20)
#    0.857    0.571    1.429    2.571    4.000    3.429 
#    0.000    0.000    0.000    0.000    0.000    0.000 
#    0.000    0.000    0.000    0.000    0.000    0.000 
#
# Total GULP energy -173568.149855 kJ/mol
# GULP energy per Si atom -12397.724990 kJ/mol
# Density = 2.323205 g / cm^3
# Si number density = 23.285049 Si / 1000 Ang^3
#
#
#
# Elastic Constant Matrix: (Units=GPa)
#
#
# Indices 1 2 3 4 5 6 
#
# 1 39.6640 3.8317 15.1938 0.0000 11.9083 0.0000
# 2 3.8317 90.2727 7.4140 0.0000 8.9651 0.0000
# 3 15.1938 7.4140 91.5035 0.0000 14.4234 0.0000
# 4 0.0000 0.0000 0.0000 37.6040 0.0000 -0.7136
# 5 11.9083 8.9651 14.4234 0.0000 49.4969 0.0000
# 6 0.0000 0.0000 0.0000 -0.7136 0.0000 21.2998
#
#
#
# Elastic Compliance Matrix: (Units=1/GPa)
#
#
# Indices 1 2 3 4 5 6 
#
# 1 0.028399 -0.000331 -0.003796 0.000000 -0.005666 0.000000
# 2 -0.000331 0.011318 -0.000578 0.000000 -0.001802 0.000000
# 3 -0.003796 -0.000578 0.011996 0.000000 -0.002478 0.000000
# 4 0.000000 0.000000 0.000000 0.026610 0.000000 0.000891
# 5 -0.005666 -0.001802 -0.002478 0.000000 0.022615 0.000000
# 6 0.000000 0.000000 0.000000 0.000891 0.000000 0.046979
#
#
# Mechanical properties :
#
#
# Convention : Reuss Voigt Hill
#
# Bulk Modulus (GPa) = 23.63840 30.47990 27.05915
# Shear Modulus (GPa) = 29.16691 34.68017 31.92354
#
# Velocity S-wave (km/s) = 3.54305 3.86343 3.70670
# Velocity P-wave (km/s) = 5.18762 5.74628 5.47408
#
# Compressibility (1/GPa) = 0.04230405
#
# Stress axis : x y z
#
# Youngs Moduli (GPa) = 35.21257 88.35467 83.35977
#
# Poissons Ratio (x) = 0.02924 0.31640
# Poissons Ratio (y) = 0.01165 0.04819
# Poissons Ratio (z) = 0.13365 0.05107
#
# Static dielectric constant tensor:
#      x y z
#    x 4.018950 0.000000 0.312250 
#    y 0.000000 4.243910 0.000000 
#    z 0.312250 0.000000 4.040330 
# 
# 
# High freq. dielectric constant tensor:
#      x y z
#    x 1.905200 0.000000 0.020610 
#    y 0.000000 1.932660 0.000000 
#    z 0.020610 0.000000 1.919220 
# 
# From -- ./inp_files/16125.got.cif
#   From: 2010.03.12/outbox.cif.g09.slc.cpg/sg4_9_cif.got.tgz:16125.got - 2010.03.31 09:31:35.
