data_PCOD8045882
_publ_section_title
;
Structure prediction by ZEFSAII (Michael W. Deem and Ramdas Pophale) SiO2 
 PCOD8045882
Probable space group: P 21
;
_chemical_formula_sum "Si O2"
_cell_formula_units_Z 10
_cell_length_a 9.983522
_cell_length_b 5.147751
_cell_length_c 14.638949
_cell_angle_alpha 90.000000
_cell_angle_beta 146.896628
_cell_angle_gamma 90.000000
_cell_volume 410.888655
_symmetry_space_group_name_H-M "P 21"
_symmetry_group_IT_number 4
_symmetry_cell_setting 'monoclinic'
loop_
_space_group_symop_operation_xyz
x,y,z
-x,1/2+y,-z
loop_
_atom_site_type_symbol
_atom_site_label
_atom_site_fract_x
_atom_site_fract_y
_atom_site_fract_z
Si Si1 0.280027 0.475530 0.776200
Si Si2 0.255101 0.079125 0.280005
Si Si3 0.538781 0.573618 0.402202
Si Si4 0.745296 0.478028 0.333022
Si Si5 0.281398 0.635825 0.981349
O O1 0.160506 0.687164 0.637094
O O2 0.212927 0.546822 0.840283
O O3 0.135161 0.213233 0.659793
O O4 0.576056 0.417088 0.938722
O O5 0.391716 0.308766 0.306859
O O6 0.309481 0.086915 0.418566
O O7 0.967021 0.134015 0.101953
O O8 0.346564 0.811932 0.286270
O O9 0.736895 0.571151 0.433442
O O10 0.465031 0.435849 0.135123
#
# Coordination Sequence:
#
# PCOD8045882 Si02
#       5
#     2   2   2   2   2
#     4  10  20  35  57  85 110 143 177 237 270 332
#     4  10  23  37  61  77 115 153 184 228 281 333
#     4  10  22  41  53  85 113 148 190 229 274 331
#     4  10  20  35  59  78 119 137 184 233 275 318
#     4  10  21  36  60  81 113 145 187 221 288 324
#
# _framework density 24.337491
#
# number of rings (size 3 to 8) (size 9 to 14) (size 15 to 20)
#    1.200    0.800    2.000    1.200    2.800    1.600 
#    0.000    2.000    0.000    0.000    0.000    0.000 
#    0.000    0.000    0.000    0.000    0.000    0.000 
#
# Total GULP energy -123894.868728 kJ/mol
# GULP energy per Si atom -12389.486873 kJ/mol
# Density = 2.428210 g / cm^3
# Si number density = 24.337491 Si / 1000 Ang^3
#
#
#
# Elastic Constant Matrix: (Units=GPa)
#
#
# Indices 1 2 3 4 5 6 
#
# 1 84.9855 32.2348 12.6200 0.0000 -5.6957 0.0000
# 2 32.2348 163.7986 -6.6815 0.0000 -10.7059 0.0000
# 3 12.6200 -6.6815 39.2595 0.0000 -2.0758 0.0000
# 4 0.0000 0.0000 0.0000 -19.2920 0.0000 -6.4217
# 5 -5.6957 -10.7059 -2.0758 0.0000 41.8383 0.0000
# 6 0.0000 0.0000 0.0000 -6.4217 0.0000 29.0813
#
#
#
# Elastic Compliance Matrix: (Units=1/GPa)
#
#
# Indices 1 2 3 4 5 6 
#
# 1 0.013608 -0.002816 -0.004806 0.000000 0.000894 0.000000
# 2 -0.002816 0.006843 0.002148 0.000000 0.001474 0.000000
# 3 -0.004806 0.002148 0.027448 0.000000 0.001257 0.000000
# 4 0.000000 0.000000 0.000000 -0.048286 0.000000 -0.010662
# 5 0.000894 0.001474 0.001257 0.000000 0.024463 0.000000
# 6 0.000000 0.000000 0.000000 -0.010662 0.000000 0.032032
#
#
# Mechanical properties :
#
#
# Convention : Reuss Voigt Hill
#
# Bulk Modulus (GPa) = 27.06271 40.48780 33.77525
# Shear Modulus (GPa) = 62.99240 26.98354 44.98797
#
# Velocity S-wave (km/s) = 5.09304 3.33336 4.30409
# Velocity P-wave (km/s) = 6.76234 5.61134 6.21355
#
# Compressibility (1/GPa) = 0.03695122
#
# Stress axis : x y z
#
# Youngs Moduli (GPa) = 73.48444 146.13164 36.43188
#
# Poissons Ratio (x) = 0.41146 0.17510
# Poissons Ratio (y) = 0.20691 -0.07824
# Poissons Ratio (z) = 0.35319 -0.31384
#
# Static dielectric constant tensor:
#      x y z
#    x 3.944330 0.000000 -0.050900 
#    y 0.000000 4.429010 0.000000 
#    z -0.050900 0.000000 4.391060 
# 
# 
# High freq. dielectric constant tensor:
#      x y z
#    x 1.948260 0.000000 -0.004920 
#    y 0.000000 1.967620 0.000000 
#    z -0.004920 0.000000 1.981640 
# 
# From -- ./inp_files/5131.got.cif
#   From: 2010.03.12/outbox.cif.g09.slc.cpg/sg4_3_cif.got.tgz:5131.got - 2010.03.31 09:31:35.
