data_PCOD8045683
_publ_section_title
;
Structure prediction by ZEFSAII (Michael W. Deem and Ramdas Pophale) SiO2 
 PCOD8045683
Probable space group: P 21
;
_chemical_formula_sum "Si O2"
_cell_formula_units_Z 16
_cell_length_a 8.867669
_cell_length_b 11.514261
_cell_length_c 8.867024
_cell_angle_alpha 90.000000
_cell_angle_beta 121.011608
_cell_angle_gamma 90.000000
_cell_volume 775.954297
_symmetry_space_group_name_H-M "P 21"
_symmetry_group_IT_number 4
_symmetry_cell_setting 'monoclinic'
loop_
_space_group_symop_operation_xyz
x,y,z
-x,1/2+y,-z
loop_
_atom_site_type_symbol
_atom_site_label
_atom_site_fract_x
_atom_site_fract_y
_atom_site_fract_z
Si Si1 0.964842 0.070290 0.611920
Si Si2 0.700375 0.619374 0.404188
Si Si3 0.458993 0.563695 0.026079
Si Si4 0.783727 0.597967 0.005850
Si Si5 0.601383 0.515288 0.653384
Si Si6 0.342565 0.687230 0.683320
Si Si7 0.290266 0.365931 0.455497
Si Si8 0.363976 0.344815 0.151382
O O1 0.847328 0.179607 0.494126
O O2 0.134807 0.062168 0.594843
O O3 0.026580 0.089164 0.816881
O O4 0.850527 0.953370 0.542650
O O5 0.533547 0.638045 0.206718
O O6 0.643168 0.526961 0.499588
O O7 0.757261 0.739329 0.510183
O O8 0.632394 0.528746 0.020337
O O9 0.348588 0.453169 0.029185
O O10 0.331071 0.636632 0.848978
O O11 0.782193 0.527960 0.844777
O O12 0.736689 0.734779 0.972724
O O13 0.481854 0.621552 0.648304
O O14 0.487971 0.397688 0.614172
O O15 0.424638 0.816912 0.728377
O O16 0.278102 0.374365 0.268332
#
# Coordination Sequence:
#
# PCOD8045683 Si02
#       8
#     2   2   2   2   2   2   2   2
#     4  10  24  38  57  90 132 159 200 253 313 363
#     4  11  20  39  62  91 123 156 200 260 304 358
#     4   9  19  34  64  89 113 154 207 253 295 360
#     4   9  20  38  57  86 128 155 199 253 303 362
#     4   9  18  37  64  86 115 158 209 247 290 366
#     4   9  20  38  57  89 116 156 211 249 294 368
#     4  11  21  39  65  88 122 167 204 252 309 354
#     4  10  18  37  66  85 117 163 206 253 304 357
#
# _framework density 20.619772000000001
#
# number of rings (size 3 to 8) (size 9 to 14) (size 15 to 20)
#    0.000    2.500    3.750    0.000    0.000   11.000 
#    2.250    1.250    0.000    0.000    0.000    0.000 
#    0.000    0.000    0.000    0.000    0.000    0.000 
#
# Total GULP energy -198233.142074 kJ/mol
# GULP energy per Si atom -12389.571380 kJ/mol
# Density = 2.057284 g / cm^3
# Si number density = 20.619772 Si / 1000 Ang^3
#
#
#
# Elastic Constant Matrix: (Units=GPa)
#
#
# Indices 1 2 3 4 5 6 
#
# 1 65.4248 32.5067 41.0468 0.0000 -8.8954 0.0000
# 2 32.5067 64.3127 7.2990 0.0000 -4.2226 0.0000
# 3 41.0468 7.2990 136.7730 0.0000 5.6865 0.0000
# 4 0.0000 0.0000 0.0000 26.7070 0.0000 -6.7410
# 5 -8.8954 -4.2226 5.6865 0.0000 36.5142 0.0000
# 6 0.0000 0.0000 0.0000 -6.7410 0.0000 23.9288
#
#
#
# Elastic Compliance Matrix: (Units=1/GPa)
#
#
# Indices 1 2 3 4 5 6 
#
# 1 0.027218 -0.012455 -0.007770 0.000000 0.006400 0.000000
# 2 -0.012455 0.021483 0.002631 0.000000 -0.000960 0.000000
# 3 -0.007770 0.002631 0.009631 0.000000 -0.003088 0.000000
# 4 0.000000 0.000000 0.000000 0.040310 0.000000 0.011356
# 5 0.006400 -0.000960 -0.003088 0.000000 0.029316 0.000000
# 6 0.000000 0.000000 0.000000 0.011356 0.000000 0.044990
#
#
# Mechanical properties :
#
#
# Convention : Reuss Voigt Hill
#
# Bulk Modulus (GPa) = 43.20640 47.57950 45.39295
# Shear Modulus (GPa) = 23.16428 29.80719 26.48573
#
# Velocity S-wave (km/s) = 3.35535 3.80618 3.58786
# Velocity P-wave (km/s) = 6.00088 6.51466 6.26304
#
# Compressibility (1/GPa) = 0.02314472
#
# Stress axis : x y z
#
# Youngs Moduli (GPa) = 36.74025 46.54872 103.82972
#
# Poissons Ratio (x) = 0.57978 0.80674
# Poissons Ratio (y) = 0.45761 -0.27322
# Poissons Ratio (z) = 0.28546 -0.12249
#
# Static dielectric constant tensor:
#      x y z
#    x 3.491440 0.000000 -0.061570 
#    y 0.000000 3.533310 0.000000 
#    z -0.061570 0.000000 4.286380 
# 
# 
# High freq. dielectric constant tensor:
#      x y z
#    x 1.779760 0.000000 -0.015840 
#    y 0.000000 1.784250 0.000000 
#    z -0.015840 0.000000 1.820200 
# 
# From -- ./inp_files/6185.got.cif
#   From: 2010.03.12/outbox.cif.g09.slc.cpg/sg4_4_cif.got.tgz:6185.got - 2010.03.31 09:31:35.
