data_PCOD8045392
_publ_section_title
;
Structure prediction by ZEFSAII (Michael W. Deem and Ramdas Pophale) SiO2 
 PCOD8045392
Probable space group: P 2
;
_chemical_formula_sum "Si O2"
_cell_formula_units_Z 14
_cell_length_a 12.029091
_cell_length_b 7.953349
_cell_length_c 6.652055
_cell_angle_alpha 90.000000
_cell_angle_beta 74.860812
_cell_angle_gamma 90.000000
_cell_volume 614.325287
_symmetry_space_group_name_H-M "P 2"
_symmetry_group_IT_number 3
_symmetry_cell_setting 'monoclinic'
loop_
_space_group_symop_operation_xyz
x,y,z
-x,y,-z
loop_
_atom_site_type_symbol
_atom_site_label
_atom_site_fract_x
_atom_site_fract_y
_atom_site_fract_z
Si Si1 0.000000 0.060280 0.000000
Si Si2 0.627857 0.732293 0.973551
Si Si3 0.671748 0.062363 0.725390
Si Si4 0.686421 0.476547 0.259225
Si Si5 0.191110 0.571476 0.409442
Si Si6 0.169355 0.302909 0.131233
Si Si7 0.500000 0.232737 0.500000
Si Si8 0.894555 0.910102 0.419501
O O1 0.072117 0.169505 0.122890
O O2 0.915624 0.943894 0.172753
O O3 0.632637 0.931335 0.919910
O O4 0.717569 0.646191 0.786672
O O5 0.500000 0.663967 0.000000
O O6 0.657102 0.664782 0.186196
O O7 0.774680 0.990627 0.540111
O O8 0.716513 0.222819 0.824570
O O9 0.569822 0.110939 0.620054
O O10 0.731971 0.483808 0.461131
O O11 0.577726 0.351014 0.320133
O O12 0.791199 0.396568 0.086912
O O13 0.116926 0.433607 0.320079
O O14 0.107682 0.709771 0.545324
O O15 0.000000 0.985356 0.500000
#
# Coordination Sequence:
#
# PCOD8045392 Si02
#       8
#     1   2   2   2   2   2   1   2
#     4  12  26  42  82 102 138 188 240 302 372 418
#     4  10  24  41  67 100 139 187 234 283 345 429
#     4  11  25  46  69 105 145 184 238 296 355 425
#     4  11  24  42  69 100 146 189 234 289 354 433
#     4  10  24  46  68  99 146 182 239 292 357 429
#     4  11  25  44  69 105 137 182 239 297 352 431
#     4  12  24  42  78 104 148 200 232 298 364 418
#     4  11  25  48  72 101 144 186 237 301 360 436
#
# _framework density 22.789228999999999
#
# number of rings (size 3 to 8) (size 9 to 14) (size 15 to 20)
#    0.000    1.143    2.857    1.714    6.000    4.571 
#    0.000    0.000    0.000    0.000    0.000    0.000 
#    0.000    0.000    0.000    0.000    0.000    0.000 
#
# Total GULP energy -173547.744409 kJ/mol
# GULP energy per Si atom -12396.267458 kJ/mol
# Density = 2.273736 g / cm^3
# Si number density = 22.789229 Si / 1000 Ang^3
#
#
#
# Elastic Constant Matrix: (Units=GPa)
#
#
# Indices 1 2 3 4 5 6 
#
# 1 94.0174 34.4254 32.8934 0.0000 10.6006 0.0000
# 2 34.4254 123.3364 57.9878 0.0000 6.7896 0.0000
# 3 32.8934 57.9878 93.5927 0.0000 10.9293 0.0000
# 4 0.0000 0.0000 0.0000 13.7929 0.0000 15.9778
# 5 10.6006 6.7896 10.9293 0.0000 32.6037 0.0000
# 6 0.0000 0.0000 0.0000 15.9778 0.0000 25.6658
#
#
#
# Elastic Compliance Matrix: (Units=1/GPa)
#
#
# Indices 1 2 3 4 5 6 
#
# 1 0.012700 -0.002040 -0.002879 0.000000 -0.002739 0.000000
# 2 -0.002040 0.011768 -0.006625 0.000000 0.000433 0.000000
# 3 -0.002879 -0.006625 0.016164 0.000000 -0.003102 0.000000
# 4 0.000000 0.000000 0.000000 0.259995 0.000000 -0.161856
# 5 -0.002739 0.000433 -0.003102 0.000000 0.032512 0.000000
# 6 0.000000 0.000000 0.000000 -0.161856 0.000000 0.139723
#
#
# Mechanical properties :
#
#
# Convention : Reuss Voigt Hill
#
# Bulk Modulus (GPa) = 57.00482 62.39550 59.70016
# Shear Modulus (GPa) = 9.96418 26.78849 18.37634
#
# Velocity S-wave (km/s) = 2.09328 3.43226 2.84273
# Velocity P-wave (km/s) = 5.55974 6.56856 6.08509
#
# Compressibility (1/GPa) = 0.01754237
#
# Stress axis : x y z
#
# Youngs Moduli (GPa) = 78.74281 84.97441 61.86772
#
# Poissons Ratio (x) = 0.17336 0.17815
# Poissons Ratio (y) = 0.16064 0.40987
# Poissons Ratio (z) = 0.22674 0.56295
#
# Static dielectric constant tensor:
#      x y z
#    x 3.996380 0.000000 0.011620 
#    y 0.000000 4.481770 0.000000 
#    z 0.011620 0.000000 4.209700 
# 
# 
# High freq. dielectric constant tensor:
#      x y z
#    x 1.897470 0.000000 -0.001230 
#    y 0.000000 1.905060 0.000000 
#    z -0.001230 0.000000 1.907700 
# 
# From -- ./inp_files/2196.got.cif
#   From: 2010.03.12/outbox.cif.g09.slc.cpg/sg3_2_cif.got.tgz:2196.got - 2010.03.31 09:20:49.
