data_PCOD8045495
_publ_section_title
;
Structure prediction by ZEFSAII (Michael W. Deem and Ramdas Pophale) SiO2 
 PCOD8045495
Probable space group: P 2
;
_chemical_formula_sum "Si O2"
_cell_formula_units_Z 9
_cell_length_a 9.292081
_cell_length_b 8.305534
_cell_length_c 10.175211
_cell_angle_alpha 90.000000
_cell_angle_beta 29.098010
_cell_angle_gamma 90.000000
_cell_volume 381.885118
_symmetry_space_group_name_H-M "P 2"
_symmetry_group_IT_number 3
_symmetry_cell_setting 'monoclinic'
loop_
_space_group_symop_operation_xyz
x,y,z
-x,y,-z
loop_
_atom_site_type_symbol
_atom_site_label
_atom_site_fract_x
_atom_site_fract_y
_atom_site_fract_z
Si Si1 0.750399 0.450600 0.087853
Si Si2 0.836072 0.645560 0.392858
Si Si3 0.500000 0.866784 0.500000
Si Si4 0.744719 0.093146 0.099173
Si Si5 0.843917 0.929536 0.748863
O O1 0.484455 0.576526 0.314293
O O2 0.609969 0.272038 0.185794
O O3 0.000000 0.459483 0.000000
O O4 0.929974 0.501931 0.814526
O O5 0.786053 0.753284 0.299231
O O6 0.976223 0.761551 0.390261
O O7 0.516830 0.970796 0.350866
O O8 0.000000 0.112807 0.000000
O O9 0.874158 0.031431 0.858302
O O10 0.000000 0.022365 0.500000
O O11 0.500000 0.896866 0.000000
#
# Coordination Sequence:
#
# PCOD8045495 Si02
#       5
#     2   2   1   2   2
#     4  11  24  41  68 111 149 178 229 303 369 415
#     4  12  24  43  70 104 145 186 233 294 355 421
#     4  12  22  40  72 108 140 182 236 298 346 414
#     4  11  26  43  74 109 144 186 240 298 359 429
#     4  12  27  49  73 105 145 194 244 295 352 427
#
# _framework density 23.567295999999999
#
# number of rings (size 3 to 8) (size 9 to 14) (size 15 to 20)
#    0.000    0.444    4.444    4.000    6.222    0.000 
#    0.000    4.444    0.000    2.667    0.000    0.000 
#    0.000    0.000    0.000    0.000    0.000    0.000 
#
# Total GULP energy -111509.146406 kJ/mol
# GULP energy per Si atom -12389.905156 kJ/mol
# Density = 2.351366 g / cm^3
# Si number density = 23.567296 Si / 1000 Ang^3
#
#
#
# Elastic Constant Matrix: (Units=GPa)
#
#
# Indices 1 2 3 4 5 6 
#
# 1 93.0114 43.7887 51.7120 0.0000 9.7159 0.0000
# 2 43.7887 121.6468 46.1074 0.0000 -2.3651 0.0000
# 3 51.7120 46.1074 149.7398 0.0000 5.1639 0.0000
# 4 0.0000 0.0000 0.0000 39.4417 0.0000 -26.7700
# 5 9.7159 -2.3651 5.1639 0.0000 51.9110 0.0000
# 6 0.0000 0.0000 0.0000 -26.7700 0.0000 97.7499
#
#
#
# Elastic Compliance Matrix: (Units=1/GPa)
#
#
# Indices 1 2 3 4 5 6 
#
# 1 0.015067 -0.004004 -0.003880 0.000000 -0.002616 0.000000
# 2 -0.004004 0.010397 -0.001867 0.000000 0.001409 0.000000
# 3 -0.003880 -0.001867 0.008601 0.000000 -0.000214 0.000000
# 4 0.000000 0.000000 0.000000 0.031142 0.000000 0.008529
# 5 -0.002616 0.001409 -0.000214 0.000000 0.019839 0.000000
# 6 0.000000 0.000000 0.000000 0.008529 0.000000 0.012566
#
#
# Mechanical properties :
#
#
# Convention : Reuss Voigt Hill
#
# Bulk Modulus (GPa) = 68.67238 71.95715 70.31477
# Shear Modulus (GPa) = 40.99428 52.67319 46.83373
#
# Velocity S-wave (km/s) = 4.17520 4.73272 4.46268
# Velocity P-wave (km/s) = 7.24191 7.77585 7.51362
#
# Compressibility (1/GPa) = 0.01456190
#
# Stress axis : x y z
#
# Youngs Moduli (GPa) = 66.37055 96.18285 116.27036
#
# Poissons Ratio (x) = 0.38509 0.45116
# Poissons Ratio (y) = 0.26573 0.21711
# Poissons Ratio (z) = 0.25753 0.17960
#
# Static dielectric constant tensor:
#      x y z
#    x 3.927970 0.000000 -0.275030 
#    y 0.000000 4.663620 0.000000 
#    z -0.275030 0.000000 3.817290 
# 
# 
# High freq. dielectric constant tensor:
#      x y z
#    x 1.921620 0.000000 -0.008840 
#    y 0.000000 1.934560 0.000000 
#    z -0.008840 0.000000 1.934450 
# 
# From -- ./inp_files/871.got.cif
#   From: 2010.03.12/outbox.cif.g09.slc.cpg/sg3_1_cif.got.tgz:871.got - 2010.03.31 09:20:49.
