data_PCOD8045817
_publ_section_title
;
Structure prediction by ZEFSAII (Michael W. Deem and Ramdas Pophale) SiO2 
 PCOD8045817
Probable space group: P 21
;
_chemical_formula_sum "Si O2"
_cell_formula_units_Z 16
_cell_length_a 9.517401
_cell_length_b 12.753640
_cell_length_c 11.819026
_cell_angle_alpha 90.000000
_cell_angle_beta 142.745926
_cell_angle_gamma 90.000000
_cell_volume 868.442716
_symmetry_space_group_name_H-M "P 21"
_symmetry_group_IT_number 4
_symmetry_cell_setting 'monoclinic'
loop_
_space_group_symop_operation_xyz
x,y,z
-x,1/2+y,-z
loop_
_atom_site_type_symbol
_atom_site_label
_atom_site_fract_x
_atom_site_fract_y
_atom_site_fract_z
Si Si1 0.587711 0.595580 0.967899
Si Si2 0.062310 0.013223 0.988897
Si Si3 0.123864 0.492993 0.685463
Si Si4 0.876301 0.608038 0.729556
Si Si5 0.710646 0.562406 0.286055
Si Si6 0.799034 0.285638 0.982679
Si Si7 0.587560 0.110046 0.704887
Si Si8 0.359096 0.276823 0.844292
O O1 0.773731 0.576817 0.990656
O O2 0.637344 0.525179 0.113457
O O3 0.591387 0.719391 0.003187
O O4 0.334175 0.559390 0.766187
O O5 0.797555 0.042341 0.787757
O O6 0.134206 0.044002 0.161360
O O7 0.087049 0.889549 0.993180
O O8 0.185573 0.372716 0.749852
O O9 0.031537 0.543577 0.741124
O O10 0.931440 0.495660 0.464471
O O11 0.615606 0.625419 0.517043
O O12 0.998829 0.719654 0.826604
O O13 0.502130 0.546322 0.242043
O O14 0.759747 0.689061 0.314361
O O15 0.687606 0.222754 0.806280
O O16 0.601167 0.316472 0.946252
#
# Coordination Sequence:
#
# PCOD8045817 Si02
#       8
#     2   2   2   2   2   2   2   2
#     4  10  20  37  56  91 118 143 197 249 280 349
#     4  11  22  36  61  88 119 152 193 247 298 349
#     4  11  18  38  64  80 117 160 192 243 299 336
#     4  10  22  39  62  83 120 161 192 241 296 362
#     4   8  20  39  56  84 117 152 198 242 284 348
#     4  10  19  39  60  86 115 157 197 239 302 351
#     4   9  20  40  59  81 120 153 196 241 285 363
#     4   9  19  38  58  89 116 150 201 242 292 344
#
# _framework density 18.423783
#
# number of rings (size 3 to 8) (size 9 to 14) (size 15 to 20)
#    0.750    1.500    2.500    0.750    0.000    4.000 
#    9.000    1.250    2.750    0.000    0.000    0.000 
#    0.000    0.000    0.000    0.000    0.000    0.000 
#
# Total GULP energy -198326.761660 kJ/mol
# GULP energy per Si atom -12395.422604 kJ/mol
# Density = 1.838185 g / cm^3
# Si number density = 18.423783 Si / 1000 Ang^3
#
#
#
# Elastic Constant Matrix: (Units=GPa)
#
#
# Indices 1 2 3 4 5 6 
#
# 1 110.5375 33.9175 43.3652 0.0000 15.7411 0.0000
# 2 33.9175 93.1210 29.0739 0.0000 19.4011 0.0000
# 3 43.3652 29.0739 92.9542 0.0000 14.3185 0.0000
# 4 0.0000 0.0000 0.0000 23.0991 0.0000 6.9554
# 5 15.7411 19.4011 14.3185 0.0000 28.1640 0.0000
# 6 0.0000 0.0000 0.0000 6.9554 0.0000 28.8678
#
#
#
# Elastic Compliance Matrix: (Units=1/GPa)
#
#
# Indices 1 2 3 4 5 6 
#
# 1 0.011890 -0.002387 -0.004373 0.000000 -0.002778 0.000000
# 2 -0.002387 0.013733 -0.002094 0.000000 -0.007062 0.000000
# 3 -0.004373 -0.002094 0.013946 0.000000 -0.003204 0.000000
# 4 0.000000 0.000000 0.000000 0.046678 0.000000 -0.011247
# 5 -0.002778 -0.007062 -0.003204 0.000000 0.043552 0.000000
# 6 0.000000 0.000000 0.000000 -0.011247 0.000000 0.037350
#
#
# Mechanical properties :
#
#
# Convention : Reuss Voigt Hill
#
# Bulk Modulus (GPa) = 45.73984 56.59177 51.16580
# Shear Modulus (GPa) = 26.02198 28.70991 27.36595
#
# Velocity S-wave (km/s) = 3.76228 3.95182 3.85822
# Velocity P-wave (km/s) = 6.61464 7.18373 6.90505
#
# Compressibility (1/GPa) = 0.02186278
#
# Stress axis : x y z
#
# Youngs Moduli (GPa) = 84.10361 72.81672 71.70312
#
# Poissons Ratio (x) = 0.17379 0.31352
# Poissons Ratio (y) = 0.20073 0.15016
# Poissons Ratio (z) = 0.36774 0.15249
#
# Static dielectric constant tensor:
#      x y z
#    x 3.363800 0.000000 0.084090 
#    y 0.000000 3.180700 0.000000 
#    z 0.084090 0.000000 3.380420 
# 
# 
# High freq. dielectric constant tensor:
#      x y z
#    x 1.716140 0.000000 0.008870 
#    y 0.000000 1.703550 0.000000 
#    z 0.008870 0.000000 1.710220 
# 
# From -- ./inp_files/11299.got.cif
#   From: 2010.03.12/outbox.cif.g09.slc.cpg/sg4_6_cif.got.tgz:11299.got - 2010.03.31 09:31:35.
