data_PCOD8045202
_publ_section_title
;
Structure prediction by ZEFSAII (Michael W. Deem and Ramdas Pophale) SiO2 
 PCOD8045202
Probable space group: P 2
;
_chemical_formula_sum "Si O2"
_cell_formula_units_Z 16
_cell_length_a 15.385825
_cell_length_b 5.268592
_cell_length_c 14.786853
_cell_angle_alpha 90.000000
_cell_angle_beta 36.878284
_cell_angle_gamma 90.000000
_cell_volume 719.328233
_symmetry_space_group_name_H-M "P 2"
_symmetry_group_IT_number 3
_symmetry_cell_setting 'monoclinic'
loop_
_space_group_symop_operation_xyz
x,y,z
-x,y,-z
loop_
_atom_site_type_symbol
_atom_site_label
_atom_site_fract_x
_atom_site_fract_y
_atom_site_fract_z
Si Si1 0.919626 0.831030 0.147386
Si Si2 0.894670 0.172276 0.899960
Si Si3 0.643746 0.508502 0.688803
Si Si4 0.222594 0.017985 0.355958
Si Si5 0.380389 0.935272 0.677067
Si Si6 0.887364 0.524942 0.353097
Si Si7 0.626066 0.427242 0.198854
Si Si8 0.059817 0.918350 0.311362
O O1 0.776968 0.982838 0.234875
O O2 0.870173 0.689281 0.277476
O O3 0.059004 0.010065 0.052102
O O4 0.000000 0.666342 0.000000
O O5 0.047780 0.264012 0.733692
O O6 0.843263 0.013268 0.854708
O O7 0.784041 0.390650 0.021914
O O8 0.670379 0.792808 0.702042
O O9 0.729284 0.474985 0.523552
O O10 0.477152 0.472138 0.801198
O O11 0.691489 0.286298 0.719631
O O12 0.169528 0.918883 0.303159
O O13 0.086698 0.070579 0.536570
O O14 0.500000 0.917889 0.500000
O O15 0.376140 0.669496 0.734463
O O16 0.417755 0.169764 0.711993
O O17 0.997102 0.641123 0.337282
#
# Coordination Sequence:
#
# PCOD8045202 Si02
#       8
#     2   2   2   2   2   2   2   2
#     4  11  23  41  63 100 128 174 222 273 327 396
#     4  11  23  40  66  96 135 177 212 277 334 396
#     4  11  23  42  67  98 129 179 216 278 331 396
#     4  10  21  40  70 101 131 166 231 274 326 395
#     4  12  27  46  69  97 132 180 228 280 327 394
#     4  10  22  38  68  92 133 170 221 271 336 391
#     4  12  27  45  66  96 139 176 221 276 340 394
#     4   9  21  38  66 103 130 171 218 283 329 392
#
# _framework density 22.242975999999999
#
# number of rings (size 3 to 8) (size 9 to 14) (size 15 to 20)
#    0.000    1.250    2.500    2.625    7.000    1.500 
#    0.000    0.625    0.000    0.000    0.000    0.000 
#    0.000    0.000    0.000    0.000    0.000    0.000 
#
# Total GULP energy -198233.949083 kJ/mol
# GULP energy per Si atom -12389.621818 kJ/mol
# Density = 2.219235 g / cm^3
# Si number density = 22.242976 Si / 1000 Ang^3
#
#
#
# Elastic Constant Matrix: (Units=GPa)
#
#
# Indices 1 2 3 4 5 6 
#
# 1 121.9800 21.7122 29.2544 0.0000 -3.3491 0.0000
# 2 21.7122 93.7669 14.3472 0.0000 5.3676 0.0000
# 3 29.2544 14.3472 71.3806 0.0000 3.5197 0.0000
# 4 0.0000 0.0000 0.0000 25.6692 0.0000 -2.2634
# 5 -3.3491 5.3676 3.5197 0.0000 18.7918 0.0000
# 6 0.0000 0.0000 0.0000 -2.2634 0.0000 14.4449
#
#
#
# Elastic Compliance Matrix: (Units=1/GPa)
#
#
# Indices 1 2 3 4 5 6 
#
# 1 0.009477 -0.001799 -0.003665 0.000000 0.002889 0.000000
# 2 -0.001799 0.011488 -0.001407 0.000000 -0.003338 0.000000
# 3 -0.003665 -0.001407 0.015954 0.000000 -0.003239 0.000000
# 4 0.000000 0.000000 0.000000 0.039503 0.000000 0.006190
# 5 0.002889 -0.003338 -0.003239 0.000000 0.055290 0.000000
# 6 0.000000 0.000000 0.000000 0.006190 0.000000 0.070198
#
#
# Mechanical properties :
#
#
# Convention : Reuss Voigt Hill
#
# Bulk Modulus (GPa) = 43.14700 46.41722 44.78211
# Shear Modulus (GPa) = 22.38374 26.56876 24.47625
#
# Velocity S-wave (km/s) = 3.17571 3.45987 3.32083
# Velocity P-wave (km/s) = 5.73472 6.07244 5.90599
#
# Compressibility (1/GPa) = 0.02317658
#
# Stress axis : x y z
#
# Youngs Moduli (GPa) = 105.52405 87.04960 62.68069
#
# Poissons Ratio (x) = 0.15660 0.22971
# Poissons Ratio (y) = 0.18984 0.08820
# Poissons Ratio (z) = 0.38671 0.12248
#
# Static dielectric constant tensor:
#      x y z
#    x 4.306520 0.000000 0.297100 
#    y 0.000000 3.974400 0.000000 
#    z 0.297100 0.000000 4.114680 
# 
# 
# High freq. dielectric constant tensor:
#      x y z
#    x 1.881130 0.000000 0.010450 
#    y 0.000000 1.871390 0.000000 
#    z 0.010450 0.000000 1.871170 
# 
# From -- ./inp_files/13932.got.cif
#   From: 2010.03.12/outbox.cif.g09.slc.cpg/sg3_7_cif.got.tgz:13932.got - 2010.03.31 09:20:49.
