data_PCOD8045936
_publ_section_title
;
Structure prediction by ZEFSAII (Michael W. Deem and Ramdas Pophale) SiO2 
 PCOD8045936
Probable space group: P 21
;
_chemical_formula_sum "Si O2"
_cell_formula_units_Z 16
_cell_length_a 11.081757
_cell_length_b 8.679715
_cell_length_c 11.182277
_cell_angle_alpha 90.000000
_cell_angle_beta 48.830102
_cell_angle_gamma 90.000000
_cell_volume 809.657546
_symmetry_space_group_name_H-M "P 21"
_symmetry_group_IT_number 4
_symmetry_cell_setting 'monoclinic'
loop_
_space_group_symop_operation_xyz
x,y,z
-x,1/2+y,-z
loop_
_atom_site_type_symbol
_atom_site_label
_atom_site_fract_x
_atom_site_fract_y
_atom_site_fract_z
Si Si1 0.893358 0.386200 0.729876
Si Si2 0.159369 0.892560 0.963883
Si Si3 0.763553 0.889015 0.594061
Si Si4 0.904174 0.029450 0.728191
Si Si5 0.477319 0.029457 0.647147
Si Si6 0.856172 0.029758 0.031248
Si Si7 0.752009 0.533829 0.596462
Si Si8 0.461020 0.390554 0.650939
O O1 0.847752 0.437463 0.892370
O O2 0.861453 0.206175 0.727924
O O3 0.783775 0.485083 0.712228
O O4 0.080014 0.423330 0.587448
O O5 0.148915 0.711630 0.951765
O O6 0.015534 0.972877 0.989915
O O7 0.324193 0.950797 0.803855
O O8 0.705895 0.713205 0.620580
O O9 0.799422 0.923460 0.709219
O O10 0.626515 0.002063 0.637165
O O11 0.092823 0.998526 0.585703
O O12 0.859078 0.980401 0.890971
O O13 0.445940 0.208559 0.651565
O O14 0.510882 0.956218 0.497815
O O15 0.704109 0.954418 0.191421
O O16 0.605005 0.435523 0.644059
#
# Coordination Sequence:
#
# PCOD8045936 Si02
#       8
#     2   2   2   2   2   2   2   2
#     4   9  20  38  60  87 119 155 194 238 290 350
#     4  11  23  40  62  88 120 157 199 245 295 350
#     4  10  20  37  62  90 119 153 195 241 292 350
#     4   9  20  38  60  87 119 155 194 238 290 350
#     4  12  25  41  61  86 118 155 198 246 298 354
#     4  11  23  40  62  88 120 157 199 245 295 350
#     4  10  20  37  62  90 119 153 195 241 292 350
#     4  12  25  41  61  86 118 155 198 246 298 354
#
# _framework density 19.76144
#
# number of rings (size 3 to 8) (size 9 to 14) (size 15 to 20)
#    0.000    1.500    0.000    5.250    0.000    6.000 
#    0.000    0.000    0.000    0.000    0.000    0.000 
#    0.000    0.000    0.000    0.000    0.000    0.000 
#
# Total GULP energy -198500.934985 kJ/mol
# GULP energy per Si atom -12406.308437 kJ/mol
# Density = 1.971646 g / cm^3
# Si number density = 19.761440 Si / 1000 Ang^3
#
#
#
# Elastic Constant Matrix: (Units=GPa)
#
#
# Indices 1 2 3 4 5 6 
#
# 1 83.5773 13.2715 41.4396 0.0000 -0.2990 0.0000
# 2 13.2715 47.5257 17.8462 0.0000 14.6560 0.0000
# 3 41.4396 17.8462 122.9771 0.0000 13.9130 0.0000
# 4 0.0000 0.0000 0.0000 32.7628 0.0000 -1.2408
# 5 -0.2990 14.6560 13.9130 0.0000 27.1984 0.0000
# 6 0.0000 0.0000 0.0000 -1.2408 0.0000 42.0358
#
#
#
# Elastic Compliance Matrix: (Units=1/GPa)
#
#
# Indices 1 2 3 4 5 6 
#
# 1 0.015105 -0.003792 -0.005084 0.000000 0.004810 0.000000
# 2 -0.003792 0.026789 -0.001031 0.000000 -0.013950 0.000000
# 3 -0.005084 -0.001031 0.010548 0.000000 -0.004896 0.000000
# 4 0.000000 0.000000 0.000000 0.030557 0.000000 0.000902
# 5 0.004810 -0.013950 -0.004896 0.000000 0.046841 0.000000
# 6 0.000000 0.000000 0.000000 0.000902 0.000000 0.023816
#
#
# Mechanical properties :
#
#
# Convention : Reuss Voigt Hill
#
# Bulk Modulus (GPa) = 30.64923 44.35495 37.50209
# Shear Modulus (GPa) = 27.12272 32.50095 29.81183
#
# Velocity S-wave (km/s) = 3.70876 4.05985 3.88827
# Velocity P-wave (km/s) = 5.82092 6.66861 6.25913
#
# Compressibility (1/GPa) = 0.03262725
#
# Stress axis : x y z
#
# Youngs Moduli (GPa) = 66.20296 37.32820 94.80235
#
# Poissons Ratio (x) = 0.14157 0.48196
# Poissons Ratio (y) = 0.25107 0.09779
# Poissons Ratio (z) = 0.33656 0.03850
#
# Static dielectric constant tensor:
#      x y z
#    x 3.686550 0.000000 0.060540 
#    y 0.000000 3.759900 0.000000 
#    z 0.060540 0.000000 3.784940 
# 
# 
# High freq. dielectric constant tensor:
#      x y z
#    x 1.782720 0.000000 0.003460 
#    y 0.000000 1.781030 0.000000 
#    z 0.003460 0.000000 1.778410 
# 
# From -- ./inp_files/9135.got.cif
#   From: 2010.03.12/outbox.cif.g09.slc.cpg/sg4_5_cif.got.tgz:9135.got - 2010.03.31 09:31:35.
