data_PCOD8045276
_publ_section_title
;
Structure prediction by ZEFSAII (Michael W. Deem and Ramdas Pophale) SiO2 
 PCOD8045276
Probable space group: P 2
;
_chemical_formula_sum "Si O2"
_cell_formula_units_Z 10
_cell_length_a 17.307801
_cell_length_b 5.073506
_cell_length_c 23.555681
_cell_angle_alpha 90.000000
_cell_angle_beta 13.285811
_cell_angle_gamma 90.000000
_cell_volume 475.348638
_symmetry_space_group_name_H-M "P 2"
_symmetry_group_IT_number 3
_symmetry_cell_setting 'monoclinic'
loop_
_space_group_symop_operation_xyz
x,y,z
-x,y,-z
loop_
_atom_site_type_symbol
_atom_site_label
_atom_site_fract_x
_atom_site_fract_y
_atom_site_fract_z
Si Si1 0.812586 0.913380 0.740684
Si Si2 0.567998 0.647126 0.741068
Si Si3 0.365378 0.583403 0.762556
Si Si4 0.425574 0.144400 0.914852
Si Si5 0.216366 0.086679 0.553787
O O1 0.036935 0.667882 0.558507
O O2 0.500000 0.793176 0.000000
O O3 0.032134 0.104849 0.624274
O O4 0.690552 0.086103 0.775145
O O5 0.344665 0.585644 0.845641
O O6 0.512690 0.432210 0.829053
O O7 0.455509 0.932461 0.843730
O O8 0.489711 0.300026 0.652470
O O9 0.623887 0.798503 0.553134
O O10 0.000000 0.642288 0.000000
O O11 0.045201 0.139740 0.208966
#
# Coordination Sequence:
#
# PCOD8045276 Si02
#       5
#     2   2   2   2   2
#     4   9  21  39  61  88 125 164 194 232 294 363
#     4  11  23  39  60  90 119 155 203 248 292 348
#     4  11  23  43  64  85 116 160 204 248 295 350
#     4  11  23  40  61  92 126 154 191 247 298 351
#     4  10  22  41  63  89 120 159 200 237 293 364
#
# _framework density 21.037189999999999
#
# number of rings (size 3 to 8) (size 9 to 14) (size 15 to 20)
#    0.000    1.600    0.000    4.800    0.000    8.000 
#    0.000   22.000    0.000    0.000    0.000    0.000 
#    0.000    0.000    0.000    0.000    0.000    0.000 
#
# Total GULP energy -124050.645940 kJ/mol
# GULP energy per Si atom -12405.064594 kJ/mol
# Density = 2.098931 g / cm^3
# Si number density = 21.037190 Si / 1000 Ang^3
#
#
#
# Elastic Constant Matrix: (Units=GPa)
#
#
# Indices 1 2 3 4 5 6 
#
# 1 89.9076 13.9966 62.4248 0.0000 -1.8961 0.0000
# 2 13.9966 81.2222 28.0391 0.0000 9.1375 0.0000
# 3 62.4248 28.0391 120.3494 0.0000 4.8701 0.0000
# 4 0.0000 0.0000 0.0000 38.9044 0.0000 8.3488
# 5 -1.8961 9.1375 4.8701 0.0000 38.0961 0.0000
# 6 0.0000 0.0000 0.0000 8.3488 0.0000 27.3742
#
#
#
# Elastic Compliance Matrix: (Units=1/GPa)
#
#
# Indices 1 2 3 4 5 6 
#
# 1 0.017541 -0.000093 -0.009160 0.000000 0.002066 0.000000
# 2 -0.000093 0.013699 -0.003026 0.000000 -0.002904 0.000000
# 3 -0.009160 -0.003026 0.013826 0.000000 -0.001498 0.000000
# 4 0.000000 0.000000 0.000000 0.027504 0.000000 -0.008388
# 5 0.002066 -0.002904 -0.001498 0.000000 0.027240 0.000000
# 6 0.000000 0.000000 0.000000 -0.008388 0.000000 0.039089
#
#
# Mechanical properties :
#
#
# Convention : Reuss Voigt Hill
#
# Bulk Modulus (GPa) = 48.76200 55.59999 52.18100
# Shear Modulus (GPa) = 29.36101 33.34284 31.35193
#
# Velocity S-wave (km/s) = 3.73992 3.98546 3.86464
# Velocity P-wave (km/s) = 6.47137 6.90400 6.69118
#
# Compressibility (1/GPa) = 0.02050777
#
# Stress axis : x y z
#
# Youngs Moduli (GPa) = 57.01002 72.99709 72.32668
#
# Poissons Ratio (x) = 0.00678 0.66254
# Poissons Ratio (y) = 0.00530 0.21886
# Poissons Ratio (z) = 0.52223 0.22089
#
# Static dielectric constant tensor:
#      x y z
#    x 3.857580 0.000000 0.188500 
#    y 0.000000 3.652610 0.000000 
#    z 0.188500 0.000000 3.913860 
# 
# 
# High freq. dielectric constant tensor:
#      x y z
#    x 1.818860 0.000000 0.014460 
#    y 0.000000 1.827000 0.000000 
#    z 0.014460 0.000000 1.828280 
# 
# From -- ./inp_files/12672.got.cif
#   From: 2010.03.12/outbox.cif.g09.slc.cpg/sg3_7_cif.got.tgz:12672.got - 2010.03.31 09:20:49.
