data_PCOD8045023
_publ_section_title
;
Structure prediction by ZEFSAII (Michael W. Deem and Ramdas Pophale) SiO2 
 PCOD8045023
Probable space group: P 2
;
_chemical_formula_sum "Si O2"
_cell_formula_units_Z 12
_cell_length_a 15.652580
_cell_length_b 7.592330
_cell_length_c 8.787479
_cell_angle_alpha 90.000000
_cell_angle_beta 144.976680
_cell_angle_gamma 90.000000
_cell_volume 599.334039
_symmetry_space_group_name_H-M "P 2"
_symmetry_group_IT_number 3
_symmetry_cell_setting 'monoclinic'
loop_
_space_group_symop_operation_xyz
x,y,z
-x,y,-z
loop_
_atom_site_type_symbol
_atom_site_label
_atom_site_fract_x
_atom_site_fract_y
_atom_site_fract_z
Si Si1 0.683352 0.080050 0.949752
Si Si2 0.936465 0.857554 0.247280
Si Si3 0.134428 0.182041 0.501545
Si Si4 0.584854 0.199677 0.268976
Si Si5 0.968224 0.509394 0.129181
Si Si6 0.351671 0.378089 0.339792
O O1 0.802104 0.179786 0.233942
O O2 0.757616 0.893433 0.006478
O O3 0.526175 0.056680 0.812069
O O4 0.653547 0.191889 0.755634
O O5 0.990247 0.712435 0.205397
O O6 0.000000 0.792813 0.500000
O O7 0.001757 0.044037 0.286763
O O8 0.261679 0.116613 0.568542
O O9 0.073461 0.378095 0.378372
O O10 0.630379 0.351338 0.453345
O O11 0.500000 0.286670 0.000000
O O12 0.795071 0.483726 0.913817
O O13 0.000000 0.476949 0.000000
O O14 0.500000 0.482087 0.500000
#
# Coordination Sequence:
#
# PCOD8045023 Si02
#       6
#     2   2   2   2   2   2
#     4   9  19  37  63  87 117 158 200 241 300 355
#     4  10  23  38  59  91 121 158 203 243 298 361
#     4  10  20  39  62  89 119 160 193 252 305 352
#     4   9  18  35  63  87 116 157 201 241 302 358
#     4  12  24  37  60  90 125 158 201 247 307 356
#     4  10  20  36  58  88 114 156 201 242 298 356
#
# _framework density 20.022224999999999
#
# number of rings (size 3 to 8) (size 9 to 14) (size 15 to 20)
#    0.000    2.000    3.333    0.000    2.333    2.000 
#    0.000    4.167    0.000    3.000    0.000    0.000 
#    0.000    0.000    0.000    0.000    0.000    0.000 
#
# Total GULP energy -148682.747502 kJ/mol
# GULP energy per Si atom -12390.228959 kJ/mol
# Density = 1.997665 g / cm^3
# Si number density = 20.022225 Si / 1000 Ang^3
#
#
#
# Elastic Constant Matrix: (Units=GPa)
#
#
# Indices 1 2 3 4 5 6 
#
# 1 98.4761 30.5130 35.4139 0.0000 9.7861 0.0000
# 2 30.5130 76.9426 21.7999 0.0000 3.3856 0.0000
# 3 35.4139 21.7999 78.6402 0.0000 7.6906 0.0000
# 4 0.0000 0.0000 0.0000 14.8293 0.0000 0.5178
# 5 9.7861 3.3856 7.6906 0.0000 44.4958 0.0000
# 6 0.0000 0.0000 0.0000 0.5178 0.0000 24.2412
#
#
#
# Elastic Compliance Matrix: (Units=1/GPa)
#
#
# Indices 1 2 3 4 5 6 
#
# 1 0.013214 -0.003825 -0.004714 0.000000 -0.001800 0.000000
# 2 -0.003825 0.015219 -0.002508 0.000000 0.000117 0.000000
# 3 -0.004714 -0.002508 0.015679 0.000000 -0.001482 0.000000
# 4 0.000000 0.000000 0.000000 0.067484 0.000000 -0.001441
# 5 -0.001800 0.000117 -0.001482 0.000000 0.023117 0.000000
# 6 0.000000 0.000000 0.000000 -0.001441 0.000000 0.041283
#
#
# Mechanical properties :
#
#
# Convention : Reuss Voigt Hill
#
# Bulk Modulus (GPa) = 45.41747 47.72362 46.57054
# Shear Modulus (GPa) = 24.33909 27.80209 26.07059
#
# Velocity S-wave (km/s) = 3.49033 3.73038 3.61235
# Velocity P-wave (km/s) = 6.24308 6.51471 6.38034
#
# Compressibility (1/GPa) = 0.02201796
#
# Stress axis : x y z
#
# Youngs Moduli (GPa) = 75.67539 65.70694 63.77880
#
# Poissons Ratio (x) = 0.25136 0.30067
# Poissons Ratio (y) = 0.28950 0.15993
# Poissons Ratio (z) = 0.35675 0.16477
#
# Static dielectric constant tensor:
#      x y z
#    x 4.057570 0.000000 0.232920 
#    y 0.000000 3.035080 0.000000 
#    z 0.232920 0.000000 3.924230 
# 
# 
# High freq. dielectric constant tensor:
#      x y z
#    x 1.807250 0.000000 0.007350 
#    y 0.000000 1.716170 0.000000 
#    z 0.007350 0.000000 1.797620 
# 
# From -- ./inp_files/5147.got.cif
#   From: 2010.03.12/outbox.cif.g09.slc.cpg/sg3_3_cif.got.tgz:5147.got - 2010.03.31 09:20:49.
