data_PCOD8045529
_publ_section_title
;
Structure prediction by ZEFSAII (Michael W. Deem and Ramdas Pophale) SiO2 
 PCOD8045529
Probable space group: P 2
;
_chemical_formula_sum "Si O2"
_cell_formula_units_Z 12
_cell_length_a 12.401577
_cell_length_b 5.373119
_cell_length_c 9.139051
_cell_angle_alpha 90.000000
_cell_angle_beta 45.466924
_cell_angle_gamma 90.000000
_cell_volume 434.110222
_symmetry_space_group_name_H-M "P 2"
_symmetry_group_IT_number 3
_symmetry_cell_setting 'monoclinic'
loop_
_space_group_symop_operation_xyz
x,y,z
-x,y,-z
loop_
_atom_site_type_symbol
_atom_site_label
_atom_site_fract_x
_atom_site_fract_y
_atom_site_fract_z
Si Si1 0.000000 0.549800 0.000000
Si Si2 0.765487 0.199426 0.063016
Si Si3 0.565506 0.665750 0.707749
Si Si4 0.000000 0.771454 0.500000
Si Si5 0.652206 0.177085 0.467663
Si Si6 0.710956 0.547962 0.875034
Si Si7 0.060689 0.954792 0.732699
O O1 0.872141 0.411942 0.028204
O O2 0.897240 0.714949 0.210830
O O3 0.627916 0.136787 0.312487
O O4 0.695672 0.279436 0.971666
O O5 0.879199 0.973218 0.927522
O O6 0.572817 0.433817 0.588741
O O7 0.654373 0.553912 0.762818
O O8 0.623160 0.925227 0.588411
O O9 0.392933 0.726638 0.922835
O O10 0.887939 0.609693 0.706762
O O11 0.903723 0.932014 0.475168
O O12 0.838548 0.191519 0.306462
#
# Coordination Sequence:
#
# PCOD8045529 Si02
#       7
#     1   2   2   1   2   2   2
#     4  12  20  46  64 112 162 190 246 332 392 446
#     4  12  26  42  76 116 157 197 263 327 387 466
#     4  11  29  53  79 108 162 205 262 315 398 467
#     4  12  26  44  80 108 150 200 270 320 390 458
#     4  12  25  50  79 108 156 213 249 317 402 466
#     4  11  28  50  75 115 154 206 261 328 382 472
#     4  12  25  41  73 114 151 201 256 328 385 462
#
# _framework density 27.642745999999999
#
# number of rings (size 3 to 8) (size 9 to 14) (size 15 to 20)
#    0.000    0.333    6.667    1.000    4.667    4.667 
#    0.000    3.333    0.000    0.000    0.000    0.000 
#    0.000    0.000    0.000    0.000    0.000    0.000 
#
# Total GULP energy -148681.414903 kJ/mol
# GULP energy per Si atom -12390.117909 kJ/mol
# Density = 2.757983 g / cm^3
# Si number density = 27.642746 Si / 1000 Ang^3
#
#
#
# Elastic Constant Matrix: (Units=GPa)
#
#
# Indices 1 2 3 4 5 6 
#
# 1 76.3214 13.0506 38.4341 0.0000 22.8006 0.0000
# 2 13.0506 87.6754 54.2021 0.0000 2.5253 0.0000
# 3 38.4341 54.2021 168.4316 0.0000 15.7486 0.0000
# 4 0.0000 0.0000 0.0000 49.8159 0.0000 6.0432
# 5 22.8006 2.5253 15.7486 0.0000 52.8320 0.0000
# 6 0.0000 0.0000 0.0000 6.0432 0.0000 35.4259
#
#
#
# Elastic Compliance Matrix: (Units=1/GPa)
#
#
# Indices 1 2 3 4 5 6 
#
# 1 0.016575 -0.000386 -0.003077 0.000000 -0.006218 0.000000
# 2 -0.000386 0.014273 -0.004585 0.000000 0.000851 0.000000
# 3 -0.003077 -0.004585 0.008198 0.000000 -0.000897 0.000000
# 4 0.000000 0.000000 0.000000 0.020498 0.000000 -0.003497
# 5 -0.006218 0.000851 -0.000897 0.000000 0.021838 0.000000
# 6 0.000000 0.000000 0.000000 -0.003497 0.000000 0.028824
#
#
# Mechanical properties :
#
#
# Convention : Reuss Voigt Hill
#
# Bulk Modulus (GPa) = 43.56922 60.42245 51.99583
# Shear Modulus (GPa) = 37.32664 42.73088 40.02876
#
# Velocity S-wave (km/s) = 3.67866 3.93596 3.80949
# Velocity P-wave (km/s) = 5.81714 6.52392 6.18064
#
# Compressibility (1/GPa) = 0.02295198
#
# Stress axis : x y z
#
# Youngs Moduli (GPa) = 60.33031 70.06285 121.97526
#
# Poissons Ratio (x) = 0.02705 0.37528
# Poissons Ratio (y) = 0.02330 0.55920
# Poissons Ratio (z) = 0.18562 0.32121
#
# Static dielectric constant tensor:
#      x y z
#    x 5.285830 0.000000 -0.220000 
#    y 0.000000 4.550880 0.000000 
#    z -0.220000 0.000000 5.847460 
# 
# 
# High freq. dielectric constant tensor:
#      x y z
#    x 2.134320 0.000000 -0.002420 
#    y 0.000000 2.084720 0.000000 
#    z -0.002420 0.000000 2.151080 
# 
# From -- ./inp_files/8177.got.cif
#   From: 2010.03.12/outbox.cif.g09.slc.cpg/sg3_5_cif.got.tgz:8177.got - 2010.03.31 09:20:49.
