data_PCOD8045880
_publ_section_title
;
Structure prediction by ZEFSAII (Michael W. Deem and Ramdas Pophale) SiO2 
 PCOD8045880
Probable space group: P 21
;
_chemical_formula_sum "Si O2"
_cell_formula_units_Z 16
_cell_length_a 20.739520
_cell_length_b 9.710043
_cell_length_c 9.126078
_cell_angle_alpha 90.000000
_cell_angle_beta 28.348819
_cell_angle_gamma 90.000000
_cell_volume 872.669355
_symmetry_space_group_name_H-M "P 21"
_symmetry_group_IT_number 4
_symmetry_cell_setting 'monoclinic'
loop_
_space_group_symop_operation_xyz
x,y,z
-x,1/2+y,-z
loop_
_atom_site_type_symbol
_atom_site_label
_atom_site_fract_x
_atom_site_fract_y
_atom_site_fract_z
Si Si1 0.585811 0.427240 0.907984
Si Si2 0.381106 0.612275 0.154960
Si Si3 0.079716 0.681869 0.759702
Si Si4 0.381116 0.612226 0.820638
Si Si5 0.079732 0.681802 0.421367
Si Si6 0.138106 0.954185 0.801694
Si Si7 0.861905 0.454117 0.854138
Si Si8 0.585825 0.427197 0.248775
O O1 0.564686 0.265628 0.920617
O O2 0.717019 0.483579 0.560863
O O3 0.452829 0.505454 0.118960
O O4 0.608628 0.456739 0.032763
O O5 0.221051 0.603856 0.508683
O O6 0.412574 0.570435 0.924881
O O7 0.075841 0.728115 0.598290
O O8 0.066613 0.817640 0.883509
O O9 0.956793 0.582766 0.047440
O O10 0.452848 0.505390 0.569758
O O11 0.435306 0.765580 0.679390
O O12 0.221071 0.603775 0.107097
O O13 0.066634 0.817526 0.349886
O O14 0.956832 0.582664 0.625298
O O15 0.158415 0.936674 0.933147
O O16 0.717039 0.483514 0.071049
#
# Coordination Sequence:
#
# PCOD8045880 Si02
#       8
#     2   2   2   2   2   2   2   2
#     4  10  21  36  54  78 107 138 174 216 260 308
#     4   9  19  36  54  75 105 137 172 215 260 308
#     4   9  20  37  54  77 108 137 172 218 260 305
#     4   9  19  36  54  75 105 137 172 215 260 308
#     4   9  20  37  54  77 108 137 172 218 260 305
#     4  10  20  35  56  80 106 138 174 213 260 311
#     4  10  20  35  56  80 106 138 174 213 260 311
#     4  10  21  36  54  78 107 138 174 216 260 308
#
# _framework density 18.334548999999999
#
# number of rings (size 3 to 8) (size 9 to 14) (size 15 to 20)
#    0.000    2.500    0.000    3.000    0.000    9.000 
#    0.000    5.000    0.000    0.000    0.000    0.000 
#    0.000    0.000    0.000    0.000    0.000    0.000 
#
# Total GULP energy -198454.315780 kJ/mol
# GULP energy per Si atom -12403.394736 kJ/mol
# Density = 1.829282 g / cm^3
# Si number density = 18.334549 Si / 1000 Ang^3
#
#
#
# Elastic Constant Matrix: (Units=GPa)
#
#
# Indices 1 2 3 4 5 6 
#
# 1 71.5399 13.5758 1.7079 0.0000 2.0072 0.0000
# 2 13.5758 17.8193 3.1699 0.0000 9.3909 0.0000
# 3 1.7079 3.1699 50.7756 0.0000 16.7625 0.0000
# 4 0.0000 0.0000 0.0000 32.3732 0.0000 0.8167
# 5 2.0072 9.3909 16.7625 0.0000 20.4668 0.0000
# 6 0.0000 0.0000 0.0000 0.8167 0.0000 33.2892
#
#
#
# Elastic Compliance Matrix: (Units=1/GPa)
#
#
# Indices 1 2 3 4 5 6 
#
# 1 0.016958 -0.016570 -0.002052 0.000000 0.007620 0.000000
# 2 -0.016570 0.093360 0.011423 0.000000 -0.050567 0.000000
# 3 -0.002052 0.011423 0.028390 0.000000 -0.028292 0.000000
# 4 0.000000 0.000000 0.000000 0.030909 0.000000 -0.000758
# 5 0.007620 -0.050567 -0.028292 0.000000 0.094485 0.000000
# 6 0.000000 0.000000 0.000000 -0.000758 0.000000 0.030058
#
#
# Mechanical properties :
#
#
# Convention : Reuss Voigt Hill
#
# Bulk Modulus (GPa) = 8.04444 19.67133 13.85788
# Shear Modulus (GPa) = 14.28586 25.33793 19.81189
#
# Velocity S-wave (km/s) = 2.79440 3.72153 3.29078
# Velocity P-wave (km/s) = 3.84821 5.40544 4.69188
#
# Compressibility (1/GPa) = 0.12430946
#
# Stress axis : x y z
#
# Youngs Moduli (GPa) = 58.96961 10.71121 35.22324
#
# Poissons Ratio (x) = 0.17749 0.07226
# Poissons Ratio (y) = 0.97715 -0.40234
# Poissons Ratio (z) = 0.12098 -0.12235
#
# Static dielectric constant tensor:
#      x y z
#    x 3.389690 0.000000 0.018320 
#    y 0.000000 3.292050 0.000000 
#    z 0.018320 0.000000 3.369440 
# 
# 
# High freq. dielectric constant tensor:
#      x y z
#    x 1.717540 0.000000 0.002070 
#    y 0.000000 1.705200 0.000000 
#    z 0.002070 0.000000 1.715250 
# 
# From -- ./inp_files/5671.got.cif
#   From: 2010.03.12/outbox.cif.g09.slc.cpg/sg4_3_cif.got.tgz:5671.got - 2010.03.31 09:31:35.
