data_PCOD8045943
_publ_section_title
;
Structure prediction by ZEFSAII (Michael W. Deem and Ramdas Pophale) SiO2 
 PCOD8045943
Probable space group: P 21
;
_chemical_formula_sum "Si O2"
_cell_formula_units_Z 14
_cell_length_a 17.727664
_cell_length_b 7.893518
_cell_length_c 7.954911
_cell_angle_alpha 90.000000
_cell_angle_beta 36.547017
_cell_angle_gamma 90.000000
_cell_volume 662.866771
_symmetry_space_group_name_H-M "P 21"
_symmetry_group_IT_number 4
_symmetry_cell_setting 'monoclinic'
loop_
_space_group_symop_operation_xyz
x,y,z
-x,1/2+y,-z
loop_
_atom_site_type_symbol
_atom_site_label
_atom_site_fract_x
_atom_site_fract_y
_atom_site_fract_z
Si Si1 0.199389 0.944220 0.393749
Si Si2 0.391041 0.134469 0.639519
Si Si3 0.229780 0.290629 0.197227
Si Si4 0.717708 0.910775 0.555271
Si Si5 0.904920 0.092474 0.428490
Si Si6 0.821363 0.582918 0.208839
Si Si7 0.478603 0.912008 0.778824
O O1 0.123638 0.782504 0.455831
O O2 0.159861 0.108308 0.352928
O O3 0.165128 0.968142 0.650532
O O4 0.349357 0.910804 0.112873
O O5 0.292363 0.018902 0.709614
O O6 0.488997 0.220688 0.335355
O O7 0.470288 0.023327 0.626339
O O8 0.312564 0.281254 0.880457
O O9 0.319780 0.316555 0.201443
O O10 0.130586 0.448222 0.367693
O O11 0.790594 0.778346 0.305670
O O12 0.591319 0.983578 0.695070
O O13 0.816896 0.061824 0.419707
O O14 0.050852 0.072389 0.125342
#
# Coordination Sequence:
#
# PCOD8045943 Si02
#       7
#     2   2   2   2   2   2   2
#     4  10  21  36  62  90 117 159 212 251 300 371
#     4  10  22  39  61  87 130 162 195 266 314 369
#     4   8  20  40  55  88 121 153 202 254 304 349
#     4   8  19  37  60  87 115 158 204 255 300 351
#     4  10  20  37  66  87 116 166 209 245 313 362
#     4  10  20  39  59  90 125 157 203 262 306 363
#     4  10  22  38  59  89 124 159 207 255 313 367
#
# _framework density 21.120383
#
# number of rings (size 3 to 8) (size 9 to 14) (size 15 to 20)
#    0.857    1.714    0.000    0.857    2.000    6.857 
#    5.143    0.000    0.000    0.000    0.000    0.000 
#    0.000    0.000    0.000    0.000    0.000    0.000 
#
# Total GULP energy -173495.192952 kJ/mol
# GULP energy per Si atom -12392.513782 kJ/mol
# Density = 2.107231 g / cm^3
# Si number density = 21.120383 Si / 1000 Ang^3
#
#
#
# Elastic Constant Matrix: (Units=GPa)
#
#
# Indices 1 2 3 4 5 6 
#
# 1 26.9244 2.3524 -10.5555 0.0000 -0.0795 0.0000
# 2 2.3524 105.3158 24.0214 0.0000 -7.7547 0.0000
# 3 -10.5555 24.0214 65.6845 0.0000 -12.1338 0.0000
# 4 0.0000 0.0000 0.0000 27.5877 0.0000 -1.4580
# 5 -0.0795 -7.7547 -12.1338 0.0000 25.7738 0.0000
# 6 0.0000 0.0000 0.0000 -1.4580 0.0000 21.9580
#
#
#
# Elastic Compliance Matrix: (Units=1/GPa)
#
#
# Indices 1 2 3 4 5 6 
#
# 1 0.040506 -0.002499 0.008003 0.000000 0.003141 0.000000
# 2 -0.002499 0.010564 -0.004030 0.000000 0.001274 0.000000
# 3 0.008003 -0.004030 0.019457 0.000000 0.007972 0.000000
# 4 0.000000 0.000000 0.000000 0.036376 0.000000 0.002415
# 5 0.003141 0.001274 0.007972 0.000000 0.042945 0.000000
# 6 0.000000 0.000000 0.000000 0.002415 0.000000 0.045702
#
#
# Mechanical properties :
#
#
# Convention : Reuss Voigt Hill
#
# Bulk Modulus (GPa) = 13.60975 25.50683 19.55829
# Shear Modulus (GPa) = 23.03168 27.20434 25.11801
#
# Velocity S-wave (km/s) = 3.30585 3.59285 3.45233
# Velocity P-wave (km/s) = 4.58578 5.41429 5.01717
#
# Compressibility (1/GPa) = 0.07347671
#
# Stress axis : x y z
#
# Youngs Moduli (GPa) = 24.68753 94.66131 51.39588
#
# Poissons Ratio (x) = 0.23656 -0.41135
# Poissons Ratio (y) = 0.06169 0.20711
# Poissons Ratio (z) = -0.19759 0.38145
#
# Static dielectric constant tensor:
#      x y z
#    x 3.692970 0.000000 0.063620 
#    y 0.000000 3.741270 0.000000 
#    z 0.063620 0.000000 3.620000 
# 
# 
# High freq. dielectric constant tensor:
#      x y z
#    x 1.814310 0.000000 0.004820 
#    y 0.000000 1.813880 0.000000 
#    z 0.004820 0.000000 1.822040 
# 
# From -- ./inp_files/7738.got.cif
#   From: 2010.03.12/outbox.cif.g09.slc.cpg/sg4_4_cif.got.tgz:7738.got - 2010.03.31 09:31:35.
