data_PCOD8045345
_publ_section_title
;
Structure prediction by ZEFSAII (Michael W. Deem and Ramdas Pophale) SiO2 
 PCOD8045345
Probable space group: P 2
;
_chemical_formula_sum "Si O2"
_cell_formula_units_Z 10
_cell_length_a 7.357999
_cell_length_b 9.797984
_cell_length_c 5.353053
_cell_angle_alpha 90.000000
_cell_angle_beta 91.041718
_cell_angle_gamma 90.000000
_cell_volume 385.856845
_symmetry_space_group_name_H-M "P 2"
_symmetry_group_IT_number 3
_symmetry_cell_setting 'monoclinic'
loop_
_space_group_symop_operation_xyz
x,y,z
-x,y,-z
loop_
_atom_site_type_symbol
_atom_site_label
_atom_site_fract_x
_atom_site_fract_y
_atom_site_fract_z
Si Si1 0.858133 0.800450 0.192701
Si Si2 0.356472 0.162953 0.306469
Si Si3 0.000000 0.041469 0.500000
Si Si4 0.802133 0.538176 0.472496
Si Si5 0.782800 0.407103 0.972648
Si Si6 0.500000 0.924213 0.000000
O O1 0.822860 0.701589 0.429352
O O2 0.664411 0.824491 0.064954
O O3 0.945953 0.944881 0.267827
O O4 0.000000 0.728780 0.000000
O O5 0.500000 0.232830 0.500000
O O6 0.312475 0.259643 0.068026
O O7 0.166211 0.139990 0.441466
O O8 0.442292 0.018949 0.229392
O O9 0.712126 0.502277 0.737450
O O10 0.000000 0.470020 0.500000
O O11 0.703503 0.471439 0.227556
O O12 0.000000 0.393800 0.000000
#
# Coordination Sequence:
#
# PCOD8045345 Si02
#       6
#     2   2   1   2   2   1
#     4  12  24  46  76 105 147 193 244 310 380 439
#     4  12  28  47  73 107 153 195 255 310 369 449
#     4  12  26  44  76 104 142 202 244 304 386 440
#     4  10  22  45  75 108 143 193 249 307 369 445
#     4  10  25  44  75 107 145 195 252 302 371 442
#     4  12  28  46  70 116 146 192 252 310 368 458
#
# _framework density 25.916349
#
# number of rings (size 3 to 8) (size 9 to 14) (size 15 to 20)
#    0.000    0.800    5.000    1.800    9.800    0.000 
#    3.600    0.000    0.000    0.000    0.000    0.000 
#    0.000    0.000    0.000    0.000    0.000    0.000 
#
# Total GULP energy -123984.009899 kJ/mol
# GULP energy per Si atom -12398.400990 kJ/mol
# Density = 2.585736 g / cm^3
# Si number density = 25.916349 Si / 1000 Ang^3
#
#
#
# Elastic Constant Matrix: (Units=GPa)
#
#
# Indices 1 2 3 4 5 6 
#
# 1 130.9197 27.9359 40.9800 0.0000 16.2928 0.0000
# 2 27.9359 98.5341 41.9402 0.0000 15.4204 0.0000
# 3 40.9800 41.9402 163.8359 0.0000 18.5476 0.0000
# 4 0.0000 0.0000 0.0000 59.7870 0.0000 4.0447
# 5 16.2928 15.4204 18.5476 0.0000 29.2447 0.0000
# 6 0.0000 0.0000 0.0000 4.0447 0.0000 4.1302
#
#
#
# Elastic Compliance Matrix: (Units=1/GPa)
#
#
# Indices 1 2 3 4 5 6 
#
# 1 0.008796 -0.001353 -0.001486 0.000000 -0.003244 0.000000
# 2 -0.001353 0.012170 -0.002301 0.000000 -0.004204 0.000000
# 3 -0.001486 -0.002301 0.007362 0.000000 -0.002628 0.000000
# 4 0.000000 0.000000 0.000000 0.017913 0.000000 -0.017542
# 5 -0.003244 -0.004204 -0.002628 0.000000 0.039885 0.000000
# 6 0.000000 0.000000 0.000000 -0.017542 0.000000 0.259299
#
#
# Mechanical properties :
#
#
# Convention : Reuss Voigt Hill
#
# Bulk Modulus (GPa) = 55.41322 68.33351 61.87337
# Shear Modulus (GPa) = 13.82279 37.46127 25.64203
#
# Velocity S-wave (km/s) = 2.31197 3.80606 3.14891
# Velocity P-wave (km/s) = 5.34368 6.76306 6.09483
#
# Compressibility (1/GPa) = 0.01804623
#
# Stress axis : x y z
#
# Youngs Moduli (GPa) = 113.68710 82.17123 135.83353
#
# Poissons Ratio (x) = 0.11121 0.20191
# Poissons Ratio (y) = 0.15387 0.31254
# Poissons Ratio (z) = 0.16899 0.18907
#
# Static dielectric constant tensor:
#      x y z
#    x 4.510570 0.000000 0.166410 
#    y 0.000000 4.388810 0.000000 
#    z 0.166410 0.000000 5.015570 
# 
# 
# High freq. dielectric constant tensor:
#      x y z
#    x 2.026330 0.000000 0.013910 
#    y 0.000000 2.026810 0.000000 
#    z 0.013910 0.000000 2.050580 
# 
# From -- ./inp_files/1043.got.cif
#   From: 2010.03.12/outbox.cif.g09.slc.cpg/sg3_1_cif.got.tgz:1043.got - 2010.03.31 09:20:49.
