data_PCOD8045689
_publ_section_title
;
Structure prediction by ZEFSAII (Michael W. Deem and Ramdas Pophale) SiO2 
 PCOD8045689
Probable space group: P 21
;
_chemical_formula_sum "Si O2"
_cell_formula_units_Z 12
_cell_length_a 17.890513
_cell_length_b 7.312072
_cell_length_c 9.138306
_cell_angle_alpha 90.000000
_cell_angle_beta 29.577074
_cell_angle_gamma 90.000000
_cell_volume 590.063491
_symmetry_space_group_name_H-M "P 21"
_symmetry_group_IT_number 4
_symmetry_cell_setting 'monoclinic'
loop_
_space_group_symop_operation_xyz
x,y,z
-x,1/2+y,-z
loop_
_atom_site_type_symbol
_atom_site_label
_atom_site_fract_x
_atom_site_fract_y
_atom_site_fract_z
Si Si1 0.957493 0.100450 0.868815
Si Si2 0.682914 0.481967 0.491378
Si Si3 0.475448 0.782537 0.741808
Si Si4 0.621131 0.150946 0.399221
Si Si5 0.981821 0.997636 0.151374
Si Si6 0.803838 0.326205 0.585448
O O1 0.042936 0.293097 0.746872
O O2 0.797780 0.119861 0.059070
O O3 0.924437 0.006619 0.082158
O O4 0.067127 0.971554 0.586867
O O5 0.573675 0.657217 0.684445
O O6 0.601042 0.324076 0.538735
O O7 0.713234 0.404602 0.600941
O O8 0.839226 0.543464 0.147559
O O9 0.471069 0.685678 0.591856
O O10 0.551261 0.979727 0.602516
O O11 0.306596 0.801966 0.090674
O O12 0.884248 0.133856 0.415718
#
# Coordination Sequence:
#
# PCOD8045689 Si02
#       6
#     2   2   2   2   2   2
#     4  10  20  39  66  90 123 168 206 256 311 371
#     4  10  23  41  66  92 126 170 206 258 318 376
#     4  12  26  42  64  93 130 169 211 257 316 384
#     4  11  23  45  63  85 131 177 205 247 330 380
#     4  10  18  38  66  90 123 156 212 257 310 361
#     4  11  24  39  65 100 119 158 222 265 303 360
#
# _framework density 20.336794999999999
#
# number of rings (size 3 to 8) (size 9 to 14) (size 15 to 20)
#    0.000    1.333    6.667    1.000    4.667    1.333 
#    6.000    0.000    0.000    0.000    0.000    0.000 
#    0.000    0.000    0.000    0.000    0.000    0.000 
#
# Total GULP energy -148837.517767 kJ/mol
# GULP energy per Si atom -12403.126481 kJ/mol
# Density = 2.029051 g / cm^3
# Si number density = 20.336795 Si / 1000 Ang^3
#
#
#
# Elastic Constant Matrix: (Units=GPa)
#
#
# Indices 1 2 3 4 5 6 
#
# 1 44.1428 13.1772 1.1159 0.0000 -7.5415 0.0000
# 2 13.1772 111.8205 55.9458 0.0000 -1.3931 0.0000
# 3 1.1159 55.9458 85.3926 0.0000 -0.6868 0.0000
# 4 0.0000 0.0000 0.0000 34.6637 0.0000 -15.4373
# 5 -7.5415 -1.3931 -0.6868 0.0000 18.9274 0.0000
# 6 0.0000 0.0000 0.0000 -15.4373 0.0000 28.0515
#
#
#
# Elastic Compliance Matrix: (Units=1/GPa)
#
#
# Indices 1 2 3 4 5 6 
#
# 1 0.025517 -0.004100 0.002433 0.000000 0.009954 0.000000
# 2 -0.004100 0.013971 -0.009107 0.000000 -0.000936 0.000000
# 3 0.002433 -0.009107 0.017653 0.000000 0.000940 0.000000
# 4 0.000000 0.000000 0.000000 0.038214 0.000000 0.021030
# 5 0.009954 -0.000936 0.000940 0.000000 0.056765 0.000000
# 6 0.000000 0.000000 0.000000 0.021030 0.000000 0.047222
#
#
# Mechanical properties :
#
#
# Convention : Reuss Voigt Hill
#
# Bulk Modulus (GPa) = 28.09639 42.42597 35.26118
# Shear Modulus (GPa) = 21.48190 27.73633 24.60911
#
# Velocity S-wave (km/s) = 3.25361 3.69704 3.48239
# Velocity P-wave (km/s) = 5.28774 6.25549 5.79186
#
# Compressibility (1/GPa) = 0.03559177
#
# Stress axis : x y z
#
# Youngs Moduli (GPa) = 39.19005 71.57751 56.64758
#
# Poissons Ratio (x) = 0.29348 -0.13782
# Poissons Ratio (y) = 0.16069 0.51590
# Poissons Ratio (z) = -0.09534 0.65186
#
# Static dielectric constant tensor:
#      x y z
#    x 3.527350 0.000000 -0.264990 
#    y 0.000000 3.908500 0.000000 
#    z -0.264990 0.000000 3.506100 
# 
# 
# High freq. dielectric constant tensor:
#      x y z
#    x 1.779860 0.000000 -0.022010 
#    y 0.000000 1.814830 0.000000 
#    z -0.022010 0.000000 1.775800 
# 
# From -- ./inp_files/9618.got.cif
#   From: 2010.03.12/outbox.cif.g09.slc.cpg/sg4_5_cif.got.tgz:9618.got - 2010.03.31 09:31:35.
