data_PCOD8045838
_publ_section_title
;
Structure prediction by ZEFSAII (Michael W. Deem and Ramdas Pophale) SiO2 
 PCOD8045838
Probable space group: P 21
;
_chemical_formula_sum "Si O2"
_cell_formula_units_Z 16
_cell_length_a 14.942960
_cell_length_b 8.408229
_cell_length_c 12.625089
_cell_angle_alpha 90.000000
_cell_angle_beta 28.455768
_cell_angle_gamma 90.000000
_cell_volume 755.823604
_symmetry_space_group_name_H-M "P 21"
_symmetry_group_IT_number 4
_symmetry_cell_setting 'monoclinic'
loop_
_space_group_symop_operation_xyz
x,y,z
-x,1/2+y,-z
loop_
_atom_site_type_symbol
_atom_site_label
_atom_site_fract_x
_atom_site_fract_y
_atom_site_fract_z
Si Si1 0.030186 0.379190 0.830151
Si Si2 0.536476 0.416157 0.648454
Si Si3 0.038572 0.684087 0.292755
Si Si4 0.148904 0.061564 0.802622
Si Si5 0.630295 0.588092 0.758424
Si Si6 0.194810 0.653579 0.545019
Si Si7 0.295216 0.755202 0.217475
Si Si8 0.114026 0.391666 0.091291
O O1 0.122271 0.252128 0.816698
O O2 0.193492 0.481053 0.601699
O O3 0.909301 0.291930 0.864180
O O4 0.895467 0.502754 0.032717
O O5 0.638301 0.510837 0.447219
O O6 0.526849 0.532237 0.759395
O O7 0.650765 0.257512 0.555468
O O8 0.327778 0.364106 0.831014
O O9 0.132410 0.750803 0.300104
O O10 0.109807 0.504334 0.199486
O O11 0.813640 0.688945 0.538079
O O12 0.001946 0.978030 0.878641
O O13 0.691613 0.437185 0.762780
O O14 0.494591 0.701259 0.965153
O O15 0.243337 0.641232 0.370205
O O16 0.985442 0.727449 0.773789
#
# Coordination Sequence:
#
# PCOD8045838 Si02
#       8
#     2   2   2   2   2   2   2   2
#     4  11  23  43  69  93 135 173 218 274 331 392
#     4  10  19  41  66  91 127 167 217 271 329 387
#     4  11  23  42  65  93 132 177 219 268 323 390
#     4  10  21  41  66  94 125 169 214 272 333 382
#     4  11  23  41  62  97 132 173 218 274 322 386
#     4  10  23  40  60  97 130 171 217 268 324 387
#     4  11  25  39  67  97 135 177 220 264 329 388
#     4  10  19  41  67  88 124 171 215 271 321 384
#
# _framework density 21.168960999999999
#
# number of rings (size 3 to 8) (size 9 to 14) (size 15 to 20)
#    0.000    1.500    6.250    1.500    3.500    2.000 
#    0.000   10.000    0.000    0.000    0.000    0.000 
#    0.000    0.000    0.000    0.000    0.000    0.000 
#
# Total GULP energy -198408.986921 kJ/mol
# GULP energy per Si atom -12400.561683 kJ/mol
# Density = 2.112078 g / cm^3
# Si number density = 21.168961 Si / 1000 Ang^3
#
#
#
# Elastic Constant Matrix: (Units=GPa)
#
#
# Indices 1 2 3 4 5 6 
#
# 1 37.1591 23.0604 29.4744 0.0000 0.6433 0.0000
# 2 23.0604 82.5447 35.4624 0.0000 14.9105 0.0000
# 3 29.4744 35.4624 125.3369 0.0000 -6.9073 0.0000
# 4 0.0000 0.0000 0.0000 41.0013 0.0000 17.0244
# 5 0.6433 14.9105 -6.9073 0.0000 41.2807 0.0000
# 6 0.0000 0.0000 0.0000 17.0244 0.0000 19.9785
#
#
#
# Elastic Compliance Matrix: (Units=1/GPa)
#
#
# Indices 1 2 3 4 5 6 
#
# 1 0.036760 -0.007730 -0.006394 0.000000 0.001149 0.000000
# 2 -0.007730 0.016880 -0.003318 0.000000 -0.006532 0.000000
# 3 -0.006394 -0.003318 0.010590 0.000000 0.003070 0.000000
# 4 0.000000 0.000000 0.000000 0.037744 0.000000 -0.032163
# 5 0.001149 -0.006532 0.003070 0.000000 0.027079 0.000000
# 6 0.000000 0.000000 0.000000 -0.032163 0.000000 0.077461
#
#
# Mechanical properties :
#
#
# Convention : Reuss Voigt Hill
#
# Bulk Modulus (GPa) = 34.07693 46.78169 40.42931
# Shear Modulus (GPa) = 19.90594 30.92166 25.41380
#
# Velocity S-wave (km/s) = 3.06982 3.82607 3.46861
# Velocity P-wave (km/s) = 5.35701 6.45489 5.93140
#
# Compressibility (1/GPa) = 0.02934537
#
# Stress axis : x y z
#
# Youngs Moduli (GPa) = 27.20314 59.24342 94.42788
#
# Poissons Ratio (x) = 0.45797 0.60378
# Poissons Ratio (y) = 0.21029 0.31330
# Poissons Ratio (z) = 0.17394 0.19656
#
# Static dielectric constant tensor:
#      x y z
#    x 3.598050 0.000000 0.214450 
#    y 0.000000 3.864050 0.000000 
#    z 0.214450 0.000000 4.002550 
# 
# 
# High freq. dielectric constant tensor:
#      x y z
#    x 1.811630 0.000000 0.015520 
#    y 0.000000 1.829940 0.000000 
#    z 0.015520 0.000000 1.837090 
# 
# From -- ./inp_files/12558.got.cif
#   From: 2010.03.12/outbox.cif.g09.slc.cpg/sg4_7_cif.got.tgz:12558.got - 2010.03.31 09:31:35.
