data_PCOD8045378
_publ_section_title
;
Structure prediction by ZEFSAII (Michael W. Deem and Ramdas Pophale) SiO2 
 PCOD8045378
Probable space group: P 2
;
_chemical_formula_sum "Si O2"
_cell_formula_units_Z 14
_cell_length_a 10.470007
_cell_length_b 9.946980
_cell_length_c 8.552928
_cell_angle_alpha 90.000000
_cell_angle_beta 138.497227
_cell_angle_gamma 90.000000
_cell_volume 590.257292
_symmetry_space_group_name_H-M "P 2"
_symmetry_group_IT_number 3
_symmetry_cell_setting 'monoclinic'
loop_
_space_group_symop_operation_xyz
x,y,z
-x,y,-z
loop_
_atom_site_type_symbol
_atom_site_label
_atom_site_fract_x
_atom_site_fract_y
_atom_site_fract_z
Si Si1 0.769379 0.530210 0.981505
Si Si2 0.000000 0.990535 0.000000
Si Si3 0.219646 0.615485 0.670011
Si Si4 0.500000 0.403607 0.500000
Si Si5 0.913688 0.089224 0.589306
Si Si6 0.315318 0.794951 0.233197
Si Si7 0.152761 0.376578 0.382077
Si Si8 0.582837 0.895389 0.232178
O O1 0.576266 0.483822 0.718848
O O2 0.821398 0.672842 0.949062
O O3 0.697714 0.554172 0.093221
O O4 0.948100 0.427650 0.124073
O O5 0.816716 0.897034 0.791039
O O6 0.032143 0.072594 0.864566
O O7 0.237712 0.500965 0.556337
O O8 0.325946 0.748380 0.710516
O O9 0.000000 0.656634 0.500000
O O10 0.308093 0.328315 0.391475
O O11 0.878007 0.248074 0.535881
O O12 0.000000 0.039698 0.500000
O O13 0.722183 0.003096 0.438726
O O14 0.500000 0.742725 0.500000
O O15 0.392112 0.879213 0.158295
O O16 0.500000 0.961129 0.000000
#
# Coordination Sequence:
#
# PCOD8045378 Si02
#       8
#     2   1   2   1   2   2   2   2
#     4  11  24  44  75 107 150 192 249 313 386 441
#     4  12  30  46  80 108 158 200 248 322 382 454
#     4  10  23  44  73 104 146 194 251 315 372 444
#     4  12  26  42  72 110 148 192 248 318 368 452
#     4  12  28  54  77 109 156 208 254 312 388 458
#     4  12  25  44  69 114 152 190 248 316 385 446
#     4  11  28  49  72 108 149 203 256 306 381 458
#     4  12  24  45  74 112 147 192 257 314 379 455
#
# _framework density 23.718471000000001
#
# number of rings (size 3 to 8) (size 9 to 14) (size 15 to 20)
#    0.000    0.571    3.571    3.857    8.000    1.143 
#    5.143    0.000    0.000    0.000    0.000    0.000 
#    0.000    0.000    0.000    0.000    0.000    0.000 
#
# Total GULP energy -173450.097948 kJ/mol
# GULP energy per Si atom -12389.292711 kJ/mol
# Density = 2.366449 g / cm^3
# Si number density = 23.718471 Si / 1000 Ang^3
#
#
#
# Elastic Constant Matrix: (Units=GPa)
#
#
# Indices 1 2 3 4 5 6 
#
# 1 109.1996 28.7700 23.1777 0.0000 -1.0627 0.0000
# 2 28.7700 103.1351 35.9744 0.0000 12.9705 0.0000
# 3 23.1777 35.9744 130.5108 0.0000 -15.8432 0.0000
# 4 0.0000 0.0000 0.0000 21.3613 0.0000 -11.4834
# 5 -1.0627 12.9705 -15.8432 0.0000 36.9784 0.0000
# 6 0.0000 0.0000 0.0000 -11.4834 0.0000 11.2237
#
#
#
# Elastic Compliance Matrix: (Units=1/GPa)
#
#
# Indices 1 2 3 4 5 6 
#
# 1 0.010048 -0.002554 -0.000988 0.000000 0.000761 0.000000
# 2 -0.002554 0.012463 -0.003715 0.000000 -0.006037 0.000000
# 3 -0.000988 -0.003715 0.009511 0.000000 0.005349 0.000000
# 4 0.000000 0.000000 0.000000 0.104035 0.000000 0.106443
# 5 0.000761 -0.006037 0.005349 0.000000 0.031474 0.000000
# 6 0.000000 0.000000 0.000000 0.106443 0.000000 0.198004
#
#
# Mechanical properties :
#
#
# Convention : Reuss Voigt Hill
#
# Bulk Modulus (GPa) = 57.11454 57.63218 57.37336
# Shear Modulus (GPa) = 12.95723 30.90758 21.93240
#
# Velocity S-wave (km/s) = 2.33983 3.61377 3.04418
# Velocity P-wave (km/s) = 5.60644 6.46248 6.04962
#
# Compressibility (1/GPa) = 0.01750868
#
# Stress axis : x y z
#
# Youngs Moduli (GPa) = 99.52712 80.23538 105.14167
#
# Poissons Ratio (x) = 0.20491 0.10388
# Poissons Ratio (y) = 0.25418 0.39057
# Poissons Ratio (z) = 0.09833 0.29805
#
# Static dielectric constant tensor:
#      x y z
#    x 4.576720 0.000000 -0.212780 
#    y 0.000000 3.942160 0.000000 
#    z -0.212780 0.000000 4.436320 
# 
# 
# High freq. dielectric constant tensor:
#      x y z
#    x 1.951660 0.000000 -0.009940 
#    y 0.000000 1.915840 0.000000 
#    z -0.009940 0.000000 1.952960 
# 
# From -- ./inp_files/7598.got.cif
#   From: 2010.03.12/outbox.cif.g09.slc.cpg/sg3_4_cif.got.tgz:7598.got - 2010.03.31 09:20:49.
