data_PCOD8045927
_publ_section_title
;
Structure prediction by ZEFSAII (Michael W. Deem and Ramdas Pophale) SiO2 
 PCOD8045927
Probable space group: P 21
;
_chemical_formula_sum "Si O2"
_cell_formula_units_Z 14
_cell_length_a 14.718922
_cell_length_b 5.333083
_cell_length_c 12.437764
_cell_angle_alpha 90.000000
_cell_angle_beta 43.355820
_cell_angle_gamma 90.000000
_cell_volume 670.276997
_symmetry_space_group_name_H-M "P 21"
_symmetry_group_IT_number 4
_symmetry_cell_setting 'monoclinic'
loop_
_space_group_symop_operation_xyz
x,y,z
-x,1/2+y,-z
loop_
_atom_site_type_symbol
_atom_site_label
_atom_site_fract_x
_atom_site_fract_y
_atom_site_fract_z
Si Si1 0.698410 0.513200 0.023797
Si Si2 0.902289 0.692761 0.200813
Si Si3 0.432122 0.797115 0.304297
Si Si4 0.946483 0.693839 0.912222
Si Si5 0.599653 0.192715 0.285498
Si Si6 0.582933 0.427644 0.912461
Si Si7 0.347350 0.455446 0.548920
O O1 0.553744 0.628562 0.160566
O O2 0.705340 0.288027 0.105918
O O3 0.816245 0.706347 0.948536
O O4 0.704524 0.422529 0.894181
O O5 0.750993 0.716344 0.375100
O O6 0.964808 0.436450 0.192228
O O7 0.899835 0.692089 0.074714
O O8 0.976942 0.938016 0.181669
O O9 0.360268 0.896186 0.257777
O O10 0.325663 0.640077 0.465879
O O11 0.490956 0.015768 0.325793
O O12 0.505410 0.405791 0.418536
O O13 0.689129 0.081342 0.304343
O O14 0.512261 0.697866 0.974275
#
# Coordination Sequence:
#
# PCOD8045927 Si02
#       7
#     2   2   2   2   2   2   2
#     4  10  22  36  61  88 125 155 208 262 299 375
#     4  10  24  39  56  84 126 163 205 250 300 370
#     4  10  21  36  56  90 125 164 197 247 320 372
#     4  10  23  38  59  86 118 167 207 251 304 352
#     4  11  21  34  57  91 124 165 199 248 320 376
#     4  10  20  37  58  89 126 158 196 254 310 363
#     4  11  23  34  57  88 130 166 202 248 311 382
#
# _framework density 20.886889
#
# number of rings (size 3 to 8) (size 9 to 14) (size 15 to 20)
#    0.000    1.714    2.857    0.857   12.000    0.000 
#    0.000    0.000    0.000    0.000    3.714    0.000 
#    0.000    0.000    0.000    0.000    0.000    0.000 
#
# Total GULP energy -173524.067832 kJ/mol
# GULP energy per Si atom -12394.576274 kJ/mol
# Density = 2.083935 g / cm^3
# Si number density = 20.886889 Si / 1000 Ang^3
#
#
#
# Elastic Constant Matrix: (Units=GPa)
#
#
# Indices 1 2 3 4 5 6 
#
# 1 129.8004 43.3158 55.7311 0.0000 26.1995 0.0000
# 2 43.3158 99.0269 21.9566 0.0000 2.2254 0.0000
# 3 55.7311 21.9566 58.4459 0.0000 7.9811 0.0000
# 4 0.0000 0.0000 0.0000 32.0656 0.0000 -3.3881
# 5 26.1995 2.2254 7.9811 0.0000 34.5809 0.0000
# 6 0.0000 0.0000 0.0000 -3.3881 0.0000 28.2018
#
#
#
# Elastic Compliance Matrix: (Units=1/GPa)
#
#
# Indices 1 2 3 4 5 6 
#
# 1 0.016499 -0.004146 -0.012912 0.000000 -0.009254 0.000000
# 2 -0.004146 0.012060 -0.000929 0.000000 0.002580 0.000000
# 3 -0.012912 -0.000929 0.029352 0.000000 0.003068 0.000000
# 4 0.000000 0.000000 0.000000 0.031587 0.000000 0.003795
# 5 -0.009254 0.002580 0.003068 0.000000 0.035055 0.000000
# 6 0.000000 0.000000 0.000000 0.003795 0.000000 0.035915
#
#
# Mechanical properties :
#
#
# Convention : Reuss Voigt Hill
#
# Bulk Modulus (GPa) = 45.58520 58.80889 52.19704
# Shear Modulus (GPa) = 24.53940 30.05431 27.29685
#
# Velocity S-wave (km/s) = 3.43136 3.79741 3.61901
# Velocity P-wave (km/s) = 6.12953 6.88797 6.51979
#
# Compressibility (1/GPa) = 0.02193694
#
# Stress axis : x y z
#
# Youngs Moduli (GPa) = 60.60851 82.91901 34.06931
#
# Poissons Ratio (x) = 0.34380 0.43989
# Poissons Ratio (y) = 0.25130 0.03166
# Poissons Ratio (z) = 0.78256 0.07705
#
# Static dielectric constant tensor:
#      x y z
#    x 3.837340 0.000000 0.350370 
#    y 0.000000 4.047760 0.000000 
#    z 0.350370 0.000000 3.735120 
# 
# 
# High freq. dielectric constant tensor:
#      x y z
#    x 1.800280 0.000000 0.013520 
#    y 0.000000 1.830860 0.000000 
#    z 0.013520 0.000000 1.784620 
# 
# From -- ./inp_files/7272.got.cif
#   From: 2010.03.12/outbox.cif.g09.slc.cpg/sg4_4_cif.got.tgz:7272.got - 2010.03.31 09:31:35.
