data_PCOD8045633
_publ_section_title
;
Structure prediction by ZEFSAII (Michael W. Deem and Ramdas Pophale) SiO2 
 PCOD8045633
Probable space group: P 21
;
_chemical_formula_sum "Si O2"
_cell_formula_units_Z 14
_cell_length_a 20.189016
_cell_length_b 5.289396
_cell_length_c 10.556996
_cell_angle_alpha 90.000000
_cell_angle_beta 145.110431
_cell_angle_gamma 90.000000
_cell_volume 644.844503
_symmetry_space_group_name_H-M "P 21"
_symmetry_group_IT_number 4
_symmetry_cell_setting 'monoclinic'
loop_
_space_group_symop_operation_xyz
x,y,z
-x,1/2+y,-z
loop_
_atom_site_type_symbol
_atom_site_label
_atom_site_fract_x
_atom_site_fract_y
_atom_site_fract_z
Si Si1 0.350405 0.583590 0.292147
Si Si2 0.086517 0.582983 0.872212
Si Si3 0.526145 0.055447 0.965722
Si Si4 0.560902 0.583387 0.443296
Si Si5 0.889161 0.584556 0.349735
Si Si6 0.992395 0.583640 0.229702
Si Si7 0.786215 0.083713 0.286973
O O1 0.430484 0.578868 0.293660
O O2 0.374368 0.339649 0.416063
O O3 0.369164 0.839567 0.399979
O O4 0.219266 0.576640 0.037314
O O5 0.058047 0.830051 0.914309
O O6 0.001318 0.589970 0.616810
O O7 0.054444 0.339600 0.909767
O O8 0.444020 0.074595 0.715007
O O9 0.513180 0.774724 0.000825
O O10 0.657735 0.101492 0.135686
O O11 0.937616 0.592411 0.285261
O O12 0.806558 0.826346 0.240431
O O13 0.812316 0.333956 0.245878
O O14 0.131122 0.580777 0.458263
#
# Coordination Sequence:
#
# PCOD8045633 Si02
#       7
#     2   2   2   2   2   2   2
#     4  10  21  38  57  90 114 165 177 246 301 353
#     4  10  18  30  50  80 122 145 182 214 292 382
#     4  12  26  43  62  87 112 166 213 245 287 330
#     4  10  23  39  58  82 122 146 215 235 288 351
#     4  10  19  30  51  88 113 149 183 227 313 364
#     4  10  19  29  50  88 115 148 184 226 307 369
#     4  10  20  35  52  79 116 149 180 247 294 335
#
# _framework density 21.710661000000002
#
# number of rings (size 3 to 8) (size 9 to 14) (size 15 to 20)
#    0.000    1.714    0.000    6.857    6.000    0.000 
#    0.000    0.000    0.000    0.000    0.000   80.000 
#    0.000    0.000    0.000    0.000    0.000    0.000 
#
# Total GULP energy -173536.918815 kJ/mol
# GULP energy per Si atom -12395.494201 kJ/mol
# Density = 2.166125 g / cm^3
# Si number density = 21.710661 Si / 1000 Ang^3
#
#
#
# Elastic Constant Matrix: (Units=GPa)
#
#
# Indices 1 2 3 4 5 6 
#
# 1 42.8061 7.6599 22.4100 0.0000 -1.4837 0.0000
# 2 7.6599 182.0803 20.2774 0.0000 5.0552 0.0000
# 3 22.4100 20.2774 74.4868 0.0000 16.4914 0.0000
# 4 0.0000 0.0000 0.0000 16.1791 0.0000 20.1106
# 5 -1.4837 5.0552 16.4914 0.0000 29.2936 0.0000
# 6 0.0000 0.0000 0.0000 20.1106 0.0000 -10.5898
#
#
#
# Elastic Compliance Matrix: (Units=1/GPa)
#
#
# Indices 1 2 3 4 5 6 
#
# 1 0.029047 -0.000280 -0.010281 0.000000 0.007307 0.000000
# 2 -0.000280 0.005667 -0.001415 0.000000 -0.000195 0.000000
# 3 -0.010281 -0.001415 0.019380 0.000000 -0.011187 0.000000
# 4 0.000000 0.000000 0.000000 0.018393 0.000000 0.034928
# 5 0.007307 -0.000195 -0.011187 0.000000 0.040839 0.000000
# 6 0.000000 0.000000 0.000000 0.034928 0.000000 -0.028100
#
#
# Mechanical properties :
#
#
# Convention : Reuss Voigt Hill
#
# Bulk Modulus (GPa) = 33.17585 44.45199 38.81392
# Shear Modulus (GPa) = 41.93793 23.57830 32.75811
#
# Velocity S-wave (km/s) = 4.39985 3.29906 3.88860
# Velocity P-wave (km/s) = 6.41293 5.91869 6.17076
#
# Compressibility (1/GPa) = 0.03014240
#
# Stress axis : x y z
#
# Youngs Moduli (GPa) = 34.42743 176.46365 51.59899
#
# Poissons Ratio (x) = 0.04940 0.53046
# Poissons Ratio (y) = 0.00964 0.07302
# Poissons Ratio (z) = 0.35393 0.24973
#
# Static dielectric constant tensor:
#      x y z
#    x 3.374830 0.000000 0.231700 
#    y 0.000000 6.649940 0.000000 
#    z 0.231700 0.000000 3.829490 
# 
# 
# High freq. dielectric constant tensor:
#      x y z
#    x 1.793310 0.000000 0.024020 
#    y 0.000000 1.900120 0.000000 
#    z 0.024020 0.000000 1.849690 
# 
# From -- ./inp_files/12955.got.cif
#   From: 2010.03.12/outbox.cif.g09.slc.cpg/sg4_7_cif.got.tgz:12955.got - 2010.03.31 09:31:35.
