data_PCOD8045178
_publ_section_title
;
Structure prediction by ZEFSAII (Michael W. Deem and Ramdas Pophale) SiO2 
 PCOD8045178
Probable space group: P 2
;
_chemical_formula_sum "Si O2"
_cell_formula_units_Z 14
_cell_length_a 16.486106
_cell_length_b 5.209035
_cell_length_c 16.234230
_cell_angle_alpha 90.000000
_cell_angle_beta 148.694585
_cell_angle_gamma 90.000000
_cell_volume 724.396072
_symmetry_space_group_name_H-M "P 2"
_symmetry_group_IT_number 3
_symmetry_cell_setting 'monoclinic'
loop_
_space_group_symop_operation_xyz
x,y,z
-x,y,-z
loop_
_atom_site_type_symbol
_atom_site_label
_atom_site_fract_x
_atom_site_fract_y
_atom_site_fract_z
Si Si1 0.662640 0.660720 0.245772
Si Si2 0.117997 0.217961 0.792553
Si Si3 0.154656 0.141387 0.334353
Si Si4 0.167474 0.884927 0.184462
Si Si5 0.317503 0.381891 0.334476
Si Si6 0.800438 0.154881 0.445848
Si Si7 0.692415 0.709486 0.079030
O O1 0.708864 0.391707 0.326905
O O2 0.691118 0.643888 0.173840
O O3 0.767501 0.892828 0.369608
O O4 0.481661 0.711922 0.108714
O O5 0.207453 0.486391 0.876180
O O6 0.027437 0.193817 0.801383
O O7 0.987096 0.214960 0.605798
O O8 0.237004 0.986574 0.880022
O O9 0.234956 0.374174 0.353139
O O10 0.251253 0.106473 0.503434
O O11 0.158346 0.893145 0.277120
O O12 0.248891 0.624356 0.225762
O O13 0.273912 0.124399 0.245726
O O14 0.000000 0.913722 0.000000
O O15 0.500000 0.414535 0.500000
#
# Coordination Sequence:
#
# PCOD8045178 Si02
#       7
#     2   2   2   2   2   2   2
#     4  11  23  39  59  88 124 157 201 253 294 342
#     4  10  22  38  63  85 119 164 198 243 298 347
#     4   8  24  38  65  82 132 146 198 250 293 342
#     4  10  21  39  66  87 121 151 194 242 299 351
#     4  10  21  39  66  87 121 151 194 242 299 351
#     4  10  22  38  63  85 119 164 198 243 298 347
#     4  11  23  39  59  88 124 157 201 253 294 342
#
# _framework density 19.326443000000001
#
# number of rings (size 3 to 8) (size 9 to 14) (size 15 to 20)
#    1.714    0.286    0.000    3.429    4.000    5.714 
#    0.000    4.286    0.000    0.000    0.000    0.000 
#    0.000    0.000    0.000    0.000    0.000    0.000 
#
# Total GULP energy -173454.155257 kJ/mol
# GULP energy per Si atom -12389.582518 kJ/mol
# Density = 1.928246 g / cm^3
# Si number density = 19.326443 Si / 1000 Ang^3
#
#
#
# Elastic Constant Matrix: (Units=GPa)
#
#
# Indices 1 2 3 4 5 6 
#
# 1 49.7726 8.5647 12.4920 0.0000 11.5153 0.0000
# 2 8.5647 87.8789 6.6531 0.0000 -7.9640 0.0000
# 3 12.4920 6.6531 41.6667 0.0000 11.9325 0.0000
# 4 0.0000 0.0000 0.0000 30.1196 0.0000 6.5794
# 5 11.5153 -7.9640 11.9325 0.0000 22.8279 0.0000
# 6 0.0000 0.0000 0.0000 6.5794 0.0000 12.4998
#
#
#
# Elastic Compliance Matrix: (Units=1/GPa)
#
#
# Indices 1 2 3 4 5 6 
#
# 1 0.024151 -0.003131 -0.003456 0.000000 -0.011469 0.000000
# 2 -0.003131 0.012631 -0.003284 0.000000 0.007703 0.000000
# 3 -0.003456 -0.003284 0.029859 0.000000 -0.015010 0.000000
# 4 0.000000 0.000000 0.000000 0.037514 0.000000 -0.019746
# 5 -0.011469 0.007703 -0.015010 0.000000 0.060125 0.000000
# 6 0.000000 0.000000 0.000000 -0.019746 0.000000 0.090395
#
#
# Mechanical properties :
#
#
# Convention : Reuss Voigt Hill
#
# Bulk Modulus (GPa) = 21.32287 26.08197 23.70242
# Shear Modulus (GPa) = 17.23833 23.19670 20.21751
#
# Velocity S-wave (km/s) = 2.98980 3.46823 3.23787
# Velocity P-wave (km/s) = 4.79328 5.43718 5.12535
#
# Compressibility (1/GPa) = 0.04689800
#
# Stress axis : x y z
#
# Youngs Moduli (GPa) = 41.40608 79.16913 33.49055
#
# Poissons Ratio (x) = 0.24791 0.11575
# Poissons Ratio (y) = 0.12966 0.10998
# Poissons Ratio (z) = 0.14311 0.25999
#
# Static dielectric constant tensor:
#      x y z
#    x 3.315240 0.000000 0.074750 
#    y 0.000000 3.572230 0.000000 
#    z 0.074750 0.000000 3.459780 
# 
# 
# High freq. dielectric constant tensor:
#      x y z
#    x 1.731700 0.000000 0.010560 
#    y 0.000000 1.762070 0.000000 
#    z 0.010560 0.000000 1.751240 
# 
# From -- ./inp_files/15395.got.cif
#   From: 2010.03.12/outbox.cif.g09.slc.cpg/sg3_8_cif.got.tgz:15395.got - 2010.03.31 09:20:49.
