data_PCOD8045900
_publ_section_title
;
Structure prediction by ZEFSAII (Michael W. Deem and Ramdas Pophale) SiO2 
 PCOD8045900
Probable space group: P 21
;
_chemical_formula_sum "Si O2"
_cell_formula_units_Z 16
_cell_length_a 25.202322
_cell_length_b 5.123612
_cell_length_c 10.338637
_cell_angle_alpha 90.000000
_cell_angle_beta 145.667700
_cell_angle_gamma 90.000000
_cell_volume 752.926813
_symmetry_space_group_name_H-M "P 21"
_symmetry_group_IT_number 4
_symmetry_cell_setting 'monoclinic'
loop_
_space_group_symop_operation_xyz
x,y,z
-x,1/2+y,-z
loop_
_atom_site_type_symbol
_atom_site_label
_atom_site_fract_x
_atom_site_fract_y
_atom_site_fract_z
Si Si1 0.643616 0.668480 0.133661
Si Si2 0.503256 0.387856 0.329936
Si Si3 0.254367 0.683666 0.759431
Si Si4 0.937015 0.082291 0.225554
Si Si5 0.057937 0.582904 0.465681
Si Si6 0.358492 0.065366 0.579098
Si Si7 0.261426 0.545632 0.280033
Si Si8 0.647400 0.123695 0.788942
O O1 0.723608 0.455717 0.265235
O O2 0.610191 0.612057 0.211006
O O3 0.687406 0.955227 0.194631
O O4 0.548469 0.651767 0.853466
O O5 0.543690 0.598812 0.306894
O O6 0.596500 0.336871 0.599347
O O7 0.429579 0.464835 0.289257
O O8 0.143975 0.618999 0.538528
O O9 0.282117 0.740185 0.964147
O O10 0.012915 0.303276 0.344951
O O11 0.906762 0.101255 0.314980
O O12 0.848146 0.119394 0.951803
O O13 0.981037 0.802603 0.282823
O O14 0.278442 0.280861 0.392731
O O15 0.316360 0.778357 0.464089
O O16 0.295064 0.463480 0.202732
#
# Coordination Sequence:
#
# PCOD8045900 Si02
#       8
#     2   2   2   2   2   2   2   2
#     4  11  25  41  62  87 120 172 214 254 297 360
#     4  10  22  38  62  88 126 158 206 262 306 368
#     4  11  22  40  64  90 127 159 200 258 309 377
#     4  10  20  36  61  96 128 156 193 248 316 385
#     4  10  20  36  61  96 128 156 193 248 316 385
#     4  11  25  41  62  87 120 172 214 254 297 360
#     4  11  22  40  64  90 127 159 200 258 309 377
#     4  10  20  36  58  94 118 156 192 248 326 364
#
# _framework density 21.250406000000002
#
# number of rings (size 3 to 8) (size 9 to 14) (size 15 to 20)
#    0.000    1.500    1.250    3.750    0.000   10.000 
#    0.000    0.000    0.000   15.000    0.000    0.000 
#    0.000    0.000    0.000    0.000    0.000    0.000 
#
# Total GULP energy -198240.301874 kJ/mol
# GULP energy per Si atom -12390.018867 kJ/mol
# Density = 2.120204 g / cm^3
# Si number density = 21.250406 Si / 1000 Ang^3
#
#
#
# Elastic Constant Matrix: (Units=GPa)
#
#
# Indices 1 2 3 4 5 6 
#
# 1 89.5663 19.3487 38.5977 0.0000 -13.9169 0.0000
# 2 19.3487 92.0812 8.6955 0.0000 -3.2503 0.0000
# 3 38.5977 8.6955 42.9287 0.0000 9.4962 0.0000
# 4 0.0000 0.0000 0.0000 23.2108 0.0000 -0.5135
# 5 -13.9169 -3.2503 9.4962 0.0000 31.0578 0.0000
# 6 0.0000 0.0000 0.0000 -0.5135 0.0000 26.1439
#
#
#
# Elastic Compliance Matrix: (Units=1/GPa)
#
#
# Indices 1 2 3 4 5 6 
#
# 1 0.027161 -0.002284 -0.028527 0.000000 0.020654 0.000000
# 2 -0.002284 0.011378 -0.000309 0.000000 0.000262 0.000000
# 3 -0.028527 -0.000309 0.055602 0.000000 -0.029816 0.000000
# 4 0.000000 0.000000 0.000000 0.043102 0.000000 0.000847
# 5 0.020654 0.000262 -0.029816 0.000000 0.050597 0.000000
# 6 0.000000 0.000000 0.000000 0.000847 0.000000 0.038267
#
#
# Mechanical properties :
#
#
# Convention : Reuss Voigt Hill
#
# Bulk Modulus (GPa) = 31.34725 39.76221 35.55473
# Shear Modulus (GPa) = 16.72349 26.61145 21.66747
#
# Velocity S-wave (km/s) = 2.80835 3.54260 3.19662
# Velocity P-wave (km/s) = 5.02982 5.95695 5.51291
#
# Compressibility (1/GPa) = 0.03190072
#
# Stress axis : x y z
#
# Youngs Moduli (GPa) = 36.81728 87.88606 17.98511
#
# Poissons Ratio (x) = 0.20076 0.51306
# Poissons Ratio (y) = 0.08410 0.00555
# Poissons Ratio (z) = 1.05029 0.02713
#
# Static dielectric constant tensor:
#      x y z
#    x 4.028950 0.000000 -0.024110 
#    y 0.000000 3.808840 0.000000 
#    z -0.024110 0.000000 4.066550 
# 
# 
# High freq. dielectric constant tensor:
#      x y z
#    x 1.831950 0.000000 0.005120 
#    y 0.000000 1.823650 0.000000 
#    z 0.005120 0.000000 1.829990 
# 
# From -- ./inp_files/9809.got.cif
#   From: 2010.03.12/outbox.cif.g09.slc.cpg/sg4_5_cif.got.tgz:9809.got - 2010.03.31 09:31:35.
