data_PCOD8045113
_publ_section_title
;
Structure prediction by ZEFSAII (Michael W. Deem and Ramdas Pophale) SiO2 
 PCOD8045113
Probable space group: P 2
;
_chemical_formula_sum "Si O2"
_cell_formula_units_Z 14
_cell_length_a 8.866488
_cell_length_b 9.372885
_cell_length_c 11.346567
_cell_angle_alpha 90.000000
_cell_angle_beta 39.484491
_cell_angle_gamma 90.000000
_cell_volume 599.594002
_symmetry_space_group_name_H-M "P 2"
_symmetry_group_IT_number 3
_symmetry_cell_setting 'monoclinic'
loop_
_space_group_symop_operation_xyz
x,y,z
-x,y,-z
loop_
_atom_site_type_symbol
_atom_site_label
_atom_site_fract_x
_atom_site_fract_y
_atom_site_fract_z
Si Si1 0.999384 0.497710 0.248813
Si Si2 0.000000 0.593412 0.500000
Si Si3 0.500000 0.588896 0.500000
Si Si4 0.347210 0.105134 0.349417
Si Si5 0.260868 0.779524 0.077328
Si Si6 0.802234 0.251303 0.021156
Si Si7 0.883507 0.071109 0.750727
Si Si8 0.566680 0.785321 0.680815
O O1 0.726990 0.482629 0.369979
O O2 0.026478 0.483029 0.374312
O O3 0.067087 0.658667 0.182183
O O4 0.178466 0.395744 0.068054
O O5 0.225887 0.698778 0.375609
O O6 0.482911 0.691442 0.622224
O O7 0.556333 0.221911 0.240823
O O8 0.318267 0.098764 0.225191
O O9 0.115867 0.154423 0.562041
O O10 0.369149 0.947136 0.393343
O O11 0.113436 0.900734 0.235772
O O12 0.500000 0.732566 0.000000
O O13 0.337263 0.815866 0.899405
O O14 0.825193 0.123779 0.915691
O O15 0.000000 0.248929 0.000000
#
# Coordination Sequence:
#
# PCOD8045113 Si02
#       8
#     2   1   1   2   2   2   2   2
#     4  11  26  46  69 101 142 183 238 290 349 422
#     4  10  20  44  74 110 134 182 234 296 358 412
#     4  10  26  44  68 106 146 188 232 286 364 424
#     4  11  23  45  77 100 139 179 232 293 350 411
#     4  12  21  40  77 110 140 174 232 300 349 413
#     4  12  29  47  65  99 144 189 233 285 349 421
#     4  11  23  47  74 104 136 179 234 290 349 416
#     4  11  21  41  73 110 139 178 228 297 353 415
#
# _framework density 23.349133999999999
#
# number of rings (size 3 to 8) (size 9 to 14) (size 15 to 20)
#    0.000    0.857    4.286    3.000    2.000    6.286 
#    2.571    0.000    0.000    0.000    0.000    0.000 
#    0.000    0.000    0.000    0.000    0.000    0.000 
#
# Total GULP energy -173475.159847 kJ/mol
# GULP energy per Si atom -12391.082846 kJ/mol
# Density = 2.329599 g / cm^3
# Si number density = 23.349134 Si / 1000 Ang^3
#
#
#
# Elastic Constant Matrix: (Units=GPa)
#
#
# Indices 1 2 3 4 5 6 
#
# 1 103.1162 35.6352 44.1029 0.0000 -2.3590 0.0000
# 2 35.6352 77.2062 28.8416 0.0000 -23.9565 0.0000
# 3 44.1029 28.8416 116.1923 0.0000 -8.4923 0.0000
# 4 0.0000 0.0000 0.0000 48.0611 0.0000 2.5640
# 5 -2.3590 -23.9565 -8.4923 0.0000 26.9538 0.0000
# 6 0.0000 0.0000 0.0000 2.5640 0.0000 22.9263
#
#
#
# Elastic Compliance Matrix: (Units=1/GPa)
#
#
# Indices 1 2 3 4 5 6 
#
# 1 0.013529 -0.006620 -0.003926 0.000000 -0.005937 0.000000
# 2 -0.006620 0.022500 -0.001692 0.000000 0.018885 0.000000
# 3 -0.003926 -0.001692 0.010626 0.000000 0.001501 0.000000
# 4 0.000000 0.000000 0.000000 0.020932 0.000000 -0.002341
# 5 -0.005937 0.018885 0.001501 0.000000 0.053839 0.000000
# 6 0.000000 0.000000 0.000000 -0.002341 0.000000 0.043880
#
#
# Mechanical properties :
#
#
# Convention : Reuss Voigt Hill
#
# Bulk Modulus (GPa) = 45.08661 57.07491 51.08076
# Shear Modulus (GPa) = 25.35834 32.11725 28.73780
#
# Velocity S-wave (km/s) = 3.29910 3.71283 3.51206
# Velocity P-wave (km/s) = 5.81926 6.54808 6.19440
#
# Compressibility (1/GPa) = 0.02217953
#
# Stress axis : x y z
#
# Youngs Moduli (GPa) = 73.91666 44.44476 94.10713
#
# Poissons Ratio (x) = 0.29422 0.36944
# Poissons Ratio (y) = 0.48932 0.15923
# Poissons Ratio (z) = 0.29018 0.07520
#
# Static dielectric constant tensor:
#      x y z
#    x 4.237850 0.000000 0.147500 
#    y 0.000000 3.958900 0.000000 
#    z 0.147500 0.000000 4.832190 
# 
# 
# High freq. dielectric constant tensor:
#      x y z
#    x 1.913620 0.000000 0.007050 
#    y 0.000000 1.910970 0.000000 
#    z 0.007050 0.000000 1.942970 
# 
# From -- ./inp_files/7355.got.cif
#   From: 2010.03.12/outbox.cif.g09.slc.cpg/sg3_4_cif.got.tgz:7355.got - 2010.03.31 09:20:49.
