data_PCOD8045010
_publ_section_title
;
Structure prediction by ZEFSAII (Michael W. Deem and Ramdas Pophale) SiO2 
 PCOD8045010
Probable space group: P 2
;
_chemical_formula_sum "Si O2"
_cell_formula_units_Z 14
_cell_length_a 7.921122
_cell_length_b 16.325315
_cell_length_c 9.189257
_cell_angle_alpha 90.000000
_cell_angle_beta 147.352599
_cell_angle_gamma 90.000000
_cell_volume 641.053104
_symmetry_space_group_name_H-M "P 2"
_symmetry_group_IT_number 3
_symmetry_cell_setting 'monoclinic'
loop_
_space_group_symop_operation_xyz
x,y,z
-x,y,-z
loop_
_atom_site_type_symbol
_atom_site_label
_atom_site_fract_x
_atom_site_fract_y
_atom_site_fract_z
Si Si1 0.202696 0.575420 0.389231
Si Si2 0.835867 0.893443 0.037252
Si Si3 0.660332 0.990029 0.459964
Si Si4 0.851880 0.731109 0.237547
Si Si5 0.354749 0.329587 0.236410
Si Si6 0.638829 0.150579 0.755277
Si Si7 0.578896 0.485990 0.890434
O O1 0.500000 0.577251 0.500000
O O2 0.328681 0.547591 0.637532
O O3 0.059371 0.665356 0.303198
O O4 0.938352 0.515462 0.130221
O O5 0.839756 0.809690 0.125820
O O6 0.983273 0.965254 0.247782
O O7 0.480410 0.920769 0.748647
O O8 0.000000 0.882853 0.000000
O O9 0.500000 0.991275 0.500000
O O10 0.583509 0.079876 0.334037
O O11 0.000000 0.754074 0.500000
O O12 0.500000 0.696446 0.000000
O O13 0.500000 0.338414 0.500000
O O14 0.385976 0.238878 0.182681
O O15 0.494314 0.396752 0.229198
O O16 0.000000 0.351733 0.000000
O O17 0.500000 0.172562 0.500000
O O18 0.000000 0.119775 0.000000
O O19 0.500000 0.482574 0.000000
#
# Coordination Sequence:
#
# PCOD8045010 Si02
#       7
#     2   2   2   2   2   2   2
#     4  12  26  44  66  89 116 154 203 250 295 353
#     4  10  21  36  58  86 115 151 197 243 288 345
#     4   9  16  30  53  84 117 148 191 246 293 333
#     4  12  26  44  63  88 124 159 196 243 304 363
#     4  10  20  35  57  86 119 156 201 246 291 347
#     4   9  16  28  50  83 118 151 193 248 297 336
#     4  12  24  41  63  90 124 159 196 242 303 361
#
# _framework density 21.839065999999999
#
# number of rings (size 3 to 8) (size 9 to 14) (size 15 to 20)
#    0.000    1.429    0.000    8.143    0.000    4.000 
#    0.000    0.000    0.000    2.571    0.000    0.000 
#    0.000    0.000    0.000    0.000    0.000    0.000 
#
# Total GULP energy -173490.043790 kJ/mol
# GULP energy per Si atom -12392.145985 kJ/mol
# Density = 2.178936 g / cm^3
# Si number density = 21.839066 Si / 1000 Ang^3
#
#
#
# Elastic Constant Matrix: (Units=GPa)
#
#
# Indices 1 2 3 4 5 6 
#
# 1 57.6553 43.4371 25.2333 0.0000 0.0822 0.0000
# 2 43.4371 152.1339 35.7517 0.0000 -11.2441 0.0000
# 3 25.2333 35.7517 130.4676 0.0000 0.1004 0.0000
# 4 0.0000 0.0000 0.0000 39.9461 0.0000 -2.3145
# 5 0.0822 -11.2441 0.1004 0.0000 31.2053 0.0000
# 6 0.0000 0.0000 0.0000 -2.3145 0.0000 7.9363
#
#
#
# Elastic Compliance Matrix: (Units=1/GPa)
#
#
# Indices 1 2 3 4 5 6 
#
# 1 0.023193 -0.006130 -0.002804 0.000000 -0.002261 0.000000
# 2 -0.006130 0.008853 -0.001243 0.000000 0.003210 0.000000
# 3 -0.002804 -0.001243 0.008548 0.000000 -0.000468 0.000000
# 4 0.000000 0.000000 0.000000 0.025464 0.000000 0.007426
# 5 -0.002261 0.003210 -0.000468 0.000000 0.033210 0.000000
# 6 0.000000 0.000000 0.000000 0.007426 0.000000 0.128170
#
#
# Mechanical properties :
#
#
# Convention : Reuss Voigt Hill
#
# Bulk Modulus (GPa) = 49.40748 61.01120 55.20934
# Shear Modulus (GPa) = 19.64336 31.53984 25.59160
#
# Velocity S-wave (km/s) = 3.00235 3.80438 3.42691
# Velocity P-wave (km/s) = 5.88994 6.87714 6.40260
#
# Compressibility (1/GPa) = 0.02023985
#
# Stress axis : x y z
#
# Youngs Moduli (GPa) = 43.11559 112.95901 116.98661
#
# Poissons Ratio (x) = 0.69247 0.32805
# Poissons Ratio (y) = 0.26431 0.14538
# Poissons Ratio (z) = 0.12090 0.14038
#
# Static dielectric constant tensor:
#      x y z
#    x 3.475880 0.000000 0.139260 
#    y 0.000000 4.362600 0.000000 
#    z 0.139260 0.000000 4.530840 
# 
# 
# High freq. dielectric constant tensor:
#      x y z
#    x 1.805450 0.000000 0.002850 
#    y 0.000000 1.876520 0.000000 
#    z 0.002850 0.000000 1.890840 
# 
# From -- ./inp_files/6247.got.cif
#   From: 2010.03.12/outbox.cif.g09.slc.cpg/sg3_4_cif.got.tgz:6247.got - 2010.03.31 09:20:49.
