data_PCOD8045434
_publ_section_title
;
Structure prediction by ZEFSAII (Michael W. Deem and Ramdas Pophale) SiO2 
 PCOD8045434
Probable space group: P 2
;
_chemical_formula_sum "Si O2"
_cell_formula_units_Z 13
_cell_length_a 8.523297
_cell_length_b 5.035230
_cell_length_c 14.244572
_cell_angle_alpha 90.000000
_cell_angle_beta 113.963447
_cell_angle_gamma 90.000000
_cell_volume 558.637074
_symmetry_space_group_name_H-M "P 2"
_symmetry_group_IT_number 3
_symmetry_cell_setting 'monoclinic'
loop_
_space_group_symop_operation_xyz
x,y,z
-x,y,-z
loop_
_atom_site_type_symbol
_atom_site_label
_atom_site_fract_x
_atom_site_fract_y
_atom_site_fract_z
Si Si1 0.319843 0.027490 0.916871
Si Si2 0.668596 0.120525 0.711084
Si Si3 0.690332 0.176284 0.296526
Si Si4 0.500000 0.847965 0.500000
Si Si5 0.797522 0.520892 0.026043
Si Si6 0.202459 0.684220 0.568368
Si Si7 0.820479 0.616668 0.830324
O O1 0.267430 0.117326 0.800318
O O2 0.196486 0.207302 0.951574
O O3 0.306696 0.710396 0.927115
O O4 0.500000 0.130783 0.000000
O O5 0.510765 0.125312 0.743655
O O6 0.765598 0.403435 0.737143
O O7 0.604354 0.048449 0.591941
O O8 0.799148 0.901640 0.779380
O O9 0.736567 0.474844 0.338469
O O10 0.797202 0.977874 0.388673
O O11 0.349925 0.676603 0.519453
O O12 0.989374 0.611883 0.087096
O O13 0.716226 0.572205 0.902426
O O14 0.000000 0.621189 0.500000
#
# Coordination Sequence:
#
# PCOD8045434 Si02
#       7
#     2   2   2   1   2   2   2
#     4  12  24  40  64  92 128 171 215 264 326 400
#     4  11  23  42  66  92 128 172 216 272 329 393
#     4  11  24  43  65  96 131 169 220 271 331 399
#     4  10  26  44  70 102 130 178 236 270 334 414
#     4  11  24  40  62  96 127 166 218 265 324 407
#     4  11  25  46  70  97 136 175 220 285 337 390
#     4  11  23  41  64  92 131 168 211 273 335 386
#
# _framework density 23.270918999999999
#
# number of rings (size 3 to 8) (size 9 to 14) (size 15 to 20)
#    0.000    0.923    0.000    7.385    0.000   11.692 
#    0.000    1.538    0.000    0.000    0.000    0.000 
#    0.000    0.000    0.000    0.000    0.000    0.000 
#
# Total GULP energy -161062.683430 kJ/mol
# GULP energy per Si atom -12389.437187 kJ/mol
# Density = 2.321795 g / cm^3
# Si number density = 23.270919 Si / 1000 Ang^3
#
#
#
# Elastic Constant Matrix: (Units=GPa)
#
#
# Indices 1 2 3 4 5 6 
#
# 1 77.2723 16.3484 35.8073 0.0000 1.0878 0.0000
# 2 16.3484 92.1704 8.8097 0.0000 3.8782 0.0000
# 3 35.8073 8.8097 110.9367 0.0000 0.9315 0.0000
# 4 0.0000 0.0000 0.0000 32.6184 0.0000 4.9032
# 5 1.0878 3.8782 0.9315 0.0000 35.6175 0.0000
# 6 0.0000 0.0000 0.0000 4.9032 0.0000 31.5521
#
#
#
# Elastic Compliance Matrix: (Units=1/GPa)
#
#
# Indices 1 2 3 4 5 6 
#
# 1 0.015694 -0.002313 -0.004881 0.000000 -0.000100 0.000000
# 2 -0.002313 0.011322 -0.000143 0.000000 -0.001158 0.000000
# 3 -0.004881 -0.000143 0.010602 0.000000 -0.000113 0.000000
# 4 0.000000 0.000000 0.000000 0.031391 0.000000 -0.004878
# 5 -0.000100 -0.001158 -0.000113 0.000000 0.028208 0.000000
# 6 0.000000 0.000000 0.000000 -0.004878 0.000000 0.032452
#
#
# Mechanical properties :
#
#
# Convention : Reuss Voigt Hill
#
# Bulk Modulus (GPa) = 43.58383 44.70114 44.14249
# Shear Modulus (GPa) = 32.89687 34.58520 33.74104
#
# Velocity S-wave (km/s) = 3.76393 3.85931 3.81192
# Velocity P-wave (km/s) = 6.13670 6.25378 6.19551
#
# Compressibility (1/GPa) = 0.02294429
#
# Stress axis : x y z
#
# Youngs Moduli (GPa) = 63.71937 88.32280 94.32271
#
# Poissons Ratio (x) = 0.20428 0.46039
# Poissons Ratio (y) = 0.14738 0.01347
# Poissons Ratio (z) = 0.31102 0.01262
#
# Static dielectric constant tensor:
#      x y z
#    x 4.796710 0.000000 -0.187600 
#    y 0.000000 4.291840 0.000000 
#    z -0.187600 0.000000 4.341110 
# 
# 
# High freq. dielectric constant tensor:
#      x y z
#    x 1.909560 0.000000 0.009060 
#    y 0.000000 1.930180 0.000000 
#    z 0.009060 0.000000 1.933630 
# 
# From -- ./inp_files/13256.got.cif
#   From: 2010.03.12/outbox.cif.g09.slc.cpg/sg3_7_cif.got.tgz:13256.got - 2010.03.31 09:20:49.
