data_PCOD8045470
_publ_section_title
;
Structure prediction by ZEFSAII (Michael W. Deem and Ramdas Pophale) SiO2 
 PCOD8045470
Probable space group: P 2
;
_chemical_formula_sum "Si O2"
_cell_formula_units_Z 16
_cell_length_a 8.209242
_cell_length_b 18.044377
_cell_length_c 9.208144
_cell_angle_alpha 90.000000
_cell_angle_beta 146.764158
_cell_angle_gamma 90.000000
_cell_volume 747.594690
_symmetry_space_group_name_H-M "P 2"
_symmetry_group_IT_number 3
_symmetry_cell_setting 'monoclinic'
loop_
_space_group_symop_operation_xyz
x,y,z
-x,y,-z
loop_
_atom_site_type_symbol
_atom_site_label
_atom_site_fract_x
_atom_site_fract_y
_atom_site_fract_z
Si Si1 0.804607 0.627270 0.498729
Si Si2 0.169778 0.404138 0.777835
Si Si3 0.659465 0.047363 0.970368
Si Si4 0.336919 0.882490 0.033030
Si Si5 0.168518 0.795943 0.474554
Si Si6 0.814492 0.544633 0.002797
Si Si7 0.720164 0.125588 0.541125
Si Si8 0.173417 0.289403 0.281042
O O1 0.721068 0.712075 0.467357
O O2 0.515337 0.574283 0.279790
O O3 0.000000 0.616271 0.500000
O O4 0.004509 0.609741 0.786782
O O5 0.000000 0.420948 0.500000
O O6 0.998558 0.342803 0.740545
O O7 0.500000 0.372415 0.000000
O O8 0.202739 0.477869 0.896646
O O9 0.974092 0.084160 0.221647
O O10 0.500000 0.031750 0.000000
O O11 0.442672 0.104454 0.728077
O O12 0.717930 0.965779 0.947498
O O13 0.537970 0.845194 0.305185
O O14 0.500000 0.882787 0.000000
O O15 0.039870 0.832310 0.803783
O O16 0.000000 0.799504 0.500000
O O17 0.000000 0.518135 0.000000
O O18 0.500000 0.096375 0.500000
O O19 0.780295 0.212725 0.599164
O O20 0.500000 0.324714 0.500000
O O21 0.000000 0.277305 0.000000
#
# Coordination Sequence:
#
# PCOD8045470 Si02
#       8
#     2   2   2   2   2   2   2   2
#     4  11  22  39  65  93 120 157 211 265 306 358
#     4  12  26  44  68  98 127 158 204 265 312 361
#     4  11  22  37  62  92 123 160 210 264 306 359
#     4   9  17  31  53  85 119 153 198 254 311 361
#     4   9  17  31  55  85 116 152 199 255 310 361
#     4  12  25  42  63  89 127 169 202 243 309 380
#     4  11  23  41  62  88 125 167 205 247 308 378
#     4  11  24  45  68  92 125 168 209 251 310 382
#
# _framework density 21.401971
#
# number of rings (size 3 to 8) (size 9 to 14) (size 15 to 20)
#    0.000    1.250    0.000    7.500    0.000    6.500 
#    0.000    0.000    0.000   15.000    0.000    0.000 
#    0.000    0.000    0.000    0.000    0.000    0.000 
#
# Total GULP energy -198361.595421 kJ/mol
# GULP energy per Si atom -12397.599714 kJ/mol
# Density = 2.135326 g / cm^3
# Si number density = 21.401971 Si / 1000 Ang^3
#
#
#
# Elastic Constant Matrix: (Units=GPa)
#
#
# Indices 1 2 3 4 5 6 
#
# 1 85.2208 51.1936 36.1524 0.0000 20.3217 0.0000
# 2 51.1936 132.4020 56.2286 0.0000 11.2120 0.0000
# 3 36.1524 56.2286 151.4697 0.0000 21.3053 0.0000
# 4 0.0000 0.0000 0.0000 39.8264 0.0000 18.0480
# 5 20.3217 11.2120 21.3053 0.0000 40.6411 0.0000
# 6 0.0000 0.0000 0.0000 18.0480 0.0000 32.2509
#
#
#
# Elastic Compliance Matrix: (Units=1/GPa)
#
#
# Indices 1 2 3 4 5 6 
#
# 1 0.017097 -0.005600 -0.001098 0.000000 -0.006429 0.000000
# 2 -0.005600 0.010824 -0.002867 0.000000 0.001317 0.000000
# 3 -0.001098 -0.002867 0.008356 0.000000 -0.003041 0.000000
# 4 0.000000 0.000000 0.000000 0.033640 0.000000 -0.018825
# 5 -0.006429 0.001317 -0.003041 0.000000 0.029051 0.000000
# 6 0.000000 0.000000 0.000000 -0.018825 0.000000 0.041542
#
#
# Mechanical properties :
#
#
# Convention : Reuss Voigt Hill
#
# Bulk Modulus (GPa) = 58.31579 72.91575 65.61577
# Shear Modulus (GPa) = 30.23818 37.57821 33.90820
#
# Velocity S-wave (km/s) = 3.76289 4.19481 3.98471
# Velocity P-wave (km/s) = 6.79604 7.58983 7.20388
#
# Compressibility (1/GPa) = 0.01714801
#
# Stress axis : x y z
#
# Youngs Moduli (GPa) = 58.49039 92.38773 119.67715
#
# Poissons Ratio (x) = 0.51738 0.13135
# Poissons Ratio (y) = 0.32755 0.34308
# Poissons Ratio (z) = 0.06420 0.26485
#
# Static dielectric constant tensor:
#      x y z
#    x 3.857150 0.000000 0.150190 
#    y 0.000000 3.945520 0.000000 
#    z 0.150190 0.000000 4.226570 
# 
# 
# High freq. dielectric constant tensor:
#      x y z
#    x 1.825720 0.000000 0.012560 
#    y 0.000000 1.852670 0.000000 
#    z 0.012560 0.000000 1.858440 
# 
# From -- ./inp_files/6292.got.cif
#   From: 2010.03.12/outbox.cif.g09.slc.cpg/sg3_4_cif.got.tgz:6292.got - 2010.03.31 09:20:49.
