data_PCOD8045780
_publ_section_title
;
Structure prediction by ZEFSAII (Michael W. Deem and Ramdas Pophale) SiO2 
 PCOD8045780
Probable space group: P 21
;
_chemical_formula_sum "Si O2"
_cell_formula_units_Z 16
_cell_length_a 7.659542
_cell_length_b 14.634387
_cell_length_c 8.853118
_cell_angle_alpha 90.000000
_cell_angle_beta 62.940749
_cell_angle_gamma 90.000000
_cell_volume 883.741697
_symmetry_space_group_name_H-M "P 21"
_symmetry_group_IT_number 4
_symmetry_cell_setting 'monoclinic'
loop_
_space_group_symop_operation_xyz
x,y,z
-x,1/2+y,-z
loop_
_atom_site_type_symbol
_atom_site_label
_atom_site_fract_x
_atom_site_fract_y
_atom_site_fract_z
Si Si1 0.156694 0.756060 0.852847
Si Si2 0.119433 0.750147 0.533109
Si Si3 0.682924 0.979347 0.224817
Si Si4 0.865193 0.612089 0.449543
Si Si5 0.259139 0.931843 0.326205
Si Si6 0.564955 0.150277 0.437910
Si Si7 0.041750 0.585921 0.067115
Si Si8 0.101362 0.931273 0.061057
O O1 0.048094 0.771042 0.733324
O O2 0.370813 0.712108 0.732822
O O3 0.029040 0.688592 0.007715
O O4 0.187133 0.850407 0.926242
O O5 0.147328 0.844326 0.434020
O O6 0.324107 0.691729 0.458306
O O7 0.954380 0.691165 0.516890
O O8 0.491308 0.919878 0.264439
O O9 0.869515 0.914939 0.193924
O O10 0.640588 0.046637 0.382568
O O11 0.745591 0.040323 0.053282
O O12 0.822362 0.523540 0.566359
O O13 0.667916 0.652349 0.451576
O O14 0.012563 0.585500 0.257697
O O15 0.229515 0.939147 0.159807
O O16 0.877216 0.524778 0.044833
#
# Coordination Sequence:
#
# PCOD8045780 Si02
#       8
#     2   2   2   2   2   2   2   2
#     4   9  18  38  55  76 116 146 182 229 282 330
#     4  10  21  36  57  88 110 148 194 230 277 338
#     4   8  19  38  56  78 112 148 186 234 279 331
#     4  11  20  38  61  85 113 149 189 235 285 332
#     4  11  21  35  60  83 113 149 194 231 278 342
#     4   8  19  38  55  80 115 146 183 238 279 328
#     4   9  19  36  59  79 110 149 181 228 284 332
#     4  10  19  37  57  81 113 149 185 233 284 327
#
# _framework density 18.104838999999998
#
# number of rings (size 3 to 8) (size 9 to 14) (size 15 to 20)
#    1.500    1.000    0.000    3.000    0.000    2.000 
#    4.500    0.000    0.000    0.000    0.000    0.000 
#    0.000    0.000    0.000    0.000    0.000    0.000 
#
# Total GULP energy -198230.628646 kJ/mol
# GULP energy per Si atom -12389.414290 kJ/mol
# Density = 1.806363 g / cm^3
# Si number density = 18.104839 Si / 1000 Ang^3
#
#
#
# Elastic Constant Matrix: (Units=GPa)
#
#
# Indices 1 2 3 4 5 6 
#
# 1 54.1781 10.5177 -4.4674 0.0000 -1.2263 0.0000
# 2 10.5177 64.4294 13.0990 0.0000 0.5112 0.0000
# 3 -4.4674 13.0990 61.2873 0.0000 10.4386 0.0000
# 4 0.0000 0.0000 0.0000 29.4461 0.0000 4.7141
# 5 -1.2263 0.5112 10.4386 0.0000 26.3218 0.0000
# 6 0.0000 0.0000 0.0000 4.7141 0.0000 26.3973
#
#
#
# Elastic Compliance Matrix: (Units=1/GPa)
#
#
# Indices 1 2 3 4 5 6 
#
# 1 0.019336 -0.003596 0.002159 0.000000 0.000115 0.000000
# 2 -0.003596 0.016927 -0.004070 0.000000 0.001118 0.000000
# 3 0.002159 -0.004070 0.018567 0.000000 -0.007184 0.000000
# 4 0.000000 0.000000 0.000000 0.034960 0.000000 -0.006243
# 5 0.000115 0.001118 -0.007184 0.000000 0.040824 0.000000
# 6 0.000000 0.000000 0.000000 -0.006243 0.000000 0.038998
#
#
# Mechanical properties :
#
#
# Convention : Reuss Voigt Hill
#
# Bulk Modulus (GPa) = 22.82354 24.24371 23.53362
# Shear Modulus (GPa) = 25.61048 27.14941 26.37994
#
# Velocity S-wave (km/s) = 3.76515 3.87662 3.82129
# Velocity P-wave (km/s) = 5.61565 5.78424 5.70057
#
# Compressibility (1/GPa) = 0.04381442
#
# Stress axis : x y z
#
# Youngs Moduli (GPa) = 51.71596 59.07860 53.85771
#
# Poissons Ratio (x) = 0.21247 -0.11626
# Poissons Ratio (y) = 0.18599 0.21922
# Poissons Ratio (z) = -0.11163 0.24047
#
# Static dielectric constant tensor:
#      x y z
#    x 3.100980 0.000000 -0.012950 
#    y 0.000000 3.259700 0.000000 
#    z -0.012950 0.000000 3.158160 
# 
# 
# High freq. dielectric constant tensor:
#      x y z
#    x 1.676770 0.000000 0.001450 
#    y 0.000000 1.704680 0.000000 
#    z 0.001450 0.000000 1.691720 
# 
# From -- ./inp_files/6619.got.cif
#   From: 2010.03.12/outbox.cif.g09.slc.cpg/sg4_4_cif.got.tgz:6619.got - 2010.03.31 09:31:35.
