data_PCOD8045216
_publ_section_title
;
Structure prediction by ZEFSAII (Michael W. Deem and Ramdas Pophale) SiO2 
 PCOD8045216
Probable space group: P 2
;
_chemical_formula_sum "Si O2"
_cell_formula_units_Z 13
_cell_length_a 10.570384
_cell_length_b 6.211323
_cell_length_c 8.930091
_cell_angle_alpha 90.000000
_cell_angle_beta 105.650644
_cell_angle_gamma 90.000000
_cell_volume 564.576758
_symmetry_space_group_name_H-M "P 2"
_symmetry_group_IT_number 3
_symmetry_cell_setting 'monoclinic'
loop_
_space_group_symop_operation_xyz
x,y,z
-x,y,-z
loop_
_atom_site_type_symbol
_atom_site_label
_atom_site_fract_x
_atom_site_fract_y
_atom_site_fract_z
Si Si1 0.439866 0.846220 0.743343
Si Si2 0.071827 0.251111 0.386893
Si Si3 0.698923 0.541131 0.529097
Si Si4 0.500000 0.181980 0.500000
Si Si5 0.162344 0.872576 0.230043
Si Si6 0.937275 0.542574 0.130316
Si Si7 0.696800 0.805688 0.006600
O O1 0.377820 0.647263 0.633421
O O2 0.338609 0.920237 0.845123
O O3 0.472575 0.040770 0.640623
O O4 0.566306 0.753390 0.870163
O O5 0.161204 0.446560 0.479047
O O6 0.000000 0.128945 0.500000
O O7 0.954685 0.353284 0.253815
O O8 0.162483 0.086655 0.327132
O O9 0.620922 0.339718 0.573880
O O10 0.722989 0.718868 0.665834
O O11 0.019964 0.760610 0.193648
O O12 0.205335 0.938479 0.073917
O O13 0.781498 0.589740 0.068869
O O14 0.000000 0.445875 0.000000
#
# Coordination Sequence:
#
# PCOD8045216 Si02
#       7
#     2   2   2   1   2   2   2
#     4  11  23  40  67  95 126 168 210 259 313 375
#     4  11  23  39  66  98 125 165 214 260 315 376
#     4  11  23  42  66  93 127 164 211 267 315 369
#     4  12  24  42  66  96 126 166 214 258 318 380
#     4  10  22  42  66  90 126 168 210 265 318 369
#     4   9  21  40  62  91 129 170 210 259 313 369
#     4  10  21  42  63  90 131 168 205 255 315 371
#
# _framework density 23.026095999999999
#
# number of rings (size 3 to 8) (size 9 to 14) (size 15 to 20)
#    0.000    1.538    0.000    5.077    0.000    6.769 
#    0.000   13.846    0.000    0.000    0.000    0.000 
#    0.000    0.000    0.000    0.000    0.000    0.000 
#
# Total GULP energy -161064.848378 kJ/mol
# GULP energy per Si atom -12389.603721 kJ/mol
# Density = 2.297369 g / cm^3
# Si number density = 23.026096 Si / 1000 Ang^3
#
#
#
# Elastic Constant Matrix: (Units=GPa)
#
#
# Indices 1 2 3 4 5 6 
#
# 1 104.6907 56.1881 77.0955 0.0000 -11.2935 0.0000
# 2 56.1881 108.2138 78.2152 0.0000 -9.6425 0.0000
# 3 77.0955 78.2152 152.5492 0.0000 -20.3194 0.0000
# 4 0.0000 0.0000 0.0000 22.0980 0.0000 -2.4864
# 5 -11.2935 -9.6425 -20.3194 0.0000 58.9323 0.0000
# 6 0.0000 0.0000 0.0000 -2.4864 0.0000 13.8766
#
#
#
# Elastic Compliance Matrix: (Units=1/GPa)
#
#
# Indices 1 2 3 4 5 6 
#
# 1 0.016227 -0.003973 -0.006117 0.000000 0.000350 0.000000
# 2 -0.003973 0.015657 -0.006058 0.000000 -0.000288 0.000000
# 3 -0.006117 -0.006058 0.013065 0.000000 0.002341 0.000000
# 4 0.000000 0.000000 0.000000 0.046184 0.000000 0.008275
# 5 0.000350 -0.000288 0.002341 0.000000 0.017796 0.000000
# 6 0.000000 0.000000 0.000000 0.008275 0.000000 0.073547
#
#
# Mechanical properties :
#
#
# Convention : Reuss Voigt Hill
#
# Bulk Modulus (GPa) = 79.03862 87.60571 83.32216
# Shear Modulus (GPa) = 22.83227 29.24503 26.03865
#
# Velocity S-wave (km/s) = 3.15236 3.56769 3.36643
# Velocity P-wave (km/s) = 6.90290 7.42294 7.16764
#
# Compressibility (1/GPa) = 0.01265204
#
# Stress axis : x y z
#
# Youngs Moduli (GPa) = 61.62704 63.86961 76.54249
#
# Poissons Ratio (x) = 0.25375 0.46821
# Poissons Ratio (y) = 0.24484 0.46371
# Poissons Ratio (z) = 0.37697 0.38693
#
# Static dielectric constant tensor:
#      x y z
#    x 4.440390 0.000000 0.020350 
#    y 0.000000 3.739430 0.000000 
#    z 0.020350 0.000000 4.423160 
# 
# 
# High freq. dielectric constant tensor:
#      x y z
#    x 1.926960 0.000000 0.004140 
#    y 0.000000 1.872580 0.000000 
#    z 0.004140 0.000000 1.923450 
# 
# From -- ./inp_files/6721.got.cif
#   From: 2010.03.12/outbox.cif.g09.slc.cpg/sg3_4_cif.got.tgz:6721.got - 2010.03.31 09:20:49.
