data_PCOD8045253
_publ_section_title
;
Structure prediction by ZEFSAII (Michael W. Deem and Ramdas Pophale) SiO2 
 PCOD8045253
Probable space group: P 2
;
_chemical_formula_sum "Si O2"
_cell_formula_units_Z 13
_cell_length_a 8.606892
_cell_length_b 9.874776
_cell_length_c 9.043431
_cell_angle_alpha 90.000000
_cell_angle_beta 51.458035
_cell_angle_gamma 90.000000
_cell_volume 601.170963
_symmetry_space_group_name_H-M "P 2"
_symmetry_group_IT_number 3
_symmetry_cell_setting 'monoclinic'
loop_
_space_group_symop_operation_xyz
x,y,z
-x,y,-z
loop_
_atom_site_type_symbol
_atom_site_label
_atom_site_fract_x
_atom_site_fract_y
_atom_site_fract_z
Si Si1 0.905356 0.107310 0.706303
Si Si2 0.107453 0.363188 0.092152
Si Si3 0.810901 0.553862 0.391223
Si Si4 0.185145 0.860202 0.626448
Si Si5 0.574127 0.534586 0.228637
Si Si6 0.500000 0.006867 0.000000
Si Si7 0.590503 0.840286 0.215434
O O1 0.912406 0.211127 0.838411
O O2 0.000000 0.167479 0.500000
O O3 0.670647 0.089595 0.813800
O O4 0.018157 0.967943 0.680436
O O5 0.002598 0.458740 0.275757
O O6 0.332414 0.420540 0.935965
O O7 0.000000 0.371724 0.000000
O O8 0.890642 0.707559 0.359469
O O9 0.684096 0.533814 0.319352
O O10 0.662518 0.508813 0.612105
O O11 0.380577 0.880048 0.411977
O O12 0.236815 0.875848 0.769561
O O13 0.602567 0.686203 0.151379
O O14 0.625437 0.924280 0.046619
#
# Coordination Sequence:
#
# PCOD8045253 Si02
#       7
#     2   2   2   2   2   1   2
#     4  12  27  45  58  89 140 174 212 265 316 383
#     4  10  22  39  63  94 121 168 218 254 310 384
#     4   8  16  35  65  93 121 154 206 271 315 365
#     4   9  19  41  70  94 124 166 215 263 323 380
#     4   8  16  35  61  95 126 149 205 267 311 372
#     4  12  26  40  60  92 134 166 208 268 322 368
#     4   9  19  39  68 100 123 163 210 265 323 379
#
# _framework density 21.624464
#
# number of rings (size 3 to 8) (size 9 to 14) (size 15 to 20)
#    0.000    2.462    1.538    1.846    4.308    1.231 
#    0.000    6.154    0.000    0.000    0.000    0.000 
#    0.000    0.000    0.000    0.000    0.000    0.000 
#
# Total GULP energy -161097.754069 kJ/mol
# GULP energy per Si atom -12392.134928 kJ/mol
# Density = 2.157525 g / cm^3
# Si number density = 21.624464 Si / 1000 Ang^3
#
#
#
# Elastic Constant Matrix: (Units=GPa)
#
#
# Indices 1 2 3 4 5 6 
#
# 1 50.2111 28.9378 33.4811 0.0000 -14.6408 0.0000
# 2 28.9378 112.4658 53.8669 0.0000 -21.2840 0.0000
# 3 33.4811 53.8669 113.6691 0.0000 -22.2414 0.0000
# 4 0.0000 0.0000 0.0000 27.4825 0.0000 -5.2504
# 5 -14.6408 -21.2840 -22.2414 0.0000 32.2064 0.0000
# 6 0.0000 0.0000 0.0000 -5.2504 0.0000 16.8993
#
#
#
# Elastic Compliance Matrix: (Units=1/GPa)
#
#
# Indices 1 2 3 4 5 6 
#
# 1 0.027171 -0.003266 -0.005158 0.000000 0.006631 0.000000
# 2 -0.003266 0.012471 -0.004192 0.000000 0.003862 0.000000
# 3 -0.005158 -0.004192 0.013068 0.000000 0.003910 0.000000
# 4 0.000000 0.000000 0.000000 0.038683 0.000000 0.012018
# 5 0.006631 0.003862 0.003910 0.000000 0.039316 0.000000
# 6 0.000000 0.000000 0.000000 0.012018 0.000000 0.062908
#
#
# Mechanical properties :
#
#
# Convention : Reuss Voigt Hill
#
# Bulk Modulus (GPa) = 36.39251 56.54639 46.46945
# Shear Modulus (GPa) = 21.92899 25.98832 23.95865
#
# Velocity S-wave (km/s) = 3.18792 3.47046 3.33219
# Velocity P-wave (km/s) = 5.51510 6.50114 6.02831
#
# Compressibility (1/GPa) = 0.02747818
#
# Stress axis : x y z
#
# Youngs Moduli (GPa) = 36.80381 80.18861 76.52050
#
# Poissons Ratio (x) = 0.26187 0.39470
# Poissons Ratio (y) = 0.12019 0.32079
# Poissons Ratio (z) = 0.18984 0.33617
#
# Static dielectric constant tensor:
#      x y z
#    x 3.605550 0.000000 -0.301330 
#    y 0.000000 3.791630 0.000000 
#    z -0.301330 0.000000 4.305320 
# 
# 
# High freq. dielectric constant tensor:
#      x y z
#    x 1.823840 0.000000 -0.014310 
#    y 0.000000 1.835070 0.000000 
#    z -0.014310 0.000000 1.861190 
# 
# From -- ./inp_files/5517.got.cif
#   From: 2010.03.12/outbox.cif.g09.slc.cpg/sg3_3_cif.got.tgz:5517.got - 2010.03.31 09:20:49.
