data_PCOD8045175
_publ_section_title
;
Structure prediction by ZEFSAII (Michael W. Deem and Ramdas Pophale) SiO2 
 PCOD8045175
Probable space group: P 2
;
_chemical_formula_sum "Si O2"
_cell_formula_units_Z 10
_cell_length_a 9.089464
_cell_length_b 11.040582
_cell_length_c 8.248348
_cell_angle_alpha 90.000000
_cell_angle_beta 147.080039
_cell_angle_gamma 90.000000
_cell_volume 449.852707
_symmetry_space_group_name_H-M "P 2"
_symmetry_group_IT_number 3
_symmetry_cell_setting 'monoclinic'
loop_
_space_group_symop_operation_xyz
x,y,z
-x,y,-z
loop_
_atom_site_type_symbol
_atom_site_label
_atom_site_fract_x
_atom_site_fract_y
_atom_site_fract_z
Si Si1 0.579011 0.890500 0.757472
Si Si2 0.079974 0.016066 0.392264
Si Si3 0.970093 0.480298 0.658511
Si Si4 0.530061 0.636620 0.841216
Si Si5 0.780891 0.244566 0.670007
O O1 0.500000 0.924197 0.500000
O O2 0.640595 0.748384 0.836702
O O3 0.310047 0.913415 0.614446
O O4 0.830831 0.972093 0.049275
O O5 0.000000 0.045347 0.500000
O O6 0.232371 0.136130 0.470530
O O7 0.000000 0.439910 0.500000
O O8 0.759391 0.590003 0.488220
O O9 0.876666 0.366971 0.674770
O O10 0.260058 0.526524 0.988747
O O11 0.500000 0.677273 0.000000
O O12 0.500000 0.266446 0.500000
O O13 0.000000 0.201529 0.000000
#
# Coordination Sequence:
#
# PCOD8045175 Si02
#       5
#     2   2   2   2   2
#     4  12  25  42  66  98 133 166 210 267 323 375
#     4  12  25  44  68  93 127 172 218 259 315 386
#     4  10  22  41  64  91 125 167 214 258 308 376
#     4  10  21  39  64  93 127 168 213 257 307 376
#     4  12  25  42  65  93 128 163 208 267 322 373
#
# _framework density 22.229496999999999
#
# number of rings (size 3 to 8) (size 9 to 14) (size 15 to 20)
#    0.000    0.800    0.000    8.400    0.000    4.000 
#    0.000    6.000    0.000    0.000    0.000    0.000 
#    0.000    0.000    0.000    0.000    0.000    0.000 
#
# Total GULP energy -124039.230155 kJ/mol
# GULP energy per Si atom -12403.923015 kJ/mol
# Density = 2.217890 g / cm^3
# Si number density = 22.229497 Si / 1000 Ang^3
#
#
#
# Elastic Constant Matrix: (Units=GPa)
#
#
# Indices 1 2 3 4 5 6 
#
# 1 122.9376 59.8218 33.5452 0.0000 17.3914 0.0000
# 2 59.8218 102.6436 19.7274 0.0000 -0.0111 0.0000
# 3 33.5452 19.7274 102.5437 0.0000 18.2964 0.0000
# 4 0.0000 0.0000 0.0000 23.0482 0.0000 6.9963
# 5 17.3914 -0.0111 18.2964 0.0000 36.0712 0.0000
# 6 0.0000 0.0000 0.0000 6.9963 0.0000 46.5505
#
#
#
# Elastic Compliance Matrix: (Units=1/GPa)
#
#
# Indices 1 2 3 4 5 6 
#
# 1 0.012865 -0.007133 -0.001901 0.000000 -0.005241 0.000000
# 2 -0.007133 0.014111 -0.001095 0.000000 0.003999 0.000000
# 3 -0.001901 -0.001095 0.011458 0.000000 -0.004895 0.000000
# 4 0.000000 0.000000 0.000000 0.045461 0.000000 -0.006833
# 5 -0.005241 0.003999 -0.004895 0.000000 0.032734 0.000000
# 6 0.000000 0.000000 0.000000 -0.006833 0.000000 0.022509
#
#
# Mechanical properties :
#
#
# Convention : Reuss Voigt Hill
#
# Bulk Modulus (GPa) = 55.01843 61.59041 58.30442
# Shear Modulus (GPa) = 30.21962 35.46934 32.84448
#
# Velocity S-wave (km/s) = 3.69106 3.99883 3.84802
# Velocity P-wave (km/s) = 6.55508 7.00625 6.78442
#
# Compressibility (1/GPa) = 0.01817573
#
# Stress axis : x y z
#
# Youngs Moduli (GPa) = 77.72744 70.86864 87.27549
#
# Poissons Ratio (x) = 0.50553 0.16594
# Poissons Ratio (y) = 0.55445 0.09553
# Poissons Ratio (z) = 0.14778 0.07757
#
# Static dielectric constant tensor:
#      x y z
#    x 4.026780 0.000000 0.081770 
#    y 0.000000 3.823070 0.000000 
#    z 0.081770 0.000000 4.107590 
# 
# 
# High freq. dielectric constant tensor:
#      x y z
#    x 1.882480 0.000000 0.010130 
#    y 0.000000 1.881810 0.000000 
#    z 0.010130 0.000000 1.885060 
# 
# From -- ./inp_files/4166.got.cif
#   From: 2010.03.12/outbox.cif.g09.slc.cpg/sg3_3_cif.got.tgz:4166.got - 2010.03.31 09:20:49.
