data_PCOD8045479
_publ_section_title
;
Structure prediction by ZEFSAII (Michael W. Deem and Ramdas Pophale) SiO2 
 PCOD8045479
Probable space group: P 2
;
_chemical_formula_sum "Si O2"
_cell_formula_units_Z 16
_cell_length_a 9.119991
_cell_length_b 10.564617
_cell_length_c 9.399022
_cell_angle_alpha 90.000000
_cell_angle_beta 129.054083
_cell_angle_gamma 90.000000
_cell_volume 703.236077
_symmetry_space_group_name_H-M "P 2"
_symmetry_group_IT_number 3
_symmetry_cell_setting 'monoclinic'
loop_
_space_group_symop_operation_xyz
x,y,z
-x,y,-z
loop_
_atom_site_type_symbol
_atom_site_label
_atom_site_fract_x
_atom_site_fract_y
_atom_site_fract_z
Si Si1 0.690694 0.098650 0.060015
Si Si2 0.966298 0.579405 0.642849
Si Si3 0.817139 0.677296 0.970059
Si Si4 0.222172 0.925058 0.642642
Si Si5 0.795031 0.965141 0.863518
Si Si6 0.997674 0.287825 0.666074
Si Si7 0.570368 0.699797 0.389857
Si Si8 0.311364 0.106417 0.457087
O O1 0.833709 0.213554 0.157022
O O2 0.744701 0.967284 0.174277
O O3 0.500000 0.159437 0.000000
O O4 0.660609 0.052604 0.879066
O O5 0.011569 0.435276 0.710058
O O6 0.745160 0.607617 0.537014
O O7 0.000000 0.611933 0.500000
O O8 0.121655 0.661999 0.826997
O O9 0.792120 0.821514 0.909046
O O10 0.606260 0.624797 0.798098
O O11 0.000000 0.616466 0.000000
O O12 0.353829 0.810347 0.668474
O O13 0.000000 0.890327 0.500000
O O14 0.289145 0.051996 0.601625
O O15 0.743643 0.981289 0.667833
O O16 0.000000 0.025711 0.000000
O O17 0.812297 0.232494 0.626810
O O18 0.000000 0.262710 0.500000
O O19 0.500000 0.754176 0.500000
O O20 0.500000 0.157059 0.500000
#
# Coordination Sequence:
#
# PCOD8045479 Si02
#       8
#     2   2   2   2   2   2   2   2
#     4  12  23  41  67 102 139 176 228 287 357 426
#     4  11  28  50  74  99 142 199 253 298 353 416
#     4  11  24  47  71 103 149 184 231 306 365 422
#     4  12  23  42  72  99 140 187 226 287 367 430
#     4  11  23  39  64 103 142 170 219 289 357 432
#     4  11  24  50  68  97 140 188 242 294 341 420
#     4  12  25  45  74 111 145 186 242 296 368 441
#     4  12  22  41  69 102 135 184 228 281 361 425
#
# _framework density 22.751961000000001
#
# number of rings (size 3 to 8) (size 9 to 14) (size 15 to 20)
#    0.000    0.500    5.000    3.750    5.250    1.000 
#    6.750    0.000    0.000    0.000    0.000    0.000 
#    0.000    0.000    0.000    0.000    0.000    0.000 
#
# Total GULP energy -198213.094897 kJ/mol
# GULP energy per Si atom -12388.318431 kJ/mol
# Density = 2.270018 g / cm^3
# Si number density = 22.751961 Si / 1000 Ang^3
#
#
#
# Elastic Constant Matrix: (Units=GPa)
#
#
# Indices 1 2 3 4 5 6 
#
# 1 121.6787 20.7500 20.9941 0.0000 25.5717 0.0000
# 2 20.7500 76.4185 16.5046 0.0000 -0.4413 0.0000
# 3 20.9941 16.5046 99.3221 0.0000 17.0692 0.0000
# 4 0.0000 0.0000 0.0000 8.4677 0.0000 -1.3527
# 5 25.5717 -0.4413 17.0692 0.0000 49.0000 0.0000
# 6 0.0000 0.0000 0.0000 -1.3527 0.0000 40.5131
#
#
#
# Elastic Compliance Matrix: (Units=1/GPa)
#
#
# Indices 1 2 3 4 5 6 
#
# 1 0.009809 -0.002514 -0.000821 0.000000 -0.004856 0.000000
# 2 -0.002514 0.014260 -0.002219 0.000000 0.002213 0.000000
# 3 -0.000821 -0.002219 0.011211 0.000000 -0.003497 0.000000
# 4 0.000000 0.000000 0.000000 0.118729 0.000000 0.003964
# 5 -0.004856 0.002213 -0.003497 0.000000 0.024180 0.000000
# 6 0.000000 0.000000 0.000000 0.003964 0.000000 0.024816
#
#
# Mechanical properties :
#
#
# Convention : Reuss Voigt Hill
#
# Bulk Modulus (GPa) = 41.36806 45.99075 43.67941
# Shear Modulus (GPa) = 22.50511 35.54089 29.02300
#
# Velocity S-wave (km/s) = 3.14849 3.95663 3.57547
# Velocity P-wave (km/s) = 5.60705 6.41335 6.02371
#
# Compressibility (1/GPa) = 0.02417324
#
# Stress axis : x y z
#
# Youngs Moduli (GPa) = 101.94445 70.12387 89.19437
#
# Poissons Ratio (x) = 0.17631 0.07324
# Poissons Ratio (y) = 0.25631 0.19789
# Poissons Ratio (z) = 0.08371 0.15558
#
# Static dielectric constant tensor:
#      x y z
#    x 4.631540 0.000000 0.264230 
#    y 0.000000 3.669840 0.000000 
#    z 0.264230 0.000000 4.430650 
# 
# 
# High freq. dielectric constant tensor:
#      x y z
#    x 1.924260 0.000000 0.004050 
#    y 0.000000 1.857450 0.000000 
#    z 0.004050 0.000000 1.907890 
# 
# From -- ./inp_files/6087.got.cif
#   From: 2010.03.12/outbox.cif.g09.slc.cpg/sg3_4_cif.got.tgz:6087.got - 2010.03.31 09:20:49.
