data_PCOD8045180
_publ_section_title
;
Structure prediction by ZEFSAII (Michael W. Deem and Ramdas Pophale) SiO2 
 PCOD8045180
Probable space group: P 2
;
_chemical_formula_sum "Si O2"
_cell_formula_units_Z 15
_cell_length_a 21.871136
_cell_length_b 6.402199
_cell_length_c 27.202017
_cell_angle_alpha 90.000000
_cell_angle_beta 10.912397
_cell_angle_gamma 90.000000
_cell_volume 721.058273
_symmetry_space_group_name_H-M "P 2"
_symmetry_group_IT_number 3
_symmetry_cell_setting 'monoclinic'
loop_
_space_group_symop_operation_xyz
x,y,z
-x,y,-z
loop_
_atom_site_type_symbol
_atom_site_label
_atom_site_fract_x
_atom_site_fract_y
_atom_site_fract_z
Si Si1 0.122441 0.820370 0.854303
Si Si2 0.285667 0.972792 0.901485
Si Si3 0.810931 0.016035 0.599728
Si Si4 0.317929 0.158095 0.569738
Si Si5 0.120568 0.254496 0.546583
Si Si6 0.175233 0.277938 0.117415
Si Si7 0.500000 0.500709 0.500000
Si Si8 0.467637 0.625558 0.222441
O O1 0.209298 0.654190 0.743883
O O2 0.403318 0.984287 0.647635
O O3 0.000000 0.704991 0.000000
O O4 0.801417 0.929694 0.086370
O O5 0.337387 0.766257 0.893171
O O6 0.589622 0.122381 0.659630
O O7 0.978373 0.093128 0.163411
O O8 0.011700 0.122992 0.396226
O O9 0.000000 0.064163 0.500000
O O10 0.766088 0.768858 0.626936
O O11 0.450430 0.112354 0.885389
O O12 0.438653 0.371504 0.499113
O O13 0.172680 0.207263 0.630191
O O14 0.235322 0.478950 0.437558
O O15 0.855885 0.288270 0.798605
O O16 0.283718 0.501423 0.009260
#
# Coordination Sequence:
#
# PCOD8045180 Si02
#       8
#     2   2   2   2   2   2   1   2
#     4  12  26  39  60  90 123 165 214 261 308 358
#     4  11  20  43  61  86 128 166 206 257 306 357
#     4  10  23  44  67  91 127 163 193 242 309 371
#     4  12  22  42  64  85 124 168 206 257 310 359
#     4  10  23  40  66  95 123 159 205 253 298 363
#     4  11  23  41  66  93 122 160 207 251 306 363
#     4  12  24  40  60  86 126 164 212 260 308 352
#     4  10  21  39  66  91 124 160 205 247 305 358
#
# _framework density 20.802758000000001
#
# number of rings (size 3 to 8) (size 9 to 14) (size 15 to 20)
#    0.000    1.067    6.667    1.600    0.000    6.400 
#    0.000    0.000    0.000    0.000    0.000    0.000 
#    0.000    0.000    0.000    0.000    0.000    0.000 
#
# Total GULP energy -185905.992903 kJ/mol
# GULP energy per Si atom -12393.732860 kJ/mol
# Density = 2.075541 g / cm^3
# Si number density = 20.802758 Si / 1000 Ang^3
#
#
#
# Elastic Constant Matrix: (Units=GPa)
#
#
# Indices 1 2 3 4 5 6 
#
# 1 118.0101 27.1799 29.5139 0.0000 0.4469 -0.0001
# 2 27.1799 113.1323 24.6647 0.0000 1.8264 0.0000
# 3 29.5139 24.6647 37.7624 0.0000 6.7530 -0.0001
# 4 0.0000 0.0000 0.0000 0.8016 0.0000 -13.7539
# 5 0.4469 1.8264 6.7530 0.0000 49.5887 0.0001
# 6 -0.0001 0.0000 -0.0001 -13.7539 0.0001 -51.1350
#
#
#
# Elastic Compliance Matrix: (Units=1/GPa)
#
#
# Indices 1 2 3 4 5 6 
#
# 1 0.010654 -0.000841 -0.007960 0.000000 0.001019 0.000000
# 2 -0.000841 0.010388 -0.006212 0.000000 0.000471 0.000000
# 3 -0.007960 -0.006212 0.037623 0.000000 -0.004823 0.000000
# 4 0.000000 0.000000 0.000000 0.222174 0.000000 -0.059759
# 5 0.001019 0.000471 -0.004823 0.000000 0.020796 0.000000
# 6 0.000000 0.000000 0.000000 -0.059759 0.000000 -0.003483
#
#
# Mechanical properties :
#
#
# Convention : Reuss Voigt Hill
#
# Bulk Modulus (GPa) = 34.91738 47.95797 41.43768
# Shear Modulus (GPa) = 14.80493 12.35415 13.57954
#
# Velocity S-wave (km/s) = 2.67063 2.43959 2.55772
# Velocity P-wave (km/s) = 5.13138 5.57128 5.35585
#
# Compressibility (1/GPa) = 0.02863903
#
# Stress axis : x y z
#
# Youngs Moduli (GPa) = 93.85744 96.26570 26.57964
#
# Poissons Ratio (x) = 0.08093 0.21158
# Poissons Ratio (y) = 0.07891 0.16511
# Poissons Ratio (z) = 0.74713 0.59801
#
# Static dielectric constant tensor:
#      x y z
#    x 4.162440 0.000000 -0.248950 
#    y 0.000000 3.860090 0.000000 
#    z -0.248950 0.000000 3.864670 
# 
# 
# High freq. dielectric constant tensor:
#      x y z
#    x 1.828810 0.000000 0.001090 
#    y 0.000000 1.819870 0.000000 
#    z 0.001090 0.000000 1.792290 
# 
# From -- ./inp_files/16640.got.cif
#   From: 2010.03.12/outbox.cif.g09.slc.cpg/sg3_9_cif.got.tgz:16640.got - 2010.03.31 09:20:49.
