data_PCOD8045235
_publ_section_title
;
Structure prediction by ZEFSAII (Michael W. Deem and Ramdas Pophale) SiO2 
 PCOD8045235
Probable space group: P 2
;
_chemical_formula_sum "Si O2"
_cell_formula_units_Z 15
_cell_length_a 10.399035
_cell_length_b 7.503672
_cell_length_c 11.291573
_cell_angle_alpha 90.000000
_cell_angle_beta 54.892964
_cell_angle_gamma 90.000000
_cell_volume 720.803067
_symmetry_space_group_name_H-M "P 2"
_symmetry_group_IT_number 3
_symmetry_cell_setting 'monoclinic'
loop_
_space_group_symop_operation_xyz
x,y,z
-x,y,-z
loop_
_atom_site_type_symbol
_atom_site_label
_atom_site_fract_x
_atom_site_fract_y
_atom_site_fract_z
Si Si1 0.332941 0.849460 0.526411
Si Si2 0.253048 0.537412 0.706474
Si Si3 0.141381 0.196608 0.149882
Si Si4 0.507906 0.645392 0.740458
Si Si5 0.591975 0.969498 0.065901
Si Si6 0.636973 0.294755 0.766858
Si Si7 0.000000 0.396038 0.000000
Si Si8 0.814109 0.222157 0.436108
O O1 0.500000 0.854512 0.500000
O O2 0.214389 0.724274 0.663111
O O3 0.345233 0.758580 0.389764
O O4 0.272652 0.046558 0.557608
O O5 0.424913 0.543035 0.674977
O O6 0.130265 0.521859 0.876614
O O7 0.246296 0.377668 0.616899
O O8 0.280127 0.297854 0.148244
O O9 0.998980 0.179956 0.319220
O O10 0.226481 0.014641 0.062508
O O11 0.081936 0.283881 0.060364
O O12 0.562315 0.491478 0.800639
O O13 0.396125 0.796221 0.856962
O O14 0.497490 0.140453 0.172034
O O15 0.500000 0.902636 0.000000
O O16 0.769228 0.268299 0.594844
#
# Coordination Sequence:
#
# PCOD8045235 Si02
#       8
#     2   2   2   2   2   2   1   2
#     4  10  22  36  61  98 123 165 216 263 322 371
#     4  10  23  38  61  98 126 165 216 262 321 384
#     4  10  24  43  65  96 128 175 214 261 335 389
#     4  11  22  38  65  97 129 164 223 267 314 376
#     4  10  23  42  65  97 129 169 217 266 326 387
#     4  11  22  41  70  92 128 170 220 267 318 382
#     4  10  22  42  64  88 130 170 214 258 334 396
#     4  11  22  41  68  93 133 171 212 269 318 385
#
# _framework density 20.810123000000001
#
# number of rings (size 3 to 8) (size 9 to 14) (size 15 to 20)
#    0.000    1.600    2.667    1.200    1.867    8.000 
#    0.000    4.667    0.000    0.000    0.000    0.000 
#    0.000    0.000    0.000    0.000    0.000    0.000 
#
# Total GULP energy -185873.815547 kJ/mol
# GULP energy per Si atom -12391.587703 kJ/mol
# Density = 2.076276 g / cm^3
# Si number density = 20.810123 Si / 1000 Ang^3
#
#
#
# Elastic Constant Matrix: (Units=GPa)
#
#
# Indices 1 2 3 4 5 6 
#
# 1 79.1100 45.1347 23.9130 0.0000 5.2396 0.0000
# 2 45.1347 123.8359 44.6933 0.0000 2.7082 0.0000
# 3 23.9130 44.6933 96.2659 0.0000 -0.7479 0.0000
# 4 0.0000 0.0000 0.0000 44.4036 0.0000 -1.9483
# 5 5.2396 2.7082 -0.7479 0.0000 34.5394 0.0000
# 6 0.0000 0.0000 0.0000 -1.9483 0.0000 24.8568
#
#
#
# Elastic Compliance Matrix: (Units=1/GPa)
#
#
# Indices 1 2 3 4 5 6 
#
# 1 0.016295 -0.005318 -0.001595 0.000000 -0.002090 0.000000
# 2 -0.005318 0.011461 -0.004002 0.000000 -0.000179 0.000000
# 3 -0.001595 -0.004002 0.012648 0.000000 0.000830 0.000000
# 4 0.000000 0.000000 0.000000 0.022598 0.000000 0.001771
# 5 -0.002090 -0.000179 0.000830 0.000000 0.029301 0.000000
# 6 0.000000 0.000000 0.000000 0.001771 0.000000 0.040369
#
#
# Mechanical properties :
#
#
# Convention : Reuss Voigt Hill
#
# Bulk Modulus (GPa) = 53.83305 58.52155 56.17730
# Shear Modulus (GPa) = 31.11481 33.12468 32.11975
#
# Velocity S-wave (km/s) = 3.87095 3.99401 3.93296
# Velocity P-wave (km/s) = 6.77523 7.03223 6.90493
#
# Compressibility (1/GPa) = 0.01857595
#
# Stress axis : x y z
#
# Youngs Moduli (GPa) = 61.36811 87.24870 79.06107
#
# Poissons Ratio (x) = 0.46396 0.12612
# Poissons Ratio (y) = 0.32634 0.31638
# Poissons Ratio (z) = 0.09789 0.34914
#
# Static dielectric constant tensor:
#      x y z
#    x 3.661620 0.000000 -0.084680 
#    y 0.000000 3.759120 0.000000 
#    z -0.084680 0.000000 4.190900 
# 
# 
# High freq. dielectric constant tensor:
#      x y z
#    x 1.796660 0.000000 0.004660 
#    y 0.000000 1.813200 0.000000 
#    z 0.004660 0.000000 1.836190 
# 
# From -- ./inp_files/11259.got.cif
#   From: 2010.03.12/outbox.cif.g09.slc.cpg/sg3_6_cif.got.tgz:11259.got - 2010.03.31 09:20:49.
