data_PCOD8045174
_publ_section_title
;
Structure prediction by ZEFSAII (Michael W. Deem and Ramdas Pophale) SiO2 
 PCOD8045174
Probable space group: P 2
;
_chemical_formula_sum "Si O2"
_cell_formula_units_Z 16
_cell_length_a 8.057216
_cell_length_b 17.903720
_cell_length_c 8.950208
_cell_angle_alpha 90.000000
_cell_angle_beta 145.909273
_cell_angle_gamma 90.000000
_cell_volume 723.670518
_symmetry_space_group_name_H-M "P 2"
_symmetry_group_IT_number 3
_symmetry_cell_setting 'monoclinic'
loop_
_space_group_symop_operation_xyz
x,y,z
-x,y,-z
loop_
_atom_site_type_symbol
_atom_site_label
_atom_site_fract_x
_atom_site_fract_y
_atom_site_fract_z
Si Si1 0.324272 0.681420 0.515718
Si Si2 0.172551 0.779266 0.980282
Si Si3 0.168753 0.044197 0.279510
Si Si4 0.157275 0.193520 0.456725
Si Si5 0.157823 0.521813 0.467915
Si Si6 0.760827 0.443953 0.943515
Si Si7 0.826030 0.924305 0.215820
Si Si8 0.655311 0.280338 0.962575
O O1 0.500000 0.654836 0.500000
O O2 0.247923 0.608221 0.554063
O O3 0.012009 0.715614 0.238550
O O4 0.509434 0.743326 0.744333
O O5 0.222343 0.846546 0.904905
O O6 0.000000 0.807399 0.000000
O O7 0.500000 0.014087 0.500000
O O8 0.197591 0.113548 0.412443
O O9 0.997391 0.978951 0.234746
O O10 0.000000 0.064645 0.000000
O O11 0.469609 0.236959 0.697747
O O12 0.000000 0.183183 0.500000
O O13 0.979392 0.245277 0.208888
O O14 0.455258 0.476205 0.650815
O O15 0.000000 0.493041 0.500000
O O16 0.913736 0.507526 0.158765
O O17 0.673736 0.368989 0.963673
O O18 0.000000 0.420474 0.000000
O O19 0.000000 0.912336 0.500000
O O20 0.500000 0.958745 0.000000
O O21 0.500000 0.260459 0.000000
#
# Coordination Sequence:
#
# PCOD8045174 Si02
#       8
#     2   2   2   2   2   2   2   2
#     4  10  21  39  64  93 127 167 210 263 324 387
#     4  10  22  41  65  93 128 168 211 262 325 387
#     4  12  26  44  68  98 133 173 218 272 325 388
#     4  10  22  41  65  93 128 168 211 262 325 387
#     4  12  25  42  65  94 129 170 217 269 322 384
#     4  12  25  42  65  94 129 170 217 269 322 384
#     4  12  26  44  68  98 133 173 218 272 325 388
#     4  10  21  39  64  93 127 167 210 263 324 387
#
# _framework density 22.109511000000001
#
# number of rings (size 3 to 8) (size 9 to 14) (size 15 to 20)
#    0.000    1.000    0.000    6.750    0.000    8.000 
#    0.000    0.000    0.000    0.000    0.000    0.000 
#    0.000    0.000    0.000    0.000    0.000    0.000 
#
# Total GULP energy -198435.218281 kJ/mol
# GULP energy per Si atom -12402.201143 kJ/mol
# Density = 2.205919 g / cm^3
# Si number density = 22.109511 Si / 1000 Ang^3
#
#
#
# Elastic Constant Matrix: (Units=GPa)
#
#
# Indices 1 2 3 4 5 6 
#
# 1 76.6231 34.3606 44.4337 0.0000 11.3089 0.0000
# 2 34.3606 106.7041 33.1208 0.0000 -2.7995 0.0000
# 3 44.4337 33.1208 145.0900 0.0000 1.9437 0.0000
# 4 0.0000 0.0000 0.0000 26.7738 0.0000 -4.7096
# 5 11.3089 -2.7995 1.9437 0.0000 26.0860 0.0000
# 6 0.0000 0.0000 0.0000 -4.7096 0.0000 32.0671
#
#
#
# Elastic Compliance Matrix: (Units=1/GPa)
#
#
# Indices 1 2 3 4 5 6 
#
# 1 0.019231 -0.004976 -0.004639 0.000000 -0.008526 0.000000
# 2 -0.004976 0.011415 -0.001128 0.000000 0.003467 0.000000
# 3 -0.004639 -0.001128 0.008554 0.000000 0.001253 0.000000
# 4 0.000000 0.000000 0.000000 0.038340 0.000000 0.005631
# 5 -0.008526 0.003467 0.001253 0.000000 0.042309 0.000000
# 6 0.000000 0.000000 0.000000 0.005631 0.000000 0.032012
#
#
# Mechanical properties :
#
#
# Convention : Reuss Voigt Hill
#
# Bulk Modulus (GPa) = 56.45786 61.36083 58.90935
# Shear Modulus (GPa) = 27.89341 31.41887 29.65614
#
# Velocity S-wave (km/s) = 3.55576 3.77378 3.66639
# Velocity P-wave (km/s) = 6.51528 6.84119 6.68022
#
# Compressibility (1/GPa) = 0.01771232
#
# Stress axis : x y z
#
# Youngs Moduli (GPa) = 51.99908 87.60118 116.90657
#
# Poissons Ratio (x) = 0.43594 0.54236
# Poissons Ratio (y) = 0.25877 0.13190
# Poissons Ratio (z) = 0.24124 0.09884
#
# Static dielectric constant tensor:
#      x y z
#    x 4.294990 0.000000 0.197060 
#    y 0.000000 3.786600 0.000000 
#    z 0.197060 0.000000 4.442880 
# 
# 
# High freq. dielectric constant tensor:
#      x y z
#    x 1.872140 0.000000 0.007300 
#    y 0.000000 1.872420 0.000000 
#    z 0.007300 0.000000 1.889490 
# 
# From -- ./inp_files/6306.got.cif
#   From: 2010.03.12/outbox.cif.g09.slc.cpg/sg3_4_cif.got.tgz:6306.got - 2010.03.31 09:20:49.
