data_PCOD8045038
_publ_section_title
;
Structure prediction by ZEFSAII (Michael W. Deem and Ramdas Pophale) SiO2 
 PCOD8045038
Probable space group: P 2
;
_chemical_formula_sum "Si O2"
_cell_formula_units_Z 15
_cell_length_a 7.985443
_cell_length_b 9.143449
_cell_length_c 12.851097
_cell_angle_alpha 90.000000
_cell_angle_beta 127.638274
_cell_angle_gamma 90.000000
_cell_volume 743.035684
_symmetry_space_group_name_H-M "P 2"
_symmetry_group_IT_number 3
_symmetry_cell_setting 'monoclinic'
loop_
_space_group_symop_operation_xyz
x,y,z
-x,y,-z
loop_
_atom_site_type_symbol
_atom_site_label
_atom_site_fract_x
_atom_site_fract_y
_atom_site_fract_z
Si Si1 0.957770 0.528350 0.188057
Si Si2 0.974540 0.310038 0.372498
Si Si3 0.477195 0.208521 0.870524
Si Si4 0.264866 0.098646 0.374496
Si Si5 0.908196 0.844236 0.805633
Si Si6 0.828028 0.285225 0.862376
Si Si7 0.338625 0.888640 0.083096
Si Si8 0.500000 0.653177 0.000000
O O1 0.013515 0.453255 0.318251
O O2 0.079704 0.680303 0.231222
O O3 0.053097 0.431823 0.130003
O O4 0.704925 0.548660 0.082866
O O5 0.757488 0.233556 0.258368
O O6 0.000000 0.361954 0.500000
O O7 0.153773 0.188981 0.423068
O O8 0.626779 0.317053 0.859928
O O9 0.535870 0.040047 0.873292
O O10 0.500000 0.249616 0.000000
O O11 0.500000 0.071495 0.500000
O O12 0.248648 0.184397 0.259818
O O13 0.154422 0.942356 0.316906
O O14 0.726442 0.852707 0.823958
O O15 0.133107 0.899393 0.932358
O O16 0.000000 0.198464 0.000000
O O17 0.487916 0.757808 0.097325
#
# Coordination Sequence:
#
# PCOD8045038 Si02
#       8
#     2   2   2   2   2   2   2   1
#     4  10  25  42  64  96 136 180 217 268 336 404
#     4  11  26  44  64  95 134 179 219 281 331 388
#     4  12  22  38  67 102 129 170 223 278 332 385
#     4  11  23  44  66  94 128 176 228 276 326 396
#     4  10  21  41  64  95 134 171 219 270 336 399
#     4  11  23  39  65  97 133 173 219 272 329 395
#     4  10  20  36  66  98 131 167 208 280 338 381
#     4  10  22  40  62 100 140 168 216 272 338 392
#
# _framework density 20.187457999999999
#
# number of rings (size 3 to 8) (size 9 to 14) (size 15 to 20)
#    0.000    1.333    2.000    4.000    8.400    0.000 
#    0.000    6.000    0.000    0.000    0.000    0.000 
#    0.000    0.000    0.000    0.000    0.000    0.000 
#
# Total GULP energy -186017.727019 kJ/mol
# GULP energy per Si atom -12401.181801 kJ/mol
# Density = 2.014151 g / cm^3
# Si number density = 20.187458 Si / 1000 Ang^3
#
#
#
# Elastic Constant Matrix: (Units=GPa)
#
#
# Indices 1 2 3 4 5 6 
#
# 1 105.7010 50.8350 29.3635 0.0000 -11.8920 0.0000
# 2 50.8350 130.8918 49.6940 0.0000 -1.2342 0.0000
# 3 29.3635 49.6940 105.7345 0.0000 -6.8656 0.0000
# 4 0.0000 0.0000 0.0000 22.3750 0.0000 0.1985
# 5 -11.8920 -1.2342 -6.8656 0.0000 35.2598 0.0000
# 6 0.0000 0.0000 0.0000 0.1985 0.0000 41.0599
#
#
#
# Elastic Compliance Matrix: (Units=1/GPa)
#
#
# Indices 1 2 3 4 5 6 
#
# 1 0.012267 -0.004294 -0.001144 0.000000 0.003764 0.000000
# 2 -0.004294 0.010812 -0.004009 0.000000 -0.001851 0.000000
# 3 -0.001144 -0.004009 0.011774 0.000000 0.001766 0.000000
# 4 0.000000 0.000000 0.000000 0.044695 0.000000 -0.000216
# 5 0.003764 -0.001851 0.001766 0.000000 0.029910 0.000000
# 6 0.000000 0.000000 0.000000 -0.000216 0.000000 0.024356
#
#
# Mechanical properties :
#
#
# Convention : Reuss Voigt Hill
#
# Bulk Modulus (GPa) = 62.66189 66.90138 64.78164
# Shear Modulus (GPa) = 31.63971 33.90125 32.77048
#
# Velocity S-wave (km/s) = 3.96320 4.10240 4.03340
# Velocity P-wave (km/s) = 7.21457 7.46000 7.33831
#
# Compressibility (1/GPa) = 0.01595866
#
# Stress axis : x y z
#
# Youngs Moduli (GPa) = 81.51752 92.48581 84.93029
#
# Poissons Ratio (x) = 0.39718 0.09716
# Poissons Ratio (y) = 0.35008 0.34051
# Poissons Ratio (z) = 0.09325 0.37080
#
# Static dielectric constant tensor:
#      x y z
#    x 4.092580 0.000000 -0.149690 
#    y 0.000000 3.729520 0.000000 
#    z -0.149690 0.000000 3.476360 
# 
# 
# High freq. dielectric constant tensor:
#      x y z
#    x 1.809120 0.000000 -0.005310 
#    y 0.000000 1.791420 0.000000 
#    z -0.005310 0.000000 1.766580 
# 
# From -- ./inp_files/5605.got.cif
#   From: 2010.03.12/outbox.cif.g09.slc.cpg/sg3_3_cif.got.tgz:5605.got - 2010.03.31 09:20:49.
