data_PCOD8045709
_publ_section_title
;
Structure prediction by ZEFSAII (Michael W. Deem and Ramdas Pophale) SiO2 
 PCOD8045709
Probable space group: P 21
;
_chemical_formula_sum "Si O2"
_cell_formula_units_Z 10
_cell_length_a 11.663520
_cell_length_b 5.080356
_cell_length_c 21.159381
_cell_angle_alpha 90.000000
_cell_angle_beta 158.019332
_cell_angle_gamma 90.000000
_cell_volume 469.287838
_symmetry_space_group_name_H-M "P 21"
_symmetry_group_IT_number 4
_symmetry_cell_setting 'monoclinic'
loop_
_space_group_symop_operation_xyz
x,y,z
-x,1/2+y,-z
loop_
_atom_site_type_symbol
_atom_site_label
_atom_site_fract_x
_atom_site_fract_y
_atom_site_fract_z
Si Si1 0.358232 0.398850 0.335762
Si Si2 0.876072 0.135701 0.665849
Si Si3 0.170789 0.202497 0.109082
Si Si4 0.013988 0.124452 0.347760
Si Si5 0.170633 0.636568 0.610191
O O1 0.517713 0.170474 0.460752
O O2 0.123629 0.566103 0.259674
O O3 0.168660 0.271330 0.182189
O O4 0.630661 0.586151 0.448362
O O5 0.065335 0.401472 0.745871
O O6 0.039964 0.907909 0.709708
O O7 0.507752 0.226518 0.253183
O O8 0.954454 0.407579 0.961970
O O9 0.800013 0.090499 0.299602
O O10 0.072530 0.368061 0.526087
#
# Coordination Sequence:
#
# PCOD8045709 Si02
#       5
#     2   2   2   2   2
#     4  10  20  37  60  93 128 157 215 266 319 364
#     4  10  19  32  63  96 117 152 217 290 299 344
#     4  12  28  41  61  96 144 176 201 257 341 407
#     4  10  19  33  59  96 114 151 213 277 308 347
#     4  12  22  41  67  91 129 174 224 270 303 380
#
# _framework density 21.308885
#
# number of rings (size 3 to 8) (size 9 to 14) (size 15 to 20)
#    1.200    0.000    4.000    3.600    2.800    0.000 
#    0.000    0.000    0.000    4.800    0.000    0.000 
#    0.000    0.000    0.000    0.000    0.000    0.000 
#
# Total GULP energy -123980.289984 kJ/mol
# GULP energy per Si atom -12398.028998 kJ/mol
# Density = 2.126039 g / cm^3
# Si number density = 21.308885 Si / 1000 Ang^3
#
#
#
# Elastic Constant Matrix: (Units=GPa)
#
#
# Indices 1 2 3 4 5 6 
#
# 1 152.1574 26.0218 19.6926 0.0000 -7.7169 0.0000
# 2 26.0218 108.4733 0.8211 0.0000 1.3713 0.0000
# 3 19.6926 0.8211 31.0159 0.0000 -2.9364 0.0000
# 4 0.0000 0.0000 0.0000 28.2901 0.0000 -3.9039
# 5 -7.7169 1.3713 -2.9364 0.0000 20.4940 0.0000
# 6 0.0000 0.0000 0.0000 -3.9039 0.0000 38.3155
#
#
#
# Elastic Compliance Matrix: (Units=1/GPa)
#
#
# Indices 1 2 3 4 5 6 
#
# 1 0.007590 -0.001816 -0.004550 0.000000 0.002327 0.000000
# 2 -0.001816 0.009664 0.000782 0.000000 -0.001218 0.000000
# 3 -0.004550 0.000782 0.035423 0.000000 0.003310 0.000000
# 4 0.000000 0.000000 0.000000 0.035852 0.000000 0.003653
# 5 0.002327 -0.001218 0.003310 0.000000 0.050227 0.000000
# 6 0.000000 0.000000 0.000000 0.003653 0.000000 0.026471
#
#
# Mechanical properties :
#
#
# Convention : Reuss Voigt Hill
#
# Bulk Modulus (GPa) = 24.09174 42.74639 33.41907
# Shear Modulus (GPa) = 26.28371 33.76067 30.02219
#
# Velocity S-wave (km/s) = 3.51588 3.98470 3.75761
# Velocity P-wave (km/s) = 5.27374 6.42452 5.87736
#
# Compressibility (1/GPa) = 0.04150801
#
# Stress axis : x y z
#
# Youngs Moduli (GPa) = 131.75908 103.47783 28.22998
#
# Poissons Ratio (x) = 0.18788 0.12846
# Poissons Ratio (y) = 0.23923 -0.02207
# Poissons Ratio (z) = 0.59956 -0.08088
#
# Static dielectric constant tensor:
#      x y z
#    x 3.816600 0.000000 -0.097250 
#    y 0.000000 3.894320 0.000000 
#    z -0.097250 0.000000 3.257760 
# 
# 
# High freq. dielectric constant tensor:
#      x y z
#    x 1.851530 0.000000 -0.004940 
#    y 0.000000 1.850700 0.000000 
#    z -0.004940 0.000000 1.766970 
# 
# From -- ./inp_files/9085.got.cif
#   From: 2010.03.12/outbox.cif.g09.slc.cpg/sg4_5_cif.got.tgz:9085.got - 2010.03.31 09:31:35.
