data_PCOD8045687
_publ_section_title
;
Structure prediction by ZEFSAII (Michael W. Deem and Ramdas Pophale) SiO2 
 PCOD8045687
Probable space group: P 21
;
_chemical_formula_sum "Si O2"
_cell_formula_units_Z 14
_cell_length_a 5.371013
_cell_length_b 15.589996
_cell_length_c 6.474479
_cell_angle_alpha 90.000000
_cell_angle_beta 114.706635
_cell_angle_gamma 90.000000
_cell_volume 492.507376
_symmetry_space_group_name_H-M "P 21"
_symmetry_group_IT_number 4
_symmetry_cell_setting 'monoclinic'
loop_
_space_group_symop_operation_xyz
x,y,z
-x,1/2+y,-z
loop_
_atom_site_type_symbol
_atom_site_label
_atom_site_fract_x
_atom_site_fract_y
_atom_site_fract_z
Si Si1 0.079474 0.782470 0.469605
Si Si2 0.417467 0.579780 0.102271
Si Si3 0.101336 0.828860 0.029584
Si Si4 0.390294 0.247181 0.959949
Si Si5 0.139885 0.961960 0.630987
Si Si6 0.676010 0.102192 0.474468
Si Si7 0.159386 0.010515 0.176625
O O1 0.759940 0.767450 0.309797
O O2 0.220093 0.810933 0.301251
O O3 0.080273 0.859511 0.645477
O O4 0.222225 0.692479 0.592778
O O5 0.582063 0.644832 0.009369
O O6 0.581302 0.489746 0.152216
O O7 0.438681 0.621952 0.337651
O O8 0.104679 0.572456 0.914967
O O9 0.305351 0.786525 0.934679
O O10 0.792630 0.786734 0.912460
O O11 0.101212 0.933358 0.988152
O O12 0.188273 0.965085 0.404221
O O13 0.906060 0.030864 0.602159
O O14 0.445212 0.061736 0.240347
#
# Coordination Sequence:
#
# PCOD8045687 Si02
#       7
#     2   2   2   2   2   2   2
#     4   9  19  36  66  91 129 177 223 269 338 402
#     4  11  22  41  65  96 129 174 222 280 341 401
#     4   9  19  38  62  90 129 172 216 270 336 394
#     4  10  18  38  65  92 125 179 212 272 339 399
#     4  10  21  42  63  92 128 175 223 278 338 402
#     4  11  21  42  66  94 133 180 224 282 339 405
#     4  10  24  39  63  95 131 171 224 279 339 401
#
# _framework density 28.425972000000002
#
# number of rings (size 3 to 8) (size 9 to 14) (size 15 to 20)
#    0.857    1.143    2.857    0.857    0.000    1.143 
#    2.571    0.000    0.000    0.000    0.000    0.000 
#    0.000    0.000    0.000    0.000    0.000    0.000 
#
# Total GULP energy -173471.322311 kJ/mol
# GULP energy per Si atom -12390.808736 kJ/mol
# Density = 2.836127 g / cm^3
# Si number density = 28.425972 Si / 1000 Ang^3
#
#
#
# Elastic Constant Matrix: (Units=GPa)
#
#
# Indices 1 2 3 4 5 6 
#
# 1 162.3579 76.2256 12.9817 0.0000 34.1535 0.0000
# 2 76.2256 215.5010 53.2364 0.0000 15.0560 0.0000
# 3 12.9817 53.2364 74.9835 0.0000 23.2943 0.0000
# 4 0.0000 0.0000 0.0000 49.2156 0.0000 -6.9965
# 5 34.1535 15.0560 23.2943 0.0000 34.6775 0.0000
# 6 0.0000 0.0000 0.0000 -6.9965 0.0000 52.8362
#
#
#
# Elastic Compliance Matrix: (Units=1/GPa)
#
#
# Indices 1 2 3 4 5 6 
#
# 1 0.009948 -0.003844 0.004463 0.000000 -0.011127 0.000000
# 2 -0.003844 0.007115 -0.005816 0.000000 0.004604 0.000000
# 3 0.004463 -0.005816 0.021830 0.000000 -0.016535 0.000000
# 4 0.000000 0.000000 0.000000 0.020709 0.000000 0.002742
# 5 -0.011127 0.004604 -0.016535 0.000000 0.048904 0.000000
# 6 0.000000 0.000000 0.000000 0.002742 0.000000 0.019290
#
#
# Mechanical properties :
#
#
# Convention : Reuss Voigt Hill
#
# Bulk Modulus (GPa) = 35.08901 81.96997 58.52949
# Shear Modulus (GPa) = 33.85530 48.03910 40.94720
#
# Velocity S-wave (km/s) = 3.45483 4.11539 3.79949
# Velocity P-wave (km/s) = 5.31839 7.17501 6.31530
#
# Compressibility (1/GPa) = 0.02849895
#
# Stress axis : x y z
#
# Youngs Moduli (GPa) = 100.52675 140.54479 45.80947
#
# Poissons Ratio (x) = 0.54023 -0.20447
# Poissons Ratio (y) = 0.38641 0.26644
# Poissons Ratio (z) = -0.44870 0.81745
#
# Static dielectric constant tensor:
#      x y z
#    x 4.940110 0.000000 -0.163860 
#    y 0.000000 5.362260 0.000000 
#    z -0.163860 0.000000 5.141650 
# 
# 
# High freq. dielectric constant tensor:
#      x y z
#    x 2.138040 0.000000 -0.020730 
#    y 0.000000 2.167100 0.000000 
#    z -0.020730 0.000000 2.177650 
# 
# From -- ./inp_files/4800.got.cif
#   From: 2010.03.12/outbox.cif.g09.slc.cpg/sg4_3_cif.got.tgz:4800.got - 2010.03.31 09:31:35.
