data_PCOD8045407
_publ_section_title
;
Structure prediction by ZEFSAII (Michael W. Deem and Ramdas Pophale) SiO2 
 PCOD8045407
Probable space group: P 2
;
_chemical_formula_sum "Si O2"
_cell_formula_units_Z 12
_cell_length_a 10.032995
_cell_length_b 5.424750
_cell_length_c 16.007850
_cell_angle_alpha 90.000000
_cell_angle_beta 145.938182
_cell_angle_gamma 90.000000
_cell_volume 487.976448
_symmetry_space_group_name_H-M "P 2"
_symmetry_group_IT_number 3
_symmetry_cell_setting 'monoclinic'
loop_
_space_group_symop_operation_xyz
x,y,z
-x,y,-z
loop_
_atom_site_type_symbol
_atom_site_label
_atom_site_fract_x
_atom_site_fract_y
_atom_site_fract_z
Si Si1 0.712737 0.845470 0.553815
Si Si2 0.929958 0.151287 0.143359
Si Si3 0.132584 0.529926 0.766287
Si Si4 0.500000 0.905179 0.000000
Si Si5 0.742208 0.310607 0.329638
Si Si6 0.480813 0.830958 0.723181
Si Si7 0.000000 0.962256 0.000000
O O1 0.500000 0.742167 0.500000
O O2 0.597906 0.939419 0.408235
O O3 0.873625 0.621650 0.604842
O O4 0.871304 0.037049 0.690280
O O5 0.897951 0.437381 0.153491
O O6 0.665487 0.047061 0.020245
O O7 0.002719 0.133277 0.084559
O O8 0.326788 0.739745 0.854212
O O9 0.218438 0.313338 0.750042
O O10 0.637855 0.571256 0.310821
O O11 0.000000 0.257026 0.500000
O O12 0.577400 0.071281 0.251855
O O13 0.766290 0.789624 0.875640
#
# Coordination Sequence:
#
# PCOD8045407 Si02
#       7
#     2   2   2   1   2   2   1
#     4  11  24  48  71 104 146 202 255 312 381 460
#     4  11  25  47  73 104 153 198 258 312 385 462
#     4  11  25  43  75 106 146 200 251 315 389 453
#     4  10  24  44  72 106 142 198 248 316 382 462
#     4  12  26  47  79 114 152 196 261 324 385 452
#     4  12  28  49  78 115 157 200 260 323 385 469
#     4  12  28  50  74 116 160 210 258 320 396 462
#
# _framework density 24.591349999999998
#
# number of rings (size 3 to 8) (size 9 to 14) (size 15 to 20)
#    0.000    0.667    3.333    3.000    9.333    2.667 
#    0.000    0.000    0.000    0.000    0.000    0.000 
#    0.000    0.000    0.000    0.000    0.000    0.000 
#
# Total GULP energy -148668.458779 kJ/mol
# GULP energy per Si atom -12389.038232 kJ/mol
# Density = 2.453538 g / cm^3
# Si number density = 24.591350 Si / 1000 Ang^3
#
#
#
# Elastic Constant Matrix: (Units=GPa)
#
#
# Indices 1 2 3 4 5 6 
#
# 1 115.9793 20.2235 45.8456 0.0000 7.8816 0.0000
# 2 20.2235 91.9053 19.8341 0.0000 15.6880 0.0000
# 3 45.8456 19.8341 123.9425 0.0000 21.2796 0.0000
# 4 0.0000 0.0000 0.0000 -0.8880 0.0000 -1.2403
# 5 7.8816 15.6880 21.2796 0.0000 58.1299 0.0000
# 6 0.0000 0.0000 0.0000 -1.2403 0.0000 21.2843
#
#
#
# Elastic Compliance Matrix: (Units=1/GPa)
#
#
# Indices 1 2 3 4 5 6 
#
# 1 0.010300 -0.001544 -0.003622 0.000000 0.000346 0.000000
# 2 -0.001544 0.011864 -0.000868 0.000000 -0.002675 0.000000
# 3 -0.003622 -0.000868 0.010054 0.000000 -0.002955 0.000000
# 4 0.000000 0.000000 0.000000 -1.041374 0.000000 -0.060682
# 5 0.000346 -0.002675 -0.002955 0.000000 0.018960 0.000000
# 6 0.000000 0.000000 0.000000 -0.060682 0.000000 0.043447
#
#
# Mechanical properties :
#
#
# Convention : Reuss Voigt Hill
#
# Bulk Modulus (GPa) = 49.62802 55.95927 52.79364
# Shear Modulus (GPa) = -5.38814 32.10015 13.35601
#
# Velocity S-wave (km/s) = -1.48183 3.61687 2.33302
# Velocity P-wave (km/s) = 4.15898 6.34409 5.36398
#
# Compressibility (1/GPa) = 0.02014991
#
# Stress axis : x y z
#
# Youngs Moduli (GPa) = 97.09006 84.28539 99.45892
#
# Poissons Ratio (x) = 0.13012 0.36026
# Poissons Ratio (y) = 0.14989 0.08637
# Poissons Ratio (z) = 0.35168 0.07319
#
# Static dielectric constant tensor:
#      x y z
#    x 4.748960 0.000000 0.077230 
#    y 0.000000 4.077310 0.000000 
#    z 0.077230 0.000000 4.656850 
# 
# 
# High freq. dielectric constant tensor:
#      x y z
#    x 1.993140 0.000000 0.004230 
#    y 0.000000 1.954040 0.000000 
#    z 0.004230 0.000000 2.003200 
# 
# From -- ./inp_files/8182.got.cif
#   From: 2010.03.12/outbox.cif.g09.slc.cpg/sg3_5_cif.got.tgz:8182.got - 2010.03.31 09:20:49.
