data_PCOD8045796
_publ_section_title
;
Structure prediction by ZEFSAII (Michael W. Deem and Ramdas Pophale) SiO2 
 PCOD8045796
Probable space group: P 21
;
_chemical_formula_sum "Si O2"
_cell_formula_units_Z 14
_cell_length_a 9.127472
_cell_length_b 9.256545
_cell_length_c 12.651647
_cell_angle_alpha 90.000000
_cell_angle_beta 30.734552
_cell_angle_gamma 90.000000
_cell_volume 546.285326
_symmetry_space_group_name_H-M "P 21"
_symmetry_group_IT_number 4
_symmetry_cell_setting 'monoclinic'
loop_
_space_group_symop_operation_xyz
x,y,z
-x,1/2+y,-z
loop_
_atom_site_type_symbol
_atom_site_label
_atom_site_fract_x
_atom_site_fract_y
_atom_site_fract_z
Si Si1 0.348625 0.236140 0.998483
Si Si2 0.385087 0.817096 0.834857
Si Si3 0.895017 0.015839 0.201315
Si Si4 0.816569 0.048410 0.634294
Si Si5 0.740432 0.012626 0.059676
Si Si6 0.090091 0.814349 0.577897
Si Si7 0.661710 0.406025 0.367301
O O1 0.438980 0.370653 0.865812
O O2 0.242857 0.301216 0.175153
O O3 0.609725 0.124252 0.850220
O O4 0.067427 0.162544 0.119981
O O5 0.326660 0.804074 0.744043
O O6 0.666973 0.913641 0.669786
O O7 0.425616 0.660992 0.865412
O O8 0.121017 0.885345 0.062797
O O9 0.639923 0.992173 0.444757
O O10 0.749671 0.017342 0.178726
O O11 0.871450 0.172608 0.515856
O O12 0.095133 0.972949 0.515686
O O13 0.062068 0.012717 0.810068
O O14 0.312781 0.815835 0.538023
#
# Coordination Sequence:
#
# PCOD8045796 Si02
#       7
#     2   2   2   2   2   2   2
#     4  10  23  43  66  94 130 172 216 264 320 385
#     4  10  23  40  65  99 133 170 211 263 322 383
#     4  10  19  37  64  96 132 170 212 262 316 373
#     4  11  26  46  67  94 131 169 216 270 319 384
#     4  10  20  35  60  97 132 166 209 262 322 374
#     4  11  25  45  68  95 129 174 216 264 325 380
#     4  10  22  40  68  99 133 169 216 265 318 385
#
# _framework density 25.627632999999999
#
# number of rings (size 3 to 8) (size 9 to 14) (size 15 to 20)
#    0.000    1.714    0.000    4.286    0.000   11.429 
#    0.000    4.286    0.000    1.714    0.000    0.000 
#    0.000    0.000    0.000    0.000    0.000    0.000 
#
# Total GULP energy -173479.889674 kJ/mol
# GULP energy per Si atom -12391.420691 kJ/mol
# Density = 2.556930 g / cm^3
# Si number density = 25.627633 Si / 1000 Ang^3
#
#
#
# Elastic Constant Matrix: (Units=GPa)
#
#
# Indices 1 2 3 4 5 6 
#
# 1 39.4463 36.9551 10.2805 0.0000 2.1288 0.0000
# 2 36.9551 197.3507 41.2186 0.0000 3.4274 0.0000
# 3 10.2805 41.2186 76.2436 0.0000 5.8930 0.0000
# 4 0.0000 0.0000 0.0000 44.6850 0.0000 -10.2589
# 5 2.1288 3.4274 5.8930 0.0000 28.9456 0.0000
# 6 0.0000 0.0000 0.0000 -10.2589 0.0000 29.8173
#
#
#
# Elastic Compliance Matrix: (Units=1/GPa)
#
#
# Indices 1 2 3 4 5 6 
#
# 1 0.030892 -0.005538 -0.001063 0.000000 -0.001400 0.000000
# 2 -0.005538 0.006705 -0.002894 0.000000 0.000203 0.000000
# 3 -0.001063 -0.002894 0.015028 0.000000 -0.002639 0.000000
# 4 0.000000 0.000000 0.000000 0.024298 0.000000 0.008360
# 5 -0.001400 0.000203 -0.002639 0.000000 0.035164 0.000000
# 6 0.000000 0.000000 0.000000 0.008360 0.000000 0.036414
#
#
# Mechanical properties :
#
#
# Convention : Reuss Voigt Hill
#
# Bulk Modulus (GPa) = 29.73151 54.43877 42.08514
# Shear Modulus (GPa) = 27.97947 35.66202 31.82075
#
# Velocity S-wave (km/s) = 3.30778 3.73439 3.52754
# Velocity P-wave (km/s) = 5.12007 6.31526 5.74881
#
# Compressibility (1/GPa) = 0.03363435
#
# Stress axis : x y z
#
# Youngs Moduli (GPa) = 32.37069 149.14038 66.54444
#
# Poissons Ratio (x) = 0.82600 0.07074
# Poissons Ratio (y) = 0.17928 0.19256
# Poissons Ratio (z) = 0.03441 0.43158
#
# Static dielectric constant tensor:
#      x y z
#    x 4.365340 0.000000 0.168500 
#    y 0.000000 4.877080 0.000000 
#    z 0.168500 0.000000 4.814400 
# 
# 
# High freq. dielectric constant tensor:
#      x y z
#    x 2.004540 0.000000 0.003390 
#    y 0.000000 2.032280 0.000000 
#    z 0.003390 0.000000 2.029770 
# 
# From -- ./inp_files/11001.got.cif
#   From: 2010.03.12/outbox.cif.g09.slc.cpg/sg4_6_cif.got.tgz:11001.got - 2010.03.31 09:31:35.
