data_PCOD8045217
_publ_section_title
;
Structure prediction by ZEFSAII (Michael W. Deem and Ramdas Pophale) SiO2 
 PCOD8045217
Probable space group: P 2
;
_chemical_formula_sum "Si O2"
_cell_formula_units_Z 15
_cell_length_a 8.948490
_cell_length_b 6.760533
_cell_length_c 16.070491
_cell_angle_alpha 90.000000
_cell_angle_beta 133.152333
_cell_angle_gamma 90.000000
_cell_volume 709.263626
_symmetry_space_group_name_H-M "P 2"
_symmetry_group_IT_number 3
_symmetry_cell_setting 'monoclinic'
loop_
_space_group_symop_operation_xyz
x,y,z
-x,y,-z
loop_
_atom_site_type_symbol
_atom_site_label
_atom_site_fract_x
_atom_site_fract_y
_atom_site_fract_z
Si Si1 0.681935 0.203480 0.924965
Si Si2 0.188609 0.761567 0.811810
Si Si3 0.577391 0.116368 0.402446
Si Si4 0.382753 0.473721 0.252858
Si Si5 0.829195 0.040372 0.657516
Si Si6 0.500000 0.031831 0.000000
Si Si7 0.525969 0.865733 0.234183
Si Si8 0.033640 0.376792 0.830911
O O1 0.638374 0.378528 0.845935
O O2 0.493870 0.178053 0.918402
O O3 0.676372 0.986909 0.876606
O O4 0.880913 0.259072 0.055286
O O5 0.328678 0.779305 0.782526
O O6 0.184247 0.538066 0.846023
O O7 0.296030 0.896273 0.923666
O O8 0.957935 0.836492 0.705823
O O9 0.538947 0.349441 0.370328
O O10 0.756448 0.090491 0.536824
O O11 0.363510 0.021136 0.353828
O O12 0.646227 0.015000 0.341925
O O13 0.460777 0.692669 0.270702
O O14 0.165788 0.491749 0.214961
O O15 0.981708 0.215631 0.741630
#
# Coordination Sequence:
#
# PCOD8045217 Si02
#       8
#     2   2   2   2   2   1   2   2
#     4  10  22  38  59  86 121 165 203 252 308 361
#     4  11  24  38  61  92 124 169 204 247 312 369
#     4   9  21  42  68  87 124 159 210 264 304 364
#     4  10  22  40  61  92 122 163 206 258 312 359
#     4  10  21  42  65  93 119 165 207 258 314 358
#     4  10  22  40  58  86 124 166 198 256 298 372
#     4  10  23  41  61  90 126 166 203 255 312 367
#     4  11  23  38  61  94 123 160 214 255 303 378
#
# _framework density 21.148696999999999
#
# number of rings (size 3 to 8) (size 9 to 14) (size 15 to 20)
#    0.000    1.867    1.333    1.200    5.600    2.667 
#    2.400    2.667    0.000    0.000    0.000    0.000 
#    0.000    0.000    0.000    0.000    0.000    0.000 
#
# Total GULP energy -185876.934043 kJ/mol
# GULP energy per Si atom -12391.795603 kJ/mol
# Density = 2.110056 g / cm^3
# Si number density = 21.148697 Si / 1000 Ang^3
#
#
#
# Elastic Constant Matrix: (Units=GPa)
#
#
# Indices 1 2 3 4 5 6 
#
# 1 44.7643 33.4944 18.0818 0.0000 -13.5712 0.0000
# 2 33.4944 94.8052 35.7070 0.0000 0.7151 0.0000
# 3 18.0818 35.7070 125.8090 0.0000 -8.3918 0.0000
# 4 0.0000 0.0000 0.0000 21.7697 0.0000 -3.1867
# 5 -13.5712 0.7151 -8.3918 0.0000 32.1700 0.0000
# 6 0.0000 0.0000 0.0000 -3.1867 0.0000 45.3836
#
#
#
# Elastic Compliance Matrix: (Units=1/GPa)
#
#
# Indices 1 2 3 4 5 6 
#
# 1 0.037089 -0.013001 -0.000588 0.000000 0.015782 0.000000
# 2 -0.013001 0.016410 -0.003235 0.000000 -0.006693 0.000000
# 3 -0.000588 -0.003235 0.009098 0.000000 0.002197 0.000000
# 4 0.000000 0.000000 0.000000 0.046412 0.000000 0.003259
# 5 0.015782 -0.006693 0.002197 0.000000 0.038465 0.000000
# 6 0.000000 0.000000 0.000000 0.003259 0.000000 0.022263
#
#
# Mechanical properties :
#
#
# Convention : Reuss Voigt Hill
#
# Bulk Modulus (GPa) = 34.54418 48.88276 41.71347
# Shear Modulus (GPa) = 23.47017 31.73769 27.60393
#
# Velocity S-wave (km/s) = 3.33493 3.87808 3.61672
# Velocity P-wave (km/s) = 5.58556 6.57394 6.09980
#
# Compressibility (1/GPa) = 0.02894844
#
# Stress axis : x y z
#
# Youngs Moduli (GPa) = 26.96191 60.93736 109.91557
#
# Poissons Ratio (x) = 0.79226 0.06462
# Poissons Ratio (y) = 0.35054 0.35563
# Poissons Ratio (z) = 0.01585 0.19716
#
# Static dielectric constant tensor:
#      x y z
#    x 3.762510 0.000000 -0.182490 
#    y 0.000000 3.771700 0.000000 
#    z -0.182490 0.000000 3.849290 
# 
# 
# High freq. dielectric constant tensor:
#      x y z
#    x 1.823960 0.000000 -0.019680 
#    y 0.000000 1.829740 0.000000 
#    z -0.019680 0.000000 1.823040 
# 
# From -- ./inp_files/14874.got.cif
#   From: 2010.03.12/outbox.cif.g09.slc.cpg/sg3_8_cif.got.tgz:14874.got - 2010.03.31 09:20:49.
