data_PCOD8045577
_publ_section_title
;
Structure prediction by ZEFSAII (Michael W. Deem and Ramdas Pophale) SiO2 
 PCOD8045577
Probable space group: P 2
;
_chemical_formula_sum "Si O2"
_cell_formula_units_Z 16
_cell_length_a 14.806128
_cell_length_b 12.159072
_cell_length_c 17.555999
_cell_angle_alpha 90.000000
_cell_angle_beta 26.462190
_cell_angle_gamma 90.000000
_cell_volume 1408.379253
_symmetry_space_group_name_H-M "P 2"
_symmetry_group_IT_number 3
_symmetry_cell_setting 'monoclinic'
loop_
_space_group_symop_operation_xyz
x,y,z
-x,y,-z
loop_
_atom_site_type_symbol
_atom_site_label
_atom_site_fract_x
_atom_site_fract_y
_atom_site_fract_z
Si Si1 0.944241 0.639280 0.163869
Si Si2 0.176773 0.406240 0.715017
Si Si3 0.318970 0.173201 0.789139
Si Si4 0.318971 0.639280 0.789139
Si Si5 0.632141 0.782164 0.476409
Si Si6 0.559771 0.406241 0.332018
Si Si7 0.367860 0.030317 0.523591
Si Si8 0.944241 0.173201 0.163869
O O1 0.960801 0.515579 0.184561
O O2 0.800173 0.637905 0.199827
O O3 0.846682 0.721134 0.299821
O O4 0.169744 0.679469 0.969695
O O5 0.323837 0.406241 0.531450
O O6 0.306118 0.406241 0.693883
O O7 0.039199 0.296903 0.815439
O O8 0.393106 0.296903 0.752255
O O9 0.199827 0.174576 0.800173
O O10 0.510005 0.091347 0.636498
O O11 0.169744 0.133013 0.969695
O O12 0.510005 0.721133 0.636499
O O13 0.393106 0.515578 0.752255
O O14 0.500000 0.781138 0.500000
O O15 0.677902 0.906241 0.468240
O O16 0.500000 0.031344 0.500000
O O17 0.153318 0.091348 0.700180
#
# Coordination Sequence:
#
# PCOD8045577 Si02
#       8
#     2   2   2   2   2   2   2   2
#     4   9  15  21  28  35  40  45  51  58  66  72
#     4   9  13  19  29  36  41  45  48  57  69  74
#     4   9  15  21  28  35  40  45  51  58  66  72
#     4   9  15  21  28  35  40  45  51  58  66  72
#     4   9  16  23  27  31  39  48  55  59  61  67
#     4   9  13  19  29  36  41  45  48  57  69  74
#     4   9  16  23  27  31  39  48  55  59  61  67
#     4   9  15  21  28  35  40  45  51  58  66  72
#
# _framework density 11.360576
#
# number of rings (size 3 to 8) (size 9 to 14) (size 15 to 20)
#    0.000    3.000    2.500    0.750    0.000    4.000 
#    0.000    5.000    0.000    0.000    0.000    0.000 
#    0.000    0.000    0.000    0.000    0.000    0.000 
#
# Total GULP energy -198253.135185 kJ/mol
# GULP energy per Si atom -12390.820949 kJ/mol
# Density = 1.133472 g / cm^3
# Si number density = 11.360576 Si / 1000 Ang^3
#
#
#
# Elastic Constant Matrix: (Units=GPa)
#
#
# Indices 1 2 3 4 5 6 
#
# 1 0.0260 1.0882 2.1484 0.0000 0.2922 0.0000
# 2 1.0882 105.6293 59.8577 0.0000 8.0757 0.0000
# 3 2.1484 59.8577 118.0836 0.0000 15.9308 0.0000
# 4 0.0000 0.0000 0.0000 12.6990 0.0000 1.7132
# 5 0.2922 8.0757 15.9308 0.0000 2.1509 0.0000
# 6 0.0000 0.0000 0.0000 1.7132 0.0000 0.2323
#
#
#
# Elastic Compliance Matrix: (Units=1/GPa)
#
#
# Indices 1 2 3 4 5 6 
#
# 1 -61.113340 -0.000972-10.525620 0.000000 86.264572 0.000000
# 2 -0.000972 0.013283 -0.006659 0.000000 -0.000420 0.000000
# 3 -10.525620 -0.006659 9.319690 0.000000-67.573097 0.000000
# 4 0.000000 0.000000 0.000000 15.074136 0.000000**********
# 5 86.264572 -0.000420-67.573097 0.000000489.240269 0.000000
# 6 0.000000 0.000000 0.000000********** 0.000000823.911801
#
#
# Mechanical properties :
#
#
# Convention : Reuss Voigt Hill
#
# Bulk Modulus (GPa) = -0.01373 38.88084 19.43356
# Shear Modulus (GPa) = 0.00393 13.72607 6.86500
#
# Velocity S-wave (km/s) = 0.05886 3.47972 2.46088
# Velocity P-wave (km/s) = 0.08655 7.10234 5.02174
#
# Compressibility (1/GPa) = -72.84686920
#
# Stress axis : x y z
#
# Youngs Moduli (GPa) = -0.01636 75.28685 0.10730
#
# Poissons Ratio (x) = 0.07321 1.12940
# Poissons Ratio (y) = -0.00002 0.00071
# Poissons Ratio (z) = -0.17223 0.50132
#
# Static dielectric constant tensor:
#      x y z
#    x 1.531490 0.000000 0.156880 
#    y 0.000000 2.622610 0.000000 
#    z 0.156880 0.000000 2.673170 
# 
# 
# High freq. dielectric constant tensor:
#      x y z
#    x 1.295740 0.000000 0.021500 
#    y 0.000000 1.445560 0.000000 
#    z 0.021500 0.000000 1.452180 
# 
# From -- ./inp_files/12249.got.cif
#   From: 2010.03.12/outbox.cif.g09.slc.cpg/sg3_7_cif.got.tgz:12249.got - 2010.03.31 09:20:49.
