data_PCOD8045085
_publ_section_title
;
Structure prediction by ZEFSAII (Michael W. Deem and Ramdas Pophale) SiO2 
 PCOD8045085
Probable space group: P 2
;
_chemical_formula_sum "Si O2"
_cell_formula_units_Z 16
_cell_length_a 9.234899
_cell_length_b 9.016661
_cell_length_c 20.950301
_cell_angle_alpha 90.000000
_cell_angle_beta 28.163955
_cell_angle_gamma 90.000000
_cell_volume 823.392104
_symmetry_space_group_name_H-M "P 2"
_symmetry_group_IT_number 3
_symmetry_cell_setting 'monoclinic'
loop_
_space_group_symop_operation_xyz
x,y,z
-x,y,-z
loop_
_atom_site_type_symbol
_atom_site_label
_atom_site_fract_x
_atom_site_fract_y
_atom_site_fract_z
Si Si1 0.723921 0.511410 0.763039
Si Si2 0.848556 0.255523 0.352363
Si Si3 0.924418 0.883326 0.102117
Si Si4 0.489681 0.765257 0.077455
Si Si5 0.795616 0.011410 0.727192
Si Si6 0.241992 0.767297 0.352363
Si Si7 0.167114 0.139494 0.102117
Si Si8 0.299502 0.257563 0.922545
O O1 0.664411 0.607262 0.849488
O O2 0.789448 0.625051 0.680647
O O3 0.437640 0.415558 0.849487
O O4 0.987964 0.397770 0.680647
O O5 0.500000 0.294830 0.500000
O O6 0.909941 0.106973 0.368707
O O7 0.953895 0.216964 0.238860
O O8 0.590663 0.805856 0.238860
O O9 0.984443 0.011410 0.132778
O O10 0.000000 0.938355 0.000000
O O11 0.175163 0.757264 0.020042
O O12 0.294705 0.902515 0.180381
O O13 0.500000 0.794942 0.000000
O O14 0.516227 0.120304 0.819620
O O15 0.884768 0.915847 0.631293
O O16 0.000000 0.727990 0.500000
O O17 0.500000 0.084465 0.000000
O O18 0.244668 0.265556 0.020043
O O19 0.000000 0.227879 0.000000
#
# Coordination Sequence:
#
# PCOD8045085 Si02
#       8
#     2   2   2   2   2   2   2   2
#     4  10  24  44  62  90 134 170 214 268 322 382
#     4  11  25  44  64  91 133 173 214 265 322 392
#     4  12  21  39  70 102 126 164 217 275 321 375
#     4  11  22  38  67  96 129 163 215 273 325 379
#     4  10  20  40  64  94 122 162 210 274 320 362
#     4  11  25  44  64  91 133 173 214 265 322 392
#     4  12  21  39  70 102 126 164 217 275 321 375
#     4  11  22  38  67  96 129 163 215 273 325 379
#
# _framework density 19.431811
#
# number of rings (size 3 to 8) (size 9 to 14) (size 15 to 20)
#    0.000    1.000    6.250    2.250    5.250    0.000 
#    4.500    2.500    0.000    0.000    0.000    0.000 
#    0.000    0.000    0.000    0.000    0.000    0.000 
#
# Total GULP energy -198221.402322 kJ/mol
# GULP energy per Si atom -12388.837645 kJ/mol
# Density = 1.938758 g / cm^3
# Si number density = 19.431811 Si / 1000 Ang^3
#
#
#
# Elastic Constant Matrix: (Units=GPa)
#
#
# Indices 1 2 3 4 5 6 
#
# 1 119.2919 45.7091 42.3072 0.0000 -0.2024 0.0000
# 2 45.7091 135.3813 42.1218 0.0000 -0.0331 0.0000
# 3 42.3072 42.1218 97.7384 0.0000 0.0034 0.0000
# 4 0.0000 0.0000 0.0000 4.3685 0.0000 0.6455
# 5 -0.2024 -0.0331 0.0034 0.0000 27.5571 0.0000
# 6 0.0000 0.0000 0.0000 0.6455 0.0000 -65.2534
#
#
#
# Elastic Compliance Matrix: (Units=1/GPa)
#
#
# Indices 1 2 3 4 5 6 
#
# 1 0.010578 -0.002479 -0.003510 0.000000 0.000075 0.000000
# 2 -0.002479 0.009111 -0.002854 0.000000 -0.000007 0.000000
# 3 -0.003510 -0.002854 0.012981 0.000000 -0.000031 0.000000
# 4 0.000000 0.000000 0.000000 0.228577 0.000000 0.002261
# 5 0.000075 -0.000007 -0.000031 0.000000 0.036289 0.000000
# 6 0.000000 0.000000 0.000000 0.002261 0.000000 -0.015303
#
#
# Mechanical properties :
#
#
# Convention : Reuss Voigt Hill
#
# Bulk Modulus (GPa) = 66.73876 68.07644 67.40760
# Shear Modulus (GPa) = 16.39804 8.15267 12.27536
#
# Velocity S-wave (km/s) = 2.90811 2.05052 2.51612
# Velocity P-wave (km/s) = 6.75987 6.38089 6.57311
#
# Compressibility (1/GPa) = 0.01498380
#
# Stress axis : x y z
#
# Youngs Moduli (GPa) = 94.53741 109.75202 77.03784
#
# Poissons Ratio (x) = 0.27210 0.27042
# Poissons Ratio (y) = 0.23438 0.21983
# Poissons Ratio (z) = 0.33185 0.31318
#
# Static dielectric constant tensor:
#      x y z
#    x 3.607060 0.000000 -0.001840 
#    y 0.000000 3.794010 0.000000 
#    z -0.001840 0.000000 3.408040 
# 
# 
# High freq. dielectric constant tensor:
#      x y z
#    x 1.765490 0.000000 -0.000260 
#    y 0.000000 1.769060 0.000000 
#    z -0.000260 0.000000 1.737710 
# 
# From -- ./inp_files/15779.got.cif
#   From: 2010.03.12/outbox.cif.g09.slc.cpg/sg3_8_cif.got.tgz:15779.got - 2010.03.31 09:20:49.
