data_PCOD8045611
_publ_section_title
;
Structure prediction by ZEFSAII (Michael W. Deem and Ramdas Pophale) SiO2 
 PCOD8045611
Probable space group: P 21
;
_chemical_formula_sum "Si O2"
_cell_formula_units_Z 16
_cell_length_a 11.997411
_cell_length_b 8.199092
_cell_length_c 8.268847
_cell_angle_alpha 90.000000
_cell_angle_beta 65.383544
_cell_angle_gamma 90.000000
_cell_volume 739.465298
_symmetry_space_group_name_H-M "P 21"
_symmetry_group_IT_number 4
_symmetry_cell_setting 'monoclinic'
loop_
_space_group_symop_operation_xyz
x,y,z
-x,1/2+y,-z
loop_
_atom_site_type_symbol
_atom_site_label
_atom_site_fract_x
_atom_site_fract_y
_atom_site_fract_z
Si Si1 0.998213 0.334610 0.784779
Si Si2 0.462745 0.358630 0.263413
Si Si3 0.757611 0.981733 0.405120
Si Si4 0.698175 0.302863 0.284184
Si Si5 0.866457 0.570550 0.100226
Si Si6 0.501365 0.182477 0.935488
Si Si7 0.240106 0.677531 0.108018
Si Si8 0.719018 0.849438 0.071089
O O1 0.103213 0.435161 0.623532
O O2 0.053700 0.170977 0.823516
O O3 0.882446 0.267874 0.748486
O O4 0.958468 0.450643 0.954619
O O5 0.329104 0.407390 0.405514
O O6 0.550537 0.325837 0.365596
O O7 0.523225 0.501407 0.116378
O O8 0.456538 0.199050 0.150830
O O9 0.728280 0.905545 0.249726
O O10 0.735706 0.176351 0.403123
O O11 0.766908 0.474072 0.270879
O O12 0.739909 0.244675 0.082909
O O13 0.799196 0.684649 0.006869
O O14 0.647676 0.220714 0.839958
O O15 0.424242 0.312616 0.877266
O O16 0.231523 0.480848 0.089910
#
# Coordination Sequence:
#
# PCOD8045611 Si02
#       8
#     2   2   2   2   2   2   2   2
#     4  10  19  33  55  87 123 160 201 250 300 365
#     4  11  23  39  62  89 128 157 203 255 312 371
#     4  10  23  37  58  92 125 154 195 263 313 351
#     4   9  19  34  56  89 118 152 196 254 310 354
#     4  10  17  31  57  85 120 156 204 250 299 361
#     4  11  21  39  61  88 118 163 207 247 304 373
#     4   9  19  34  56  83 119 163 205 243 289 375
#     4  10  19  35  59  93 119 157 203 256 311 350
#
# _framework density 21.637253999999999
#
# number of rings (size 3 to 8) (size 9 to 14) (size 15 to 20)
#    0.000    2.000    2.500    3.000    1.750    0.000 
#    0.000    2.500    2.750    0.000    0.000    0.000 
#    0.000    0.000    0.000    0.000    0.000    0.000 
#
# Total GULP energy -198269.110403 kJ/mol
# GULP energy per Si atom -12391.819400 kJ/mol
# Density = 2.158801 g / cm^3
# Si number density = 21.637254 Si / 1000 Ang^3
#
#
#
# Elastic Constant Matrix: (Units=GPa)
#
#
# Indices 1 2 3 4 5 6 
#
# 1 113.7537 33.1718 16.7468 0.0000 -27.2583 0.0000
# 2 33.1718 85.7000 15.3944 0.0000 -12.4695 0.0000
# 3 16.7468 15.3944 60.6654 0.0000 -19.1433 0.0000
# 4 0.0000 0.0000 0.0000 20.8644 0.0000 -6.6996
# 5 -27.2583 -12.4695 -19.1433 0.0000 27.4794 0.0000
# 6 0.0000 0.0000 0.0000 -6.6996 0.0000 41.4582
#
#
#
# Elastic Compliance Matrix: (Units=1/GPa)
#
#
# Indices 1 2 3 4 5 6 
#
# 1 0.012350 -0.003298 0.001053 0.000000 0.011488 0.000000
# 2 -0.003298 0.013524 -0.002073 0.000000 0.001421 0.000000
# 3 0.001053 -0.002073 0.021472 0.000000 0.015062 0.000000
# 4 0.000000 0.000000 0.000000 0.050552 0.000000 0.008169
# 5 0.011488 0.001421 0.015062 0.000000 0.058924 0.000000
# 6 0.000000 0.000000 0.000000 0.008169 0.000000 0.025441
#
#
# Mechanical properties :
#
#
# Convention : Reuss Voigt Hill
#
# Bulk Modulus (GPa) = 25.83306 43.41611 34.62458
# Shear Modulus (GPa) = 24.53341 30.94747 27.74044
#
# Velocity S-wave (km/s) = 3.37092 3.78602 3.58448
# Velocity P-wave (km/s) = 5.20729 6.26266 5.75920
#
# Compressibility (1/GPa) = 0.03871009
#
# Stress axis : x y z
#
# Youngs Moduli (GPa) = 80.96845 73.94055 46.57192
#
# Poissons Ratio (x) = 0.24386 -0.04902
# Poissons Ratio (y) = 0.26704 0.09654
# Poissons Ratio (z) = -0.08523 0.15328
#
# Static dielectric constant tensor:
#      x y z
#    x 4.308200 0.000000 -0.399870 
#    y 0.000000 4.445350 0.000000 
#    z -0.399870 0.000000 3.418320 
# 
# 
# High freq. dielectric constant tensor:
#      x y z
#    x 1.857180 0.000000 -0.026180 
#    y 0.000000 1.861980 0.000000 
#    z -0.026180 0.000000 1.792030 
# 
# From -- ./inp_files/7998.got.cif
#   From: 2010.03.12/outbox.cif.g09.slc.cpg/sg4_4_cif.got.tgz:7998.got - 2010.03.31 09:31:35.
