data_PCOD8045221
_publ_section_title
;
Structure prediction by ZEFSAII (Michael W. Deem and Ramdas Pophale) SiO2 
 PCOD8045221
Probable space group: P 2
;
_chemical_formula_sum "Si O2"
_cell_formula_units_Z 16
_cell_length_a 14.503562
_cell_length_b 6.676552
_cell_length_c 27.500548
_cell_angle_alpha 90.000000
_cell_angle_beta 164.286187
_cell_angle_gamma 90.000000
_cell_volume 721.222190
_symmetry_space_group_name_H-M "P 2"
_symmetry_group_IT_number 3
_symmetry_cell_setting 'monoclinic'
loop_
_space_group_symop_operation_xyz
x,y,z
-x,y,-z
loop_
_atom_site_type_symbol
_atom_site_label
_atom_site_fract_x
_atom_site_fract_y
_atom_site_fract_z
Si Si1 0.937604 0.876800 0.531186
Si Si2 0.487783 0.095636 0.238711
Si Si3 0.121519 0.094499 0.813633
Si Si4 0.490168 0.569602 0.731318
Si Si5 0.074017 0.825249 0.204737
Si Si6 0.899350 0.524584 0.698003
Si Si7 0.888080 0.789028 0.004495
Si Si8 0.151782 0.832859 0.406391
O O1 0.868006 0.648580 0.474460
O O2 0.036539 0.868926 0.638224
O O3 0.568126 0.986186 0.331620
O O4 0.211717 0.020537 0.644960
O O5 0.491411 0.332333 0.250408
O O6 0.137008 0.011526 0.034559
O O7 0.129236 0.331128 0.814780
O O8 0.500000 0.007533 0.000000
O O9 0.978819 0.034846 0.794158
O O10 0.887826 0.017410 0.650794
O O11 0.801602 0.646908 0.854948
O O12 0.539572 0.677597 0.809108
O O13 0.972780 0.655075 0.191738
O O14 0.457198 0.806303 0.381359
O O15 0.847098 0.809348 0.041415
O O16 0.500000 0.476661 0.500000
O O17 0.981663 0.636059 0.689118
#
# Coordination Sequence:
#
# PCOD8045221 Si02
#       8
#     2   2   2   2   2   2   2   2
#     4  10  22  43  67  93 130 176 221 275 332 396
#     4  10  24  41  66  96 138 177 218 277 336 391
#     4  11  24  40  62  96 132 163 207 267 339 397
#     4  10  22  43  66  96 134 175 222 273 331 396
#     4  10  21  42  68  90 125 169 218 272 318 383
#     4   9  20  40  64  91 123 163 217 266 319 392
#     4  10  22  41  65  96 131 172 221 280 326 387
#     4  10  21  42  69  90 122 171 216 269 319 385
#
# _framework density 22.184564000000002
#
# number of rings (size 3 to 8) (size 9 to 14) (size 15 to 20)
#    0.000    2.000    1.250    1.875    1.750   12.000 
#    2.250    0.000    0.000    0.000    0.000    0.000 
#    0.000    0.000    0.000    0.000    0.000    0.000 
#
# Total GULP energy -198209.709192 kJ/mol
# GULP energy per Si atom -12388.106825 kJ/mol
# Density = 2.213407 g / cm^3
# Si number density = 22.184564 Si / 1000 Ang^3
#
#
#
# Elastic Constant Matrix: (Units=GPa)
#
#
# Indices 1 2 3 4 5 6 
#
# 1 152.8112 56.0372 46.4376 -0.0002 -46.9834 -0.0015
# 2 56.0372 168.3913 27.1561 -0.0003 -12.6616 -0.0004
# 3 46.4376 27.1561 70.0580 -0.0025 -25.1858 -0.0037
# 4 -0.0002 -0.0003 -0.0025 22.8747 -0.0007 8.8886
# 5 -46.9834 -12.6616 -25.1858 -0.0007 40.4394 -0.0020
# 6 -0.0015 -0.0004 -0.0037 8.8886 -0.0020 15.9384
#
#
#
# Elastic Compliance Matrix: (Units=1/GPa)
#
#
# Indices 1 2 3 4 5 6 
#
# 1 0.011776 -0.002633 -0.002787 -0.000001 0.011121 0.000002
# 2 -0.002633 0.006934 -0.001626 0.000000 -0.001901 -0.000001
# 3 -0.002787 -0.001626 0.019848 0.000000 0.008615 0.000005
# 4 -0.000001 0.000000 0.000000 0.055811 -0.000001 -0.031125
# 5 0.011121 -0.001901 0.008615 -0.000001 0.042420 0.000009
# 6 0.000002 -0.000001 0.000005 -0.031125 0.000009 0.080099
#
#
# Mechanical properties :
#
#
# Convention : Reuss Voigt Hill
#
# Bulk Modulus (GPa) = 40.87146 72.28026 56.57586
# Shear Modulus (GPa) = 20.90868 33.29248 27.10058
#
# Velocity S-wave (km/s) = 3.07333 3.87810 3.49893
# Velocity P-wave (km/s) = 5.57289 7.25981 6.47156
#
# Compressibility (1/GPa) = 0.02446695
#
# Stress axis : x y z
#
# Youngs Moduli (GPa) = 84.91948 144.21566 50.38214
#
# Poissons Ratio (x) = 0.37974 0.14040
# Poissons Ratio (y) = 0.22360 0.08191
# Poissons Ratio (z) = 0.23665 0.23446
#
# Static dielectric constant tensor:
#      x y z
#    x 3.908100 0.000000 -0.096140 
#    y 0.000000 3.886760 0.000000 
#    z -0.096140 0.000000 4.623300 
# 
# 
# High freq. dielectric constant tensor:
#      x y z
#    x 1.867540 0.000000 0.002390 
#    y 0.000000 1.860230 0.000000 
#    z 0.002390 0.000000 1.887450 
# 
# From -- ./inp_files/16553.got.cif
#   From: 2010.03.12/outbox.cif.g09.slc.cpg/sg3_9_cif.got.tgz:16553.got - 2010.03.31 09:20:49.
