data_PCOD8045116
_publ_section_title
;
Structure prediction by ZEFSAII (Michael W. Deem and Ramdas Pophale) SiO2 
 PCOD8045116
Probable space group: P 2
;
_chemical_formula_sum "Si O2"
_cell_formula_units_Z 16
_cell_length_a 9.487691
_cell_length_b 5.106406
_cell_length_c 19.613740
_cell_angle_alpha 90.000000
_cell_angle_beta 56.101961
_cell_angle_gamma 90.000000
_cell_volume 788.734424
_symmetry_space_group_name_H-M "P 2"
_symmetry_group_IT_number 3
_symmetry_cell_setting 'monoclinic'
loop_
_space_group_symop_operation_xyz
x,y,z
-x,y,-z
loop_
_atom_site_type_symbol
_atom_site_label
_atom_site_fract_x
_atom_site_fract_y
_atom_site_fract_z
Si Si1 0.502726 0.343000 0.609675
Si Si2 0.187834 0.320827 0.972226
Si Si3 0.289960 0.874599 0.175530
Si Si4 0.349903 0.816931 0.865239
Si Si5 0.351357 0.848578 0.709051
Si Si6 0.681974 0.371295 0.920441
Si Si7 0.926552 0.849940 0.332394
Si Si8 0.224943 0.345363 0.568731
O O1 0.476027 0.612261 0.656551
O O2 0.375918 0.318224 0.581270
O O3 0.695024 0.328095 0.528796
O O4 0.465111 0.107952 0.671588
O O5 0.316440 0.530579 0.905150
O O6 0.243545 0.030421 0.935854
O O7 0.183163 0.346131 0.055117
O O8 0.000000 0.387241 0.000000
O O9 0.449347 0.870908 0.183629
O O10 0.316882 0.665619 0.108033
O O11 0.122159 0.803999 0.262467
O O12 0.268693 0.165119 0.151056
O O13 0.289827 0.824135 0.803239
O O14 0.183416 0.853588 0.707485
O O15 0.500000 0.296324 0.000000
O O16 0.869044 0.619698 0.397907
O O17 0.907812 0.113921 0.381227
#
# Coordination Sequence:
#
# PCOD8045116 Si02
#       8
#     2   2   2   2   2   2   2   2
#     4   9  17  33  56  84 113 153 185 236 288 335
#     4  12  27  41  63  88 115 152 195 247 294 338
#     4  12  24  40  63  85 118 158 193 240 289 345
#     4  12  24  43  59  86 122 156 190 238 295 353
#     4  10  21  34  56  85 116 148 192 234 290 341
#     4  12  23  43  63  84 113 154 203 237 282 352
#     4  10  21  34  56  88 112 149 191 240 284 333
#     4   9  17  33  56  84 117 143 193 239 280 334
#
# _framework density 20.285663
#
# number of rings (size 3 to 8) (size 9 to 14) (size 15 to 20)
#    0.000    1.250    2.500    3.750    3.500    3.000 
#    0.000    0.000    0.000    4.500    0.000    0.000 
#    0.000    0.000    0.000    0.000    0.000    0.000 
#
# Total GULP energy -198484.317568 kJ/mol
# GULP energy per Si atom -12405.269848 kJ/mol
# Density = 2.023949 g / cm^3
# Si number density = 20.285663 Si / 1000 Ang^3
#
#
#
# Elastic Constant Matrix: (Units=GPa)
#
#
# Indices 1 2 3 4 5 6 
#
# 1 75.9600 10.7535 16.2044 0.0000 -15.0965 0.0000
# 2 10.7535 89.0070 5.5211 0.0000 -0.1465 0.0000
# 3 16.2044 5.5211 62.6803 0.0000 -17.2193 0.0000
# 4 0.0000 0.0000 0.0000 13.0680 0.0000 -0.9313
# 5 -15.0965 -0.1465 -17.2193 0.0000 24.9936 0.0000
# 6 0.0000 0.0000 0.0000 -0.9313 0.0000 17.0282
#
#
#
# Elastic Compliance Matrix: (Units=1/GPa)
#
#
# Indices 1 2 3 4 5 6 
#
# 1 0.015376 -0.001747 -0.001570 0.000000 0.008195 0.000000
# 2 -0.001747 0.011507 -0.001028 0.000000 -0.001696 0.000000
# 3 -0.001570 -0.001028 0.019967 0.000000 0.012802 0.000000
# 4 0.000000 0.000000 0.000000 0.076822 0.000000 0.004201
# 5 0.008195 -0.001696 0.012802 0.000000 0.053771 0.000000
# 6 0.000000 0.000000 0.000000 0.004201 0.000000 0.058956
#
#
# Mechanical properties :
#
#
# Convention : Reuss Voigt Hill
#
# Bulk Modulus (GPa) = 26.20450 32.51172 29.35811
# Shear Modulus (GPa) = 19.39428 24.02918 21.71173
#
# Velocity S-wave (km/s) = 3.09537 3.44545 3.27509
# Velocity P-wave (km/s) = 5.07158 5.64711 5.36707
#
# Compressibility (1/GPa) = 0.03816139
#
# Stress axis : x y z
#
# Youngs Moduli (GPa) = 65.03736 86.90303 50.08189
#
# Poissons Ratio (x) = 0.15180 0.07861
# Poissons Ratio (y) = 0.11361 0.05148
# Poissons Ratio (z) = 0.10209 0.08932
#
# Static dielectric constant tensor:
#      x y z
#    x 3.506770 0.000000 0.005490 
#    y 0.000000 3.855690 0.000000 
#    z 0.005490 0.000000 3.700760 
# 
# 
# High freq. dielectric constant tensor:
#      x y z
#    x 1.764420 0.000000 -0.006290 
#    y 0.000000 1.812200 0.000000 
#    z -0.006290 0.000000 1.793410 
# 
# From -- ./inp_files/14848.got.cif
#   From: 2010.03.12/outbox.cif.g09.slc.cpg/sg3_8_cif.got.tgz:14848.got - 2010.03.31 09:20:49.
