data_PCOD8045724
_publ_section_title
;
Structure prediction by ZEFSAII (Michael W. Deem and Ramdas Pophale) SiO2 
 PCOD8045724
Probable space group: P 21
;
_chemical_formula_sum "Si O2"
_cell_formula_units_Z 16
_cell_length_a 18.202188
_cell_length_b 5.107159
_cell_length_c 9.163113
_cell_angle_alpha 90.000000
_cell_angle_beta 118.006889
_cell_angle_gamma 90.000000
_cell_volume 752.061186
_symmetry_space_group_name_H-M "P 21"
_symmetry_group_IT_number 4
_symmetry_cell_setting 'monoclinic'
loop_
_space_group_symop_operation_xyz
x,y,z
-x,1/2+y,-z
loop_
_atom_site_type_symbol
_atom_site_label
_atom_site_fract_x
_atom_site_fract_y
_atom_site_fract_z
Si Si1 0.272369 0.108800 0.849105
Si Si2 0.683778 0.916846 0.845376
Si Si3 0.505565 0.013397 0.604580
Si Si4 0.189147 0.607927 0.830943
Si Si5 0.923871 0.002797 0.788495
Si Si6 0.264783 0.442105 0.433400
Si Si7 0.975079 0.003211 0.165211
Si Si8 0.343627 0.958889 0.633150
O O1 0.229023 0.385854 0.760169
O O2 0.344453 0.993485 0.810294
O O3 0.196958 0.897869 0.773510
O O4 0.311277 0.153490 0.048191
O O5 0.592036 0.043025 0.772729
O O6 0.702719 0.859343 0.695552
O O7 0.754121 0.116984 0.968928
O O8 0.496935 0.230423 0.472566
O O9 0.432677 0.043182 0.654670
O O10 0.093638 0.539916 0.773821
O O11 0.829317 0.042666 0.652525
O O12 0.979908 0.227492 0.768184
O O13 0.928489 0.015762 0.967203
O O14 0.956023 0.727244 0.758501
O O15 0.272572 0.168084 0.524178
O O16 0.321427 0.668452 0.557763
#
# Coordination Sequence:
#
# PCOD8045724 Si02
#       8
#     2   2   2   2   2   2   2   2
#     4  10  24  41  64  91 125 172 219 250 320 377
#     4  10  24  40  67  94 121 169 212 261 309 388
#     4  12  24  42  64  97 129 160 209 265 322 379
#     4  10  21  39  65  89 125 167 211 258 311 381
#     4  10  20  33  55  96 125 158 199 270 312 373
#     4  12  23  40  69  91 131 162 219 257 331 373
#     4  10  19  33  58  91 129 154 205 261 323 353
#     4  12  25  44  64  93 129 174 202 272 318 380
#
# _framework density 21.274864000000001
#
# number of rings (size 3 to 8) (size 9 to 14) (size 15 to 20)
#    0.750    0.500    3.750    2.250    3.500    1.000 
#    2.250    0.000    0.000   15.000    0.000    0.000 
#    0.000    0.000    0.000    0.000    0.000    0.000 
#
# Total GULP energy -198315.195834 kJ/mol
# GULP energy per Si atom -12394.699740 kJ/mol
# Density = 2.122644 g / cm^3
# Si number density = 21.274864 Si / 1000 Ang^3
#
#
#
# Elastic Constant Matrix: (Units=GPa)
#
#
# Indices 1 2 3 4 5 6 
#
# 1 120.7799 8.4018 24.6323 0.0000 -0.3872 0.0000
# 2 8.4018 102.7718 15.4993 0.0000 -7.2703 0.0000
# 3 24.6323 15.4993 45.1894 0.0000 -3.7178 0.0000
# 4 0.0000 0.0000 0.0000 22.6952 0.0000 -1.8986
# 5 -0.3872 -7.2703 -3.7178 0.0000 38.0228 0.0000
# 6 0.0000 0.0000 0.0000 -1.8986 0.0000 27.3130
#
#
#
# Elastic Compliance Matrix: (Units=1/GPa)
#
#
# Indices 1 2 3 4 5 6 
#
# 1 0.009321 -0.000021 -0.005107 0.000000 -0.000408 0.000000
# 2 -0.000021 0.010362 -0.003407 0.000000 0.001648 0.000000
# 3 -0.005107 -0.003407 0.026235 0.000000 0.001862 0.000000
# 4 0.000000 0.000000 0.000000 0.044320 0.000000 0.003081
# 5 -0.000408 0.001648 0.001862 0.000000 0.026793 0.000000
# 6 0.000000 0.000000 0.000000 0.003081 0.000000 0.036827
#
#
# Mechanical properties :
#
#
# Convention : Reuss Voigt Hill
#
# Bulk Modulus (GPa) = 34.66472 40.64534 37.65503
# Shear Modulus (GPa) = 27.69391 32.28671 29.99031
#
# Velocity S-wave (km/s) = 3.61185 3.89986 3.75862
# Velocity P-wave (km/s) = 5.80716 6.27893 6.04764
#
# Compressibility (1/GPa) = 0.02884777
#
# Stress axis : x y z
#
# Youngs Moduli (GPa) = 107.28142 96.50244 38.11717
#
# Poissons Ratio (x) = 0.00199 0.19468
# Poissons Ratio (y) = 0.00222 0.12988
# Poissons Ratio (z) = 0.54793 0.32881
#
# Static dielectric constant tensor:
#      x y z
#    x 3.837800 0.000000 -0.032310 
#    y 0.000000 3.802540 0.000000 
#    z -0.032310 0.000000 3.617490 
# 
# 
# High freq. dielectric constant tensor:
#      x y z
#    x 1.841080 0.000000 -0.001990 
#    y 0.000000 1.842560 0.000000 
#    z -0.001990 0.000000 1.804030 
# 
# From -- ./inp_files/9439.got.cif
#   From: 2010.03.12/outbox.cif.g09.slc.cpg/sg4_5_cif.got.tgz:9439.got - 2010.03.31 09:31:35.
