data_PCOD8045230
_publ_section_title
;
Structure prediction by ZEFSAII (Michael W. Deem and Ramdas Pophale) SiO2 
 PCOD8045230
Probable space group: P 2
;
_chemical_formula_sum "Si O2"
_cell_formula_units_Z 16
_cell_length_a 9.097897
_cell_length_b 7.485616
_cell_length_c 12.366564
_cell_angle_alpha 90.000000
_cell_angle_beta 119.741899
_cell_angle_gamma 90.000000
_cell_volume 731.260118
_symmetry_space_group_name_H-M "P 2"
_symmetry_group_IT_number 3
_symmetry_cell_setting 'monoclinic'
loop_
_space_group_symop_operation_xyz
x,y,z
-x,y,-z
loop_
_atom_site_type_symbol
_atom_site_label
_atom_site_fract_x
_atom_site_fract_y
_atom_site_fract_z
Si Si1 0.747138 0.010650 0.041470
Si Si2 0.627129 0.505474 0.451970
Si Si3 0.857840 0.637225 0.032664
Si Si4 0.186740 0.346389 0.834824
Si Si5 0.414336 0.926436 0.798605
Si Si6 0.518936 0.529481 0.177442
Si Si7 0.651511 0.917795 0.473159
Si Si8 0.092055 0.209906 0.426632
O O1 0.809326 0.215346 0.056549
O O2 0.875385 0.849336 0.062483
O O3 0.706172 0.014322 0.156064
O O4 0.602043 0.982069 0.901001
O O5 0.500000 0.449511 0.500000
O O6 0.519735 0.477674 0.303525
O O7 0.789046 0.379832 0.510137
O O8 0.694448 0.708067 0.489848
O O9 0.895877 0.532908 0.157242
O O10 0.672921 0.560940 0.931158
O O11 0.000000 0.583588 0.000000
O O12 0.375295 0.381348 0.852044
O O13 0.055742 0.259292 0.706964
O O14 0.383284 0.715869 0.801754
O O15 0.386528 0.985534 0.663919
O O16 0.500000 0.957497 0.500000
O O17 0.805467 0.035296 0.576271
O O18 0.000000 0.147247 0.500000
#
# Coordination Sequence:
#
# PCOD8045230 Si02
#       8
#     2   2   2   2   2   2   2   2
#     4  10  22  41  67  98 131 174 224 272 332 401
#     4  10  23  43  71  95 132 183 223 273 336 390
#     4  11  26  45  67 101 138 170 218 283 338 398
#     4  12  25  42  66 100 134 181 221 272 335 402
#     4   9  19  40  71  97 121 175 228 270 327 393
#     4  10  21  44  70  96 131 173 228 270 330 404
#     4  10  23  45  68  99 131 176 228 281 335 391
#     4  12  25  42  64 101 139 174 227 275 328 398
#
# _framework density 21.880037000000002
#
# number of rings (size 3 to 8) (size 9 to 14) (size 15 to 20)
#    0.000    1.500    2.500    1.500    5.250    2.000 
#    9.000    0.000    0.000    0.000    0.000    0.000 
#    0.000    0.000    0.000    0.000    0.000    0.000 
#
# Total GULP energy -198263.647317 kJ/mol
# GULP energy per Si atom -12391.477957 kJ/mol
# Density = 2.183024 g / cm^3
# Si number density = 21.880037 Si / 1000 Ang^3
#
#
#
# Elastic Constant Matrix: (Units=GPa)
#
#
# Indices 1 2 3 4 5 6 
#
# 1 107.0582 44.2629 17.9824 0.0000 -3.0023 0.0000
# 2 44.2629 103.4032 26.1803 0.0000 9.9318 0.0000
# 3 17.9824 26.1803 70.8316 0.0000 -4.0826 0.0000
# 4 0.0000 0.0000 0.0000 -38.1719 0.0000 -62.1449
# 5 -3.0023 9.9318 -4.0826 0.0000 28.5692 0.0000
# 6 0.0000 0.0000 0.0000 -62.1449 0.0000 -30.2914
#
#
#
# Elastic Compliance Matrix: (Units=1/GPa)
#
#
# Indices 1 2 3 4 5 6 
#
# 1 0.011655 -0.005024 -0.000938 0.000000 0.002837 0.000000
# 2 -0.005024 0.013388 -0.004005 0.000000 -0.005754 0.000000
# 3 -0.000938 -0.004005 0.016043 0.000000 0.003586 0.000000
# 4 0.000000 0.000000 0.000000 0.011195 0.000000 -0.022968
# 5 0.002837 -0.005754 0.003586 0.000000 0.037814 0.000000
# 6 0.000000 0.000000 0.000000 -0.022968 0.000000 0.014108
#
#
# Mechanical properties :
#
#
# Convention : Reuss Voigt Hill
#
# Bulk Modulus (GPa) = 47.27663 50.90492 49.09077
# Shear Modulus (GPa) = 38.11317 4.87900 21.49609
#
# Velocity S-wave (km/s) = 4.17815 1.49490 3.13781
# Velocity P-wave (km/s) = 6.70299 5.12792 5.96765
#
# Compressibility (1/GPa) = 0.02115210
#
# Stress axis : x y z
#
# Youngs Moduli (GPa) = 85.79959 74.69332 62.33208
#
# Poissons Ratio (x) = 0.37526 0.05850
# Poissons Ratio (y) = 0.43106 0.24962
# Poissons Ratio (z) = 0.08052 0.29912
#
# Static dielectric constant tensor:
#      x y z
#    x 3.761640 0.000000 -0.126500 
#    y 0.000000 4.325490 0.000000 
#    z -0.126500 0.000000 4.436000 
# 
# 
# High freq. dielectric constant tensor:
#      x y z
#    x 1.841860 0.000000 -0.008390 
#    y 0.000000 1.883040 0.000000 
#    z -0.008390 0.000000 1.857670 
# 
# From -- ./inp_files/10760.got.cif
#   From: 2010.03.12/outbox.cif.g09.slc.cpg/sg3_6_cif.got.tgz:10760.got - 2010.03.31 09:20:49.
