data_PCOD8045006
_publ_section_title
;
Structure prediction by ZEFSAII (Michael W. Deem and Ramdas Pophale) SiO2 
 PCOD8045006
Probable space group: P 2
;
_chemical_formula_sum "Si O2"
_cell_formula_units_Z 15
_cell_length_a 17.851218
_cell_length_b 10.296360
_cell_length_c 5.150105
_cell_angle_alpha 90.000000
_cell_angle_beta 128.627801
_cell_angle_gamma 90.000000
_cell_volume 739.502607
_symmetry_space_group_name_H-M "P 2"
_symmetry_group_IT_number 3
_symmetry_cell_setting 'monoclinic'
loop_
_space_group_symop_operation_xyz
x,y,z
-x,y,-z
loop_
_atom_site_type_symbol
_atom_site_label
_atom_site_fract_x
_atom_site_fract_y
_atom_site_fract_z
Si Si1 0.611838 0.350010 0.746041
Si Si2 0.614023 0.188677 0.247635
Si Si3 0.256382 0.573111 0.988455
Si Si4 0.187733 0.710635 0.319624
Si Si5 0.000000 0.580454 0.000000
Si Si6 0.093887 0.396045 0.560042
Si Si7 0.893522 0.098931 0.318948
Si Si8 0.787845 0.011584 0.593348
O O1 0.500000 0.355654 0.500000
O O2 0.646571 0.269281 0.570590
O O3 0.647698 0.275517 0.078494
O O4 0.642410 0.501437 0.830170
O O5 0.676235 0.056441 0.356377
O O6 0.500000 0.154549 0.000000
O O7 0.223528 0.664354 0.680170
O O8 0.189138 0.447681 0.901303
O O9 0.258328 0.654615 0.254918
O O10 0.074670 0.676875 0.011012
O O11 0.203101 0.862591 0.315676
O O12 0.081951 0.480612 0.275847
O O13 0.097082 0.242616 0.538763
O O14 0.000000 0.446603 0.500000
O O15 0.835615 0.021376 0.411895
O O16 0.000000 0.041336 0.500000
O O17 0.841510 0.097784 0.927959
#
# Coordination Sequence:
#
# PCOD8045006 Si02
#       8
#     2   2   2   2   1   2   2   2
#     4  10  21  39  66  97 125 152 199 259 320 366
#     4  10  21  39  66  95 122 161 202 256 320 370
#     4  11  21  39  59  89 115 159 197 248 294 364
#     4  11  25  38  61  82 122 166 209 232 297 359
#     4  10  22  38  56  80 120 158 198 252 288 364
#     4  10  20  35  57  82 113 143 195 246 306 347
#     4  11  26  38  62  89 121 159 205 262 313 361
#     4  12  24  44  58  89 126 166 210 254 298 369
#
# _framework density 20.283902999999999
#
# number of rings (size 3 to 8) (size 9 to 14) (size 15 to 20)
#    0.000    1.333    1.333    4.400    5.600    1.067 
#    0.000    1.333    0.000    0.000    0.000    0.000 
#    0.000    0.000    0.000    0.000    0.000    0.000 
#
# Total GULP energy -185832.601153 kJ/mol
# GULP energy per Si atom -12388.840077 kJ/mol
# Density = 2.023774 g / cm^3
# Si number density = 20.283903 Si / 1000 Ang^3
#
#
#
# Elastic Constant Matrix: (Units=GPa)
#
#
# Indices 1 2 3 4 5 6 
#
# 1 85.6763 41.1635 41.1525 0.0000 -18.3028 0.0000
# 2 41.1635 115.4754 24.1524 0.0000 7.3278 0.0000
# 3 41.1525 24.1524 61.1473 0.0000 -10.9964 0.0000
# 4 0.0000 0.0000 0.0000 99.2729 0.0000 21.0340
# 5 -18.3028 7.3278 -10.9964 0.0000 27.8720 0.0000
# 6 0.0000 0.0000 0.0000 21.0340 0.0000 37.6682
#
#
#
# Elastic Compliance Matrix: (Units=1/GPa)
#
#
# Indices 1 2 3 4 5 6 
#
# 1 0.022444 -0.006648 -0.010240 0.000000 0.012446 0.000000
# 2 -0.006648 0.011902 -0.001695 0.000000 -0.008164 0.000000
# 3 -0.010240 -0.001695 0.024526 0.000000 0.003397 0.000000
# 4 0.000000 0.000000 0.000000 0.011425 0.000000 -0.006380
# 5 0.012446 -0.008164 0.003397 0.000000 0.047538 0.000000
# 6 0.000000 0.000000 0.000000 -0.006380 0.000000 0.030110
#
#
# Mechanical properties :
#
#
# Convention : Reuss Voigt Hill
#
# Bulk Modulus (GPa) = 46.07321 52.80396 49.43859
# Shear Modulus (GPa) = 25.99456 43.35134 34.67295
#
# Velocity S-wave (km/s) = 3.58374 4.62803 4.13895
# Velocity P-wave (km/s) = 6.31567 7.39237 6.87513
#
# Compressibility (1/GPa) = 0.02170459
#
# Stress axis : x y z
#
# Youngs Moduli (GPa) = 44.55605 84.01677 40.77254
#
# Poissons Ratio (x) = 0.55858 0.41753
# Poissons Ratio (y) = 0.29623 0.06911
# Poissons Ratio (z) = 0.45627 0.14241
#
# Static dielectric constant tensor:
#      x y z
#    x 3.665010 0.000000 0.177410 
#    y 0.000000 3.533660 0.000000 
#    z 0.177410 0.000000 1.989060 
# 
# 
# High freq. dielectric constant tensor:
#      x y z
#    x 1.799100 0.000000 -0.003330 
#    y 0.000000 1.785510 0.000000 
#    z -0.003330 0.000000 1.790450 
# 
# From -- ./inp_files/3175.got.cif
#   From: 2010.03.12/outbox.cif.g09.slc.cpg/sg3_2_cif.got.tgz:3175.got - 2010.03.31 09:20:49.
