data_PCOD8045352
_publ_section_title
;
Structure prediction by ZEFSAII (Michael W. Deem and Ramdas Pophale) SiO2 
 PCOD8045352
Probable space group: P 2
;
_chemical_formula_sum "Si O2"
_cell_formula_units_Z 14
_cell_length_a 5.928138
_cell_length_b 6.128228
_cell_length_c 17.096208
_cell_angle_alpha 90.000000
_cell_angle_beta 74.004521
_cell_angle_gamma 90.000000
_cell_volume 597.041438
_symmetry_space_group_name_H-M "P 2"
_symmetry_group_IT_number 3
_symmetry_cell_setting 'monoclinic'
loop_
_space_group_symop_operation_xyz
x,y,z
-x,y,-z
loop_
_atom_site_type_symbol
_atom_site_label
_atom_site_fract_x
_atom_site_fract_y
_atom_site_fract_z
Si Si1 0.000000 0.656570 0.000000
Si Si2 0.311896 0.923536 0.081589
Si Si3 0.000000 0.237508 0.500000
Si Si4 0.237530 0.241486 0.218749
Si Si5 0.828445 0.583949 0.285758
Si Si6 0.105854 0.926465 0.358967
Si Si7 0.600628 0.581838 0.571619
Si Si8 0.613143 0.584051 0.147218
O O1 0.792381 0.515127 0.059675
O O2 0.098161 0.805543 0.059896
O O3 0.431288 0.762586 0.133185
O O4 0.201403 0.127676 0.137954
O O5 0.500000 0.006415 0.000000
O O6 0.772803 0.383638 0.536266
O O7 0.044509 0.086786 0.571445
O O8 0.479807 0.371884 0.190484
O O9 0.018204 0.394385 0.258334
O O10 0.267904 0.065760 0.284743
O O11 0.605416 0.488064 0.353678
O O12 0.755186 0.677140 0.207967
O O13 0.926717 0.785329 0.325539
O O14 0.270063 0.776612 0.396379
O O15 0.500000 0.676105 0.500000
#
# Coordination Sequence:
#
# PCOD8045352 Si02
#       8
#     1   2   1   2   2   2   2   2
#     4  10  22  46  72  96 138 184 224 282 342 394
#     4  10  24  45  69 100 138 180 228 281 338 401
#     4  12  26  48  74 102 134 174 228 280 334 404
#     4  12  25  44  70 102 138 179 229 279 334 404
#     4  12  26  45  71 101 138 180 224 278 339 401
#     4  12  26  47  71 101 139 178 225 278 337 405
#     4  12  26  48  72 101 137 177 225 279 338 401
#     4  11  24  45  70 100 139 180 227 282 338 399
#
# _framework density 23.448958999999999
#
# number of rings (size 3 to 8) (size 9 to 14) (size 15 to 20)
#    0.000    0.571    0.000    9.000    0.000   10.286 
#    0.000    7.143    0.000    0.000    0.000    0.000 
#    0.000    0.000    0.000    0.000    0.000    0.000 
#
# Total GULP energy -173649.217985 kJ/mol
# GULP energy per Si atom -12403.515570 kJ/mol
# Density = 2.339559 g / cm^3
# Si number density = 23.448959 Si / 1000 Ang^3
#
#
#
# Elastic Constant Matrix: (Units=GPa)
#
#
# Indices 1 2 3 4 5 6 
#
# 1 137.0491 70.9517 77.8387 0.0000 0.7864 0.0000
# 2 70.9517 135.4700 90.5370 0.0000 -7.1809 0.0000
# 3 77.8387 90.5370 184.0221 0.0000 -4.0887 0.0000
# 4 0.0000 0.0000 0.0000 44.3920 0.0000 2.7698
# 5 0.7864 -7.1809 -4.0887 0.0000 69.4390 0.0000
# 6 0.0000 0.0000 0.0000 2.7698 0.0000 6.2817
#
#
#
# Elastic Compliance Matrix: (Units=1/GPa)
#
#
# Indices 1 2 3 4 5 6 
#
# 1 0.010855 -0.003938 -0.002670 0.000000 -0.000687 0.000000
# 2 -0.003938 0.012473 -0.004447 0.000000 0.001073 0.000000
# 3 -0.002670 -0.004447 0.008753 0.000000 0.000086 0.000000
# 4 0.000000 0.000000 0.000000 0.023164 0.000000 -0.010214
# 5 -0.000687 0.001073 0.000086 0.000000 0.014525 0.000000
# 6 0.000000 0.000000 0.000000 -0.010214 0.000000 0.163696
#
#
# Mechanical properties :
#
#
# Convention : Reuss Voigt Hill
#
# Bulk Modulus (GPa) = 100.27467 103.91067 102.09267
# Shear Modulus (GPa) = 19.31248 38.50346 28.90797
#
# Velocity S-wave (km/s) = 2.87295 4.05657 3.51494
# Velocity P-wave (km/s) = 7.33900 8.14560 7.75280
#
# Compressibility (1/GPa) = 0.00997261
#
# Stress axis : x y z
#
# Youngs Moduli (GPa) = 92.11938 80.17266 114.24364
#
# Poissons Ratio (x) = 0.31570 0.30499
# Poissons Ratio (y) = 0.36274 0.50806
# Poissons Ratio (z) = 0.24593 0.35654
#
# Static dielectric constant tensor:
#      x y z
#    x 4.239320 0.000000 -0.061220 
#    y 0.000000 4.041590 0.000000 
#    z -0.061220 0.000000 4.879670 
# 
# 
# High freq. dielectric constant tensor:
#      x y z
#    x 1.931470 0.000000 -0.004630 
#    y 0.000000 1.911860 0.000000 
#    z -0.004630 0.000000 1.967490 
# 
# From -- ./inp_files/14595.got.cif
#   From: 2010.03.12/outbox.cif.g09.slc.cpg/sg3_8_cif.got.tgz:14595.got - 2010.03.31 09:20:49.
