data_PCOD8045232
_publ_section_title
;
Structure prediction by ZEFSAII (Michael W. Deem and Ramdas Pophale) SiO2 
 PCOD8045232
Probable space group: P 2
;
_chemical_formula_sum "Si O2"
_cell_formula_units_Z 10
_cell_length_a 13.055852
_cell_length_b 7.756275
_cell_length_c 8.342218
_cell_angle_alpha 90.000000
_cell_angle_beta 31.356109
_cell_angle_gamma 90.000000
_cell_volume 439.582307
_symmetry_space_group_name_H-M "P 2"
_symmetry_group_IT_number 3
_symmetry_cell_setting 'monoclinic'
loop_
_space_group_symop_operation_xyz
x,y,z
-x,y,-z
loop_
_atom_site_type_symbol
_atom_site_label
_atom_site_fract_x
_atom_site_fract_y
_atom_site_fract_z
Si Si1 0.298618 0.880860 0.831782
Si Si2 0.705336 0.019503 0.800626
Si Si3 0.286475 0.240891 0.717103
Si Si4 0.123509 0.325558 0.601101
Si Si5 0.933473 0.696367 0.410155
O O1 0.500000 0.790815 0.500000
O O2 0.257986 0.035792 0.764121
O O3 0.308412 0.969044 0.994827
O O4 0.128444 0.737889 0.044013
O O5 0.789297 0.859080 0.586993
O O6 0.840574 0.190203 0.592532
O O7 0.500000 0.070148 0.000000
O O8 0.500000 0.300173 0.500000
O O9 0.267570 0.279942 0.554795
O O10 0.109142 0.330821 0.049781
O O11 0.179457 0.522908 0.487194
O O12 0.000000 0.669226 0.500000
#
# Coordination Sequence:
#
# PCOD8045232 Si02
#       5
#     2   2   2   2   2
#     4  10  21  44  72 100 135 181 224 284 347 400
#     4  11  23  44  70  99 138 180 230 283 339 410
#     4  10  22  44  68 104 137 180 231 277 345 401
#     4  11  24  44  70 103 139 187 227 279 346 408
#     4  10  24  43  69 101 136 181 228 281 341 405
#
# _framework density 22.748867000000001
#
# number of rings (size 3 to 8) (size 9 to 14) (size 15 to 20)
#    0.000    1.600    2.000    2.400    2.800    1.600 
#   21.600    0.000    0.000    0.000    0.000    0.000 
#    0.000    0.000    0.000    0.000    0.000    0.000 
#
# Total GULP energy -123966.339782 kJ/mol
# GULP energy per Si atom -12396.633978 kJ/mol
# Density = 2.269709 g / cm^3
# Si number density = 22.748867 Si / 1000 Ang^3
#
#
#
# Elastic Constant Matrix: (Units=GPa)
#
#
# Indices 1 2 3 4 5 6 
#
# 1 86.5837 24.7233 31.6494 0.0000 -14.5041 0.0000
# 2 24.7233 160.8579 49.3112 0.0000 0.2794 0.0000
# 3 31.6494 49.3112 125.7351 0.0000 -0.1663 0.0000
# 4 0.0000 0.0000 0.0000 5.7877 0.0000 4.4290
# 5 -14.5041 0.2794 -0.1663 0.0000 27.8312 0.0000
# 6 0.0000 0.0000 0.0000 4.4290 0.0000 23.0036
#
#
#
# Elastic Compliance Matrix: (Units=1/GPa)
#
#
# Indices 1 2 3 4 5 6 
#
# 1 0.014286 -0.001261 -0.003092 0.000000 0.007439 0.000000
# 2 -0.001261 0.007178 -0.002499 0.000000 -0.000744 0.000000
# 3 -0.003092 -0.002499 0.009709 0.000000 -0.001528 0.000000
# 4 0.000000 0.000000 0.000000 0.202635 0.000000 -0.039014
# 5 0.007439 -0.000744 -0.001528 0.000000 0.039806 0.000000
# 6 0.000000 0.000000 0.000000 -0.039014 0.000000 0.050983
#
#
# Mechanical properties :
#
#
# Convention : Reuss Voigt Hill
#
# Bulk Modulus (GPa) = 57.23870 64.94939 61.09404
# Shear Modulus (GPa) = 14.52970 29.15735 21.84353
#
# Velocity S-wave (km/s) = 2.52999 3.58398 3.10208
# Velocity P-wave (km/s) = 5.80949 6.76307 6.30434
#
# Compressibility (1/GPa) = 0.01747070
#
# Stress axis : x y z
#
# Youngs Moduli (GPa) = 69.99946 139.32059 102.99384
#
# Poissons Ratio (x) = 0.17566 0.31842
# Poissons Ratio (y) = 0.08826 0.25734
# Poissons Ratio (z) = 0.21641 0.34810
#
# Static dielectric constant tensor:
#      x y z
#    x 3.848810 0.000000 -0.026030 
#    y 0.000000 4.210530 0.000000 
#    z -0.026030 0.000000 4.696780 
# 
# 
# High freq. dielectric constant tensor:
#      x y z
#    x 1.887600 0.000000 -0.000550 
#    y 0.000000 1.889620 0.000000 
#    z -0.000550 0.000000 1.909340 
# 
# From -- ./inp_files/8458.got.cif
#   From: 2010.03.12/outbox.cif.g09.slc.cpg/sg3_5_cif.got.tgz:8458.got - 2010.03.31 09:20:49.
