data_PCOD8045122
_publ_section_title
;
Structure prediction by ZEFSAII (Michael W. Deem and Ramdas Pophale) SiO2 
 PCOD8045122
Probable space group: P 2
;
_chemical_formula_sum "Si O2"
_cell_formula_units_Z 14
_cell_length_a 8.922741
_cell_length_b 15.858832
_cell_length_c 8.369652
_cell_angle_alpha 90.000000
_cell_angle_beta 146.490807
_cell_angle_gamma 90.000000
_cell_volume 653.840236
_symmetry_space_group_name_H-M "P 2"
_symmetry_group_IT_number 3
_symmetry_cell_setting 'monoclinic'
loop_
_space_group_symop_operation_xyz
x,y,z
-x,y,-z
loop_
_atom_site_type_symbol
_atom_site_label
_atom_site_fract_x
_atom_site_fract_y
_atom_site_fract_z
Si Si1 0.062870 0.698430 0.375083
Si Si2 0.553044 0.804196 0.863646
Si Si3 0.280150 0.970240 0.170580
Si Si4 0.610709 0.535111 0.422410
Si Si5 0.209360 0.096223 0.820269
Si Si6 0.207678 0.285772 0.815556
Si Si7 0.896516 0.443227 0.088236
O O1 0.264147 0.777033 0.537377
O O2 0.235577 0.624266 0.447576
O O3 0.000000 0.671472 0.500000
O O4 0.780058 0.729256 0.041951
O O5 0.621356 0.888606 0.834218
O O6 0.500000 0.826183 0.000000
O O7 0.500000 0.998855 0.500000
O O8 0.000000 0.944240 0.000000
O O9 0.215259 0.044312 0.988574
O O10 0.500000 0.520837 0.500000
O O11 0.839157 0.467224 0.573112
O O12 0.340972 0.513028 0.078564
O O13 0.124303 0.191306 0.795185
O O14 0.000000 0.060488 0.500000
O O15 0.500000 0.093196 0.000000
O O16 0.202283 0.348752 0.961667
O O17 0.000000 0.320561 0.500000
O O18 0.500000 0.284196 0.000000
O O19 0.000000 0.448546 0.000000
#
# Coordination Sequence:
#
# PCOD8045122 Si02
#       7
#     2   2   2   2   2   2   2
#     4  10  21  37  58  84 110 148 200 246 289 347
#     4  10  22  40  60  82 116 157 195 240 301 361
#     4  12  25  40  62  96 126 154 203 255 302 359
#     4  10  21  36  55  81 115 153 192 237 296 354
#     4  10  22  42  65  88 122 165 202 243 305 370
#     4  10  21  38  61  89 115 150 201 246 290 353
#     4  10  21  37  56  82 117 155 190 235 298 356
#
# _framework density 21.411959
#
# number of rings (size 3 to 8) (size 9 to 14) (size 15 to 20)
#    0.000    1.714    0.000    3.857    0.000    5.714 
#    0.000    2.143    0.000    0.000    0.000    0.000 
#    0.000    0.000    0.000    0.000    0.000    0.000 
#
# Total GULP energy -173466.299001 kJ/mol
# GULP energy per Si atom -12390.449929 kJ/mol
# Density = 2.136322 g / cm^3
# Si number density = 21.411959 Si / 1000 Ang^3
#
#
#
# Elastic Constant Matrix: (Units=GPa)
#
#
# Indices 1 2 3 4 5 6 
#
# 1 70.5245 52.2752 42.3977 0.0000 19.3644 0.0000
# 2 52.2752 93.4934 19.1879 0.0000 -2.1744 0.0000
# 3 42.3977 19.1879 133.0124 0.0000 12.1673 0.0000
# 4 0.0000 0.0000 0.0000 55.1642 0.0000 15.8327
# 5 19.3644 -2.1744 12.1673 0.0000 27.0975 0.0000
# 6 0.0000 0.0000 0.0000 15.8327 0.0000 25.3717
#
#
#
# Elastic Compliance Matrix: (Units=1/GPa)
#
#
# Indices 1 2 3 4 5 6 
#
# 1 0.046122 -0.024819 -0.008263 0.000000 -0.031241 0.000000
# 2 -0.024819 0.024450 0.002693 0.000000 0.018489 0.000000
# 3 -0.008263 0.002693 0.009598 0.000000 0.001812 0.000000
# 4 0.000000 0.000000 0.000000 0.022083 0.000000 -0.013780
# 5 -0.031241 0.018489 0.001812 0.000000 0.059899 0.000000
# 6 0.000000 0.000000 0.000000 -0.013780 0.000000 0.048013
#
#
# Mechanical properties :
#
#
# Convention : Reuss Voigt Hill
#
# Bulk Modulus (GPa) = 51.57053 58.30577 54.93815
# Shear Modulus (GPa) = 18.02402 33.73800 25.88101
#
# Velocity S-wave (km/s) = 2.90448 3.97377 3.48043
# Velocity P-wave (km/s) = 5.94855 6.95299 6.47029
#
# Compressibility (1/GPa) = 0.01939092
#
# Stress axis : x y z
#
# Youngs Moduli (GPa) = 21.68182 40.89928 104.18972
#
# Poissons Ratio (x) = 1.01507 0.86095
# Poissons Ratio (y) = 0.53812 -0.28054
# Poissons Ratio (z) = 0.17916 -0.11012
#
# Static dielectric constant tensor:
#      x y z
#    x 3.750580 0.000000 0.344380 
#    y 0.000000 3.850960 0.000000 
#    z 0.344380 0.000000 4.394480 
# 
# 
# High freq. dielectric constant tensor:
#      x y z
#    x 1.833180 0.000000 0.025650 
#    y 0.000000 1.838570 0.000000 
#    z 0.025650 0.000000 1.857730 
# 
# From -- ./inp_files/6169.got.cif
#   From: 2010.03.12/outbox.cif.g09.slc.cpg/sg3_4_cif.got.tgz:6169.got - 2010.03.31 09:20:49.
