data_PCOD8045343
_publ_section_title
;
Structure prediction by ZEFSAII (Michael W. Deem and Ramdas Pophale) SiO2 
 PCOD8045343
Probable space group: P 2
;
_chemical_formula_sum "Si O2"
_cell_formula_units_Z 12
_cell_length_a 12.416189
_cell_length_b 8.866109
_cell_length_c 8.692457
_cell_angle_alpha 90.000000
_cell_angle_beta 145.148373
_cell_angle_gamma 90.000000
_cell_volume 546.820305
_symmetry_space_group_name_H-M "P 2"
_symmetry_group_IT_number 3
_symmetry_cell_setting 'monoclinic'
loop_
_space_group_symop_operation_xyz
x,y,z
-x,y,-z
loop_
_atom_site_type_symbol
_atom_site_label
_atom_site_fract_x
_atom_site_fract_y
_atom_site_fract_z
Si Si1 0.392070 0.286730 0.106135
Si Si2 0.637812 0.809303 0.293004
Si Si3 0.957594 0.778766 0.121953
Si Si4 0.591092 0.610635 0.765259
Si Si5 0.092133 0.125888 0.946250
Si Si6 0.721531 0.154121 0.354052
O O1 0.387119 0.467203 0.098136
O O2 0.614162 0.245898 0.363728
O O3 0.283197 0.215708 0.126373
O O4 0.310221 0.218212 0.852613
O O5 0.858653 0.761585 0.551969
O O6 0.547067 0.744954 0.342280
O O7 0.635116 0.988098 0.275635
O O8 0.500000 0.739556 0.000000
O O9 0.871717 0.947249 0.012438
O O10 0.000000 0.723262 0.000000
O O11 0.802111 0.670848 0.008439
O O12 0.500000 0.553176 0.500000
O O13 0.943342 0.164311 0.638739
O O14 0.000000 0.177334 0.000000
#
# Coordination Sequence:
#
# PCOD8045343 Si02
#       6
#     2   2   2   2   2   2
#     4  11  24  43  64  97 139 182 219 278 348 408
#     4  11  23  45  73 102 130 180 235 289 336 400
#     4  10  22  45  69  97 135 181 230 286 335 400
#     4  12  27  43  68 101 142 186 225 281 350 419
#     4  10  23  41  71 102 128 177 238 287 340 399
#     4  10  23  46  69  94 136 179 232 288 332 409
#
# _framework density 21.945052
#
# number of rings (size 3 to 8) (size 9 to 14) (size 15 to 20)
#    0.000    1.333    3.333    1.500    4.667    2.667 
#    3.000    0.000    0.000    0.000    0.000    0.000 
#    0.000    0.000    0.000    0.000    0.000    0.000 
#
# Total GULP energy -148716.821980 kJ/mol
# GULP energy per Si atom -12393.068498 kJ/mol
# Density = 2.189510 g / cm^3
# Si number density = 21.945052 Si / 1000 Ang^3
#
#
#
# Elastic Constant Matrix: (Units=GPa)
#
#
# Indices 1 2 3 4 5 6 
#
# 1 112.5550 58.8994 18.7953 0.0000 12.0679 0.0000
# 2 58.8994 113.8374 42.8324 0.0000 4.1416 0.0000
# 3 18.7953 42.8324 82.4559 0.0000 8.9220 0.0000
# 4 0.0000 0.0000 0.0000 21.1184 0.0000 -0.0570
# 5 12.0679 4.1416 8.9220 0.0000 37.4643 0.0000
# 6 0.0000 0.0000 0.0000 -0.0570 0.0000 38.5134
#
#
#
# Elastic Compliance Matrix: (Units=1/GPa)
#
#
# Indices 1 2 3 4 5 6 
#
# 1 0.012658 -0.006810 0.001039 0.000000 -0.003572 0.000000
# 2 -0.006810 0.014583 -0.006247 0.000000 0.002069 0.000000
# 3 0.001039 -0.006247 0.015497 0.000000 -0.003334 0.000000
# 4 0.000000 0.000000 0.000000 0.047352 0.000000 0.000070
# 5 -0.003572 0.002069 -0.003334 0.000000 0.028408 0.000000
# 6 0.000000 0.000000 0.000000 0.000070 0.000000 0.025965
#
#
# Mechanical properties :
#
#
# Convention : Reuss Voigt Hill
#
# Bulk Modulus (GPa) = 53.47239 61.10026 57.28633
# Shear Modulus (GPa) = 28.61509 31.97395 30.29452
#
# Velocity S-wave (km/s) = 3.61493 3.82121 3.71950
# Velocity P-wave (km/s) = 6.46862 6.88271 6.67887
#
# Compressibility (1/GPa) = 0.01870124
#
# Stress axis : x y z
#
# Youngs Moduli (GPa) = 79.00355 68.57252 64.52967
#
# Poissons Ratio (x) = 0.46698 -0.06703
# Poissons Ratio (y) = 0.53801 0.40311
# Poissons Ratio (z) = -0.08206 0.42837
#
# Static dielectric constant tensor:
#      x y z
#    x 4.006780 0.000000 0.150370 
#    y 0.000000 3.761190 0.000000 
#    z 0.150370 0.000000 4.213190 
# 
# 
# High freq. dielectric constant tensor:
#      x y z
#    x 1.863940 0.000000 0.009050 
#    y 0.000000 1.852480 0.000000 
#    z 0.009050 0.000000 1.872930 
# 
# From -- ./inp_files/7537.got.cif
#   From: 2010.03.12/outbox.cif.g09.slc.cpg/sg3_4_cif.got.tgz:7537.got - 2010.03.31 09:20:49.
