data_PCOD8045228
_publ_section_title
;
Structure prediction by ZEFSAII (Michael W. Deem and Ramdas Pophale) SiO2 
 PCOD8045228
Probable space group: P 2
;
_chemical_formula_sum "Si O2"
_cell_formula_units_Z 14
_cell_length_a 16.259170
_cell_length_b 6.407953
_cell_length_c 6.129344
_cell_angle_alpha 90.000000
_cell_angle_beta 80.736247
_cell_angle_gamma 90.000000
_cell_volume 630.275244
_symmetry_space_group_name_H-M "P 2"
_symmetry_group_IT_number 3
_symmetry_cell_setting 'monoclinic'
loop_
_space_group_symop_operation_xyz
x,y,z
-x,y,-z
loop_
_atom_site_type_symbol
_atom_site_label
_atom_site_fract_x
_atom_site_fract_y
_atom_site_fract_z
Si Si1 0.564275 0.716050 0.802146
Si Si2 0.357257 0.330807 0.457308
Si Si3 0.211747 0.237419 0.807958
Si Si4 0.000000 0.657109 0.500000
Si Si5 0.129288 0.997375 0.465842
Si Si6 0.500000 0.039529 0.500000
Si Si7 0.706698 0.008386 0.853144
Si Si8 0.934756 0.320040 0.848200
O O1 0.597192 0.546419 0.617135
O O2 0.511970 0.896775 0.706127
O O3 0.641783 0.818988 0.895382
O O4 0.500000 0.609809 0.000000
O O5 0.275933 0.379275 0.641181
O O6 0.419272 0.184926 0.570877
O O7 0.331251 0.214859 0.245622
O O8 0.146280 0.125303 0.677564
O O9 0.265277 0.064554 0.914856
O O10 0.155601 0.370687 0.001917
O O11 0.922579 0.793201 0.448393
O O12 0.969327 0.525897 0.719512
O O13 0.215798 0.925772 0.321513
O O14 0.074925 0.136671 0.323460
O O15 0.000000 0.241448 0.000000
#
# Coordination Sequence:
#
# PCOD8045228 Si02
#       8
#     2   2   2   1   2   1   2   2
#     4  11  23  39  64  95 125 162 209 255 308 370
#     4  10  22  40  64  94 126 162 207 259 308 363
#     4  10  21  44  67  86 125 168 204 255 312 363
#     4  12  24  40  64  96 126 158 206 256 308 372
#     4  10  23  44  64  89 127 165 206 256 308 366
#     4  10  22  42  62  90 128 166 206 256 308 362
#     4   9  22  40  62  91 124 163 208 257 307 364
#     4  11  24  41  64  93 125 162 204 256 310 368
#
# _framework density 22.212515
#
# number of rings (size 3 to 8) (size 9 to 14) (size 15 to 20)
#    0.000    1.714    0.000    3.429    0.000   12.000 
#    0.000    7.143    0.000    0.000    0.000    0.000 
#    0.000    0.000    0.000    0.000    0.000    0.000 
#
# Total GULP energy -173637.378651 kJ/mol
# GULP energy per Si atom -12402.669904 kJ/mol
# Density = 2.216196 g / cm^3
# Si number density = 22.212515 Si / 1000 Ang^3
#
#
#
# Elastic Constant Matrix: (Units=GPa)
#
#
# Indices 1 2 3 4 5 6 
#
# 1 137.0200 68.1367 64.9867 0.0000 -2.8495 0.0000
# 2 68.1367 107.1002 56.3050 0.0000 -13.2854 0.0000
# 3 64.9867 56.3050 121.9387 0.0000 -10.7417 0.0000
# 4 0.0000 0.0000 0.0000 20.4599 0.0000 -10.1568
# 5 -2.8495 -13.2854 -10.7417 0.0000 54.6387 0.0000
# 6 0.0000 0.0000 0.0000 -10.1568 0.0000 27.2825
#
#
#
# Elastic Compliance Matrix: (Units=1/GPa)
#
#
# Indices 1 2 3 4 5 6 
#
# 1 0.011964 -0.005782 -0.003841 0.000000 -0.001537 0.000000
# 2 -0.005782 0.015324 -0.003758 0.000000 0.002686 0.000000
# 3 -0.003841 -0.003758 0.012095 0.000000 0.001264 0.000000
# 4 0.000000 0.000000 0.000000 0.059957 0.000000 0.022321
# 5 -0.001537 0.002686 0.001264 0.000000 0.019123 0.000000
# 6 0.000000 0.000000 0.000000 0.022321 0.000000 0.044963
#
#
# Mechanical properties :
#
#
# Convention : Reuss Voigt Hill
#
# Bulk Modulus (GPa) = 79.24178 82.76840 81.00509
# Shear Modulus (GPa) = 25.72080 32.25160 28.98620
#
# Velocity S-wave (km/s) = 3.40655 3.81459 3.61633
# Velocity P-wave (km/s) = 7.15713 7.53289 7.34741
#
# Compressibility (1/GPa) = 0.01261961
#
# Stress axis : x y z
#
# Youngs Moduli (GPa) = 83.58712 65.25505 82.68203
#
# Poissons Ratio (x) = 0.37733 0.31761
# Poissons Ratio (y) = 0.48333 0.31070
# Poissons Ratio (z) = 0.32109 0.24521
#
# Static dielectric constant tensor:
#      x y z
#    x 4.353770 0.000000 -0.037060 
#    y 0.000000 3.620180 0.000000 
#    z -0.037060 0.000000 3.959800 
# 
# 
# High freq. dielectric constant tensor:
#      x y z
#    x 1.902870 0.000000 -0.004810 
#    y 0.000000 1.843780 0.000000 
#    z -0.004810 0.000000 1.877680 
# 
# From -- ./inp_files/3471.got.cif
#   From: 2010.03.12/outbox.cif.g09.slc.cpg/sg3_2_cif.got.tgz:3471.got - 2010.03.31 09:20:49.
