data_PCOD8045306
_publ_section_title
;
Structure prediction by ZEFSAII (Michael W. Deem and Ramdas Pophale) SiO2 
 PCOD8045306
Probable space group: P 2
;
_chemical_formula_sum "Si O2"
_cell_formula_units_Z 14
_cell_length_a 10.427890
_cell_length_b 6.905003
_cell_length_c 9.176173
_cell_angle_alpha 90.000000
_cell_angle_beta 103.865564
_cell_angle_gamma 90.000000
_cell_volume 641.473651
_symmetry_space_group_name_H-M "P 2"
_symmetry_group_IT_number 3
_symmetry_cell_setting 'monoclinic'
loop_
_space_group_symop_operation_xyz
x,y,z
-x,y,-z
loop_
_atom_site_type_symbol
_atom_site_label
_atom_site_fract_x
_atom_site_fract_y
_atom_site_fract_z
Si Si1 0.362576 0.111400 0.427578
Si Si2 0.000000 0.886532 0.500000
Si Si3 0.376760 0.480263 0.246863
Si Si4 0.413376 0.743484 0.834353
Si Si5 0.000000 0.636964 0.000000
Si Si6 0.232236 0.437981 0.913869
Si Si7 0.758375 0.096512 0.310404
Si Si8 0.824944 0.776556 0.707553
O O1 0.500000 0.998875 0.500000
O O2 0.414403 0.289311 0.344492
O O3 0.286597 0.192216 0.549530
O O4 0.263970 0.969906 0.313619
O O5 0.094367 0.013010 0.629693
O O6 0.089867 0.756708 0.417152
O O7 0.499928 0.625496 0.260089
O O8 0.263898 0.585956 0.308929
O O9 0.327009 0.405603 0.077041
O O10 0.285846 0.616586 0.835795
O O11 0.355238 0.938464 0.751182
O O12 0.500000 0.794498 0.000000
O O13 0.086052 0.781187 0.122983
O O14 0.914949 0.493369 0.077727
O O15 0.233004 0.244993 0.819179
#
# Coordination Sequence:
#
# PCOD8045306 Si02
#       8
#     2   1   2   2   1   2   2   2
#     4  11  24  39  62  96 128 165 207 255 320 385
#     4  10  24  40  60  90 126 174 214 246 310 386
#     4  10  23  41  65  97 127 161 211 267 321 376
#     4  10  22  42  68  96 124 162 213 266 320 377
#     4  10  22  42  68  94 124 168 218 268 316 368
#     4  10  23  42  65  93 124 165 215 264 316 372
#     4  11  24  42  64  92 128 169 210 258 316 379
#     4  10  23  43  62  91 129 168 213 261 317 373
#
# _framework density 21.824745
#
# number of rings (size 3 to 8) (size 9 to 14) (size 15 to 20)
#    0.000    1.714    0.000    2.571    0.000   18.286 
#    0.000    2.857    0.000    0.000    0.000    0.000 
#    0.000    0.000    0.000    0.000    0.000    0.000 
#
# Total GULP energy -173604.222666 kJ/mol
# GULP energy per Si atom -12400.301619 kJ/mol
# Density = 2.177507 g / cm^3
# Si number density = 21.824745 Si / 1000 Ang^3
#
#
#
# Elastic Constant Matrix: (Units=GPa)
#
#
# Indices 1 2 3 4 5 6 
#
# 1 124.3316 46.9495 54.1189 0.0000 5.5049 0.0000
# 2 46.9495 108.8369 75.6323 0.0000 6.8324 0.0000
# 3 54.1189 75.6323 110.4108 0.0000 -3.1686 0.0000
# 4 0.0000 0.0000 0.0000 40.9855 0.0000 -13.0971
# 5 5.5049 6.8324 -3.1686 0.0000 36.9539 0.0000
# 6 0.0000 0.0000 0.0000 -13.0971 0.0000 19.8928
#
#
#
# Elastic Compliance Matrix: (Units=1/GPa)
#
#
# Indices 1 2 3 4 5 6 
#
# 1 0.010500 -0.001561 -0.004124 0.000000 -0.001629 0.000000
# 2 -0.001561 0.018471 -0.012008 0.000000 -0.004212 0.000000
# 3 -0.004124 -0.012008 0.019433 0.000000 0.004501 0.000000
# 4 0.000000 0.000000 0.000000 0.030900 0.000000 0.020344
# 5 -0.001629 -0.004212 0.004501 0.000000 0.028468 0.000000
# 6 0.000000 0.000000 0.000000 0.020344 0.000000 0.063663
#
#
# Mechanical properties :
#
#
# Convention : Reuss Voigt Hill
#
# Bulk Modulus (GPa) = 76.82201 77.44230 77.13215
# Shear Modulus (GPa) = 23.67873 30.69168 27.18520
#
# Velocity S-wave (km/s) = 3.29743 3.75411 3.53315
# Velocity P-wave (km/s) = 7.05502 7.37237 7.21544
#
# Compressibility (1/GPa) = 0.01301710
#
# Stress axis : x y z
#
# Youngs Moduli (GPa) = 95.24076 54.14016 51.45861
#
# Poissons Ratio (x) = 0.08454 0.21220
# Poissons Ratio (y) = 0.14871 0.61792
# Poissons Ratio (z) = 0.39274 0.65012
#
# Static dielectric constant tensor:
#      x y z
#    x 4.222000 0.000000 -0.054530 
#    y 0.000000 3.574510 0.000000 
#    z -0.054530 0.000000 4.094260 
# 
# 
# High freq. dielectric constant tensor:
#      x y z
#    x 1.880320 0.000000 -0.003200 
#    y 0.000000 1.836450 0.000000 
#    z -0.003200 0.000000 1.867960 
# 
# From -- ./inp_files/6765.got.cif
#   From: 2010.03.12/outbox.cif.g09.slc.cpg/sg3_4_cif.got.tgz:6765.got - 2010.03.31 09:20:49.
