data_PCOD8045554
_publ_section_title
;
Structure prediction by ZEFSAII (Michael W. Deem and Ramdas Pophale) SiO2 
 PCOD8045554
Probable space group: P 2
;
_chemical_formula_sum "Si O2"
_cell_formula_units_Z 9
_cell_length_a 5.036199
_cell_length_b 5.669756
_cell_length_c 12.427871
_cell_angle_alpha 90.000000
_cell_angle_beta 100.047367
_cell_angle_gamma 90.000000
_cell_volume 349.423401
_symmetry_space_group_name_H-M "P 2"
_symmetry_group_IT_number 3
_symmetry_cell_setting 'monoclinic'
loop_
_space_group_symop_operation_xyz
x,y,z
-x,y,-z
loop_
_atom_site_type_symbol
_atom_site_label
_atom_site_fract_x
_atom_site_fract_y
_atom_site_fract_z
Si Si1 0.033976 0.782280 0.194185
Si Si2 0.422798 0.150215 0.284588
Si Si3 0.839872 0.779045 0.396846
Si Si4 0.507561 0.529155 0.119566
Si Si5 0.500000 0.409935 0.500000
O O1 0.216217 0.630630 0.127840
O O2 0.048092 0.686980 0.319386
O O3 0.726468 0.743179 0.132638
O O4 0.145782 0.053243 0.208473
O O5 0.573065 0.331955 0.214496
O O6 0.356259 0.252460 0.397741
O O7 0.619616 0.927841 0.316396
O O8 0.722583 0.560254 0.453889
O O9 0.000000 0.929947 0.500000
O O10 0.500000 0.414616 0.000000
#
# Coordination Sequence:
#
# PCOD8045554 Si02
#       5
#     2   2   2   2   1
#     4  12  26  54  78 116 161 206 270 334 399 481
#     4  12  26  49  82 121 159 219 265 330 411 491
#     4  12  25  46  76 121 160 213 264 328 403 487
#     4  12  29  55  82 115 161 212 271 340 405 475
#     4  12  24  48  76 120 166 216 262 332 406 492
#
# _framework density 25.756717999999999
#
# number of rings (size 3 to 8) (size 9 to 14) (size 15 to 20)
#    0.000    0.000    4.444    5.333    3.111    3.556 
#    8.000    0.000    0.000    0.000    0.000    0.000 
#    0.000    0.000    0.000    0.000    0.000    0.000 
#
# Total GULP energy -111513.541459 kJ/mol
# GULP energy per Si atom -12390.393495 kJ/mol
# Density = 2.569809 g / cm^3
# Si number density = 25.756718 Si / 1000 Ang^3
#
#
#
# Elastic Constant Matrix: (Units=GPa)
#
#
# Indices 1 2 3 4 5 6 
#
# 1 124.1165 30.4912 39.9203 0.0000 -21.9617 0.0000
# 2 30.4912 93.7279 38.1771 0.0000 -11.1774 0.0000
# 3 39.9203 38.1771 183.8510 0.0000 -35.4171 0.0000
# 4 0.0000 0.0000 0.0000 25.9828 0.0000 -1.6042
# 5 -21.9617 -11.1774 -35.4171 0.0000 50.8765 0.0000
# 6 0.0000 0.0000 0.0000 -1.6042 0.0000 26.8249
#
#
#
# Elastic Compliance Matrix: (Units=1/GPa)
#
#
# Indices 1 2 3 4 5 6 
#
# 1 0.009462 -0.002321 -0.001021 0.000000 0.002864 0.000000
# 2 -0.002321 0.012269 -0.001984 0.000000 0.000313 0.000000
# 3 -0.001021 -0.001984 0.006818 0.000000 0.003870 0.000000
# 4 0.000000 0.000000 0.000000 0.038630 0.000000 0.002310
# 5 0.002864 0.000313 0.003870 0.000000 0.023655 0.000000
# 6 0.000000 0.000000 0.000000 0.002310 0.000000 0.037417
#
#
# Mechanical properties :
#
#
# Convention : Reuss Voigt Hill
#
# Bulk Modulus (GPa) = 55.86820 68.76359 62.31590
# Shear Modulus (GPa) = 34.51415 40.27728 37.39572
#
# Velocity S-wave (km/s) = 3.66458 3.95873 3.81449
# Velocity P-wave (km/s) = 6.29630 6.90295 6.60659
#
# Compressibility (1/GPa) = 0.01789927
#
# Stress axis : x y z
#
# Youngs Moduli (GPa) = 105.68346 81.50327 146.66472
#
# Poissons Ratio (x) = 0.18916 0.14974
# Poissons Ratio (y) = 0.24527 0.29092
# Poissons Ratio (z) = 0.10790 0.16167
#
# Static dielectric constant tensor:
#      x y z
#    x 4.675380 0.000000 -0.220990 
#    y 0.000000 4.501120 0.000000 
#    z -0.220990 0.000000 5.199110 
# 
# 
# High freq. dielectric constant tensor:
#      x y z
#    x 2.037760 0.000000 -0.018410 
#    y 0.000000 2.002520 0.000000 
#    z -0.018410 0.000000 2.045180 
# 
# From -- ./inp_files/1833.got.cif
#   From: 2010.03.12/outbox.cif.g09.slc.cpg/sg3_1_cif.got.tgz:1833.got - 2010.03.31 09:20:49.
