data_PCOD8045026
_publ_section_title
;
Structure prediction by ZEFSAII (Michael W. Deem and Ramdas Pophale) SiO2 
 PCOD8045026
Probable space group: P 2
;
_chemical_formula_sum "Si O2"
_cell_formula_units_Z 14
_cell_length_a 9.941033
_cell_length_b 9.617509
_cell_length_c 12.208465
_cell_angle_alpha 90.000000
_cell_angle_beta 143.224634
_cell_angle_gamma 90.000000
_cell_volume 698.794378
_symmetry_space_group_name_H-M "P 2"
_symmetry_group_IT_number 3
_symmetry_cell_setting 'monoclinic'
loop_
_space_group_symop_operation_xyz
x,y,z
-x,y,-z
loop_
_atom_site_type_symbol
_atom_site_label
_atom_site_fract_x
_atom_site_fract_y
_atom_site_fract_z
Si Si1 0.936091 0.434250 0.260312
Si Si2 0.548939 0.351020 0.404860
Si Si3 0.000000 0.612693 0.500000
Si Si4 0.216739 0.558194 0.068952
Si Si5 0.168442 0.131477 0.761713
Si Si6 0.584152 0.783604 0.274580
Si Si7 0.500000 0.916441 0.000000
Si Si8 0.682058 0.082233 0.388012
O O1 0.865267 0.520345 0.322475
O O2 0.803499 0.287892 0.175201
O O3 0.202960 0.412932 0.448587
O O4 0.865013 0.515054 0.105077
O O5 0.500000 0.346919 0.500000
O O6 0.364181 0.439786 0.221077
O O7 0.520649 0.196782 0.336565
O O8 0.817463 0.702913 0.448841
O O9 0.363768 0.697813 0.161747
O O10 0.000000 0.590853 0.000000
O O11 0.268226 0.121246 0.704741
O O12 0.913422 0.084360 0.605387
O O13 0.308061 0.020051 0.924894
O O14 0.576103 0.929281 0.335000
O O15 0.595228 0.815274 0.153360
#
# Coordination Sequence:
#
# PCOD8045026 Si02
#       8
#     2   2   1   2   2   2   1   2
#     4  11  23  39  66 100 127 167 218 268 325 383
#     4  11  22  45  65  90 126 172 226 269 312 370
#     4  12  22  40  66  98 136 172 206 262 336 394
#     4  12  26  43  65  95 129 178 221 265 316 379
#     4   9  19  35  62  93 128 159 203 271 330 375
#     4  11  23  39  62  95 134 171 208 261 327 391
#     4  10  20  36  58  96 130 166 204 264 328 390
#     4   9  20  40  61  89 125 166 212 257 327 387
#
# _framework density 20.034504999999999
#
# number of rings (size 3 to 8) (size 9 to 14) (size 15 to 20)
#    0.000    1.429    2.857    4.286    4.000    0.000 
#    0.000    5.714    0.000    0.000    0.000    0.000 
#    0.000    0.000    0.000    0.000    0.000    0.000 
#
# Total GULP energy -173577.776382 kJ/mol
# GULP energy per Si atom -12398.412599 kJ/mol
# Density = 1.998891 g / cm^3
# Si number density = 20.034505 Si / 1000 Ang^3
#
#
#
# Elastic Constant Matrix: (Units=GPa)
#
#
# Indices 1 2 3 4 5 6 
#
# 1 69.7625 52.8458 31.6126 0.0000 2.8067 0.0000
# 2 52.8458 152.1366 55.7719 0.0000 4.9144 0.0000
# 3 31.6126 55.7719 78.4637 0.0000 5.9013 0.0000
# 4 0.0000 0.0000 0.0000 23.6894 0.0000 5.3992
# 5 2.8067 4.9144 5.9013 0.0000 36.5542 0.0000
# 6 0.0000 0.0000 0.0000 5.3992 0.0000 22.3324
#
#
#
# Elastic Compliance Matrix: (Units=1/GPa)
#
#
# Indices 1 2 3 4 5 6 
#
# 1 0.020482 -0.005530 -0.004312 0.000000 -0.000133 0.000000
# 2 -0.005530 0.010383 -0.005142 0.000000 -0.000141 0.000000
# 3 -0.004312 -0.005142 0.018282 0.000000 -0.001929 0.000000
# 4 0.000000 0.000000 0.000000 0.044675 0.000000 -0.010801
# 5 -0.000133 -0.000141 -0.001929 0.000000 0.027697 0.000000
# 6 0.000000 0.000000 0.000000 -0.010801 0.000000 0.047389
#
#
# Mechanical properties :
#
#
# Convention : Reuss Voigt Hill
#
# Bulk Modulus (GPa) = 52.13533 64.53592 58.33562
# Shear Modulus (GPa) = 24.35827 27.19072 25.77449
#
# Velocity S-wave (km/s) = 3.49064 3.68801 3.59068
# Velocity P-wave (km/s) = 6.50579 7.10053 6.80966
#
# Compressibility (1/GPa) = 0.01918085
#
# Stress axis : x y z
#
# Youngs Moduli (GPa) = 48.82244 96.30736 54.69896
#
# Poissons Ratio (x) = 0.53256 0.23584
# Poissons Ratio (y) = 0.26998 0.28126
# Poissons Ratio (z) = 0.21051 0.49521
#
# Static dielectric constant tensor:
#      x y z
#    x 3.406910 0.000000 0.085500 
#    y 0.000000 3.901900 0.000000 
#    z 0.085500 0.000000 3.879240 
# 
# 
# High freq. dielectric constant tensor:
#      x y z
#    x 1.750770 0.000000 0.004210 
#    y 0.000000 1.797210 0.000000 
#    z 0.004210 0.000000 1.793690 
# 
# From -- ./inp_files/10889.got.cif
#   From: 2010.03.12/outbox.cif.g09.slc.cpg/sg3_6_cif.got.tgz:10889.got - 2010.03.31 09:20:49.
