data_PCOD8045301
_publ_section_title
;
Structure prediction by ZEFSAII (Michael W. Deem and Ramdas Pophale) SiO2 
 PCOD8045301
Probable space group: P 2
;
_chemical_formula_sum "Si O2"
_cell_formula_units_Z 12
_cell_length_a 15.352597
_cell_length_b 5.934525
_cell_length_c 6.499003
_cell_angle_alpha 90.000000
_cell_angle_beta 115.247275
_cell_angle_gamma 90.000000
_cell_volume 535.563938
_symmetry_space_group_name_H-M "P 2"
_symmetry_group_IT_number 3
_symmetry_cell_setting 'monoclinic'
loop_
_space_group_symop_operation_xyz
x,y,z
-x,y,-z
loop_
_atom_site_type_symbol
_atom_site_label
_atom_site_fract_x
_atom_site_fract_y
_atom_site_fract_z
Si Si1 0.000000 0.868480 0.000000
Si Si2 0.920919 0.527942 0.583200
Si Si3 0.424663 0.310441 0.093400
Si Si4 0.500000 0.644245 0.500000
Si Si5 0.233249 0.554658 0.897494
Si Si6 0.158715 0.213998 0.156669
Si Si7 0.667936 0.934547 0.747986
O O1 0.036452 0.720575 0.227779
O O2 0.086103 0.023551 0.000225
O O3 0.829785 0.622666 0.363898
O O4 0.885754 0.315867 0.680817
O O5 0.000000 0.442511 0.500000
O O6 0.477696 0.496667 0.281197
O O7 0.404994 0.081751 0.192672
O O8 0.500000 0.236645 0.000000
O O9 0.324599 0.412455 0.908359
O O10 0.596283 0.785991 0.535420
O O11 0.170745 0.406503 0.996174
O O12 0.264841 0.783002 0.039522
O O13 0.262030 0.098009 0.312966
#
# Coordination Sequence:
#
# PCOD8045301 Si02
#       7
#     1   2   2   1   2   2   2
#     4  12  26  42  68  96 126 168 214 264 324 382
#     4  12  25  43  67  96 130 167 212 268 321 380
#     4  10  23  41  65  98 132 169 214 263 317 377
#     4  10  22  42  66  96 134 170 214 266 314 372
#     4  10  24  45  65  93 132 169 213 265 317 379
#     4  11  24  45  66  94 131 168 215 265 318 381
#     4  10  22  43  68  94 130 173 213 260 321 378
#
# _framework density 22.406291
#
# number of rings (size 3 to 8) (size 9 to 14) (size 15 to 20)
#    0.000    1.333    0.000    5.000    0.000   14.000 
#    0.000    5.000    0.000    0.000    0.000    0.000 
#    0.000    0.000    0.000    0.000    0.000    0.000 
#
# Total GULP energy -148804.940406 kJ/mol
# GULP energy per Si atom -12400.411701 kJ/mol
# Density = 2.235529 g / cm^3
# Si number density = 22.406291 Si / 1000 Ang^3
#
#
#
# Elastic Constant Matrix: (Units=GPa)
#
#
# Indices 1 2 3 4 5 6 
#
# 1 169.2129 72.2173 67.8537 0.0000 -9.6313 0.0000
# 2 72.2173 136.2234 61.6314 0.0000 2.3306 0.0000
# 3 67.8537 61.6314 133.1124 0.0000 26.3041 0.0000
# 4 0.0000 0.0000 0.0000 11.1540 0.0000 3.1312
# 5 -9.6313 2.3306 26.3041 0.0000 39.5391 0.0000
# 6 0.0000 0.0000 0.0000 3.1312 0.0000 4.2943
#
#
#
# Elastic Compliance Matrix: (Units=1/GPa)
#
#
# Indices 1 2 3 4 5 6 
#
# 1 0.009258 -0.003019 -0.004378 0.000000 0.005345 0.000000
# 2 -0.003019 0.010521 -0.003528 0.000000 0.000992 0.000000
# 3 -0.004378 -0.003528 0.013295 0.000000 -0.009703 0.000000
# 4 0.000000 0.000000 0.000000 0.112729 0.000000 -0.082197
# 5 0.005345 0.000992 -0.009703 0.000000 0.032990 0.000000
# 6 0.000000 0.000000 0.000000 -0.082197 0.000000 0.292803
#
#
# Mechanical properties :
#
#
# Convention : Reuss Voigt Hill
#
# Bulk Modulus (GPa) = 89.09563 93.55038 91.32301
# Shear Modulus (GPa) = 10.05660 26.78722 18.42191
#
# Velocity S-wave (km/s) = 2.12086 3.46138 2.87047
# Velocity P-wave (km/s) = 6.77107 7.60377 7.19947
#
# Compressibility (1/GPa) = 0.01122389
#
# Stress axis : x y z
#
# Youngs Moduli (GPa) = 108.01737 95.05223 75.21632
#
# Poissons Ratio (x) = 0.28694 0.32928
# Poissons Ratio (y) = 0.32608 0.26538
# Poissons Ratio (z) = 0.47287 0.33537
#
# Static dielectric constant tensor:
#      x y z
#    x 4.471940 0.000000 0.372510 
#    y 0.000000 4.171020 0.000000 
#    z 0.372510 0.000000 3.929720 
# 
# 
# High freq. dielectric constant tensor:
#      x y z
#    x 1.906560 0.000000 0.022460 
#    y 0.000000 1.894970 0.000000 
#    z 0.022460 0.000000 1.861580 
# 
# From -- ./inp_files/2824.got.cif
#   From: 2010.03.12/outbox.cif.g09.slc.cpg/sg3_2_cif.got.tgz:2824.got - 2010.03.31 09:20:49.
