data_PCOD8045860
_publ_section_title
;
Structure prediction by ZEFSAII (Michael W. Deem and Ramdas Pophale) SiO2 
 PCOD8045860
Probable space group: P 21
;
_chemical_formula_sum "Si O2"
_cell_formula_units_Z 16
_cell_length_a 12.360031
_cell_length_b 9.752303
_cell_length_c 9.996980
_cell_angle_alpha 90.000000
_cell_angle_beta 40.581349
_cell_angle_gamma 90.000000
_cell_volume 783.900447
_symmetry_space_group_name_H-M "P 21"
_symmetry_group_IT_number 4
_symmetry_cell_setting 'monoclinic'
loop_
_space_group_symop_operation_xyz
x,y,z
-x,1/2+y,-z
loop_
_atom_site_type_symbol
_atom_site_label
_atom_site_fract_x
_atom_site_fract_y
_atom_site_fract_z
Si Si1 0.986181 0.418420 0.365991
Si Si2 0.660366 0.421585 0.531689
Si Si3 0.066789 0.617893 0.512484
Si Si4 0.374754 0.544172 0.667427
Si Si5 0.587504 0.129997 0.669623
Si Si6 0.819648 0.303909 0.116580
Si Si7 0.762631 0.543945 0.982164
Si Si8 0.845571 0.806074 0.055319
O O1 0.078551 0.538325 0.360741
O O2 0.097482 0.377220 0.135538
O O3 0.810405 0.479616 0.480348
O O4 0.952716 0.281847 0.487220
O O5 0.535456 0.545622 0.614683
O O6 0.571854 0.295001 0.691989
O O7 0.724927 0.360151 0.332994
O O8 0.235837 0.582908 0.434428
O O9 0.902330 0.560326 0.738846
O O10 0.424063 0.574674 0.470011
O O11 0.240844 0.649113 0.853331
O O12 0.305136 0.389479 0.738568
O O13 0.425540 0.067567 0.898736
O O14 0.779792 0.391290 0.022928
O O15 0.014702 0.300580 0.962252
O O16 0.790353 0.651034 0.077434
#
# Coordination Sequence:
#
# PCOD8045860 Si02
#       8
#     2   2   2   2   2   2   2   2
#     4   9  21  41  59  79 110 153 197 236 285 334
#     4   9  18  36  57  78 119 151 177 234 287 336
#     4  10  22  42  60  80 112 155 196 239 285 332
#     4  11  19  34  58  89 116 149 188 229 287 346
#     4  10  20  37  59  85 118 152 186 229 287 348
#     4  10  20  33  53  90 118 142 191 233 276 349
#     4  11  20  37  58  83 117 154 186 230 298 335
#     4  10  20  36  60  80 114 160 185 228 295 346
#
# _framework density 20.410755000000002
#
# number of rings (size 3 to 8) (size 9 to 14) (size 15 to 20)
#    0.000    2.000    2.500    3.750    0.000    1.000 
#    4.500    1.250    0.000    0.000    0.000    0.000 
#    0.000    0.000    0.000    0.000    0.000    0.000 
#
# Total GULP energy -198365.935529 kJ/mol
# GULP energy per Si atom -12397.870971 kJ/mol
# Density = 2.036430 g / cm^3
# Si number density = 20.410755 Si / 1000 Ang^3
#
#
#
# Elastic Constant Matrix: (Units=GPa)
#
#
# Indices 1 2 3 4 5 6 
#
# 1 105.6274 31.9814 28.7262 0.0000 -22.0784 0.0000
# 2 31.9814 49.3869 2.0994 0.0000 -4.1798 0.0000
# 3 28.7262 2.0994 65.6204 0.0000 -26.5316 0.0000
# 4 0.0000 0.0000 0.0000 22.1057 0.0000 2.5608
# 5 -22.0784 -4.1798 -26.5316 0.0000 26.2452 0.0000
# 6 0.0000 0.0000 0.0000 2.5608 0.0000 31.6341
#
#
#
# Elastic Compliance Matrix: (Units=1/GPa)
#
#
# Indices 1 2 3 4 5 6 
#
# 1 0.014511 -0.008603 -0.002868 0.000000 0.007938 0.000000
# 2 -0.008603 0.025675 0.002827 0.000000 -0.000290 0.000000
# 3 -0.002868 0.002827 0.026402 0.000000 0.024728 0.000000
# 4 0.000000 0.000000 0.000000 0.045665 0.000000 -0.003697
# 5 0.007938 -0.000290 0.024728 0.000000 0.069732 0.000000
# 6 0.000000 0.000000 0.000000 -0.003697 0.000000 0.031911
#
#
# Mechanical properties :
#
#
# Convention : Reuss Voigt Hill
#
# Bulk Modulus (GPa) = 20.28343 38.47209 29.37776
# Shear Modulus (GPa) = 20.19248 26.51885 23.35566
#
# Velocity S-wave (km/s) = 3.14874 3.60843 3.38639
# Velocity P-wave (km/s) = 4.81441 6.02087 5.45112
#
# Compressibility (1/GPa) = 0.04930132
#
# Stress axis : x y z
#
# Youngs Moduli (GPa) = 68.91212 38.94878 37.87567
#
# Poissons Ratio (x) = 0.33509 0.10861
# Poissons Ratio (y) = 0.59287 -0.10709
# Poissons Ratio (z) = 0.19762 -0.11013
#
# Static dielectric constant tensor:
#      x y z
#    x 3.644860 0.000000 -0.330360 
#    y 0.000000 3.746900 0.000000 
#    z -0.330360 0.000000 3.618150 
# 
# 
# High freq. dielectric constant tensor:
#      x y z
#    x 1.781520 0.000000 -0.029000 
#    y 0.000000 1.791550 0.000000 
#    z -0.029000 0.000000 1.791270 
# 
# From -- ./inp_files/5825.got.cif
#   From: 2010.03.12/outbox.cif.g09.slc.cpg/sg4_3_cif.got.tgz:5825.got - 2010.03.31 09:31:35.
