data_PCOD8045572
_publ_section_title
;
Structure prediction by ZEFSAII (Michael W. Deem and Ramdas Pophale) SiO2 
 PCOD8045572
Probable space group: P 2
;
_chemical_formula_sum "Si O2"
_cell_formula_units_Z 9
_cell_length_a 8.642985
_cell_length_b 4.923716
_cell_length_c 8.642985
_cell_angle_alpha 90.000000
_cell_angle_beta 90.000000
_cell_angle_gamma 90.000000
_cell_volume 367.807443
_symmetry_space_group_name_H-M "P 2"
_symmetry_group_IT_number 3
_symmetry_cell_setting 'monoclinic'
loop_
_space_group_symop_operation_xyz
x,y,z
-x,y,-z
loop_
_atom_site_type_symbol
_atom_site_label
_atom_site_fract_x
_atom_site_fract_y
_atom_site_fract_z
Si Si1 0.238794 0.151560 0.715768
Si Si2 0.284233 0.557652 0.238795
Si Si3 0.500000 0.354607 0.500000
Si Si4 0.046333 0.654503 0.662091
Si Si5 0.337909 0.054709 0.046333
O O1 0.402023 0.171185 0.622155
O O2 0.167968 0.450399 0.740646
O O3 0.124289 0.946339 0.627960
O O4 0.246154 0.020398 0.886489
O O5 0.377845 0.538029 0.402024
O O6 0.259354 0.258811 0.167969
O O7 0.113511 0.688814 0.246154
O O8 0.372040 0.762871 0.124288
O O9 0.000000 0.518203 0.500000
O O10 0.500000 0.191008 0.000000
#
# Coordination Sequence:
#
# PCOD8045572 Si02
#       5
#     2   2   1   2   2
#     4  12  28  48  78 110 152 201 256 313 383 452
#     4  12  28  48  78 110 152 201 256 313 383 452
#     4  12  28  50  84 114 148 210 264 310 380 462
#     4  12  27  47  75 112 153 196 256 320 376 450
#     4  12  27  47  75 112 153 196 256 320 376 450
#
# _framework density 24.469325999999999
#
# number of rings (size 3 to 8) (size 9 to 14) (size 15 to 20)
#    0.000    0.000    4.444    4.000    6.222    7.111 
#    0.000    0.000    0.000    0.000    0.000    0.000 
#    0.000    0.000    0.000    0.000    0.000    0.000 
#
# Total GULP energy -111608.634356 kJ/mol
# GULP energy per Si atom -12400.959373 kJ/mol
# Density = 2.441363 g / cm^3
# Si number density = 24.469326 Si / 1000 Ang^3
#
#
#
# Elastic Constant Matrix: (Units=GPa)
#
#
# Indices 1 2 3 4 5 6 
#
# 1 134.9904 35.1010 19.6204 0.0000 -12.6478 0.0000
# 2 35.1010 124.1450 35.1004 0.0000 -0.0001 0.0000
# 3 19.6204 35.1004 134.9904 0.0000 12.6479 0.0000
# 4 0.0000 0.0000 0.0000 34.5972 0.0000 -0.0001
# 5 -12.6478 -0.0001 12.6479 0.0000 32.9697 0.0000
# 6 0.0000 0.0000 0.0000 -0.0001 0.0000 34.5971
#
#
#
# Elastic Compliance Matrix: (Units=1/GPa)
#
#
# Indices 1 2 3 4 5 6 
#
# 1 0.008442 -0.002098 -0.001022 0.000000 0.003630 0.000000
# 2 -0.002098 0.009242 -0.002098 0.000000 0.000000 0.000000
# 3 -0.001022 -0.002098 0.008442 0.000000 -0.003631 0.000000
# 4 0.000000 0.000000 0.000000 0.028904 0.000000 0.000000
# 5 0.003630 0.000000 -0.003631 0.000000 0.033116 0.000000
# 6 0.000000 0.000000 0.000000 0.000000 0.000000 0.028904
#
#
# Mechanical properties :
#
#
# Convention : Reuss Voigt Hill
#
# Bulk Modulus (GPa) = 63.73396 63.75214 63.74305
# Shear Modulus (GPa) = 37.67443 40.71973 39.19708
#
# Velocity S-wave (km/s) = 3.92811 4.08378 4.00670
# Velocity P-wave (km/s) = 6.83201 6.95319 6.89287
#
# Compressibility (1/GPa) = 0.01569022
#
# Stress axis : x y z
#
# Youngs Moduli (GPa) = 118.45340 108.20748 118.45367
#
# Poissons Ratio (x) = 0.22703 0.12102
# Poissons Ratio (y) = 0.24853 0.24852
# Poissons Ratio (z) = 0.12102 0.22702
#
# Static dielectric constant tensor:
#      x y z
#    x 4.423500 0.000000 0.000000 
#    y 0.000000 3.925540 0.000000 
#    z 0.000000 0.000000 4.423490 
# 
# 
# High freq. dielectric constant tensor:
#      x y z
#    x 1.979590 0.000000 0.000000 
#    y 0.000000 1.969730 0.000000 
#    z 0.000000 0.000000 1.979590 
# 
# From -- ./inp_files/4741.got.cif
#   From: 2010.03.12/outbox.cif.g09.slc.cpg/sg3_3_cif.got.tgz:4741.got - 2010.03.31 09:20:49.
