data_PCOD8045420
_publ_section_title
;
Structure prediction by ZEFSAII (Michael W. Deem and Ramdas Pophale) SiO2 
 PCOD8045420
Probable space group: P 2
;
_chemical_formula_sum "Si O2"
_cell_formula_units_Z 14
_cell_length_a 10.724949
_cell_length_b 8.011464
_cell_length_c 12.650738
_cell_angle_alpha 90.000000
_cell_angle_beta 143.390550
_cell_angle_gamma 90.000000
_cell_volume 648.230568
_symmetry_space_group_name_H-M "P 2"
_symmetry_group_IT_number 3
_symmetry_cell_setting 'monoclinic'
loop_
_space_group_symop_operation_xyz
x,y,z
-x,y,-z
loop_
_atom_site_type_symbol
_atom_site_label
_atom_site_fract_x
_atom_site_fract_y
_atom_site_fract_z
Si Si1 0.596201 0.225920 0.745680
Si Si2 0.000000 0.243754 0.500000
Si Si3 0.020433 0.667666 0.197823
Si Si4 0.264973 0.479295 0.539086
Si Si5 0.409744 0.065390 0.825737
Si Si6 0.561279 0.728351 0.844770
Si Si7 0.000000 0.423172 0.000000
Si Si8 0.670779 0.882798 0.696689
O O1 0.422610 0.355794 0.582293
O O2 0.527357 0.161704 0.813198
O O3 0.813716 0.312747 0.916692
O O4 0.634228 0.079413 0.687179
O O5 0.089914 0.362828 0.471005
O O6 0.168839 0.118385 0.664606
O O7 0.147716 0.617814 0.389373
O O8 0.105245 0.844363 0.206997
O O9 0.772051 0.678741 0.052910
O O10 0.081232 0.530721 0.152846
O O11 0.404812 0.572587 0.723745
O O12 0.433756 0.867789 0.821917
O O13 0.500000 0.116802 0.000000
O O14 0.647488 0.786125 0.790291
O O15 0.500000 0.810179 0.500000
#
# Coordination Sequence:
#
# PCOD8045420 Si02
#       8
#     2   1   2   2   2   2   1   2
#     4  10  25  42  65 103 137 176 224 276 331 405
#     4  10  26  46  70  96 132 172 228 290 334 390
#     4  12  24  40  69  96 139 183 216 266 345 397
#     4  11  24  46  67  98 134 175 230 280 332 395
#     4  10  25  47  70  94 135 173 228 280 335 399
#     4  11  23  43  64  98 131 171 228 275 323 405
#     4  12  24  38  68 104 142 170 218 272 334 412
#     4  11  22  41  62  96 141 182 215 268 330 406
#
# _framework density 21.597252000000001
#
# number of rings (size 3 to 8) (size 9 to 14) (size 15 to 20)
#    0.000    1.143    4.286    0.000    8.000    2.857 
#    2.571    0.714    0.000    0.000    0.000    0.000 
#    0.000    0.000    0.000    0.000    0.000    0.000 
#
# Total GULP energy -173597.848918 kJ/mol
# GULP energy per Si atom -12399.846351 kJ/mol
# Density = 2.154810 g / cm^3
# Si number density = 21.597252 Si / 1000 Ang^3
#
#
#
# Elastic Constant Matrix: (Units=GPa)
#
#
# Indices 1 2 3 4 5 6 
#
# 1 73.4167 43.3981 57.3614 0.0000 21.6042 0.0000
# 2 43.3981 116.2777 57.2012 0.0000 23.4225 0.0000
# 3 57.3614 57.2012 147.3898 0.0000 18.2606 0.0000
# 4 0.0000 0.0000 0.0000 30.9084 0.0000 23.0161
# 5 21.6042 23.4225 18.2606 0.0000 35.2174 0.0000
# 6 0.0000 0.0000 0.0000 23.0161 0.0000 16.8247
#
#
#
# Elastic Compliance Matrix: (Units=1/GPa)
#
#
# Indices 1 2 3 4 5 6 
#
# 1 0.023556 -0.003822 -0.006635 0.000000 -0.008468 0.000000
# 2 -0.003822 0.012251 -0.002723 0.000000 -0.004391 0.000000
# 3 -0.006635 -0.002723 0.010361 0.000000 0.000509 0.000000
# 4 0.000000 0.000000 0.000000 -1.731219 0.000000 2.368302
# 5 -0.008468 -0.004391 0.000509 0.000000 0.036246 0.000000
# 6 0.000000 0.000000 0.000000 2.368302 0.000000 -3.180392
#
#
# Mechanical properties :
#
#
# Convention : Reuss Voigt Hill
#
# Bulk Modulus (GPa) = 50.48619 72.55619 61.52119
# Shear Modulus (GPa) = -1.04248 28.53166 13.74459
#
# Velocity S-wave (km/s) = -0.69551 3.63861 2.52544
# Velocity P-wave (km/s) = 4.77305 7.16384 6.08698
#
# Compressibility (1/GPa) = 0.01980740
#
# Stress axis : x y z
#
# Youngs Moduli (GPa) = 42.45162 81.62861 96.51860
#
# Poissons Ratio (x) = 0.31198 0.64042
# Poissons Ratio (y) = 0.16225 0.26281
# Poissons Ratio (z) = 0.28168 0.22227
#
# Static dielectric constant tensor:
#      x y z
#    x 3.807990 0.000000 0.191040 
#    y 0.000000 4.098350 0.000000 
#    z 0.191040 0.000000 3.953430 
# 
# 
# High freq. dielectric constant tensor:
#      x y z
#    x 1.834700 0.000000 0.013230 
#    y 0.000000 1.855380 0.000000 
#    z 0.013230 0.000000 1.855470 
# 
# From -- ./inp_files/10879.got.cif
#   From: 2010.03.12/outbox.cif.g09.slc.cpg/sg3_6_cif.got.tgz:10879.got - 2010.03.31 09:20:49.
