data_PCOD8045777
_publ_section_title
;
Structure prediction by ZEFSAII (Michael W. Deem and Ramdas Pophale) SiO2 
 PCOD8045777
Probable space group: P 21
;
_chemical_formula_sum "Si O2"
_cell_formula_units_Z 14
_cell_length_a 8.887125
_cell_length_b 8.703098
_cell_length_c 9.354733
_cell_angle_alpha 90.000000
_cell_angle_beta 100.501405
_cell_angle_gamma 90.000000
_cell_volume 711.427597
_symmetry_space_group_name_H-M "P 21"
_symmetry_group_IT_number 4
_symmetry_cell_setting 'monoclinic'
loop_
_space_group_symop_operation_xyz
x,y,z
-x,1/2+y,-z
loop_
_atom_site_type_symbol
_atom_site_label
_atom_site_fract_x
_atom_site_fract_y
_atom_site_fract_z
Si Si1 0.065184 0.864820 0.400670
Si Si2 0.059996 0.871597 0.949962
Si Si3 0.430542 0.148831 0.815607
Si Si4 0.558626 0.973320 0.087280
Si Si5 0.111664 0.054633 0.678377
Si Si6 0.321381 0.852917 0.226473
Si Si7 0.110233 0.550387 0.853149
O O1 0.233417 0.881351 0.358449
O O2 0.004732 0.691797 0.377844
O O3 0.079673 0.911832 0.568111
O O4 0.949914 0.983005 0.305871
O O5 0.020718 0.709440 0.867951
O O6 0.088756 0.002119 0.836994
O O7 0.205361 0.840203 0.074380
O O8 0.920174 0.929155 0.024037
O O9 0.387356 0.294944 0.909067
O O10 0.287159 0.108993 0.689473
O O11 0.579538 0.194323 0.745205
O O12 0.471376 0.006685 0.924536
O O13 0.707865 0.080652 0.131239
O O14 0.441375 0.990013 0.203316
#
# Coordination Sequence:
#
# PCOD8045777 Si02
#       7
#     2   2   2   2   2   2   2
#     4  11  24  41  61  87 126 165 208 254 306 372
#     4  11  21  35  63  94 119 160 207 257 308 362
#     4  10  20  38  62  91 123 159 196 257 312 363
#     4  10  19  36  65  91 123 153 198 254 311 358
#     4  12  23  42  61  87 124 168 205 259 310 368
#     4   9  20  37  62  89 120 151 203 255 300 365
#     4  11  21  37  62  93 125 158 203 260 309 368
#
# _framework density 19.678740999999999
#
# number of rings (size 3 to 8) (size 9 to 14) (size 15 to 20)
#    0.857    0.571    4.286    2.571    0.000    0.000 
#    0.000    4.286    3.143    0.000    0.000    0.000 
#    0.000    0.000    0.000    0.000    0.000    0.000 
#
# Total GULP energy -173509.797254 kJ/mol
# GULP energy per Si atom -12393.556947 kJ/mol
# Density = 1.963395 g / cm^3
# Si number density = 19.678741 Si / 1000 Ang^3
#
#
#
# Elastic Constant Matrix: (Units=GPa)
#
#
# Indices 1 2 3 4 5 6 
#
# 1 114.5880 11.3900 27.2132 0.0000 -9.6819 0.0000
# 2 11.3900 74.0113 10.9906 0.0000 5.3940 0.0000
# 3 27.2132 10.9906 67.9006 0.0000 0.4200 0.0000
# 4 0.0000 0.0000 0.0000 31.5692 0.0000 2.7428
# 5 -9.6819 5.3940 0.4200 0.0000 19.8037 0.0000
# 6 0.0000 0.0000 0.0000 2.7428 0.0000 28.4694
#
#
#
# Elastic Compliance Matrix: (Units=1/GPa)
#
#
# Indices 1 2 3 4 5 6 
#
# 1 0.010260 -0.001396 -0.003920 0.000000 0.005479 0.000000
# 2 -0.001396 0.014314 -0.001729 0.000000 -0.004545 0.000000
# 3 -0.003920 -0.001729 0.016589 0.000000 -0.001797 0.000000
# 4 0.000000 0.000000 0.000000 0.031944 0.000000 -0.003078
# 5 0.005479 -0.004545 -0.001797 0.000000 0.054450 0.000000
# 6 0.000000 0.000000 0.000000 -0.003078 0.000000 0.035422
#
#
# Mechanical properties :
#
#
# Convention : Reuss Voigt Hill
#
# Bulk Modulus (GPa) = 36.93729 39.52082 38.22906
# Shear Modulus (GPa) = 26.86815 29.76220 28.31517
#
# Velocity S-wave (km/s) = 3.69906 3.89318 3.79736
# Velocity P-wave (km/s) = 6.08728 6.35104 6.22056
#
# Compressibility (1/GPa) = 0.02707291
#
# Stress axis : x y z
#
# Youngs Moduli (GPa) = 97.47033 69.86000 60.27955
#
# Poissons Ratio (x) = 0.09754 0.23628
# Poissons Ratio (y) = 0.13608 0.10424
# Poissons Ratio (z) = 0.38206 0.12081
#
# Static dielectric constant tensor:
#      x y z
#    x 3.686510 0.000000 -0.059540 
#    y 0.000000 3.454890 0.000000 
#    z -0.059540 0.000000 3.289920 
# 
# 
# High freq. dielectric constant tensor:
#      x y z
#    x 1.773360 0.000000 -0.000340 
#    y 0.000000 1.759560 0.000000 
#    z -0.000340 0.000000 1.738740 
# 
# From -- ./inp_files/5637.got.cif
#   From: 2010.03.12/outbox.cif.g09.slc.cpg/sg4_3_cif.got.tgz:5637.got - 2010.03.31 09:31:35.
