data_PCOD8045786
_publ_section_title
;
Structure prediction by ZEFSAII (Michael W. Deem and Ramdas Pophale) SiO2 
 PCOD8045786
Probable space group: P 21
;
_chemical_formula_sum "Si O2"
_cell_formula_units_Z 14
_cell_length_a 25.756595
_cell_length_b 5.054477
_cell_length_c 10.915345
_cell_angle_alpha 90.000000
_cell_angle_beta 30.176691
_cell_angle_gamma 90.000000
_cell_volume 714.304918
_symmetry_space_group_name_H-M "P 21"
_symmetry_group_IT_number 4
_symmetry_cell_setting 'monoclinic'
loop_
_space_group_symop_operation_xyz
x,y,z
-x,1/2+y,-z
loop_
_atom_site_type_symbol
_atom_site_label
_atom_site_fract_x
_atom_site_fract_y
_atom_site_fract_z
Si Si1 0.062401 0.529110 0.571601
Si Si2 0.252582 0.578405 0.667349
Si Si3 0.517195 0.086386 0.885343
Si Si4 0.173255 0.025951 0.244141
Si Si5 0.820439 0.576820 0.048602
Si Si6 0.686004 0.497933 0.821270
Si Si7 0.207439 0.499803 0.493640
O O1 0.101181 0.271033 0.423340
O O2 0.103457 0.543384 0.627517
O O3 0.102830 0.771810 0.409501
O O4 0.940367 0.527031 0.826514
O O5 0.371175 0.517003 0.395099
O O6 0.210359 0.373238 0.852900
O O7 0.183650 0.550324 0.684804
O O8 0.243763 0.872522 0.738201
O O9 0.513885 0.382713 0.944257
O O10 0.435383 0.060597 0.940665
O O11 0.277553 0.021330 0.112462
O O12 0.210262 0.036227 0.029512
O O13 0.704997 0.203504 0.731315
O O14 0.751057 0.702335 0.605716
#
# Coordination Sequence:
#
# PCOD8045786 Si02
#       7
#     2   2   2   2   2   2   2
#     4  10  21  38  63  82 110 155 201 230 270 331
#     4  12  24  36  56  87 122 145 187 233 298 339
#     4  12  21  38  63  85 109 149 192 232 283 343
#     4  10  21  39  62  83 111 153 200 230 270 333
#     4  12  24  38  55  86 123 154 182 235 283 338
#     4  10  19  37  61  86 107 142 199 244 266 323
#     4  10  20  36  58  87 112 146 189 238 282 329
#
# _framework density 19.599473
#
# number of rings (size 3 to 8) (size 9 to 14) (size 15 to 20)
#    0.000    1.143    2.857    4.286    0.000    1.143 
#    0.000    1.429    0.000    0.000    0.000    0.000 
#    0.000    0.000    0.000    0.000    0.000    0.000 
#
# Total GULP energy -173680.923277 kJ/mol
# GULP energy per Si atom -12405.780234 kJ/mol
# Density = 1.955486 g / cm^3
# Si number density = 19.599473 Si / 1000 Ang^3
#
#
#
# Elastic Constant Matrix: (Units=GPa)
#
#
# Indices 1 2 3 4 5 6 
#
# 1 120.7581 20.2698 53.4097 0.0000 3.0607 0.0000
# 2 20.2698 100.0023 11.8227 0.0000 9.8973 0.0000
# 3 53.4097 11.8227 65.0220 0.0000 12.1530 0.0000
# 4 0.0000 0.0000 0.0000 30.1605 0.0000 3.1183
# 5 3.0607 9.8973 12.1530 0.0000 26.1513 0.0000
# 6 0.0000 0.0000 0.0000 3.1183 0.0000 27.8499
#
#
#
# Elastic Compliance Matrix: (Units=1/GPa)
#
#
# Indices 1 2 3 4 5 6 
#
# 1 0.013668 -0.001832 -0.011744 0.000000 0.004552 0.000000
# 2 -0.001832 0.010730 0.000299 0.000000 -0.003986 0.000000
# 3 -0.011744 0.000299 0.027089 0.000000 -0.011327 0.000000
# 4 0.000000 0.000000 0.000000 0.033544 0.000000 -0.003756
# 5 0.004552 -0.003986 -0.011327 0.000000 0.044479 0.000000
# 6 0.000000 0.000000 0.000000 -0.003756 0.000000 0.036327
#
#
# Mechanical properties :
#
#
# Convention : Reuss Voigt Hill
#
# Bulk Modulus (GPa) = 40.10959 50.75408 45.43183
# Shear Modulus (GPa) = 24.91243 30.18434 27.54838
#
# Velocity S-wave (km/s) = 3.56908 3.92862 3.75316
# Velocity P-wave (km/s) = 6.12320 6.82133 6.48167
#
# Compressibility (1/GPa) = 0.02493169
#
# Stress axis : x y z
#
# Youngs Moduli (GPa) = 73.16606 93.19424 36.91532
#
# Poissons Ratio (x) = 0.17076 0.43354
# Poissons Ratio (y) = 0.13407 -0.01104
# Poissons Ratio (z) = 0.85928 -0.02786
#
# Static dielectric constant tensor:
#      x y z
#    x 3.868080 0.000000 -0.029160 
#    y 0.000000 3.785910 0.000000 
#    z -0.029160 0.000000 3.212830 
# 
# 
# High freq. dielectric constant tensor:
#      x y z
#    x 1.778430 0.000000 -0.003980 
#    y 0.000000 1.787910 0.000000 
#    z -0.003980 0.000000 1.731870 
# 
# From -- ./inp_files/9343.got.cif
#   From: 2010.03.12/outbox.cif.g09.slc.cpg/sg4_5_cif.got.tgz:9343.got - 2010.03.31 09:31:35.
