data_PCOD8045636
_publ_section_title
;
Structure prediction by ZEFSAII (Michael W. Deem and Ramdas Pophale) SiO2 
 PCOD8045636
Probable space group: P 21
;
_chemical_formula_sum "Si O2"
_cell_formula_units_Z 16
_cell_length_a 22.946391
_cell_length_b 5.307113
_cell_length_c 14.442540
_cell_angle_alpha 90.000000
_cell_angle_beta 154.311528
_cell_angle_gamma 90.000000
_cell_volume 762.400446
_symmetry_space_group_name_H-M "P 21"
_symmetry_group_IT_number 4
_symmetry_cell_setting 'monoclinic'
loop_
_space_group_symop_operation_xyz
x,y,z
-x,1/2+y,-z
loop_
_atom_site_type_symbol
_atom_site_label
_atom_site_fract_x
_atom_site_fract_y
_atom_site_fract_z
Si Si1 0.666039 0.433220 0.264552
Si Si2 0.920915 0.445715 0.279542
Si Si3 0.586631 0.933193 0.225509
Si Si4 0.090771 0.945617 0.526506
Si Si5 0.771285 0.431338 0.884560
Si Si6 0.526462 0.931281 0.625569
Si Si7 0.756080 0.931306 0.798728
Si Si8 0.522893 0.931589 0.341443
O O1 0.679204 0.683202 0.347258
O O2 0.778315 0.429767 0.347431
O O3 0.678508 0.184225 0.346885
O O4 0.520896 0.433748 0.010082
O O5 0.998184 0.706156 0.371751
O O6 0.862135 0.438441 0.298937
O O7 0.015774 0.206192 0.397268
O O8 0.795526 0.432283 0.029448
O O9 0.509270 0.931607 0.212015
O O10 0.612873 0.430533 0.631699
O O11 0.841616 0.676419 0.937337
O O12 0.841911 0.185518 0.938495
O O13 0.642321 0.930837 0.716165
O O14 0.544391 0.685107 0.714905
O O15 0.543954 0.177863 0.714105
O O16 0.682963 0.932238 0.594914
#
# Coordination Sequence:
#
# PCOD8045636 Si02
#       8
#     2   2   2   2   2   2   2   2
#     4  10  21  37  55  77 106 136 174 221 257 298
#     4  10  21  36  54  80 105 136 178 209 255 315
#     4  10  21  36  54  80 105 136 178 209 255 315
#     4  10  21  37  55  77 106 136 174 221 257 298
#     4  10  18  31  48  71 105 136 160 206 251 304
#     4  10  19  30  47  76 106 134 171 206 256 321
#     4  10  19  30  47  76 106 134 171 206 256 321
#     4  10  18  31  48  71 105 136 160 206 251 304
#
# _framework density 20.986346000000001
#
# number of rings (size 3 to 8) (size 9 to 14) (size 15 to 20)
#    0.000    2.000    0.000    6.000    0.000    3.000 
#    0.000    0.000    0.000    0.000    0.000   70.000 
#    0.000    0.000    0.000    0.000    0.000    0.000 
#
# Total GULP energy -198296.603760 kJ/mol
# GULP energy per Si atom -12393.537735 kJ/mol
# Density = 2.093858 g / cm^3
# Si number density = 20.986346 Si / 1000 Ang^3
#
#
#
# Elastic Constant Matrix: (Units=GPa)
#
#
# Indices 1 2 3 4 5 6 
#
# 1 57.9244 31.5856 -9.5666 0.0000 6.9899 0.0000
# 2 31.5856 194.3022 15.4477 0.0000 -10.8671 0.0000
# 3 -9.5666 15.4477 29.6484 0.0000 -9.5175 0.0000
# 4 0.0000 0.0000 0.0000 -3.9062 0.0000 -0.5141
# 5 6.9899 -10.8671 -9.5175 0.0000 23.5230 0.0000
# 6 0.0000 0.0000 0.0000 -0.5141 0.0000 -5.1779
#
#
#
# Elastic Compliance Matrix: (Units=1/GPa)
#
#
# Indices 1 2 3 4 5 6 
#
# 1 0.021559 -0.004404 0.007518 0.000000 -0.005399 0.000000
# 2 -0.004404 0.006318 -0.003857 0.000000 0.002667 0.000000
# 3 0.007518 -0.003857 0.042379 0.000000 0.013131 0.000000
# 4 0.000000 0.000000 0.000000 -0.259392 0.000000 0.025756
# 5 -0.005399 0.002667 0.013131 0.000000 0.050661 0.000000
# 6 0.000000 0.000000 0.000000 0.025756 0.000000 -0.195684
#
#
# Mechanical properties :
#
#
# Convention : Reuss Voigt Hill
#
# Bulk Modulus (GPa) = 14.54132 39.64537 27.09334
# Shear Modulus (GPa) = -16.14209 19.18165 1.51978
#
# Velocity S-wave (km/s) = -2.77640 3.02653 0.85191
# Velocity P-wave (km/s) = 1.82590 5.58079 3.72903
#
# Compressibility (1/GPa) = 0.06876956
#
# Stress axis : x y z
#
# Youngs Moduli (GPa) = 46.38519 158.26843 23.59644
#
# Poissons Ratio (x) = 0.69705 -0.17739
# Poissons Ratio (y) = 0.20429 0.09101
# Poissons Ratio (z) = -0.34872 0.61044
#
# Static dielectric constant tensor:
#      x y z
#    x 3.341110 0.000000 -0.322670 
#    y 0.000000 5.899400 0.000000 
#    z -0.322670 0.000000 3.479760 
# 
# 
# High freq. dielectric constant tensor:
#      x y z
#    x 1.777060 0.000000 -0.030530 
#    y 0.000000 1.870580 0.000000 
#    z -0.030530 0.000000 1.789530 
# 
# From -- ./inp_files/11520.got.cif
#   From: 2010.03.12/outbox.cif.g09.slc.cpg/sg4_6_cif.got.tgz:11520.got - 2010.03.31 09:31:35.
