data_PCOD8045087
_publ_section_title
;
Structure prediction by ZEFSAII (Michael W. Deem and Ramdas Pophale) SiO2 
 PCOD8045087
Probable space group: P 2
;
_chemical_formula_sum "Si O2"
_cell_formula_units_Z 10
_cell_length_a 12.651647
_cell_length_b 6.230034
_cell_length_c 6.682735
_cell_angle_alpha 90.000000
_cell_angle_beta 64.860005
_cell_angle_gamma 90.000000
_cell_volume 476.838195
_symmetry_space_group_name_H-M "P 2"
_symmetry_group_IT_number 3
_symmetry_cell_setting 'monoclinic'
loop_
_space_group_symop_operation_xyz
x,y,z
-x,y,-z
loop_
_atom_site_type_symbol
_atom_site_label
_atom_site_fract_x
_atom_site_fract_y
_atom_site_fract_z
Si Si1 0.583871 0.742810 0.609938
Si Si2 0.000000 0.862074 0.000000
Si Si3 0.695492 0.364751 0.747094
Si Si4 0.190317 0.989633 0.553483
Si Si5 0.500000 0.062900 0.000000
Si Si6 0.108861 0.665567 0.290644
O O1 0.500000 0.674052 0.500000
O O2 0.606861 0.525977 0.711720
O O3 0.705753 0.845151 0.437214
O O4 0.514086 0.917084 0.794886
O O5 0.912848 0.008349 0.201027
O O6 0.074323 0.715125 0.090986
O O7 0.767590 0.230220 0.524085
O O8 0.786626 0.494147 0.810683
O O9 0.616289 0.205260 0.943707
O O10 0.148371 0.879303 0.379412
O O11 0.000000 0.562918 0.500000
#
# Coordination Sequence:
#
# PCOD8045087 Si02
#       6
#     2   1   2   2   1   2
#     4  10  22  41  61  87 122 156 196 245 295 349
#     4  10  20  40  66  86 116 160 198 242 296 348
#     4  10  21  40  63  87 120 158 197 244 294 349
#     4   9  21  39  59  88 123 155 194 246 295 347
#     4  10  22  40  62  88 120 160 196 240 296 348
#     4   9  20  40  60  87 125 155 191 246 297 346
#
# _framework density 20.971471000000001
#
# number of rings (size 3 to 8) (size 9 to 14) (size 15 to 20)
#    0.000    2.400    0.000    0.600    0.000   12.000 
#    0.000   26.000    0.000    0.000    0.000    0.000 
#    0.000    0.000    0.000    0.000    0.000    0.000 
#
# Total GULP energy -123999.921083 kJ/mol
# GULP energy per Si atom -12399.992108 kJ/mol
# Density = 2.092374 g / cm^3
# Si number density = 20.971471 Si / 1000 Ang^3
#
#
#
# Elastic Constant Matrix: (Units=GPa)
#
#
# Indices 1 2 3 4 5 6 
#
# 1 149.9588 58.4242 61.0356 0.0000 7.9907 0.0000
# 2 58.4242 117.5817 54.4049 0.0000 -9.5620 0.0000
# 3 61.0356 54.4049 110.5653 0.0000 -15.3890 0.0000
# 4 0.0000 0.0000 0.0000 15.8661 0.0000 -14.7474
# 5 7.9907 -9.5620 -15.3890 0.0000 41.7591 0.0000
# 6 0.0000 0.0000 0.0000 -14.7474 0.0000 17.1985
#
#
#
# Elastic Compliance Matrix: (Units=1/GPa)
#
#
# Indices 1 2 3 4 5 6 
#
# 1 0.010001 -0.003221 -0.004537 0.000000 -0.004323 0.000000
# 2 -0.003221 0.012062 -0.003886 0.000000 0.001946 0.000000
# 3 -0.004537 -0.003886 0.014186 0.000000 0.005206 0.000000
# 4 0.000000 0.000000 0.000000 0.310509 0.000000 0.266255
# 5 -0.004323 0.001946 0.005206 0.000000 0.027138 0.000000
# 6 0.000000 0.000000 0.000000 0.266255 0.000000 0.286452
#
#
# Mechanical properties :
#
#
# Convention : Reuss Voigt Hill
#
# Bulk Modulus (GPa) = 77.16599 80.64835 78.90717
# Shear Modulus (GPa) = 7.26790 28.58081 17.92436
#
# Velocity S-wave (km/s) = 1.86364 3.69567 2.92670
# Velocity P-wave (km/s) = 6.44255 7.53329 7.00917
#
# Compressibility (1/GPa) = 0.01295908
#
# Stress axis : x y z
#
# Youngs Moduli (GPa) = 99.99324 82.90765 70.49239
#
# Poissons Ratio (x) = 0.26707 0.31985
# Poissons Ratio (y) = 0.32211 0.27393
# Poissons Ratio (z) = 0.45371 0.32217
#
# Static dielectric constant tensor:
#      x y z
#    x 4.093770 0.000000 -0.319060 
#    y 0.000000 3.738960 0.000000 
#    z -0.319060 0.000000 3.607660 
# 
# 
# High freq. dielectric constant tensor:
#      x y z
#    x 1.838260 0.000000 -0.020870 
#    y 0.000000 1.815720 0.000000 
#    z -0.020870 0.000000 1.803190 
# 
# From -- ./inp_files/1916.got.cif
#   From: 2010.03.12/outbox.cif.g09.slc.cpg/sg3_1_cif.got.tgz:1916.got - 2010.03.31 09:20:49.
