data_PCOD8045953
_publ_section_title
;
Structure prediction by ZEFSAII (Michael W. Deem and Ramdas Pophale) SiO2 
 PCOD8045953
Probable space group: P 21
;
_chemical_formula_sum "Si O2"
_cell_formula_units_Z 16
_cell_length_a 15.712499
_cell_length_b 7.956624
_cell_length_c 7.195248
_cell_angle_alpha 90.000000
_cell_angle_beta 121.355389
_cell_angle_gamma 90.000000
_cell_volume 768.166675
_symmetry_space_group_name_H-M "P 21"
_symmetry_group_IT_number 4
_symmetry_cell_setting 'monoclinic'
loop_
_space_group_symop_operation_xyz
x,y,z
-x,1/2+y,-z
loop_
_atom_site_type_symbol
_atom_site_label
_atom_site_fract_x
_atom_site_fract_y
_atom_site_fract_z
Si Si1 0.005954 0.278230 0.847077
Si Si2 0.334993 0.663169 0.836637
Si Si3 0.808209 0.587021 0.038344
Si Si4 0.569707 0.093632 0.453609
Si Si5 0.379727 0.892146 0.217240
Si Si6 0.873924 0.306426 0.355640
Si Si7 0.305233 0.431232 0.120098
Si Si8 0.886249 0.117652 0.007784
O O1 0.054172 0.449564 0.967899
O O2 0.967914 0.306710 0.596642
O O3 0.090688 0.131507 0.958147
O O4 0.909833 0.238330 0.861995
O O5 0.386843 0.630510 0.699923
O O6 0.218123 0.699248 0.666053
O O7 0.380963 0.817583 0.008566
O O8 0.352314 0.495628 0.980429
O O9 0.732497 0.454591 0.853025
O O10 0.746505 0.758103 0.993559
O O11 0.839917 0.498329 0.268968
O O12 0.582832 0.259259 0.590607
O O13 0.452793 0.053010 0.297832
O O14 0.617876 0.931737 0.618089
O O15 0.920742 0.216759 0.228863
O O16 0.230067 0.577849 0.104721
#
# Coordination Sequence:
#
# PCOD8045953 Si02
#       8
#     2   2   2   2   2   2   2   2
#     4  11  21  35  58  82 113 157 193 234 295 350
#     4   9  21  38  60  85 114 148 189 240 287 342
#     4  10  21  39  58  83 121 151 192 249 287 335
#     4  11  21  40  65  86 117 157 191 231 294 352
#     4  10  23  38  58  88 118 151 193 244 286 339
#     4  10  20  38  58  82 114 151 193 238 289 343
#     4   9  20  39  58  85 117 147 189 242 289 340
#     4  10  21  35  55  83 114 148 192 242 285 339
#
# _framework density 20.828814000000001
#
# number of rings (size 3 to 8) (size 9 to 14) (size 15 to 20)
#    0.000    2.000    0.000    3.750    0.000    4.000 
#    0.000   12.500    0.000    0.000    0.000    0.000 
#    0.000    0.000    0.000    0.000    0.000    0.000 
#
# Total GULP energy -198268.054188 kJ/mol
# GULP energy per Si atom -12391.753387 kJ/mol
# Density = 2.078141 g / cm^3
# Si number density = 20.828814 Si / 1000 Ang^3
#
#
#
# Elastic Constant Matrix: (Units=GPa)
#
#
# Indices 1 2 3 4 5 6 
#
# 1 85.3393 24.9586 43.3302 0.0000 -6.1464 0.0000
# 2 24.9586 77.7972 24.4786 0.0000 -4.3486 0.0000
# 3 43.3302 24.4786 89.2067 0.0000 -7.1589 0.0000
# 4 0.0000 0.0000 0.0000 22.0627 0.0000 2.9181
# 5 -6.1464 -4.3486 -7.1589 0.0000 31.9594 0.0000
# 6 0.0000 0.0000 0.0000 2.9181 0.0000 26.6704
#
#
#
# Elastic Compliance Matrix: (Units=1/GPa)
#
#
# Indices 1 2 3 4 5 6 
#
# 1 0.016199 -0.002940 -0.006969 0.000000 0.001154 0.000000
# 2 -0.002940 0.014638 -0.002520 0.000000 0.000862 0.000000
# 3 -0.006969 -0.002520 0.015429 0.000000 0.001773 0.000000
# 4 0.000000 0.000000 0.000000 0.045991 0.000000 -0.005032
# 5 0.001154 0.000862 0.001773 0.000000 0.032026 0.000000
# 6 0.000000 0.000000 0.000000 -0.005032 0.000000 0.038045
#
#
# Mechanical properties :
#
#
# Convention : Reuss Voigt Hill
#
# Bulk Modulus (GPa) = 46.70920 48.65312 47.68116
# Shear Modulus (GPa) = 25.73050 26.77688 26.25369
#
# Velocity S-wave (km/s) = 3.51854 3.58937 3.55413
# Velocity P-wave (km/s) = 6.24346 6.37082 6.30746
#
# Compressibility (1/GPa) = 0.02140906
#
# Stress axis : x y z
#
# Youngs Moduli (GPa) = 61.73091 68.31530 64.81417
#
# Poissons Ratio (x) = 0.20082 0.45170
# Poissons Ratio (y) = 0.18147 0.16331
# Poissons Ratio (z) = 0.43021 0.17213
#
# Static dielectric constant tensor:
#      x y z
#    x 3.791690 0.000000 0.246910 
#    y 0.000000 3.899240 0.000000 
#    z 0.246910 0.000000 3.699010 
# 
# 
# High freq. dielectric constant tensor:
#      x y z
#    x 1.813230 0.000000 0.015770 
#    y 0.000000 1.823280 0.000000 
#    z 0.015770 0.000000 1.805390 
# 
# From -- ./inp_files/3427.got.cif
#   From: 2010.03.12/outbox.cif.g09.slc.cpg/sg4_2_cif.got.tgz:3427.got - 2010.03.31 09:31:35.
