data_PCOD8045546
_publ_section_title
;
Structure prediction by ZEFSAII (Michael W. Deem and Ramdas Pophale) SiO2 
 PCOD8045546
Probable space group: P 2
;
_chemical_formula_sum "Si O2"
_cell_formula_units_Z 14
_cell_length_a 11.772168
_cell_length_b 9.115470
_cell_length_c 8.918636
_cell_angle_alpha 90.000000
_cell_angle_beta 37.908072
_cell_angle_gamma 90.000000
_cell_volume 588.007130
_symmetry_space_group_name_H-M "P 2"
_symmetry_group_IT_number 3
_symmetry_cell_setting 'monoclinic'
loop_
_space_group_symop_operation_xyz
x,y,z
-x,y,-z
loop_
_atom_site_type_symbol
_atom_site_label
_atom_site_fract_x
_atom_site_fract_y
_atom_site_fract_z
Si Si1 0.236608 0.330810 0.898464
Si Si2 0.360567 0.617420 0.900908
Si Si3 0.750316 0.512175 0.422213
Si Si4 0.500000 0.097514 0.500000
Si Si5 0.500000 0.791581 0.000000
Si Si6 0.100599 0.272137 0.554304
Si Si7 0.275540 0.980393 0.460599
Si Si8 0.021468 0.771655 0.138523
O O1 0.290562 0.449884 0.969574
O O2 0.239331 0.413019 0.736805
O O3 0.381505 0.197685 0.738171
O O4 0.041487 0.264462 0.155736
O O5 0.568574 0.615010 0.615486
O O6 0.353122 0.679331 0.078185
O O7 0.236882 0.737904 0.942118
O O8 0.763490 0.409645 0.556228
O O9 0.929087 0.612542 0.239737
O O10 0.362053 0.002141 0.537928
O O11 0.423515 0.892284 0.210690
O O12 0.000000 0.286030 0.500000
O O13 0.231177 0.131054 0.423035
O O14 0.083026 0.888867 0.648922
O O15 0.000000 0.845426 0.000000
#
# Coordination Sequence:
#
# PCOD8045546 Si02
#       8
#     2   2   2   1   1   2   2   2
#     4  12  24  48  82 115 155 202 274 343 392 468
#     4  12  26  47  81 111 160 203 266 336 397 473
#     4  12  23  51  78 120 150 203 273 335 389 467
#     4  12  28  48  82 114 156 216 284 336 404 476
#     4  12  32  52  76 114 166 220 260 324 416 494
#     4  12  29  48  77 115 168 212 261 331 422 487
#     4  12  31  51  75 113 166 215 270 324 410 490
#     4  12  27  44  79 116 152 200 264 328 399 465
#
# _framework density 23.809235999999999
#
# number of rings (size 3 to 8) (size 9 to 14) (size 15 to 20)
#    0.000    0.000    7.143    0.429   10.000    0.000 
#    0.000    0.000    0.000    0.000    0.000    0.000 
#    0.000    0.000    0.000    0.000    0.000    0.000 
#
# Total GULP energy -173529.731347 kJ/mol
# GULP energy per Si atom -12394.980811 kJ/mol
# Density = 2.375504 g / cm^3
# Si number density = 23.809236 Si / 1000 Ang^3
#
#
#
# Elastic Constant Matrix: (Units=GPa)
#
#
# Indices 1 2 3 4 5 6 
#
# 1 159.0102 57.3292 39.8896 0.0000 -3.1145 0.0000
# 2 57.3292 96.9283 38.4281 0.0000 8.7552 0.0000
# 3 39.8896 38.4281 84.3033 0.0000 -15.0444 0.0000
# 4 0.0000 0.0000 0.0000 40.6079 0.0000 -0.0193
# 5 -3.1145 8.7552 -15.0444 0.0000 34.2717 0.0000
# 6 0.0000 0.0000 0.0000 -0.0193 0.0000 32.7462
#
#
#
# Elastic Compliance Matrix: (Units=1/GPa)
#
#
# Indices 1 2 3 4 5 6 
#
# 1 0.008308 -0.004307 -0.001776 0.000000 0.001076 0.000000
# 2 -0.004307 0.016181 -0.006668 0.000000 -0.007452 0.000000
# 3 -0.001776 -0.006668 0.017378 0.000000 0.009171 0.000000
# 4 0.000000 0.000000 0.000000 0.024626 0.000000 0.000015
# 5 0.001076 -0.007452 0.009171 0.000000 0.035206 0.000000
# 6 0.000000 0.000000 0.000000 0.000015 0.000000 0.030538
#
#
# Mechanical properties :
#
#
# Convention : Reuss Voigt Hill
#
# Bulk Modulus (GPa) = 61.10237 67.94838 64.52537
# Shear Modulus (GPa) = 30.63845 35.16481 32.90163
#
# Velocity S-wave (km/s) = 3.59113 3.84727 3.72140
# Velocity P-wave (km/s) = 6.55088 6.95240 6.75462
#
# Compressibility (1/GPa) = 0.01636598
#
# Stress axis : x y z
#
# Youngs Moduli (GPa) = 120.36033 61.80104 57.54369
#
# Poissons Ratio (x) = 0.26619 0.10219
# Poissons Ratio (y) = 0.51841 0.38368
# Poissons Ratio (z) = 0.21375 0.41207
#
# Static dielectric constant tensor:
#      x y z
#    x 4.472350 0.000000 -0.104070 
#    y 0.000000 4.508100 0.000000 
#    z -0.104070 0.000000 4.214210 
# 
# 
# High freq. dielectric constant tensor:
#      x y z
#    x 1.948380 0.000000 -0.012650 
#    y 0.000000 1.954420 0.000000 
#    z -0.012650 0.000000 1.932780 
# 
# From -- ./inp_files/7339.got.cif
#   From: 2010.03.12/outbox.cif.g09.slc.cpg/sg3_4_cif.got.tgz:7339.got - 2010.03.31 09:20:49.
