data_PCOD8045304
_publ_section_title
;
Structure prediction by ZEFSAII (Michael W. Deem and Ramdas Pophale) SiO2 
 PCOD8045304
Probable space group: P 2
;
_chemical_formula_sum "Si O2"
_cell_formula_units_Z 16
_cell_length_a 9.720729
_cell_length_b 9.530006
_cell_length_c 8.181411
_cell_angle_alpha 90.000000
_cell_angle_beta 95.882065
_cell_angle_gamma 90.000000
_cell_volume 753.924046
_symmetry_space_group_name_H-M "P 2"
_symmetry_group_IT_number 3
_symmetry_cell_setting 'monoclinic'
loop_
_space_group_symop_operation_xyz
x,y,z
-x,y,-z
loop_
_atom_site_type_symbol
_atom_site_label
_atom_site_fract_x
_atom_site_fract_y
_atom_site_fract_z
Si Si1 0.210497 0.202040 0.137969
Si Si2 0.751721 0.721228 0.196217
Si Si3 0.621824 0.411995 0.633499
Si Si4 0.216893 0.875308 0.141682
Si Si5 0.951464 0.928500 0.319925
Si Si6 0.093560 0.220096 0.788033
Si Si7 0.853482 0.476164 0.411364
Si Si8 0.462795 0.703728 0.306585
O O1 0.333578 0.284831 0.243268
O O2 0.073006 0.223187 0.227444
O O3 0.252338 0.039378 0.118573
O O4 0.175053 0.271630 0.958845
O O5 0.801311 0.563179 0.245392
O O6 0.589073 0.744275 0.203040
O O7 0.837451 0.810267 0.339425
O O8 0.795142 0.780740 0.023806
O O9 0.500000 0.355720 0.500000
O O10 0.743954 0.481942 0.543125
O O11 0.572482 0.541593 0.740596
O O12 0.072161 0.866443 0.219496
O O13 0.338050 0.809956 0.263988
O O14 0.000000 0.984070 0.500000
O O15 0.869185 0.056881 0.227123
O O16 0.138372 0.314556 0.642409
O O17 0.000000 0.531342 0.500000
O O18 0.500000 0.714691 0.500000
#
# Coordination Sequence:
#
# PCOD8045304 Si02
#       8
#     2   2   2   2   2   2   2   2
#     4  10  22  45  68 100 140 177 227 290 348 416
#     4  12  24  44  66  99 143 177 229 292 342 419
#     4  11  24  47  67  98 141 183 233 289 349 415
#     4  11  25  44  69 102 135 182 233 283 353 414
#     4  11  23  42  71 101 137 180 230 288 349 412
#     4  10  22  42  68 102 139 174 228 294 349 403
#     4  12  24  43  69 105 132 179 242 283 351 415
#     4  11  24  46  66  94 139 184 230 286 350 410
#
# _framework density 21.222297000000001
#
# number of rings (size 3 to 8) (size 9 to 14) (size 15 to 20)
#    0.000    1.000    5.000    2.250    5.250    0.500 
#    4.500    0.625    0.000    0.000    0.000    0.000 
#    0.000    0.000    0.000    0.000    0.000    0.000 
#
# Total GULP energy -198350.824671 kJ/mol
# GULP energy per Si atom -12396.926542 kJ/mol
# Density = 2.117399 g / cm^3
# Si number density = 21.222297 Si / 1000 Ang^3
#
#
#
# Elastic Constant Matrix: (Units=GPa)
#
#
# Indices 1 2 3 4 5 6 
#
# 1 104.6865 58.3193 39.6438 0.0000 9.9339 0.0000
# 2 58.3193 104.5882 41.4767 0.0000 7.2202 0.0000
# 3 39.6438 41.4767 92.0069 0.0000 2.1325 0.0000
# 4 0.0000 0.0000 0.0000 41.9753 0.0000 9.7527
# 5 9.9339 7.2202 2.1325 0.0000 39.2402 0.0000
# 6 0.0000 0.0000 0.0000 9.7527 0.0000 35.2128
#
#
#
# Elastic Compliance Matrix: (Units=1/GPa)
#
#
# Indices 1 2 3 4 5 6 
#
# 1 0.014791 -0.006797 -0.003256 0.000000 -0.002317 0.000000
# 2 -0.006797 0.014903 -0.003771 0.000000 -0.000817 0.000000
# 3 -0.003256 -0.003771 0.013954 0.000000 0.000760 0.000000
# 4 0.000000 0.000000 0.000000 0.025462 0.000000 -0.007052
# 5 -0.002317 -0.000817 0.000760 0.000000 0.026180 0.000000
# 6 0.000000 0.000000 0.000000 -0.007052 0.000000 0.030352
#
#
# Mechanical properties :
#
#
# Convention : Reuss Voigt Hill
#
# Bulk Modulus (GPa) = 62.49264 64.46236 63.47750
# Shear Modulus (GPa) = 31.52144 34.07511 32.79828
#
# Velocity S-wave (km/s) = 3.85814 4.01138 3.93550
# Velocity P-wave (km/s) = 7.02550 7.20386 7.11524
#
# Compressibility (1/GPa) = 0.01600188
#
# Stress axis : x y z
#
# Youngs Moduli (GPa) = 67.60646 67.10045 71.66522
#
# Poissons Ratio (x) = 0.45607 0.23331
# Poissons Ratio (y) = 0.45951 0.27023
# Poissons Ratio (z) = 0.22010 0.25302
#
# Static dielectric constant tensor:
#      x y z
#    x 3.941800 0.000000 0.145610 
#    y 0.000000 3.910190 0.000000 
#    z 0.145610 0.000000 3.752850 
# 
# 
# High freq. dielectric constant tensor:
#      x y z
#    x 1.829790 0.000000 0.012210 
#    y 0.000000 1.835520 0.000000 
#    z 0.012210 0.000000 1.834610 
# 
# From -- ./inp_files/5591.got.cif
#   From: 2010.03.12/outbox.cif.g09.slc.cpg/sg3_3_cif.got.tgz:5591.got - 2010.03.31 09:20:49.
