data_PCOD8045842
_publ_section_title
;
Structure prediction by ZEFSAII (Michael W. Deem and Ramdas Pophale) SiO2 
 PCOD8045842
Probable space group: P 21
;
_chemical_formula_sum "Si O2"
_cell_formula_units_Z 16
_cell_length_a 11.595575
_cell_length_b 12.238202
_cell_length_c 8.174844
_cell_angle_alpha 90.000000
_cell_angle_beta 40.484682
_cell_angle_gamma 90.000000
_cell_volume 753.178326
_symmetry_space_group_name_H-M "P 21"
_symmetry_group_IT_number 4
_symmetry_cell_setting 'monoclinic'
loop_
_space_group_symop_operation_xyz
x,y,z
-x,1/2+y,-z
loop_
_atom_site_type_symbol
_atom_site_label
_atom_site_fract_x
_atom_site_fract_y
_atom_site_fract_z
Si Si1 0.724219 0.035800 0.901160
Si Si2 0.846363 0.131619 0.087404
Si Si3 0.662004 0.893418 0.683338
Si Si4 0.525478 0.105893 0.666508
Si Si5 0.026912 0.184425 0.443279
Si Si6 0.582394 0.673220 0.877944
Si Si7 0.855542 0.579959 0.995190
Si Si8 0.040589 0.846397 0.225121
O O1 0.864312 0.103466 0.643840
O O2 0.717544 0.920436 0.813881
O O3 0.784769 0.037797 0.024851
O O4 0.524065 0.082834 0.108203
O O5 0.695151 0.148293 0.385951
O O6 0.028494 0.084618 0.966189
O O7 0.875019 0.249362 0.973993
O O8 0.541557 0.785896 0.826612
O O9 0.838604 0.870084 0.386139
O O10 0.551269 0.985250 0.712107
O O11 0.491950 0.184797 0.856872
O O12 0.350353 0.104258 0.740336
O O13 0.965899 0.303721 0.577650
O O14 0.205555 0.148042 0.350200
O O15 0.070030 0.176276 0.204196
O O16 0.856383 0.460830 0.905394
#
# Coordination Sequence:
#
# PCOD8045842 Si02
#       8
#     2   2   2   2   2   2   2   2
#     4  10  20  38  62  87 126 156 203 259 305 366
#     4  11  24  41  60  94 133 166 196 258 325 380
#     4  10  19  41  68  86 118 165 214 260 302 363
#     4  10  22  40  64  86 133 160 196 266 310 366
#     4   9  19  37  66  90 114 157 214 257 298 356
#     4   9  20  37  62  94 112 156 213 255 298 365
#     4  11  21  44  61  94 131 162 206 256 317 373
#     4  10  21  40  67  89 119 170 210 251 315 367
#
# _framework density 21.243307999999999
#
# number of rings (size 3 to 8) (size 9 to 14) (size 15 to 20)
#    0.000    2.000    2.500    0.750    3.500    3.000 
#    9.000    0.000    0.000    0.000    0.000    0.000 
#    0.000    0.000    0.000    0.000    0.000    0.000 
#
# Total GULP energy -198244.417034 kJ/mol
# GULP energy per Si atom -12390.276065 kJ/mol
# Density = 2.119496 g / cm^3
# Si number density = 21.243308 Si / 1000 Ang^3
#
#
#
# Elastic Constant Matrix: (Units=GPa)
#
#
# Indices 1 2 3 4 5 6 
#
# 1 100.7821 0.8683 11.6601 0.0000 -8.4349 0.0000
# 2 0.8683 60.1270 15.9850 0.0000 0.8187 0.0000
# 3 11.6601 15.9850 64.9021 0.0000 -13.9299 0.0000
# 4 0.0000 0.0000 0.0000 32.1589 0.0000 -1.7220
# 5 -8.4349 0.8187 -13.9299 0.0000 28.7454 0.0000
# 6 0.0000 0.0000 0.0000 -1.7220 0.0000 20.5994
#
#
#
# Elastic Compliance Matrix: (Units=1/GPa)
#
#
# Indices 1 2 3 4 5 6 
#
# 1 0.010277 0.000190 -0.001392 0.000000 0.002336 0.000000
# 2 0.000190 0.018025 -0.005103 0.000000 -0.002930 0.000000
# 3 -0.001392 -0.005103 0.018815 0.000000 0.008855 0.000000
# 4 0.000000 0.000000 0.000000 0.031235 0.000000 0.002611
# 5 0.002336 -0.002930 0.008855 0.000000 0.039848 0.000000
# 6 0.000000 0.000000 0.000000 0.002611 0.000000 0.048763
#
#
# Mechanical properties :
#
#
# Convention : Reuss Voigt Hill
#
# Bulk Modulus (GPa) = 28.97841 31.42643 30.20242
# Shear Modulus (GPa) = 26.16758 29.45394 27.81076
#
# Velocity S-wave (km/s) = 3.51351 3.72762 3.62215
# Velocity P-wave (km/s) = 5.48913 5.77517 5.63396
#
# Compressibility (1/GPa) = 0.03450845
#
# Stress axis : x y z
#
# Youngs Moduli (GPa) = 97.30202 55.47797 53.14886
#
# Poissons Ratio (x) = -0.01053 0.07397
# Poissons Ratio (y) = -0.01847 0.27119
# Poissons Ratio (z) = 0.13542 0.28308
#
# Static dielectric constant tensor:
#      x y z
#    x 3.839200 0.000000 -0.140120 
#    y 0.000000 3.759800 0.000000 
#    z -0.140120 0.000000 3.955480 
# 
# 
# High freq. dielectric constant tensor:
#      x y z
#    x 1.823900 0.000000 -0.020270 
#    y 0.000000 1.812310 0.000000 
#    z -0.020270 0.000000 1.839260 
# 
# From -- ./inp_files/8144.got.cif
#   From: 2010.03.12/outbox.cif.g09.slc.cpg/sg4_5_cif.got.tgz:8144.got - 2010.03.31 09:31:35.
