data_PCOD8045680
_publ_section_title
;
Structure prediction by ZEFSAII (Michael W. Deem and Ramdas Pophale) SiO2 
 PCOD8045680
Probable space group: P 21
;
_chemical_formula_sum "Si O2"
_cell_formula_units_Z 16
_cell_length_a 10.948325
_cell_length_b 14.086912
_cell_length_c 10.438247
_cell_angle_alpha 90.000000
_cell_angle_beta 26.381901
_cell_angle_gamma 90.000000
_cell_volume 715.349700
_symmetry_space_group_name_H-M "P 21"
_symmetry_group_IT_number 4
_symmetry_cell_setting 'monoclinic'
loop_
_space_group_symop_operation_xyz
x,y,z
-x,1/2+y,-z
loop_
_atom_site_type_symbol
_atom_site_label
_atom_site_fract_x
_atom_site_fract_y
_atom_site_fract_z
Si Si1 0.740339 0.517710 0.970404
Si Si2 0.139796 0.459237 0.129778
Si Si3 0.996432 0.277017 0.129587
Si Si4 0.517396 0.657567 0.379277
Si Si5 0.732719 0.345908 0.138188
Si Si6 0.626746 0.573074 0.550335
Si Si7 0.807289 0.947319 0.623992
Si Si8 0.191463 0.273368 0.547765
O O1 0.637379 0.613037 0.134747
O O2 0.819247 0.450009 0.014055
O O3 0.511123 0.471762 0.094463
O O4 0.015284 0.522872 0.626705
O O5 0.107279 0.467201 0.311862
O O6 0.109336 0.346373 0.133331
O O7 0.912471 0.518722 0.267247
O O8 0.428282 0.501602 0.812084
O O9 0.790210 0.192517 0.369037
O O10 0.804946 0.339430 0.217859
O O11 0.259901 0.239660 0.802870
O O12 0.506724 0.596409 0.520801
O O13 0.407832 0.332704 0.429270
O O14 0.900828 0.267663 0.895925
O O15 0.685596 0.667186 0.582850
O O16 0.853954 0.835641 0.540108
#
# Coordination Sequence:
#
# PCOD8045680 Si02
#       8
#     2   2   2   2   2   2   2   2
#     4  10  22  40  69  92 123 175 218 273 318 396
#     4  12  27  43  66  99 137 183 218 281 332 397
#     4  12  23  41  63  96 144 166 208 279 345 403
#     4  12  24  41  68 102 135 164 222 277 342 409
#     4  10  18  37  63  93 125 163 209 263 337 382
#     4  12  23  43  69 102 133 169 231 278 340 396
#     4  10  23  46  64  92 133 174 231 256 330 401
#     4  10  20  39  68  92 124 174 215 269 314 398
#
# _framework density 22.366682999999998
#
# number of rings (size 3 to 8) (size 9 to 14) (size 15 to 20)
#    0.000    1.000    2.500    4.500    0.000    3.000 
#    6.750    0.000    0.000    0.000    0.000    0.000 
#    0.000    0.000    0.000    0.000    0.000    0.000 
#
# Total GULP energy -198306.147927 kJ/mol
# GULP energy per Si atom -12394.134245 kJ/mol
# Density = 2.231578 g / cm^3
# Si number density = 22.366683 Si / 1000 Ang^3
#
#
#
# Elastic Constant Matrix: (Units=GPa)
#
#
# Indices 1 2 3 4 5 6 
#
# 1 70.1784 31.7904 14.2472 0.0000 15.5165 0.0000
# 2 31.7904 66.7132 11.6619 0.0000 2.2888 0.0000
# 3 14.2472 11.6619 92.3052 0.0000 -4.4742 0.0000
# 4 0.0000 0.0000 0.0000 40.7417 0.0000 -5.1806
# 5 15.5165 2.2888 -4.4742 0.0000 25.0412 0.0000
# 6 0.0000 0.0000 0.0000 -5.1806 0.0000 28.7389
#
#
#
# Elastic Compliance Matrix: (Units=1/GPa)
#
#
# Indices 1 2 3 4 5 6 
#
# 1 0.022119 -0.009584 -0.002850 0.000000 -0.013339 0.000000
# 2 -0.009584 0.019559 -0.000797 0.000000 0.004009 0.000000
# 3 -0.002850 -0.000797 0.011563 0.000000 0.003905 0.000000
# 4 0.000000 0.000000 0.000000 0.025121 0.000000 0.004528
# 5 -0.013339 0.004009 0.003905 0.000000 0.048531 0.000000
# 6 0.000000 0.000000 0.000000 0.004528 0.000000 0.035612
#
#
# Mechanical properties :
#
#
# Convention : Reuss Voigt Hill
#
# Bulk Modulus (GPa) = 37.34411 38.28843 37.81627
# Shear Modulus (GPa) = 25.26611 30.33751 27.80181
#
# Velocity S-wave (km/s) = 3.36465 3.68689 3.52945
# Velocity P-wave (km/s) = 5.64154 5.93969 5.79253
#
# Compressibility (1/GPa) = 0.02677798
#
# Stress axis : x y z
#
# Youngs Moduli (GPa) = 45.21039 51.12848 86.47915
#
# Poissons Ratio (x) = 0.49003 0.24644
# Poissons Ratio (y) = 0.43331 0.06896
# Poissons Ratio (z) = 0.12883 0.04077
#
# Static dielectric constant tensor:
#      x y z
#    x 3.744650 0.000000 -0.138190 
#    y 0.000000 4.095440 0.000000 
#    z -0.138190 0.000000 4.157030 
# 
# 
# High freq. dielectric constant tensor:
#      x y z
#    x 1.859030 0.000000 -0.011370 
#    y 0.000000 1.872060 0.000000 
#    z -0.011370 0.000000 1.900090 
# 
# From -- ./inp_files/12343.got.cif
#   From: 2010.03.12/outbox.cif.g09.slc.cpg/sg4_7_cif.got.tgz:12343.got - 2010.03.31 09:31:35.
