data_PCOD8045094
_publ_section_title
;
Structure prediction by ZEFSAII (Michael W. Deem and Ramdas Pophale) SiO2 
 PCOD8045094
Probable space group: P 2
;
_chemical_formula_sum "Si O2"
_cell_formula_units_Z 11
_cell_length_a 13.434321
_cell_length_b 5.219022
_cell_length_c 14.403376
_cell_angle_alpha 90.000000
_cell_angle_beta 148.720444
_cell_angle_gamma 90.000000
_cell_volume 524.343277
_symmetry_space_group_name_H-M "P 2"
_symmetry_group_IT_number 3
_symmetry_cell_setting 'monoclinic'
loop_
_space_group_symop_operation_xyz
x,y,z
-x,y,-z
loop_
_atom_site_type_symbol
_atom_site_label
_atom_site_fract_x
_atom_site_fract_y
_atom_site_fract_z
Si Si1 0.300351 0.782030 0.885645
Si Si2 0.000000 0.709157 0.500000
Si Si3 0.924999 0.065446 0.043365
Si Si4 0.460156 0.023973 0.181470
Si Si5 0.991525 0.571062 0.208425
Si Si6 0.708396 0.520812 0.403853
O O1 0.146417 0.873540 0.683276
O O2 0.190707 0.576895 0.865365
O O3 0.500000 0.670252 0.000000
O O4 0.358637 0.020918 0.998338
O O5 0.125893 0.517559 0.540170
O O6 0.696242 0.023947 0.861385
O O7 0.963659 0.349480 0.111566
O O8 0.000000 0.040102 0.000000
O O9 0.020557 0.845922 0.182626
O O10 0.583913 0.772383 0.293081
O O11 0.586635 0.271741 0.290124
O O12 0.193728 0.513672 0.417975
#
# Coordination Sequence:
#
# PCOD8045094 Si02
#       6
#     2   1   2   2   2   2
#     4  10  20  41  64  96 135 177 225 262 331 388
#     4  10  22  40  64  96 132 184 218 264 320 396
#     4  11  23  44  68  94 127 176 223 274 343 393
#     4  11  23  42  66  92 131 171 220 275 326 391
#     4  10  23  42  66  97 133 170 218 281 325 397
#     4  11  23  43  63  96 134 170 219 272 326 387
#
# _framework density 20.978625999999998
#
# number of rings (size 3 to 8) (size 9 to 14) (size 15 to 20)
#    0.000    1.455    1.818    3.818    0.000    0.727 
#   16.364    5.455    0.000    0.000    0.000    0.000 
#    0.000    0.000    0.000    0.000    0.000    0.000 
#
# Total GULP energy -136326.897965 kJ/mol
# GULP energy per Si atom -12393.354360 kJ/mol
# Density = 2.093088 g / cm^3
# Si number density = 20.978626 Si / 1000 Ang^3
#
#
#
# Elastic Constant Matrix: (Units=GPa)
#
#
# Indices 1 2 3 4 5 6 
#
# 1 144.9343 35.5460 67.1724 0.0000 1.1313 0.0000
# 2 35.5460 131.7176 61.3625 0.0000 6.1489 0.0000
# 3 67.1724 61.3625 167.7371 0.0000 8.2356 0.0000
# 4 0.0000 0.0000 0.0000 35.7312 0.0000 2.6400
# 5 1.1313 6.1489 8.2356 0.0000 22.6927 0.0000
# 6 0.0000 0.0000 0.0000 2.6400 0.0000 19.3037
#
#
#
# Elastic Compliance Matrix: (Units=1/GPa)
#
#
# Indices 1 2 3 4 5 6 
#
# 1 0.008572 -0.000888 -0.003155 0.000000 0.000958 0.000000
# 2 -0.000888 0.009281 -0.002971 0.000000 -0.001392 0.000000
# 3 -0.003155 -0.002971 0.008415 0.000000 -0.002092 0.000000
# 4 0.000000 0.000000 0.000000 0.028272 0.000000 -0.003867
# 5 0.000958 -0.001392 -0.002092 0.000000 0.045156 0.000000
# 6 0.000000 0.000000 0.000000 -0.003867 0.000000 0.052332
#
#
# Mechanical properties :
#
#
# Convention : Reuss Voigt Hill
#
# Bulk Modulus (GPa) = 81.70500 85.83900 83.77200
# Shear Modulus (GPa) = 29.38815 34.23272 31.81044
#
# Velocity S-wave (km/s) = 3.74687 4.04393 3.89823
# Velocity P-wave (km/s) = 7.59934 7.92532 7.76404
#
# Compressibility (1/GPa) = 0.01223915
#
# Stress axis : x y z
#
# Youngs Moduli (GPa) = 116.65496 107.74888 118.83912
#
# Poissons Ratio (x) = 0.09572 0.37493
# Poissons Ratio (y) = 0.10363 0.35308
# Poissons Ratio (z) = 0.36804 0.32013
#
# Static dielectric constant tensor:
#      x y z
#    x 3.948150 0.000000 0.123820 
#    y 0.000000 3.462140 0.000000 
#    z 0.123820 0.000000 4.299810 
# 
# 
# High freq. dielectric constant tensor:
#      x y z
#    x 1.817830 0.000000 0.007800 
#    y 0.000000 1.808210 0.000000 
#    z 0.007800 0.000000 1.838350 
# 
# From -- ./inp_files/13850.got.cif
#   From: 2010.03.12/outbox.cif.g09.slc.cpg/sg3_7_cif.got.tgz:13850.got - 2010.03.31 09:20:49.
