data_PCOD8045057
_publ_section_title
;
Structure prediction by ZEFSAII (Michael W. Deem and Ramdas Pophale) SiO2 
 PCOD8045057
Probable space group: P 2
;
_chemical_formula_sum "Si O2"
_cell_formula_units_Z 10
_cell_length_a 5.196668
_cell_length_b 7.667799
_cell_length_c 13.198936
_cell_angle_alpha 90.000000
_cell_angle_beta 77.099287
_cell_angle_gamma 90.000000
_cell_volume 512.662568
_symmetry_space_group_name_H-M "P 2"
_symmetry_group_IT_number 3
_symmetry_cell_setting 'monoclinic'
loop_
_space_group_symop_operation_xyz
x,y,z
-x,y,-z
loop_
_atom_site_type_symbol
_atom_site_label
_atom_site_fract_x
_atom_site_fract_y
_atom_site_fract_z
Si Si1 0.893855 0.270750 0.762960
Si Si2 0.371817 0.568961 0.118940
Si Si3 0.420408 0.792666 0.617804
Si Si4 0.434665 0.434446 0.703743
Si Si5 0.845791 0.880831 0.743622
O O1 0.816426 0.396088 0.865053
O O2 0.706951 0.323168 0.683488
O O3 0.195018 0.303294 0.704169
O O4 0.854023 0.069878 0.796493
O O5 0.597617 0.535858 0.184568
O O6 0.200538 0.738398 0.164637
O O7 0.500000 0.602910 0.000000
O O8 0.500000 0.860140 0.500000
O O9 0.449710 0.582194 0.616713
O O10 0.611567 0.881671 0.682622
O O11 0.118871 0.843829 0.663452
#
# Coordination Sequence:
#
# PCOD8045057 Si02
#       5
#     2   2   2   2   2
#     4  10  20  38  59  83 121 152 193 242 291 334
#     4   9  21  38  63  86 122 157 200 232 300 346
#     4  11  21  40  63  87 118 160 197 241 298 352
#     4   9  19  39  59  83 117 158 186 250 283 342
#     4  11  22  39  63  87 124 153 195 249 291 346
#
# _framework density 19.506008999999999
#
# number of rings (size 3 to 8) (size 9 to 14) (size 15 to 20)
#    1.200    0.800    2.000    1.800    0.000    1.600 
#    0.000    6.000    8.800    0.000    0.000    0.000 
#    0.000    0.000    0.000    0.000    0.000    0.000 
#
# Total GULP energy -123916.781347 kJ/mol
# GULP energy per Si atom -12391.678135 kJ/mol
# Density = 1.946161 g / cm^3
# Si number density = 19.506009 Si / 1000 Ang^3
#
#
#
# Elastic Constant Matrix: (Units=GPa)
#
#
# Indices 1 2 3 4 5 6 
#
# 1 118.4513 26.4877 10.9849 0.0000 -5.5045 0.0000
# 2 26.4877 155.8576 26.9105 0.0000 -9.6799 0.0000
# 3 10.9849 26.9105 79.0725 0.0000 -12.6948 0.0000
# 4 0.0000 0.0000 0.0000 6.8430 0.0000 -0.0103
# 5 -5.5045 -9.6799 -12.6948 0.0000 20.6993 0.0000
# 6 0.0000 0.0000 0.0000 -0.0103 0.0000 30.7021
#
#
#
# Elastic Compliance Matrix: (Units=1/GPa)
#
#
# Indices 1 2 3 4 5 6 
#
# 1 0.008854 -0.001322 -0.000556 0.000000 0.001395 0.000000
# 2 -0.001322 0.007086 -0.001944 0.000000 0.001770 0.000000
# 3 -0.000556 -0.001944 0.014659 0.000000 0.007933 0.000000
# 4 0.000000 0.000000 0.000000 0.146135 0.000000 0.000049
# 5 0.001395 0.001770 0.007933 0.000000 0.054375 0.000000
# 6 0.000000 0.000000 0.000000 0.000049 0.000000 0.032571
#
#
# Mechanical properties :
#
#
# Convention : Reuss Voigt Hill
#
# Bulk Modulus (GPa) = 43.56206 53.57196 48.56701
# Shear Modulus (GPa) = 17.92260 30.91544 24.41902
#
# Velocity S-wave (km/s) = 3.03450 3.98542 3.54202
# Velocity P-wave (km/s) = 5.88717 6.97869 6.45604
#
# Compressibility (1/GPa) = 0.02295575
#
# Stress axis : x y z
#
# Youngs Moduli (GPa) = 112.93897 141.11607 68.21700
#
# Poissons Ratio (x) = 0.18657 0.03794
# Poissons Ratio (y) = 0.14932 0.13260
# Poissons Ratio (z) = 0.06281 0.27430
#
# Static dielectric constant tensor:
#      x y z
#    x 3.603600 0.000000 0.044820 
#    y 0.000000 3.608650 0.000000 
#    z 0.044820 0.000000 3.023020 
# 
# 
# High freq. dielectric constant tensor:
#      x y z
#    x 1.772060 0.000000 0.000510 
#    y 0.000000 1.765160 0.000000 
#    z 0.000510 0.000000 1.711460 
# 
# From -- ./inp_files/9735.got.cif
#   From: 2010.03.12/outbox.cif.g09.slc.cpg/sg3_5_cif.got.tgz:9735.got - 2010.03.31 09:20:49.
