data_PCOD8045112
_publ_section_title
;
Structure prediction by ZEFSAII (Michael W. Deem and Ramdas Pophale) SiO2 
 PCOD8045112
Probable space group: P 2
;
_chemical_formula_sum "Si O2"
_cell_formula_units_Z 14
_cell_length_a 8.201403
_cell_length_b 8.244695
_cell_length_c 12.438422
_cell_angle_alpha 90.000000
_cell_angle_beta 137.533387
_cell_angle_gamma 90.000000
_cell_volume 567.851846
_symmetry_space_group_name_H-M "P 2"
_symmetry_group_IT_number 3
_symmetry_cell_setting 'monoclinic'
loop_
_space_group_symop_operation_xyz
x,y,z
-x,y,-z
loop_
_atom_site_type_symbol
_atom_site_label
_atom_site_fract_x
_atom_site_fract_y
_atom_site_fract_z
Si Si1 0.788881 0.972020 0.826541
Si Si2 0.337535 0.183149 0.607606
Si Si3 0.500000 0.415971 0.500000
Si Si4 0.770262 0.485004 0.322886
Si Si5 0.981609 0.467366 0.203644
Si Si6 0.975696 0.099715 0.258743
Si Si7 0.310926 0.677347 0.092959
Si Si8 0.500000 0.911091 0.000000
O O1 0.790667 0.779992 0.856017
O O2 0.530479 0.046815 0.733716
O O3 0.854599 0.985390 0.733075
O O4 0.000000 0.057921 0.000000
O O5 0.462457 0.304747 0.585214
O O6 0.260981 0.290325 0.674541
O O7 0.100442 0.106222 0.436734
O O8 0.740875 0.522543 0.638681
O O9 0.808310 0.524795 0.216270
O O10 0.535907 0.578418 0.249581
O O11 0.000000 0.550034 0.500000
O O12 0.968023 0.272219 0.193501
O O13 0.885122 0.548143 0.047471
O O14 0.711882 0.025509 0.149008
O O15 0.388610 0.803882 0.039787
#
# Coordination Sequence:
#
# PCOD8045112 Si02
#       8
#     2   2   1   2   2   2   2   1
#     4  12  26  48  69 112 148 191 252 298 374 447
#     4  11  24  46  77 111 138 190 257 310 364 434
#     4  10  20  44  74 108 140 184 246 312 360 420
#     4  12  25  45  75 114 144 188 257 302 371 445
#     4  11  24  48  74 110 147 193 246 312 366 437
#     4  11  25  48  78 103 146 199 251 314 358 432
#     4  12  29  47  70 108 157 194 240 303 379 452
#     4  12  26  48  70 104 154 198 240 298 380 430
#
# _framework density 24.654319999999998
#
# number of rings (size 3 to 8) (size 9 to 14) (size 15 to 20)
#    0.000    0.571    8.571    0.000    6.000    2.286 
#    0.000    0.000    0.000    0.000    0.000    0.000 
#    0.000    0.000    0.000    0.000    0.000    0.000 
#
# Total GULP energy -173623.092832 kJ/mol
# GULP energy per Si atom -12401.649488 kJ/mol
# Density = 2.459821 g / cm^3
# Si number density = 24.654320 Si / 1000 Ang^3
#
#
#
# Elastic Constant Matrix: (Units=GPa)
#
#
# Indices 1 2 3 4 5 6 
#
# 1 55.5483 17.2273 23.3246 0.0000 17.7490 0.0000
# 2 17.2273 99.1837 75.4765 0.0000 19.3244 0.0000
# 3 23.3246 75.4765 153.2713 0.0000 42.9695 0.0000
# 4 0.0000 0.0000 0.0000 37.3666 0.0000 -0.9150
# 5 17.7490 19.3244 42.9695 0.0000 51.1306 0.0000
# 6 0.0000 0.0000 0.0000 -0.9150 0.0000 49.2174
#
#
#
# Elastic Compliance Matrix: (Units=1/GPa)
#
#
# Indices 1 2 3 4 5 6 
#
# 1 0.020769 -0.002102 -0.000428 0.000000 -0.006056 0.000000
# 2 -0.002102 0.016360 -0.008121 0.000000 0.001371 0.000000
# 3 -0.000428 -0.008121 0.012672 0.000000 -0.007432 0.000000
# 4 0.000000 0.000000 0.000000 0.026774 0.000000 0.000498
# 5 -0.006056 0.001371 -0.007432 0.000000 0.027387 0.000000
# 6 0.000000 0.000000 0.000000 0.000498 0.000000 0.020327
#
#
# Mechanical properties :
#
#
# Convention : Reuss Voigt Hill
#
# Bulk Modulus (GPa) = 35.08832 60.00668 47.54750
# Shear Modulus (GPa) = 32.23934 40.34124 36.29029
#
# Velocity S-wave (km/s) = 3.62007 4.04948 3.84078
# Velocity P-wave (km/s) = 5.63349 6.80121 6.24470
#
# Compressibility (1/GPa) = 0.02849951
#
# Stress axis : x y z
#
# Youngs Moduli (GPa) = 48.14924 61.12472 78.91470
#
# Poissons Ratio (x) = 0.12848 0.03376
# Poissons Ratio (y) = 0.10121 0.64085
# Poissons Ratio (z) = 0.02060 0.49638
#
# Static dielectric constant tensor:
#      x y z
#    x 4.820640 0.000000 0.240410 
#    y 0.000000 4.269240 0.000000 
#    z 0.240410 0.000000 4.518880 
# 
# 
# High freq. dielectric constant tensor:
#      x y z
#    x 2.002680 0.000000 0.013970 
#    y 0.000000 1.959290 0.000000 
#    z 0.013970 0.000000 1.983640 
# 
# From -- ./inp_files/10881.got.cif
#   From: 2010.03.12/outbox.cif.g09.slc.cpg/sg3_6_cif.got.tgz:10881.got - 2010.03.31 09:20:49.
