data_PCOD8045403
_publ_section_title
;
Structure prediction by ZEFSAII (Michael W. Deem and Ramdas Pophale) SiO2 
 PCOD8045403
Probable space group: P 2
;
_chemical_formula_sum "Si O2"
_cell_formula_units_Z 14
_cell_length_a 15.411457
_cell_length_b 5.138724
_cell_length_c 21.164524
_cell_angle_alpha 90.000000
_cell_angle_beta 159.797723
_cell_angle_gamma 90.000000
_cell_volume 578.826914
_symmetry_space_group_name_H-M "P 2"
_symmetry_group_IT_number 3
_symmetry_cell_setting 'monoclinic'
loop_
_space_group_symop_operation_xyz
x,y,z
-x,y,-z
loop_
_atom_site_type_symbol
_atom_site_label
_atom_site_fract_x
_atom_site_fract_y
_atom_site_fract_z
Si Si1 0.212104 0.187780 0.783992
Si Si2 0.126943 0.106949 0.328526
Si Si3 0.775198 0.091058 0.971100
Si Si4 0.500000 0.446256 0.500000
Si Si5 0.526530 0.566082 0.760412
Si Si6 0.000000 0.092253 0.000000
Si Si7 0.024792 0.682387 0.590436
Si Si8 0.561189 0.733163 0.655696
O O1 0.158143 0.408593 0.695465
O O2 0.016995 0.225427 0.709224
O O3 0.183816 0.907881 0.732497
O O4 0.500000 0.217246 0.000000
O O5 0.325950 0.295777 0.430411
O O6 0.279398 0.849289 0.452933
O O7 0.912435 0.054398 0.130763
O O8 0.549626 0.305785 0.819980
O O9 0.938873 0.231644 0.025586
O O10 0.704534 0.797794 0.906003
O O11 0.665577 0.628358 0.659817
O O12 0.253057 0.686422 0.573251
O O13 0.566011 0.503625 0.712202
O O14 0.748249 0.941899 0.810896
O O15 0.000000 0.735970 0.500000
#
# Coordination Sequence:
#
# PCOD8045403 Si02
#       8
#     2   2   2   1   2   1   2   2
#     4  12  29  52  80 120 159 205 260 328 392 468
#     4  12  28  47  75 112 159 205 260 320 398 460
#     4  11  27  42  72 104 147 197 252 316 370 461
#     4  12  26  42  76 106 152 208 256 314 390 470
#     4  11  26  46  73 104 147 195 256 317 381 450
#     4  10  24  44  66 104 144 194 264 306 372 450
#     4  12  27  51  83 110 152 204 262 325 394 465
#     4  11  25  46  69 105 152 201 259 309 391 453
#
# _framework density 24.186848000000001
#
# number of rings (size 3 to 8) (size 9 to 14) (size 15 to 20)
#    0.000    0.571    1.429    4.714   18.000    0.571 
#    0.000    0.000    0.000    0.000    0.000    0.000 
#    0.000    0.000    0.000    0.000    0.000    0.000 
#
# Total GULP energy -173442.305716 kJ/mol
# GULP energy per Si atom -12388.736123 kJ/mol
# Density = 2.413180 g / cm^3
# Si number density = 24.186848 Si / 1000 Ang^3
#
#
#
# Elastic Constant Matrix: (Units=GPa)
#
#
# Indices 1 2 3 4 5 6 
#
# 1 109.2523 34.1188 38.8405 0.0000 -18.1903 0.0000
# 2 34.1188 78.0090 14.9859 0.0000 -15.8126 0.0000
# 3 38.8405 14.9859 106.6228 0.0000 -22.9468 0.0000
# 4 0.0000 0.0000 0.0000 -21.8891 0.0000 -12.4390
# 5 -18.1903 -15.8126 -22.9468 0.0000 44.4311 0.0000
# 6 0.0000 0.0000 0.0000 -12.4390 0.0000 30.5598
#
#
#
# Elastic Compliance Matrix: (Units=1/GPa)
#
#
# Indices 1 2 3 4 5 6 
#
# 1 0.011963 -0.004248 -0.003411 0.000000 0.001624 0.000000
# 2 -0.004248 0.015418 0.000210 0.000000 0.003857 0.000000
# 3 -0.003411 0.000210 0.011596 0.000000 0.004667 0.000000
# 4 0.000000 0.000000 0.000000 -0.037103 0.000000 -0.015102
# 5 0.001624 0.003857 0.004667 0.000000 0.026955 0.000000
# 6 0.000000 0.000000 0.000000 -0.015102 0.000000 0.026576
#
#
# Mechanical properties :
#
#
# Convention : Reuss Voigt Hill
#
# Bulk Modulus (GPa) = 41.52768 52.19718 46.86243
# Shear Modulus (GPa) = 63.83332 24.34962 44.09147
#
# Velocity S-wave (km/s) = 5.14286 3.17634 4.27424
# Velocity P-wave (km/s) = 7.24377 5.92283 6.61635
#
# Compressibility (1/GPa) = 0.02408032
#
# Stress axis : x y z
#
# Youngs Moduli (GPa) = 83.59253 64.85841 86.23353
#
# Poissons Ratio (x) = 0.27549 0.29416
# Poissons Ratio (y) = 0.35507 -0.01814
# Poissons Ratio (z) = 0.28516 -0.01364
#
# Static dielectric constant tensor:
#      x y z
#    x 4.610830 0.000000 -0.309140 
#    y 0.000000 4.204710 0.000000 
#    z -0.309140 0.000000 4.570790 
# 
# 
# High freq. dielectric constant tensor:
#      x y z
#    x 1.969880 0.000000 -0.021080 
#    y 0.000000 1.954270 0.000000 
#    z -0.021080 0.000000 1.975800 
# 
# From -- ./inp_files/16049.got.cif
#   From: 2010.03.12/outbox.cif.g09.slc.cpg/sg3_9_cif.got.tgz:16049.got - 2010.03.31 09:20:49.
