data_PCOD8045370
_publ_section_title
;
Structure prediction by ZEFSAII (Michael W. Deem and Ramdas Pophale) SiO2 
 PCOD8045370
Probable space group: P 2
;
_chemical_formula_sum "Si O2"
_cell_formula_units_Z 14
_cell_length_a 13.413138
_cell_length_b 6.553347
_cell_length_c 9.471946
_cell_angle_alpha 90.000000
_cell_angle_beta 47.748082
_cell_angle_gamma 90.000000
_cell_volume 616.281713
_symmetry_space_group_name_H-M "P 2"
_symmetry_group_IT_number 3
_symmetry_cell_setting 'monoclinic'
loop_
_space_group_symop_operation_xyz
x,y,z
-x,y,-z
loop_
_atom_site_type_symbol
_atom_site_label
_atom_site_fract_x
_atom_site_fract_y
_atom_site_fract_z
Si Si1 0.147211 0.301310 0.314005
Si Si2 0.037507 0.655932 0.811642
Si Si3 0.806870 0.936296 0.927101
Si Si4 0.730452 0.949453 0.320848
Si Si5 0.630660 0.634983 0.974616
Si Si6 0.455424 0.604282 0.399385
Si Si7 0.773956 0.323614 0.468153
O O1 0.212025 0.205102 0.396183
O O2 0.000000 0.386163 0.500000
O O3 0.130867 0.139934 0.201871
O O4 0.252950 0.475113 0.171036
O O5 0.089544 0.455088 0.682322
O O6 0.916287 0.755611 0.838934
O O7 0.142830 0.835295 0.734778
O O8 0.000000 0.569136 0.000000
O O9 0.698258 0.859535 0.913680
O O10 0.739338 0.978802 0.143405
O O11 0.735324 0.175049 0.378809
O O12 0.597801 0.827657 0.497961
O O13 0.587840 0.609714 0.178151
O O14 0.500000 0.627979 0.000000
O O15 0.500000 0.485948 0.500000
O O16 0.344485 0.489555 0.412984
#
# Coordination Sequence:
#
# PCOD8045370 Si02
#       7
#     2   2   2   2   2   2   2
#     4  12  28  45  70 108 146 194 245 291 359 439
#     4   9  21  42  68 101 135 180 236 303 359 417
#     4  11  25  44  72 102 144 187 241 299 362 427
#     4  10  23  42  71 104 134 180 243 303 361 420
#     4  12  27  49  71 102 151 196 239 297 363 430
#     4  11  24  46  70 102 139 188 243 298 359 422
#     4  11  24  42  69 100 141 183 236 297 356 426
#
# _framework density 22.716885000000001
#
# number of rings (size 3 to 8) (size 9 to 14) (size 15 to 20)
#    0.000    1.143    2.857    1.714    4.000    6.857 
#    0.000    0.000    0.000    0.000    0.000    0.000 
#    0.000    0.000    0.000    0.000    0.000    0.000 
#
# Total GULP energy -173472.135462 kJ/mol
# GULP energy per Si atom -12390.866819 kJ/mol
# Density = 2.266518 g / cm^3
# Si number density = 22.716885 Si / 1000 Ang^3
#
#
#
# Elastic Constant Matrix: (Units=GPa)
#
#
# Indices 1 2 3 4 5 6 
#
# 1 119.1049 39.1867 57.3240 0.0000 7.2037 0.0000
# 2 39.1867 90.1563 53.4746 0.0000 4.8744 0.0000
# 3 57.3240 53.4746 145.6813 0.0000 -5.0031 0.0000
# 4 0.0000 0.0000 0.0000 30.2897 0.0000 5.3362
# 5 7.2037 4.8744 -5.0031 0.0000 39.1684 0.0000
# 6 0.0000 0.0000 0.0000 5.3362 0.0000 -4.9769
#
#
#
# Elastic Compliance Matrix: (Units=1/GPa)
#
#
# Indices 1 2 3 4 5 6 
#
# 1 0.011058 -0.002641 -0.003456 0.000000 -0.002146 0.000000
# 2 -0.002641 0.015045 -0.004551 0.000000 -0.001968 0.000000
# 3 -0.003456 -0.004551 0.009980 0.000000 0.002477 0.000000
# 4 0.000000 0.000000 0.000000 0.027769 0.000000 0.029774
# 5 -0.002146 -0.001968 0.002477 0.000000 0.026487 0.000000
# 6 0.000000 0.000000 0.000000 0.029774 0.000000 -0.169007
#
#
# Mechanical properties :
#
#
# Convention : Reuss Voigt Hill
#
# Bulk Modulus (GPa) = 67.62184 72.76811 70.19497
# Shear Modulus (GPa) = -95.34039 26.56006 -34.39017
#
# Velocity S-wave (km/s) = -6.48537 3.42303 -3.89506
# Velocity P-wave (km/s) = 5.12330 6.90833 3.27695
#
# Compressibility (1/GPa) = 0.01478812
#
# Stress axis : x y z
#
# Youngs Moduli (GPa) = 90.43488 66.46522 100.20389
#
# Poissons Ratio (x) = 0.17551 0.34626
# Poissons Ratio (y) = 0.23880 0.45605
# Poissons Ratio (z) = 0.31250 0.30250
#
# Static dielectric constant tensor:
#      x y z
#    x 4.273980 0.000000 -0.086200 
#    y 0.000000 3.722760 0.000000 
#    z -0.086200 0.000000 4.671950 
# 
# 
# High freq. dielectric constant tensor:
#      x y z
#    x 1.917580 0.000000 0.002850 
#    y 0.000000 1.873420 0.000000 
#    z 0.002850 0.000000 1.909060 
# 
# From -- ./inp_files/8224.got.cif
#   From: 2010.03.12/outbox.cif.g09.slc.cpg/sg3_5_cif.got.tgz:8224.got - 2010.03.31 09:20:49.
