data_PCOD8045348
_publ_section_title
;
Structure prediction by ZEFSAII (Michael W. Deem and Ramdas Pophale) SiO2 
 PCOD8045348
Probable space group: P 2
;
_chemical_formula_sum "Si O2"
_cell_formula_units_Z 13
_cell_length_a 17.906353
_cell_length_b 5.327098
_cell_length_c 8.880558
_cell_angle_alpha 90.000000
_cell_angle_beta 41.634839
_cell_angle_gamma 90.000000
_cell_volume 562.801377
_symmetry_space_group_name_H-M "P 2"
_symmetry_group_IT_number 3
_symmetry_cell_setting 'monoclinic'
loop_
_space_group_symop_operation_xyz
x,y,z
-x,y,-z
loop_
_atom_site_type_symbol
_atom_site_label
_atom_site_fract_x
_atom_site_fract_y
_atom_site_fract_z
Si Si1 0.500000 0.057971 0.500000
Si Si2 0.047567 0.715939 0.096435
Si Si3 0.444188 0.385552 0.340511
Si Si4 0.701215 0.178360 0.698087
Si Si5 0.046730 0.209935 0.761227
Si Si6 0.302608 0.687009 0.774242
Si Si7 0.348363 0.664658 0.046737
O O1 0.533736 0.219367 0.301062
O O2 0.390980 0.907245 0.611801
O O3 0.998657 0.464838 0.251732
O O4 0.181301 0.737389 0.888155
O O5 0.003417 0.965548 0.249044
O O6 0.000000 0.723275 0.000000
O O7 0.396214 0.218543 0.277894
O O8 0.348803 0.453705 0.606833
O O9 0.515493 0.625030 0.171562
O O10 0.819951 0.173948 0.435320
O O11 0.705734 0.425662 0.792045
O O12 0.677590 0.922438 0.825567
O O13 0.000000 0.221344 0.000000
O O14 0.291041 0.654457 0.969862
#
# Coordination Sequence:
#
# PCOD8045348 Si02
#       7
#     1   2   2   2   2   2   2
#     4  12  24  42  76 114 150 198 258 308 380 440
#     4  10  23  41  73 106 134 182 251 317 361 420
#     4  12  26  46  75 110 153 209 256 308 371 478
#     4  12  29  47  78 104 160 195 255 316 387 456
#     4  10  22  46  69 106 132 185 259 303 368 435
#     4  12  26  46  76 108 158 195 259 314 371 459
#     4  12  27  49  67 117 151 206 240 316 395 452
#
# _framework density 23.098735000000001
#
# number of rings (size 3 to 8) (size 9 to 14) (size 15 to 20)
#    0.000    0.615    3.077    4.154    8.615    2.462 
#    0.000    4.615    0.000    0.000    0.000    0.000 
#    0.000    0.000    0.000    0.000    0.000    0.000 
#
# Total GULP energy -161089.178831 kJ/mol
# GULP energy per Si atom -12391.475295 kJ/mol
# Density = 2.304616 g / cm^3
# Si number density = 23.098735 Si / 1000 Ang^3
#
#
#
# Elastic Constant Matrix: (Units=GPa)
#
#
# Indices 1 2 3 4 5 6 
#
# 1 130.0593 49.7325 64.6583 0.0000 -16.0866 0.0000
# 2 49.7325 191.6783 49.2681 0.0000 -1.4348 0.0000
# 3 64.6583 49.2681 117.7013 0.0000 -7.9788 0.0000
# 4 0.0000 0.0000 0.0000 40.8184 0.0000 0.9176
# 5 -16.0866 -1.4348 -7.9788 0.0000 49.7542 0.0000
# 6 0.0000 0.0000 0.0000 0.9176 0.0000 28.8402
#
#
#
# Elastic Compliance Matrix: (Units=1/GPa)
#
#
# Indices 1 2 3 4 5 6 
#
# 1 0.011283 -0.001526 -0.005374 0.000000 0.002742 0.000000
# 2 -0.001526 0.006055 -0.001737 0.000000 -0.000597 0.000000
# 3 -0.005374 -0.001737 0.012186 0.000000 0.000167 0.000000
# 4 0.000000 0.000000 0.000000 0.024516 0.000000 -0.000780
# 5 0.002742 -0.000597 0.000167 0.000000 0.020995 0.000000
# 6 0.000000 0.000000 0.000000 -0.000780 0.000000 0.034699
#
#
# Mechanical properties :
#
#
# Convention : Reuss Voigt Hill
#
# Bulk Modulus (GPa) = 81.62079 85.19520 83.40800
# Shear Modulus (GPa) = 38.14167 42.26789 40.20478
#
# Velocity S-wave (km/s) = 4.06796 4.28235 4.17653
# Velocity P-wave (km/s) = 7.58134 7.83674 7.71010
#
# Compressibility (1/GPa) = 0.01225178
#
# Stress axis : x y z
#
# Youngs Moduli (GPa) = 88.63007 165.15578 82.05886
#
# Poissons Ratio (x) = 0.25198 0.44095
# Poissons Ratio (y) = 0.13522 0.14252
# Poissons Ratio (z) = 0.47627 0.28685
#
# Static dielectric constant tensor:
#      x y z
#    x 3.968010 0.000000 0.025200 
#    y 0.000000 6.941720 0.000000 
#    z 0.025200 0.000000 4.229240 
# 
# 
# High freq. dielectric constant tensor:
#      x y z
#    x 1.897660 0.000000 -0.005820 
#    y 0.000000 1.940520 0.000000 
#    z -0.005820 0.000000 1.908180 
# 
# From -- ./inp_files/8817.got.cif
#   From: 2010.03.12/outbox.cif.g09.slc.cpg/sg3_5_cif.got.tgz:8817.got - 2010.03.31 09:20:49.
