data_PCOD8045847
_publ_section_title
;
Structure prediction by ZEFSAII (Michael W. Deem and Ramdas Pophale) SiO2 
 PCOD8045847
Probable space group: P 21
;
_chemical_formula_sum "Si O2"
_cell_formula_units_Z 16
_cell_length_a 9.254738
_cell_length_b 10.277891
_cell_length_c 13.566377
_cell_angle_alpha 90.000000
_cell_angle_beta 142.805985
_cell_angle_gamma 90.000000
_cell_volume 780.081092
_symmetry_space_group_name_H-M "P 21"
_symmetry_group_IT_number 4
_symmetry_cell_setting 'monoclinic'
loop_
_space_group_symop_operation_xyz
x,y,z
-x,1/2+y,-z
loop_
_atom_site_type_symbol
_atom_site_label
_atom_site_fract_x
_atom_site_fract_y
_atom_site_fract_z
Si Si1 0.338520 0.789500 0.543847
Si Si2 0.300762 0.363591 0.931762
Si Si3 0.281258 0.107375 0.181042
Si Si4 0.605660 0.483198 0.263896
Si Si5 0.761462 0.203701 0.890133
Si Si6 0.896355 0.608740 0.255934
Si Si7 0.773108 0.385903 0.711708
Si Si8 0.676554 0.445464 0.983473
O O1 0.583765 0.740123 0.724219
O O2 0.402986 0.850624 0.473341
O O3 0.147529 0.675134 0.419278
O O4 0.256572 0.901832 0.575933
O O5 0.288312 0.213080 0.891816
O O6 0.433333 0.440636 0.915687
O O7 0.032963 0.416222 0.804752
O O8 0.447856 0.383939 0.112349
O O9 0.350163 0.008364 0.305074
O O10 0.367313 0.053029 0.123426
O O11 0.999539 0.122364 0.034861
O O12 0.450325 0.599284 0.226751
O O13 0.809509 0.551818 0.311644
O O14 0.787477 0.269534 0.797890
O O15 0.735057 0.307077 0.964826
O O16 0.897736 0.491895 0.174928
#
# Coordination Sequence:
#
# PCOD8045847 Si02
#       8
#     2   2   2   2   2   2   2   2
#     4  11  25  39  61  91 134 174 200 259 331 385
#     4  10  19  42  66  95 119 163 219 267 315 364
#     4  11  23  40  62  94 124 168 208 264 319 380
#     4  11  22  40  67  93 127 166 217 266 316 382
#     4  11  22  41  65  96 120 168 219 268 314 372
#     4  10  22  42  63  94 127 165 212 268 319 382
#     4  10  23  39  62  90 129 164 209 262 319 385
#     4  10  22  39  70  91 122 164 220 272 307 374
#
# _framework density 20.510688999999999
#
# number of rings (size 3 to 8) (size 9 to 14) (size 15 to 20)
#    0.000    1.500    2.500    3.000    3.500    3.000 
#    0.000    2.500    0.000    0.000    0.000    0.000 
#    0.000    0.000    0.000    0.000    0.000    0.000 
#
# Total GULP energy -198321.492335 kJ/mol
# GULP energy per Si atom -12395.093271 kJ/mol
# Density = 2.046401 g / cm^3
# Si number density = 20.510689 Si / 1000 Ang^3
#
#
#
# Elastic Constant Matrix: (Units=GPa)
#
#
# Indices 1 2 3 4 5 6 
#
# 1 117.7899 38.1800 45.3740 0.0000 -28.6855 0.0000
# 2 38.1800 75.9359 40.4994 0.0000 -15.9922 0.0000
# 3 45.3740 40.4994 69.8739 0.0000 -21.2805 0.0000
# 4 0.0000 0.0000 0.0000 34.0912 0.0000 1.4699
# 5 -28.6855 -15.9922 -21.2805 0.0000 25.3220 0.0000
# 6 0.0000 0.0000 0.0000 1.4699 0.0000 25.3436
#
#
#
# Elastic Compliance Matrix: (Units=1/GPa)
#
#
# Indices 1 2 3 4 5 6 
#
# 1 0.013328 -0.002316 -0.004246 0.000000 0.010067 0.000000
# 2 -0.002316 0.019726 -0.009319 0.000000 0.002002 0.000000
# 3 -0.004246 -0.009319 0.025822 0.000000 0.011005 0.000000
# 4 0.000000 0.000000 0.000000 0.029407 0.000000 -0.001706
# 5 0.010067 0.002002 0.011005 0.000000 0.061408 0.000000
# 6 0.000000 0.000000 0.000000 -0.001706 0.000000 0.039557
#
#
# Mechanical properties :
#
#
# Convention : Reuss Voigt Hill
#
# Bulk Modulus (GPa) = 36.88455 56.85629 46.87042
# Shear Modulus (GPa) = 21.73470 26.25446 23.99458
#
# Velocity S-wave (km/s) = 3.25880 3.58164 3.42403
# Velocity P-wave (km/s) = 5.67290 6.69961 6.20752
#
# Compressibility (1/GPa) = 0.02711162
#
# Stress axis : x y z
#
# Youngs Moduli (GPa) = 75.03155 50.69576 38.72687
#
# Poissons Ratio (x) = 0.11743 0.16444
# Poissons Ratio (y) = 0.17380 0.36090
# Poissons Ratio (z) = 0.31860 0.47244
#
# Static dielectric constant tensor:
#      x y z
#    x 3.783800 0.000000 -0.308270 
#    y 0.000000 3.841110 0.000000 
#    z -0.308270 0.000000 3.572670 
# 
# 
# High freq. dielectric constant tensor:
#      x y z
#    x 1.810500 0.000000 -0.024400 
#    y 0.000000 1.809330 0.000000 
#    z -0.024400 0.000000 1.787550 
# 
# From -- ./inp_files/5947.got.cif
#   From: 2010.03.12/outbox.cif.g09.slc.cpg/sg4_3_cif.got.tgz:5947.got - 2010.03.31 09:31:35.
