data_PCOD8045032
_publ_section_title
;
Structure prediction by ZEFSAII (Michael W. Deem and Ramdas Pophale) SiO2 
 PCOD8045032
Probable space group: P 2
;
_chemical_formula_sum "Si O2"
_cell_formula_units_Z 14
_cell_length_a 12.665261
_cell_length_b 6.358891
_cell_length_c 8.558003
_cell_angle_alpha 90.000000
_cell_angle_beta 93.238218
_cell_angle_gamma 90.000000
_cell_volume 688.135511
_symmetry_space_group_name_H-M "P 2"
_symmetry_group_IT_number 3
_symmetry_cell_setting 'monoclinic'
loop_
_space_group_symop_operation_xyz
x,y,z
-x,y,-z
loop_
_atom_site_type_symbol
_atom_site_label
_atom_site_fract_x
_atom_site_fract_y
_atom_site_fract_z
Si Si1 0.989504 0.477780 0.818672
Si Si2 0.582579 0.387292 0.256556
Si Si3 0.808886 0.736519 0.677801
Si Si4 0.500000 0.082963 0.500000
Si Si5 0.500000 0.078572 0.000000
Si Si6 0.417505 0.773466 0.242796
Si Si7 0.100221 0.138762 0.422720
Si Si8 0.810526 0.484757 0.363036
O O1 0.905901 0.666379 0.794896
O O2 0.943424 0.288214 0.715251
O O3 0.102420 0.549106 0.758444
O O4 0.000000 0.412995 0.000000
O O5 0.573175 0.239377 0.406951
O O6 0.572781 0.233020 0.107995
O O7 0.498181 0.577658 0.246375
O O8 0.698022 0.490302 0.266291
O O9 0.699949 0.677013 0.756147
O O10 0.812713 0.648814 0.503457
O O11 0.819868 0.985092 0.657641
O O12 0.429804 0.926893 0.391215
O O13 0.425967 0.922323 0.092611
O O14 0.166058 0.257373 0.562165
O O15 0.000000 0.026693 0.500000
#
# Coordination Sequence:
#
# PCOD8045032 Si02
#       8
#     2   2   2   1   1   2   2   2
#     4  10  23  38  56  88 121 154 196 237 292 359
#     4  11  22  40  62  86 124 161 193 254 306 343
#     4  11  21  38  63  87 116 152 196 247 294 347
#     4  10  20  36  60  94 120 150 206 248 298 362
#     4  10  26  42  56  86 122 162 204 240 302 372
#     4  11  23  39  61  91 120 157 205 246 299 366
#     4   9  19  38  60  84 116 153 196 245 291 342
#     4  10  21  38  62  87 114 154 201 244 293 353
#
# _framework density 20.344829000000001
#
# number of rings (size 3 to 8) (size 9 to 14) (size 15 to 20)
#    0.000    1.714    0.000    5.571    0.000    8.571 
#    0.000    1.429    0.000    0.000    0.000    0.000 
#    0.000    0.000    0.000    0.000    0.000    0.000 
#
# Total GULP energy -173571.536147 kJ/mol
# GULP energy per Si atom -12397.966868 kJ/mol
# Density = 2.029852 g / cm^3
# Si number density = 20.344829 Si / 1000 Ang^3
#
#
#
# Elastic Constant Matrix: (Units=GPa)
#
#
# Indices 1 2 3 4 5 6 
#
# 1 164.2235 45.5420 43.6074 0.0000 -3.0330 0.0000
# 2 45.5420 93.5519 22.2125 0.0000 -2.3364 0.0000
# 3 43.6074 22.2125 106.7391 0.0000 -8.4506 0.0000
# 4 0.0000 0.0000 0.0000 3.6291 0.0000 -3.4366
# 5 -3.0330 -2.3364 -8.4506 0.0000 20.9161 0.0000
# 6 0.0000 0.0000 0.0000 -3.4366 0.0000 30.1260
#
#
#
# Elastic Compliance Matrix: (Units=1/GPa)
#
#
# Indices 1 2 3 4 5 6 
#
# 1 0.007608 -0.003122 -0.002478 0.000000 -0.000247 0.000000
# 2 -0.003122 0.012528 -0.001298 0.000000 0.000422 0.000000
# 3 -0.002478 -0.001298 0.010962 0.000000 0.003925 0.000000
# 4 0.000000 0.000000 0.000000 0.308924 0.000000 0.035240
# 5 -0.000247 0.000422 0.003925 0.000000 0.049407 0.000000
# 6 0.000000 0.000000 0.000000 0.035240 0.000000 0.037214
#
#
# Mechanical properties :
#
#
# Convention : Reuss Voigt Hill
#
# Bulk Modulus (GPa) = 57.79752 65.24869 61.52311
# Shear Modulus (GPa) = 11.20556 27.81107 19.50831
#
# Velocity S-wave (km/s) = 2.34942 3.70129 3.09994
# Velocity P-wave (km/s) = 5.98584 7.09979 6.56648
#
# Compressibility (1/GPa) = 0.01730178
#
# Stress axis : x y z
#
# Youngs Moduli (GPa) = 131.43260 79.82316 91.22410
#
# Poissons Ratio (x) = 0.24918 0.22608
# Poissons Ratio (y) = 0.41028 0.11844
# Poissons Ratio (z) = 0.32573 0.10363
#
# Static dielectric constant tensor:
#      x y z
#    x 3.729360 0.000000 -0.039530 
#    y 0.000000 3.705340 0.000000 
#    z -0.039530 0.000000 3.744060 
# 
# 
# High freq. dielectric constant tensor:
#      x y z
#    x 1.798800 0.000000 -0.002410 
#    y 0.000000 1.797580 0.000000 
#    z -0.002410 0.000000 1.792360 
# 
# From -- ./inp_files/6655.got.cif
#   From: 2010.03.12/outbox.cif.g09.slc.cpg/sg3_4_cif.got.tgz:6655.got - 2010.03.31 09:20:49.
