data_PCOD8045769
_publ_section_title
;
Structure prediction by ZEFSAII (Michael W. Deem and Ramdas Pophale) SiO2 
 PCOD8045769
Probable space group: P 21
;
_chemical_formula_sum "Si O2"
_cell_formula_units_Z 12
_cell_length_a 7.266151
_cell_length_b 4.961795
_cell_length_c 17.389201
_cell_angle_alpha 90.000000
_cell_angle_beta 117.748921
_cell_angle_gamma 90.000000
_cell_volume 554.835666
_symmetry_space_group_name_H-M "P 21"
_symmetry_group_IT_number 4
_symmetry_cell_setting 'monoclinic'
loop_
_space_group_symop_operation_xyz
x,y,z
-x,1/2+y,-z
loop_
_atom_site_type_symbol
_atom_site_label
_atom_site_fract_x
_atom_site_fract_y
_atom_site_fract_z
Si Si1 0.872303 0.513040 0.990703
Si Si2 0.997909 0.125116 0.827296
Si Si3 0.364084 0.537034 0.488022
Si Si4 0.067078 0.032302 0.670186
Si Si5 0.284665 0.532375 0.647686
Si Si6 0.727061 0.624745 0.807536
O O1 0.826032 0.583589 0.071313
O O2 0.691931 0.583570 0.893388
O O3 0.928762 0.198183 0.994745
O O4 0.906080 0.425317 0.811591
O O5 0.804136 0.924798 0.803985
O O6 0.111612 0.075932 0.768860
O O7 0.550828 0.734826 0.501878
O O8 0.277600 0.591501 0.556026
O O9 0.176154 0.582490 0.392238
O O10 0.123220 0.728512 0.658384
O O11 0.213084 0.228445 0.649317
O O12 0.515232 0.575078 0.722710
#
# Coordination Sequence:
#
# PCOD8045769 Si02
#       6
#     2   2   2   2   2   2
#     4   8  16  30  54  80 106 140 188 234 264 304
#     4  10  19  36  58  82 109 148 192 228 266 324
#     4  12  24  42  64  84 106 146 192 228 266 330
#     4  12  24  39  57  85 118 146 176 228 286 330
#     4  12  24  39  57  85 118 146 176 228 286 330
#     4  10  19  36  58  82 109 148 192 228 266 324
#
# _framework density 21.628024
#
# number of rings (size 3 to 8) (size 9 to 14) (size 15 to 20)
#    0.000    1.333    0.000    7.000    0.000    0.000 
#    0.000    1.667    0.000    0.000    0.000    0.000 
#    0.000    0.000    0.000    0.000    0.000    0.000 
#
# Total GULP energy -148820.550511 kJ/mol
# GULP energy per Si atom -12401.712543 kJ/mol
# Density = 2.157880 g / cm^3
# Si number density = 21.628024 Si / 1000 Ang^3
#
#
#
# Elastic Constant Matrix: (Units=GPa)
#
#
# Indices 1 2 3 4 5 6 
#
# 1 43.3421 5.4806 19.3548 0.0000 -18.9522 0.0000
# 2 5.4806 77.9172 8.1967 0.0000 -3.5923 0.0000
# 3 19.3548 8.1967 115.3258 0.0000 -37.3822 0.0000
# 4 0.0000 0.0000 0.0000 29.1162 0.0000 -2.3317
# 5 -18.9522 -3.5923 -37.3822 0.0000 29.0019 0.0000
# 6 0.0000 0.0000 0.0000 -2.3317 0.0000 42.7207
#
#
#
# Elastic Compliance Matrix: (Units=1/GPa)
#
#
# Indices 1 2 3 4 5 6 
#
# 1 0.032869 -0.001447 0.002561 0.000000 0.024601 0.000000
# 2 -0.001447 0.013003 -0.000800 0.000000 -0.000366 0.000000
# 3 0.002561 -0.000800 0.015130 0.000000 0.021076 0.000000
# 4 0.000000 0.000000 0.000000 0.034496 0.000000 0.001883
# 5 0.024601 -0.000366 0.021076 0.000000 0.077677 0.000000
# 6 0.000000 0.000000 0.000000 0.001883 0.000000 0.023511
#
#
# Mechanical properties :
#
#
# Convention : Reuss Voigt Hill
#
# Bulk Modulus (GPa) = 16.22611 33.62771 24.92691
# Shear Modulus (GPa) = 23.08383 33.73795 28.41089
#
# Velocity S-wave (km/s) = 3.27052 3.95387 3.62831
# Velocity P-wave (km/s) = 4.66694 6.03540 5.39474
#
# Compressibility (1/GPa) = 0.06162905
#
# Stress axis : x y z
#
# Youngs Moduli (GPa) = 30.42391 76.90410 66.09440
#
# Poissons Ratio (x) = 0.11129 -0.16925
# Poissons Ratio (y) = 0.04403 0.05288
# Poissons Ratio (z) = -0.07791 0.06153
#
# Static dielectric constant tensor:
#      x y z
#    x 3.306980 0.000000 -0.102400 
#    y 0.000000 4.056410 0.000000 
#    z -0.102400 0.000000 4.362390 
# 
# 
# High freq. dielectric constant tensor:
#      x y z
#    x 1.797930 0.000000 -0.010190 
#    y 0.000000 1.869930 0.000000 
#    z -0.010190 0.000000 1.877450 
# 
# From -- ./inp_files/3291.got.cif
#   From: 2010.03.12/outbox.cif.g09.slc.cpg/sg4_2_cif.got.tgz:3291.got - 2010.03.31 09:31:35.
