data_PCOD8045527
_publ_section_title
;
Structure prediction by ZEFSAII (Michael W. Deem and Ramdas Pophale) SiO2 
 PCOD8045527
Probable space group: P 2
;
_chemical_formula_sum "Si O2"
_cell_formula_units_Z 16
_cell_length_a 8.237415
_cell_length_b 9.426373
_cell_length_c 11.653114
_cell_angle_alpha 90.000000
_cell_angle_beta 51.857824
_cell_angle_gamma 90.000000
_cell_volume 711.648565
_symmetry_space_group_name_H-M "P 2"
_symmetry_group_IT_number 3
_symmetry_cell_setting 'monoclinic'
loop_
_space_group_symop_operation_xyz
x,y,z
-x,y,-z
loop_
_atom_site_type_symbol
_atom_site_label
_atom_site_fract_x
_atom_site_fract_y
_atom_site_fract_z
Si Si1 0.791446 0.167740 0.921819
Si Si2 0.266851 0.705353 0.064714
Si Si3 0.969673 0.448941 0.889702
Si Si4 0.422745 0.416022 0.661059
Si Si5 0.389755 0.735867 0.757269
Si Si6 0.069611 0.916711 0.751827
Si Si7 0.412513 0.186203 0.228144
Si Si8 0.774946 0.929644 0.559301
O O1 0.826318 0.314149 0.973016
O O2 0.737478 0.217506 0.814832
O O3 0.605783 0.105668 0.081731
O O4 0.989779 0.064131 0.842028
O O5 0.138741 0.561753 0.147717
O O6 0.144688 0.832275 0.182395
O O7 0.500000 0.689757 0.000000
O O8 0.275297 0.730236 0.926860
O O9 0.181480 0.386457 0.749008
O O10 0.000000 0.524548 0.000000
O O11 0.500000 0.380168 0.500000
O O12 0.444092 0.581966 0.682759
O O13 0.529141 0.321415 0.716108
O O14 0.219220 0.822050 0.761924
O O15 0.609243 0.812541 0.666982
O O16 0.211145 0.952563 0.582170
O O17 0.288912 0.079382 0.361560
O O18 0.000000 0.877706 0.500000
#
# Coordination Sequence:
#
# PCOD8045527 Si02
#       8
#     2   2   2   2   2   2   2   2
#     4  11  26  45  76 108 141 193 249 300 371 425
#     4  12  26  45  77 108 146 190 246 310 372 432
#     4  12  24  47  72 110 143 189 249 300 364 448
#     4  12  27  48  73 110 151 193 246 303 372 443
#     4  12  26  48  73 108 143 195 246 303 369 443
#     4  12  25  46  73 105 147 190 245 305 362 448
#     4  11  26  48  73 105 150 192 245 309 358 447
#     4  12  26  47  68 105 151 188 243 299 379 440
#
# _framework density 22.483007000000001
#
# number of rings (size 3 to 8) (size 9 to 14) (size 15 to 20)
#    0.000    0.250    5.000    3.000    8.750    1.000 
#    0.000    0.625    0.000    0.000    0.000    0.000 
#    0.000    0.000    0.000    0.000    0.000    0.000 
#
# Total GULP energy -198257.835221 kJ/mol
# GULP energy per Si atom -12391.114701 kJ/mol
# Density = 2.243183 g / cm^3
# Si number density = 22.483007 Si / 1000 Ang^3
#
#
#
# Elastic Constant Matrix: (Units=GPa)
#
#
# Indices 1 2 3 4 5 6 
#
# 1 122.9352 45.5128 36.5303 0.0000 -10.5583 0.0000
# 2 45.5128 110.0786 27.1978 0.0000 -5.2431 0.0000
# 3 36.5303 27.1978 128.5776 0.0000 3.2198 0.0000
# 4 0.0000 0.0000 0.0000 25.5029 0.0000 -3.2818
# 5 -10.5583 -5.2431 3.2198 0.0000 37.8997 0.0000
# 6 0.0000 0.0000 0.0000 -3.2818 0.0000 36.0422
#
#
#
# Elastic Compliance Matrix: (Units=1/GPa)
#
#
# Indices 1 2 3 4 5 6 
#
# 1 0.010357 -0.003605 -0.002245 0.000000 0.002577 0.000000
# 2 -0.003605 0.010926 -0.001302 0.000000 0.000618 0.000000
# 3 -0.002245 -0.001302 0.008729 0.000000 -0.001547 0.000000
# 4 0.000000 0.000000 0.000000 0.039676 0.000000 0.003613
# 5 0.002577 0.000618 -0.001547 0.000000 0.027320 0.000000
# 6 0.000000 0.000000 0.000000 0.003613 0.000000 0.028074
#
#
# Mechanical properties :
#
#
# Convention : Reuss Voigt Hill
#
# Bulk Modulus (GPa) = 63.65863 64.45257 64.05560
# Shear Modulus (GPa) = 34.57244 36.71233 35.64238
#
# Velocity S-wave (km/s) = 3.92562 4.04529 3.98591
# Velocity P-wave (km/s) = 6.99449 7.10976 7.05236
#
# Compressibility (1/GPa) = 0.01570879
#
# Stress axis : x y z
#
# Youngs Moduli (GPa) = 96.54990 91.52359 114.55576
#
# Poissons Ratio (x) = 0.32994 0.25713
# Poissons Ratio (y) = 0.34806 0.14920
# Poissons Ratio (z) = 0.21672 0.11920
#
# Static dielectric constant tensor:
#      x y z
#    x 3.083940 0.000000 -0.393010 
#    y 0.000000 4.016950 0.000000 
#    z -0.393010 0.000000 4.522150 
# 
# 
# High freq. dielectric constant tensor:
#      x y z
#    x 1.892690 0.000000 -0.009040 
#    y 0.000000 1.888330 0.000000 
#    z -0.009040 0.000000 1.901320 
# 
# From -- ./inp_files/10720.got.cif
#   From: 2010.03.12/outbox.cif.g09.slc.cpg/sg3_6_cif.got.tgz:10720.got - 2010.03.31 09:20:49.
