data_PCOD8045828
_publ_section_title
;
Structure prediction by ZEFSAII (Michael W. Deem and Ramdas Pophale) SiO2 
 PCOD8045828
Probable space group: P 21
;
_chemical_formula_sum "Si O2"
_cell_formula_units_Z 16
_cell_length_a 8.557508
_cell_length_b 11.354832
_cell_length_c 9.244748
_cell_angle_alpha 90.000000
_cell_angle_beta 71.745694
_cell_angle_gamma 90.000000
_cell_volume 853.096929
_symmetry_space_group_name_H-M "P 21"
_symmetry_group_IT_number 4
_symmetry_cell_setting 'monoclinic'
loop_
_space_group_symop_operation_xyz
x,y,z
-x,1/2+y,-z
loop_
_atom_site_type_symbol
_atom_site_label
_atom_site_fract_x
_atom_site_fract_y
_atom_site_fract_z
Si Si1 0.792539 0.138900 0.738070
Si Si2 0.862742 0.750931 0.367785
Si Si3 0.847448 0.160518 0.050690
Si Si4 0.501617 0.304060 0.851851
Si Si5 0.327276 0.420262 0.395738
Si Si6 0.639951 0.384718 0.113344
Si Si7 0.709208 0.958587 0.282726
Si Si8 0.780104 0.636186 0.116154
O O1 0.642315 0.223731 0.736168
O O2 0.957098 0.206903 0.640365
O O3 0.780512 0.009749 0.670331
O O4 0.787517 0.117037 0.911147
O O5 0.768372 0.795645 0.540868
O O6 0.859409 0.863340 0.257384
O O7 0.772801 0.650523 0.295154
O O8 0.770232 0.284970 0.115133
O O9 0.784282 0.072165 0.189297
O O10 0.042831 0.171035 0.997742
O O11 0.445559 0.407110 0.760521
O O12 0.348434 0.219081 0.930058
O O13 0.562717 0.365676 0.978869
O O14 0.496538 0.385997 0.272571
O O15 0.361603 0.488409 0.536933
O O16 0.741756 0.503786 0.085347
#
# Coordination Sequence:
#
# PCOD8045828 Si02
#       8
#     2   2   2   2   2   2   2   2
#     4  10  19  40  64  89 119 163 203 261 298 359
#     4   8  21  40  62  83 126 163 193 247 316 359
#     4  10  23  38  63  92 123 157 214 248 313 359
#     4  10  21  37  64  86 120 158 205 255 308 342
#     4  10  21  40  62  85 129 155 206 244 310 370
#     4  11  23  37  64  95 118 162 207 256 305 370
#     4   9  21  39  60  86 124 164 196 256 301 373
#     4  10  21  41  63  88 125 160 200 261 307 356
#
# _framework density 18.755196999999999
#
# number of rings (size 3 to 8) (size 9 to 14) (size 15 to 20)
#    0.750    1.500    1.250    0.750    8.750    2.000 
#    2.250    3.750    0.000    0.000    0.000    0.000 
#    0.000    0.000    0.000    0.000    0.000    0.000 
#
# Total GULP energy -198270.560359 kJ/mol
# GULP energy per Si atom -12391.910022 kJ/mol
# Density = 1.871251 g / cm^3
# Si number density = 18.755197 Si / 1000 Ang^3
#
#
#
# Elastic Constant Matrix: (Units=GPa)
#
#
# Indices 1 2 3 4 5 6 
#
# 1 133.8569 65.6930 40.9328 0.0000 -9.5268 0.0000
# 2 65.6930 113.2898 47.2892 0.0000 3.2978 0.0000
# 3 40.9328 47.2892 86.1423 0.0000 -10.6035 0.0000
# 4 0.0000 0.0000 0.0000 40.9503 0.0000 -1.3071
# 5 -9.5268 3.2978 -10.6035 0.0000 21.9857 0.0000
# 6 0.0000 0.0000 0.0000 -1.3071 0.0000 38.7152
#
#
#
# Elastic Compliance Matrix: (Units=1/GPa)
#
#
# Indices 1 2 3 4 5 6 
#
# 1 0.011248 -0.006103 -0.001363 0.000000 0.005132 0.000000
# 2 -0.006103 0.015315 -0.006502 0.000000 -0.008077 0.000000
# 3 -0.001363 -0.006502 0.016875 0.000000 0.008523 0.000000
# 4 0.000000 0.000000 0.000000 0.024446 0.000000 0.000825
# 5 0.005132 -0.008077 0.008523 0.000000 0.053030 0.000000
# 6 0.000000 0.000000 0.000000 0.000825 0.000000 0.025857
#
#
# Mechanical properties :
#
#
# Convention : Reuss Voigt Hill
#
# Bulk Modulus (GPa) = 64.50466 71.23545 67.87006
# Shear Modulus (GPa) = 27.79746 32.28852 30.04299
#
# Velocity S-wave (km/s) = 3.85401 4.15369 4.00665
# Velocity P-wave (km/s) = 7.36696 7.81462 7.59409
#
# Compressibility (1/GPa) = 0.01550276
#
# Stress axis : x y z
#
# Youngs Moduli (GPa) = 88.90739 65.29672 59.26076
#
# Poissons Ratio (x) = 0.39849 0.08076
# Poissons Ratio (y) = 0.54258 0.38529
# Poissons Ratio (z) = 0.12116 0.42454
#
# Static dielectric constant tensor:
#      x y z
#    x 3.484980 0.000000 0.026470 
#    y 0.000000 3.435570 0.000000 
#    z 0.026470 0.000000 3.355720 
# 
# 
# High freq. dielectric constant tensor:
#      x y z
#    x 1.732270 0.000000 0.002940 
#    y 0.000000 1.729440 0.000000 
#    z 0.002940 0.000000 1.714160 
# 
# From -- ./inp_files/5915.got.cif
#   From: 2010.03.12/outbox.cif.g09.slc.cpg/sg4_3_cif.got.tgz:5915.got - 2010.03.31 09:31:35.
