data_PCOD8045949
_publ_section_title
;
Structure prediction by ZEFSAII (Michael W. Deem and Ramdas Pophale) SiO2 
 PCOD8045949
Probable space group: P 21
;
_chemical_formula_sum "Si O2"
_cell_formula_units_Z 16
_cell_length_a 13.063008
_cell_length_b 12.879531
_cell_length_c 13.840586
_cell_angle_alpha 90.000000
_cell_angle_beta 21.116320
_cell_angle_gamma 90.000000
_cell_volume 838.912797
_symmetry_space_group_name_H-M "P 21"
_symmetry_group_IT_number 4
_symmetry_cell_setting 'monoclinic'
loop_
_space_group_symop_operation_xyz
x,y,z
-x,1/2+y,-z
loop_
_atom_site_type_symbol
_atom_site_label
_atom_site_fract_x
_atom_site_fract_y
_atom_site_fract_z
Si Si1 0.242028 0.664150 0.242728
Si Si2 0.557640 0.694583 0.598679
Si Si3 0.257427 0.429987 0.218913
Si Si4 0.357287 0.845913 0.274834
Si Si5 0.904838 0.694219 0.121368
Si Si6 0.372631 0.249793 0.250790
Si Si7 0.698092 0.864917 0.167271
Si Si8 0.247411 0.997539 0.650709
O O1 0.229751 0.545050 0.285319
O O2 0.385929 0.731762 0.201121
O O3 0.932393 0.703152 0.494549
O O4 0.408786 0.674511 0.995401
O O5 0.762014 0.752235 0.340422
O O6 0.551127 0.756993 0.703798
O O7 0.690079 0.576867 0.495307
O O8 0.242268 0.689130 0.833114
O O9 0.385441 0.364902 0.195336
O O10 0.965929 0.382921 0.434934
O O11 0.473480 0.428649 0.938991
O O12 0.480040 0.838679 0.274008
O O13 0.825039 0.756812 0.095197
O O14 0.775707 0.575034 0.234780
O O15 0.518190 0.920155 0.412291
O O16 0.952864 0.935436 0.901221
#
# Coordination Sequence:
#
# PCOD8045949 Si02
#       8
#     2   2   2   2   2   2   2   2
#     4  10  21  36  55  83 119 147 186 236 287 331
#     4  10  20  38  56  85 113 141 194 243 280 341
#     4  10  21  36  55  81 116 153 186 230 284 345
#     4  10  23  36  55  91 111 149 197 229 283 342
#     4  10  22  38  56  85 121 144 187 250 286 339
#     4  10  21  34  58  82 111 145 191 237 278 334
#     4  12  22  38  62  85 119 153 189 249 285 344
#     4  10  22  36  59  88 110 144 202 230 291 340
#
# _framework density 19.072303999999999
#
# number of rings (size 3 to 8) (size 9 to 14) (size 15 to 20)
#    0.750    1.000    1.250    3.000    5.250    0.000 
#    0.000    2.500    0.000    1.500    0.000    0.000 
#    0.000    0.000    0.000    0.000    0.000    0.000 
#
# Total GULP energy -198268.304739 kJ/mol
# GULP energy per Si atom -12391.769046 kJ/mol
# Density = 1.902889 g / cm^3
# Si number density = 19.072304 Si / 1000 Ang^3
#
#
#
# Elastic Constant Matrix: (Units=GPa)
#
#
# Indices 1 2 3 4 5 6 
#
# 1 77.9930 36.8088 18.0024 0.0000 -4.1937 0.0000
# 2 36.8088 88.6526 6.0202 0.0000 0.9610 0.0000
# 3 18.0024 6.0202 101.9854 0.0000 -5.6471 0.0000
# 4 0.0000 0.0000 0.0000 27.2048 0.0000 -1.7823
# 5 -4.1937 0.9610 -5.6471 0.0000 21.6634 0.0000
# 6 0.0000 0.0000 0.0000 -1.7823 0.0000 14.8821
#
#
#
# Elastic Compliance Matrix: (Units=1/GPa)
#
#
# Indices 1 2 3 4 5 6 
#
# 1 0.016752 -0.006825 -0.002392 0.000000 0.002922 0.000000
# 2 -0.006825 0.014116 0.000267 0.000000 -0.001878 0.000000
# 3 -0.002392 0.000267 0.010335 0.000000 0.002219 0.000000
# 4 0.000000 0.000000 0.000000 0.037049 0.000000 0.004437
# 5 0.002922 -0.001878 0.002219 0.000000 0.047388 0.000000
# 6 0.000000 0.000000 0.000000 0.004437 0.000000 0.067726
#
#
# Mechanical properties :
#
#
# Convention : Reuss Voigt Hill
#
# Bulk Modulus (GPa) = 42.91244 43.36597 43.13920
# Shear Modulus (GPa) = 22.82766 26.60337 24.71551
#
# Velocity S-wave (km/s) = 3.46338 3.73885 3.60375
# Velocity P-wave (km/s) = 6.20822 6.43628 6.32328
#
# Compressibility (1/GPa) = 0.02330327
#
# Stress axis : x y z
#
# Youngs Moduli (GPa) = 59.69481 70.84271 96.76133
#
# Poissons Ratio (x) = 0.48348 0.23149
# Poissons Ratio (y) = 0.40740 -0.02588
# Poissons Ratio (z) = 0.14281 -0.01895
#
# Static dielectric constant tensor:
#      x y z
#    x 3.159770 0.000000 0.025770 
#    y 0.000000 3.591430 0.000000 
#    z 0.025770 0.000000 3.765560 
# 
# 
# High freq. dielectric constant tensor:
#      x y z
#    x 1.704020 0.000000 -0.003940 
#    y 0.000000 1.732120 0.000000 
#    z -0.003940 0.000000 1.772000 
# 
# From -- ./inp_files/12349.got.cif
#   From: 2010.03.12/outbox.cif.g09.slc.cpg/sg4_7_cif.got.tgz:12349.got - 2010.03.31 09:31:35.
