data_PCOD8045158
_publ_section_title
;
Structure prediction by ZEFSAII (Michael W. Deem and Ramdas Pophale) SiO2 
 PCOD8045158
Probable space group: P 2
;
_chemical_formula_sum "Si O2"
_cell_formula_units_Z 16
_cell_length_a 9.245930
_cell_length_b 10.273617
_cell_length_c 8.661859
_cell_angle_alpha 90.000000
_cell_angle_beta 67.467090
_cell_angle_gamma 90.000000
_cell_volume 759.970995
_symmetry_space_group_name_H-M "P 2"
_symmetry_group_IT_number 3
_symmetry_cell_setting 'monoclinic'
loop_
_space_group_symop_operation_xyz
x,y,z
-x,y,-z
loop_
_atom_site_type_symbol
_atom_site_label
_atom_site_fract_x
_atom_site_fract_y
_atom_site_fract_z
Si Si1 0.921119 0.913170 0.865121
Si Si2 0.843780 0.269083 0.153992
Si Si3 0.369500 0.085695 0.937297
Si Si4 0.884317 0.098570 0.420298
Si Si5 0.876439 0.669538 0.674620
Si Si6 0.916330 0.559318 0.184428
Si Si7 0.661258 0.677915 0.496180
Si Si8 0.582628 0.971135 0.610587
O O1 0.852155 0.782952 0.812371
O O2 0.054710 0.976308 0.703885
O O3 0.000000 0.886118 0.000000
O O4 0.776765 0.012850 0.927997
O O5 0.691645 0.212082 0.130376
O O6 0.843754 0.218206 0.327423
O O7 0.835606 0.424714 0.168641
O O8 0.000000 0.222840 0.000000
O O9 0.459208 0.976295 0.799768
O O10 0.500000 0.141301 0.000000
O O11 0.000000 0.154629 0.500000
O O12 0.737389 0.052879 0.583278
O O13 0.722971 0.623761 0.638474
O O14 0.000000 0.725392 0.500000
O O15 0.948858 0.545000 0.737497
O O16 0.787442 0.658616 0.306631
O O17 0.000000 0.621819 0.000000
O O18 0.500000 0.611393 0.500000
O O19 0.631250 0.827556 0.541460
O O20 0.500000 0.040734 0.500000
#
# Coordination Sequence:
#
# PCOD8045158 Si02
#       8
#     2   2   2   2   2   2   2   2
#     4  12  21  39  66  96 131 168 210 258 325 386
#     4  11  23  45  63  91 126 169 224 269 304 376
#     4  12  23  39  62  96 138 170 202 259 329 389
#     4  12  21  36  61  92 123 165 215 258 310 371
#     4  10  21  38  64  98 125 165 217 262 319 383
#     4  10  23  44  68  86 122 173 224 267 312 367
#     4  10  22  42  63  93 137 163 203 272 323 380
#     4  11  22  38  59  94 134 165 196 258 324 392
#
# _framework density 21.053436000000001
#
# number of rings (size 3 to 8) (size 9 to 14) (size 15 to 20)
#    0.000    1.000    3.750    4.500    0.000    5.500 
#    2.250    4.375    0.000    0.000    0.000    0.000 
#    0.000    0.000    0.000    0.000    0.000    0.000 
#
# Total GULP energy -198262.872188 kJ/mol
# GULP energy per Si atom -12391.429512 kJ/mol
# Density = 2.100552 g / cm^3
# Si number density = 21.053436 Si / 1000 Ang^3
#
#
#
# Elastic Constant Matrix: (Units=GPa)
#
#
# Indices 1 2 3 4 5 6 
#
# 1 177.3201 36.2947 47.9086 0.0000 25.8290 0.0000
# 2 36.2947 80.7427 30.7366 0.0000 1.1965 0.0000
# 3 47.9086 30.7366 98.9965 0.0000 6.9212 0.0000
# 4 0.0000 0.0000 0.0000 17.4051 0.0000 0.2577
# 5 25.8290 1.1965 6.9212 0.0000 40.8089 0.0000
# 6 0.0000 0.0000 0.0000 0.2577 0.0000 15.0076
#
#
#
# Elastic Compliance Matrix: (Units=1/GPa)
#
#
# Indices 1 2 3 4 5 6 
#
# 1 0.007417 -0.002287 -0.002586 0.000000 -0.004188 0.000000
# 2 -0.002287 0.014755 -0.003588 0.000000 0.001624 0.000000
# 3 -0.002586 -0.003588 0.012493 0.000000 -0.000377 0.000000
# 4 0.000000 0.000000 0.000000 0.057469 0.000000 -0.000987
# 5 -0.004188 0.001624 -0.000377 0.000000 0.027172 0.000000
# 6 0.000000 0.000000 0.000000 -0.000987 0.000000 0.066650
#
#
# Mechanical properties :
#
#
# Convention : Reuss Voigt Hill
#
# Bulk Modulus (GPa) = 56.36262 65.21546 60.78904
# Shear Modulus (GPa) = 23.94735 30.78562 27.36648
#
# Velocity S-wave (km/s) = 3.37628 3.82810 3.60927
# Velocity P-wave (km/s) = 6.48293 7.11214 6.80481
#
# Compressibility (1/GPa) = 0.01774225
#
# Stress axis : x y z
#
# Youngs Moduli (GPa) = 134.83406 67.77427 80.04356
#
# Poissons Ratio (x) = 0.15502 0.20701
# Poissons Ratio (y) = 0.30840 0.28717
# Poissons Ratio (z) = 0.34871 0.24316
#
# Static dielectric constant tensor:
#      x y z
#    x 4.597490 0.000000 0.103310 
#    y 0.000000 3.373410 0.000000 
#    z 0.103310 0.000000 4.014010 
# 
# 
# High freq. dielectric constant tensor:
#      x y z
#    x 1.841470 0.000000 0.012600 
#    y 0.000000 1.785330 0.000000 
#    z 0.012600 0.000000 1.832290 
# 
# From -- ./inp_files/6007.got.cif
#   From: 2010.03.12/outbox.cif.g09.slc.cpg/sg3_4_cif.got.tgz:6007.got - 2010.03.31 09:20:49.
