data_PCOD8045314
_publ_section_title
;
Structure prediction by ZEFSAII (Michael W. Deem and Ramdas Pophale) SiO2 
 PCOD8045314
Probable space group: P 2
;
_chemical_formula_sum "Si O2"
_cell_formula_units_Z 11
_cell_length_a 8.042988
_cell_length_b 5.331595
_cell_length_c 14.456691
_cell_angle_alpha 90.000000
_cell_angle_beta 136.723320
_cell_angle_gamma 90.000000
_cell_volume 424.976506
_symmetry_space_group_name_H-M "P 2"
_symmetry_group_IT_number 3
_symmetry_cell_setting 'monoclinic'
loop_
_space_group_symop_operation_xyz
x,y,z
-x,y,-z
loop_
_atom_site_type_symbol
_atom_site_label
_atom_site_fract_x
_atom_site_fract_y
_atom_site_fract_z
Si Si1 0.500000 0.283350 0.000000
Si Si2 0.512740 0.056965 0.357109
Si Si3 0.849918 0.585110 0.269601
Si Si4 0.747212 0.536892 0.710547
Si Si5 0.000000 0.254953 0.500000
Si Si6 0.429775 0.944608 0.128827
Si Si7 0.000000 0.595315 0.000000
O O1 0.691851 0.443582 0.131001
O O2 0.351312 0.112200 0.010973
O O3 0.399027 0.280332 0.373724
O O4 0.805992 0.078906 0.475132
O O5 0.436908 0.772782 0.352126
O O6 0.416847 0.113804 0.214823
O O7 0.869005 0.431825 0.372178
O O8 0.707636 0.842960 0.233659
O O9 0.103930 0.623586 0.319883
O O10 0.898995 0.463974 0.865411
O O11 0.227388 0.735458 0.048753
#
# Coordination Sequence:
#
# PCOD8045314 Si02
#       7
#     1   2   2   2   1   2   1
#     4  12  24  44  78 114 156 198 270 310 402 458
#     4  11  27  49  76 111 153 204 257 322 384 463
#     4  12  28  49  79 116 158 209 259 327 389 469
#     4  11  27  46  76 117 152 203 259 321 390 460
#     4  12  26  56  78 110 158 212 262 320 392 470
#     4  11  25  45  74 116 150 208 255 325 385 463
#     4  10  22  42  74 108 160 192 258 316 394 448
#
# _framework density 25.883785
#
# number of rings (size 3 to 8) (size 9 to 14) (size 15 to 20)
#    0.000    0.727    1.818    4.909   10.182    4.364 
#    0.000    3.636    0.000    0.000    0.000    0.000 
#    0.000    0.000    0.000    0.000    0.000    0.000 
#
# Total GULP energy -136314.292875 kJ/mol
# GULP energy per Si atom -12392.208443 kJ/mol
# Density = 2.582487 g / cm^3
# Si number density = 25.883785 Si / 1000 Ang^3
#
#
#
# Elastic Constant Matrix: (Units=GPa)
#
#
# Indices 1 2 3 4 5 6 
#
# 1 132.4909 31.6142 10.4934 0.0000 18.5804 0.0000
# 2 31.6142 109.1799 16.5463 0.0000 10.4685 0.0000
# 3 10.4934 16.5463 81.3046 0.0000 8.2509 0.0000
# 4 0.0000 0.0000 0.0000 -53.6949 0.0000 -90.9632
# 5 18.5804 10.4685 8.2509 0.0000 46.0181 0.0000
# 6 0.0000 0.0000 0.0000 -90.9632 0.0000 -130.6109
#
#
#
# Elastic Compliance Matrix: (Units=1/GPa)
#
#
# Indices 1 2 3 4 5 6 
#
# 1 0.008488 -0.002126 -0.000371 0.000000 -0.002877 0.000000
# 2 -0.002126 0.010138 -0.001672 0.000000 -0.001148 0.000000
# 3 -0.000371 -0.001672 0.012868 0.000000 -0.001777 0.000000
# 4 0.000000 0.000000 0.000000 0.103564 0.000000 -0.072126
# 5 -0.002877 -0.001148 -0.001777 0.000000 0.023472 0.000000
# 6 0.000000 0.000000 0.000000 -0.072126 0.000000 0.042576
#
#
# Mechanical properties :
#
#
# Convention : Reuss Voigt Hill
#
# Bulk Modulus (GPa) = 43.18517 48.92037 46.05277
# Shear Modulus (GPa) = 23.02432 -10.03611 6.49411
#
# Velocity S-wave (km/s) = 2.98573 -1.97124 1.58568
# Velocity P-wave (km/s) = 5.34851 3.70944 4.60253
#
# Compressibility (1/GPa) = 0.02315610
#
# Stress axis : x y z
#
# Youngs Moduli (GPa) = 117.81697 98.63646 77.71232
#
# Poissons Ratio (x) = 0.20967 0.02882
# Poissons Ratio (y) = 0.25044 0.12996
# Poissons Ratio (z) = 0.04370 0.16496
#
# Static dielectric constant tensor:
#      x y z
#    x 6.851110 0.000000 -0.856290 
#    y 0.000000 4.462030 0.000000 
#    z -0.856290 0.000000 5.052530 
# 
# 
# High freq. dielectric constant tensor:
#      x y z
#    x 2.055950 0.000000 -0.004140 
#    y 0.000000 2.022270 0.000000 
#    z -0.004140 0.000000 2.042330 
# 
# From -- ./inp_files/8019.got.cif
#   From: 2010.03.12/outbox.cif.g09.slc.cpg/sg3_5_cif.got.tgz:8019.got - 2010.03.31 09:20:49.
