data_PCOD8045718
_publ_section_title
;
Structure prediction by ZEFSAII (Michael W. Deem and Ramdas Pophale) SiO2 
 PCOD8045718
Probable space group: P 21
;
_chemical_formula_sum "Si O2"
_cell_formula_units_Z 14
_cell_length_a 18.166871
_cell_length_b 5.046483
_cell_length_c 11.482065
_cell_angle_alpha 90.000000
_cell_angle_beta 134.437946
_cell_angle_gamma 90.000000
_cell_volume 751.610302
_symmetry_space_group_name_H-M "P 21"
_symmetry_group_IT_number 4
_symmetry_cell_setting 'monoclinic'
loop_
_space_group_symop_operation_xyz
x,y,z
-x,1/2+y,-z
loop_
_atom_site_type_symbol
_atom_site_label
_atom_site_fract_x
_atom_site_fract_y
_atom_site_fract_z
Si Si1 0.878167 0.850610 0.796608
Si Si2 0.392484 0.917379 0.766755
Si Si3 0.795272 0.925655 0.238295
Si Si4 0.596656 0.656760 0.979238
Si Si5 0.212310 0.940657 0.907877
Si Si6 0.259770 0.415440 0.579273
Si Si7 0.885784 0.349614 0.955599
O O1 0.855917 0.561745 0.824034
O O2 0.801291 0.908103 0.607674
O O3 0.858953 0.060502 0.877973
O O4 0.994439 0.875782 0.877761
O O5 0.352208 0.198817 0.672573
O O6 0.493170 0.792858 0.813336
O O7 0.300970 0.710659 0.646889
O O8 0.425720 0.955725 0.938436
O O9 0.826005 0.206504 0.219359
O O10 0.822512 0.873705 0.404966
O O11 0.844683 0.698944 0.209935
O O12 0.670065 0.897416 0.102949
O O13 0.662708 0.486986 0.956813
O O14 0.182499 0.893145 0.006657
#
# Coordination Sequence:
#
# PCOD8045718 Si02
#       7
#     2   2   2   2   2   2   2
#     4  10  22  39  61  80 107 142 201 233 274 327
#     4  11  20  30  55  81 119 147 182 218 269 329
#     4   9  18  31  50  81 114 141 169 224 275 338
#     4   9  20  30  52  82 113 146 185 212 263 331
#     4  10  19  33  55  82 113 136 188 224 277 323
#     4  11  20  35  52  84 116 144 179 232 278 327
#     4  10  21  40  61  82 100 148 196 239 270 329
#
# _framework density 18.626674000000001
#
# number of rings (size 3 to 8) (size 9 to 14) (size 15 to 20)
#    0.857    1.143    1.429    3.429    2.000    0.000 
#    0.000    1.429    0.000    3.429    0.000    0.000 
#    0.000    0.000    0.000    0.000    0.000    0.000 
#
# Total GULP energy -173452.534854 kJ/mol
# GULP energy per Si atom -12389.466775 kJ/mol
# Density = 1.858428 g / cm^3
# Si number density = 18.626674 Si / 1000 Ang^3
#
#
#
# Elastic Constant Matrix: (Units=GPa)
#
#
# Indices 1 2 3 4 5 6 
#
# 1 103.6679 15.0881 34.7529 0.0000 -10.6259 0.0000
# 2 15.0881 93.8708 17.5038 0.0000 1.8486 0.0000
# 3 34.7529 17.5038 90.2239 0.0000 -16.1314 0.0000
# 4 0.0000 0.0000 0.0000 19.0212 0.0000 3.1915
# 5 -10.6259 1.8486 -16.1314 0.0000 17.7645 0.0000
# 6 0.0000 0.0000 0.0000 3.1915 0.0000 21.5780
#
#
#
# Elastic Compliance Matrix: (Units=1/GPa)
#
#
# Indices 1 2 3 4 5 6 
#
# 1 0.011378 -0.001258 -0.003460 0.000000 0.003795 0.000000
# 2 -0.001258 0.011399 -0.002475 0.000000 -0.004187 0.000000
# 3 -0.003460 -0.002475 0.015009 0.000000 0.011818 0.000000
# 4 0.000000 0.000000 0.000000 0.053911 0.000000 -0.007974
# 5 0.003795 -0.004187 0.011818 0.000000 0.069729 0.000000
# 6 0.000000 0.000000 0.000000 -0.007974 0.000000 0.047523
#
#
# Mechanical properties :
#
#
# Convention : Reuss Voigt Hill
#
# Bulk Modulus (GPa) = 42.73642 46.93915 44.83778
# Shear Modulus (GPa) = 21.63220 26.36726 23.99973
#
# Velocity S-wave (km/s) = 3.41156 3.76648 3.59341
# Velocity P-wave (km/s) = 6.20579 6.64604 6.42968
#
# Compressibility (1/GPa) = 0.02339925
#
# Stress axis : x y z
#
# Youngs Moduli (GPa) = 87.88700 87.72534 66.62471
#
# Poissons Ratio (x) = 0.11039 0.23053
# Poissons Ratio (y) = 0.11060 0.16492
# Poissons Ratio (z) = 0.30410 0.21715
#
# Static dielectric constant tensor:
#      x y z
#    x 3.232840 0.000000 0.012640 
#    y 0.000000 3.589560 0.000000 
#    z 0.012640 0.000000 3.030380 
# 
# 
# High freq. dielectric constant tensor:
#      x y z
#    x 1.703930 0.000000 -0.001020 
#    y 0.000000 1.746800 0.000000 
#    z -0.001020 0.000000 1.682260 
# 
# From -- ./inp_files/12815.got.cif
#   From: 2010.03.12/outbox.cif.g09.slc.cpg/sg4_7_cif.got.tgz:12815.got - 2010.03.31 09:31:35.
