data_PCOD8045190
_publ_section_title
;
Structure prediction by ZEFSAII (Michael W. Deem and Ramdas Pophale) SiO2 
 PCOD8045190
Probable space group: P 2
;
_chemical_formula_sum "Si O2"
_cell_formula_units_Z 14
_cell_length_a 9.596239
_cell_length_b 9.865214
_cell_length_c 9.280823
_cell_angle_alpha 90.000000
_cell_angle_beta 46.490072
_cell_angle_gamma 90.000000
_cell_volume 637.213310
_symmetry_space_group_name_H-M "P 2"
_symmetry_group_IT_number 3
_symmetry_cell_setting 'monoclinic'
loop_
_space_group_symop_operation_xyz
x,y,z
-x,y,-z
loop_
_atom_site_type_symbol
_atom_site_label
_atom_site_fract_x
_atom_site_fract_y
_atom_site_fract_z
Si Si1 0.781973 0.040170 0.172071
Si Si2 0.286876 0.771600 0.626145
Si Si3 0.529270 0.132194 0.825325
Si Si4 0.223411 0.876144 0.357355
Si Si5 0.678992 0.271920 0.453785
Si Si6 0.707612 0.587031 0.788959
Si Si7 0.100435 0.522207 0.646148
O O1 0.666181 0.080589 0.111088
O O2 0.709450 0.125457 0.360236
O O3 0.763144 0.879314 0.213093
O O4 0.000000 0.082405 0.000000
O O5 0.500000 0.714968 0.500000
O O6 0.275363 0.851085 0.485284
O O7 0.143120 0.642948 0.729670
O O8 0.636483 0.242853 0.651378
O O9 0.662593 0.006527 0.775213
O O10 0.500000 0.206680 0.000000
O O11 0.279901 0.749971 0.215243
O O12 0.000000 0.906373 0.500000
O O13 0.500000 0.343243 0.500000
O O14 0.857695 0.375231 0.314100
O O15 0.751803 0.541129 0.593530
O O16 0.876095 0.525134 0.767840
O O17 0.500000 0.540435 0.000000
#
# Coordination Sequence:
#
# PCOD8045190 Si02
#       7
#     2   2   2   2   2   2   2
#     4  11  24  43  65  97 137 174 221 283 337 406
#     4  11  19  40  68  94 127 178 220 272 340 399
#     4  11  24  40  68 103 131 178 231 275 339 408
#     4  11  20  38  66  96 135 174 218 278 343 394
#     4  10  22  47  67  91 137 179 218 285 342 402
#     4  10  21  40  63  95 141 172 223 284 338 400
#     4  10  22  42  67  96 131 184 224 277 348 397
#
# _framework density 21.970663999999999
#
# number of rings (size 3 to 8) (size 9 to 14) (size 15 to 20)
#    0.000    1.429    5.714    1.286    2.000    1.714 
#   12.857    0.714    0.000    0.000    0.000    0.000 
#    0.000    0.000    0.000    0.000    0.000    0.000 
#
# Total GULP energy -173585.940358 kJ/mol
# GULP energy per Si atom -12398.995740 kJ/mol
# Density = 2.192066 g / cm^3
# Si number density = 21.970664 Si / 1000 Ang^3
#
#
#
# Elastic Constant Matrix: (Units=GPa)
#
#
# Indices 1 2 3 4 5 6 
#
# 1 143.6974 44.0236 48.3382 0.0000 -14.6747 0.0000
# 2 44.0236 103.1728 15.2397 0.0000 -1.6596 0.0000
# 3 48.3382 15.2397 89.9908 0.0000 -10.2638 0.0000
# 4 0.0000 0.0000 0.0000 11.9491 0.0000 -7.1203
# 5 -14.6747 -1.6596 -10.2638 0.0000 45.6405 0.0000
# 6 0.0000 0.0000 0.0000 -7.1203 0.0000 13.5230
#
#
#
# Elastic Compliance Matrix: (Units=1/GPa)
#
#
# Indices 1 2 3 4 5 6 
#
# 1 0.009703 -0.003458 -0.004397 0.000000 0.002005 0.000000
# 2 -0.003458 0.011174 -0.000118 0.000000 -0.000732 0.000000
# 3 -0.004397 -0.000118 0.013683 0.000000 0.001659 0.000000
# 4 0.000000 0.000000 0.000000 0.121951 0.000000 0.064211
# 5 0.002005 -0.000732 0.001659 0.000000 0.022902 0.000000
# 6 0.000000 0.000000 0.000000 0.064211 0.000000 0.107758
#
#
# Mechanical properties :
#
#
# Convention : Reuss Voigt Hill
#
# Bulk Modulus (GPa) = 53.72803 61.34043 57.53423
# Shear Modulus (GPa) = 16.16440 29.50648 22.83544
#
# Velocity S-wave (km/s) = 2.71537 3.66866 3.22741
# Velocity P-wave (km/s) = 5.85991 6.77682 6.33498
#
# Compressibility (1/GPa) = 0.01861226
#
# Stress axis : x y z
#
# Youngs Moduli (GPa) = 103.06598 89.49515 73.08073
#
# Poissons Ratio (x) = 0.30950 0.32136
# Poissons Ratio (y) = 0.35643 0.00864
# Poissons Ratio (z) = 0.45322 0.01058
#
# Static dielectric constant tensor:
#      x y z
#    x 4.132830 0.000000 -0.172540 
#    y 0.000000 3.808390 0.000000 
#    z -0.172540 0.000000 3.663820 
# 
# 
# High freq. dielectric constant tensor:
#      x y z
#    x 1.878370 0.000000 -0.005330 
#    y 0.000000 1.859900 0.000000 
#    z -0.005330 0.000000 1.838330 
# 
# From -- ./inp_files/5938.got.cif
#   From: 2010.03.12/outbox.cif.g09.slc.cpg/sg3_3_cif.got.tgz:5938.got - 2010.03.31 09:20:49.
