data_PCOD8045446
_publ_section_title
;
Structure prediction by ZEFSAII (Michael W. Deem and Ramdas Pophale) SiO2 
 PCOD8045446
Probable space group: P 2
;
_chemical_formula_sum "Si O2"
_cell_formula_units_Z 11
_cell_length_a 12.387543
_cell_length_b 8.202796
_cell_length_c 12.052264
_cell_angle_alpha 90.000000
_cell_angle_beta 155.953115
_cell_angle_gamma 90.000000
_cell_volume 499.029645
_symmetry_space_group_name_H-M "P 2"
_symmetry_group_IT_number 3
_symmetry_cell_setting 'monoclinic'
loop_
_space_group_symop_operation_xyz
x,y,z
-x,y,-z
loop_
_atom_site_type_symbol
_atom_site_label
_atom_site_fract_x
_atom_site_fract_y
_atom_site_fract_z
Si Si1 0.500000 0.926800 0.500000
Si Si2 0.451974 0.169511 0.253563
Si Si3 0.500000 0.662788 0.000000
Si Si4 0.841731 0.733370 0.666783
Si Si5 0.000000 0.460150 0.500000
Si Si6 0.375246 0.857660 0.083401
Si Si7 0.025039 0.370242 0.273122
O O1 0.734056 0.801460 0.683468
O O2 0.403677 0.044779 0.310493
O O3 0.735378 0.251548 0.530346
O O4 0.443307 0.050331 0.137891
O O5 0.229667 0.306819 0.033426
O O6 0.729776 0.556858 0.272544
O O7 0.337163 0.778425 0.928593
O O8 0.611904 0.759486 0.362130
O O9 0.918979 0.543837 0.731032
O O10 0.098271 0.841663 0.885969
O O11 0.038784 0.365647 0.653816
#
# Coordination Sequence:
#
# PCOD8045446 Si02
#       7
#     1   2   1   2   1   2   2
#     4  10  26  50  70  96 140 194 238 292 348 394
#     4  11  26  44  68 100 146 176 230 296 350 403
#     4  12  20  40  70 100 136 188 236 272 340 414
#     4  11  23  44  70  98 131 183 242 281 334 417
#     4  12  24  40  72 104 146 182 222 290 346 418
#     4  11  22  41  67 100 134 184 229 283 335 419
#     4  12  24  44  69 107 141 180 228 287 354 415
#
# _framework density 22.042778999999999
#
# number of rings (size 3 to 8) (size 9 to 14) (size 15 to 20)
#    0.000    0.727    3.636    4.364    0.000    8.727 
#    0.000    3.636    0.000    0.000    0.000    0.000 
#    0.000    0.000    0.000    0.000    0.000    0.000 
#
# Total GULP energy -136324.059095 kJ/mol
# GULP energy per Si atom -12393.096281 kJ/mol
# Density = 2.199261 g / cm^3
# Si number density = 22.042779 Si / 1000 Ang^3
#
#
#
# Elastic Constant Matrix: (Units=GPa)
#
#
# Indices 1 2 3 4 5 6 
#
# 1 132.6447 23.3250 19.2223 0.0000 12.5963 0.0000
# 2 23.3250 138.4841 25.3641 0.0000 3.6943 0.0000
# 3 19.2223 25.3641 103.8794 0.0000 19.2595 0.0000
# 4 0.0000 0.0000 0.0000 41.9655 0.0000 1.4960
# 5 12.5963 3.6943 19.2595 0.0000 32.8767 0.0000
# 6 0.0000 0.0000 0.0000 1.4960 0.0000 27.9683
#
#
#
# Elastic Compliance Matrix: (Units=1/GPa)
#
#
# Indices 1 2 3 4 5 6 
#
# 1 0.008091 -0.001159 -0.000745 0.000000 -0.002534 0.000000
# 2 -0.001159 0.007727 -0.001788 0.000000 0.000623 0.000000
# 3 -0.000745 -0.001788 0.011343 0.000000 -0.006158 0.000000
# 4 0.000000 0.000000 0.000000 0.023875 0.000000 -0.001277
# 5 -0.002534 0.000623 -0.006158 0.000000 0.034925 0.000000
# 6 0.000000 0.000000 0.000000 -0.001277 0.000000 0.035823
#
#
# Mechanical properties :
#
#
# Convention : Reuss Voigt Hill
#
# Bulk Modulus (GPa) = 50.55970 56.75901 53.65935
# Shear Modulus (GPa) = 36.82999 41.03522 38.93261
#
# Velocity S-wave (km/s) = 4.09203 4.31933 4.20721
# Velocity P-wave (km/s) = 6.73150 7.11905 6.92799
#
# Compressibility (1/GPa) = 0.01977860
#
# Stress axis : x y z
#
# Youngs Moduli (GPa) = 123.59082 129.41547 88.16290
#
# Poissons Ratio (x) = 0.14997 0.06564
# Poissons Ratio (y) = 0.14322 0.15762
# Poissons Ratio (z) = 0.09202 0.23137
#
# Static dielectric constant tensor:
#      x y z
#    x 4.092060 0.000000 0.040070 
#    y 0.000000 4.070700 0.000000 
#    z 0.040070 0.000000 4.065230 
# 
# 
# High freq. dielectric constant tensor:
#      x y z
#    x 1.860820 0.000000 0.007540 
#    y 0.000000 1.873010 0.000000 
#    z 0.007540 0.000000 1.887440 
# 
# From -- ./inp_files/11656.got.cif
#   From: 2010.03.12/outbox.cif.g09.slc.cpg/sg3_6_cif.got.tgz:11656.got - 2010.03.31 09:20:49.
