data_PCOD8045139
_publ_section_title
;
Structure prediction by ZEFSAII (Michael W. Deem and Ramdas Pophale) SiO2 
 PCOD8045139
Probable space group: P 2
;
_chemical_formula_sum "Si O2"
_cell_formula_units_Z 12
_cell_length_a 8.135347
_cell_length_b 12.790433
_cell_length_c 5.327146
_cell_angle_alpha 90.000000
_cell_angle_beta 82.972943
_cell_angle_gamma 90.000000
_cell_volume 550.150368
_symmetry_space_group_name_H-M "P 2"
_symmetry_group_IT_number 3
_symmetry_cell_setting 'monoclinic'
loop_
_space_group_symop_operation_xyz
x,y,z
-x,y,-z
loop_
_atom_site_type_symbol
_atom_site_label
_atom_site_fract_x
_atom_site_fract_y
_atom_site_fract_z
Si Si1 0.000000 0.527720 0.000000
Si Si2 0.706168 0.465371 0.336133
Si Si3 0.203423 0.646504 0.321840
Si Si4 0.500000 0.565772 0.000000
Si Si5 0.000000 0.965441 0.000000
Si Si6 0.688176 0.236163 0.475960
Si Si7 0.000000 0.833662 0.500000
Si Si8 0.298074 0.122272 0.026015
O O1 0.845329 0.453393 0.092876
O O2 0.034677 0.601586 0.233272
O O3 0.737122 0.572215 0.471167
O O4 0.530984 0.485258 0.227713
O O5 0.710726 0.360972 0.500618
O O6 0.346006 0.643084 0.080710
O O7 0.165017 0.763233 0.423238
O O8 0.963475 0.899447 0.257298
O O9 0.174230 0.024338 0.023061
O O10 0.500000 0.204113 0.500000
O O11 0.762619 0.181136 0.708895
O O12 0.757572 0.194566 0.198322
O O13 0.500000 0.096301 0.000000
#
# Coordination Sequence:
#
# PCOD8045139 Si02
#       8
#     1   2   2   1   1   2   1   2
#     4  10  21  37  60  86 146 184 227 269 326 392
#     4  11  22  38  62 100 144 187 223 270 329 423
#     4  11  22  43  62  98 138 185 226 283 336 415
#     4  10  24  36  66  94 154 180 234 266 332 406
#     4  12  27  51  74 102 130 180 243 309 368 416
#     4  10  22  39  70  98 139 183 221 270 349 417
#     4  12  26  46  78  92 138 182 234 296 370 408
#     4  10  24  48  71 100 136 176 230 299 354 416
#
# _framework density 21.812218000000001
#
# number of rings (size 3 to 8) (size 9 to 14) (size 15 to 20)
#    0.000    1.333    1.667    3.000   10.500    0.667 
#    4.500    0.000    0.000    0.000    0.000    0.000 
#    0.000    0.000    0.000    0.000    0.000    0.000 
#
# Total GULP energy -148674.470792 kJ/mol
# GULP energy per Si atom -12389.539233 kJ/mol
# Density = 2.176257 g / cm^3
# Si number density = 21.812218 Si / 1000 Ang^3
#
#
#
# Elastic Constant Matrix: (Units=GPa)
#
#
# Indices 1 2 3 4 5 6 
#
# 1 99.4199 49.9158 30.1715 0.0000 4.6013 0.0000
# 2 49.9158 135.3130 73.6064 0.0000 7.7000 0.0000
# 3 30.1715 73.6064 157.0228 0.0000 24.4195 0.0000
# 4 0.0000 0.0000 0.0000 49.6335 0.0000 -0.4793
# 5 4.6013 7.7000 24.4195 0.0000 34.7134 0.0000
# 6 0.0000 0.0000 0.0000 -0.4793 0.0000 25.6554
#
#
#
# Elastic Compliance Matrix: (Units=1/GPa)
#
#
# Indices 1 2 3 4 5 6 
#
# 1 0.012364 -0.004406 -0.000233 0.000000 -0.000498 0.000000
# 2 -0.004406 0.011535 -0.004776 0.000000 0.001385 0.000000
# 3 -0.000233 -0.004776 0.009524 0.000000 -0.005610 0.000000
# 4 0.000000 0.000000 0.000000 0.020151 0.000000 0.000376
# 5 -0.000498 0.001385 -0.005610 0.000000 0.032512 0.000000
# 6 0.000000 0.000000 0.000000 0.000376 0.000000 0.038985
#
#
# Mechanical properties :
#
#
# Convention : Reuss Voigt Hill
#
# Bulk Modulus (GPa) = 68.52274 77.68258 73.10266
# Shear Modulus (GPa) = 33.60974 37.87125 35.74049
#
# Velocity S-wave (km/s) = 3.92965 4.17134 4.05230
# Velocity P-wave (km/s) = 7.21613 7.67409 7.44863
#
# Compressibility (1/GPa) = 0.01459370
#
# Stress axis : x y z
#
# Youngs Moduli (GPa) = 80.87863 86.69488 104.99326
#
# Poissons Ratio (x) = 0.38198 0.02446
# Poissons Ratio (y) = 0.35635 0.50143
# Poissons Ratio (z) = 0.01884 0.41404
#
# Static dielectric constant tensor:
#      x y z
#    x 4.254370 0.000000 -0.223120 
#    y 0.000000 3.649470 0.000000 
#    z -0.223120 0.000000 4.563990 
# 
# 
# High freq. dielectric constant tensor:
#      x y z
#    x 1.862580 0.000000 -0.008910 
#    y 0.000000 1.825130 0.000000 
#    z -0.008910 0.000000 1.888150 
# 
# From -- ./inp_files/1188.got.cif
#   From: 2010.03.12/outbox.cif.g09.slc.cpg/sg3_1_cif.got.tgz:1188.got - 2010.03.31 09:20:49.
