data_PCOD8045461
_publ_section_title
;
Structure prediction by ZEFSAII (Michael W. Deem and Ramdas Pophale) SiO2 
 PCOD8045461
Probable space group: P 2
;
_chemical_formula_sum "Si O2"
_cell_formula_units_Z 16
_cell_length_a 9.721164
_cell_length_b 11.674373
_cell_length_c 9.888162
_cell_angle_alpha 90.000000
_cell_angle_beta 135.224472
_cell_angle_gamma 90.000000
_cell_volume 790.395135
_symmetry_space_group_name_H-M "P 2"
_symmetry_group_IT_number 3
_symmetry_cell_setting 'monoclinic'
loop_
_space_group_symop_operation_xyz
x,y,z
-x,y,-z
loop_
_atom_site_type_symbol
_atom_site_label
_atom_site_fract_x
_atom_site_fract_y
_atom_site_fract_z
Si Si1 0.661529 0.010510 0.307643
Si Si2 0.536340 0.376135 0.871311
Si Si3 0.963561 0.765319 0.130434
Si Si4 0.221940 0.998732 0.908772
Si Si5 0.364156 0.793454 0.535022
Si Si6 0.169948 0.255315 0.509877
Si Si7 0.078682 0.235945 0.905880
Si Si8 0.580677 0.643691 0.910691
O O1 0.744116 0.127635 0.425044
O O2 0.774432 0.976325 0.249310
O O3 0.694366 0.915318 0.443709
O O4 0.433512 0.020526 0.118644
O O5 0.346315 0.342718 0.654783
O O6 0.561754 0.510447 0.869169
O O7 0.500000 0.339447 0.000000
O O8 0.726191 0.310781 0.950665
O O9 0.882844 0.893268 0.092739
O O10 0.160804 0.736894 0.348933
O O11 0.808160 0.673220 0.073180
O O12 0.000000 0.744716 0.000000
O O13 0.103641 0.113083 0.853993
O O14 0.500000 0.812856 0.500000
O O15 0.469292 0.714172 0.717775
O O16 0.000000 0.273850 0.500000
O O17 0.085539 0.292147 0.304617
O O18 0.000000 0.220461 0.000000
O O19 0.500000 0.680760 0.000000
#
# Coordination Sequence:
#
# PCOD8045461 Si02
#       8
#     2   2   2   2   2   2   2   2
#     4  11  22  38  70 101 134 178 224 275 330 413
#     4  11  24  48  73  96 136 181 233 286 330 400
#     4  12  24  43  68  97 138 183 218 279 347 405
#     4  11  21  40  67  97 143 178 215 275 344 404
#     4  12  25  45  69 102 142 180 224 282 345 404
#     4  12  23  43  74 100 135 180 225 270 345 409
#     4  12  26  43  66 106 138 178 224 281 346 405
#     4  11  26  47  70 101 132 180 237 285 332 399
#
# _framework density 20.243039
#
# number of rings (size 3 to 8) (size 9 to 14) (size 15 to 20)
#    0.000    0.500    6.250    1.875    0.000    4.500 
#    2.250    0.000    0.000    0.000    0.000    0.000 
#    0.000    0.000    0.000    0.000    0.000    0.000 
#
# Total GULP energy -198478.803560 kJ/mol
# GULP energy per Si atom -12404.925223 kJ/mol
# Density = 2.019697 g / cm^3
# Si number density = 20.243039 Si / 1000 Ang^3
#
#
#
# Elastic Constant Matrix: (Units=GPa)
#
#
# Indices 1 2 3 4 5 6 
#
# 1 134.2839 45.6634 67.1367 0.0000 -0.8467 0.0000
# 2 45.6634 85.7354 37.2703 0.0000 2.8688 0.0000
# 3 67.1367 37.2703 146.8133 0.0000 7.5465 0.0000
# 4 0.0000 0.0000 0.0000 43.2030 0.0000 58.4668
# 5 -0.8467 2.8688 7.5465 0.0000 38.2267 0.0000
# 6 0.0000 0.0000 0.0000 58.4668 0.0000 121.4637
#
#
#
# Elastic Compliance Matrix: (Units=1/GPa)
#
#
# Indices 1 2 3 4 5 6 
#
# 1 0.010838 -0.004083 -0.003988 0.000000 0.001334 0.000000
# 2 -0.004083 0.014653 -0.001810 0.000000 -0.000833 0.000000
# 3 -0.003988 -0.001810 0.009185 0.000000 -0.001766 0.000000
# 4 0.000000 0.000000 0.000000 0.066402 0.000000 -0.031963
# 5 0.001334 -0.000833 -0.001766 0.000000 0.026600 0.000000
# 6 0.000000 0.000000 0.000000 -0.031963 0.000000 0.023618
#
#
# Mechanical properties :
#
#
# Convention : Reuss Voigt Hill
#
# Bulk Modulus (GPa) = 67.05103 74.10816 70.57959
# Shear Modulus (GPa) = 28.40428 55.02948 41.71688
#
# Velocity S-wave (km/s) = 3.74995 5.21952 4.54453
# Velocity P-wave (km/s) = 7.20724 8.54478 7.90435
#
# Compressibility (1/GPa) = 0.01491402
#
# Stress axis : x y z
#
# Youngs Moduli (GPa) = 92.27078 68.24450 108.87010
#
# Poissons Ratio (x) = 0.27866 0.43417
# Poissons Ratio (y) = 0.37676 0.19704
# Poissons Ratio (z) = 0.36797 0.12351
#
# Static dielectric constant tensor:
#      x y z
#    x 3.874570 0.000000 0.119760 
#    y 0.000000 3.595270 0.000000 
#    z 0.119760 0.000000 3.940820 
# 
# 
# High freq. dielectric constant tensor:
#      x y z
#    x 1.800410 0.000000 0.008350 
#    y 0.000000 1.784120 0.000000 
#    z 0.008350 0.000000 1.811040 
# 
# From -- ./inp_files/5961.got.cif
#   From: 2010.03.12/outbox.cif.g09.slc.cpg/sg3_3_cif.got.tgz:5961.got - 2010.03.31 09:20:49.
