data_PCOD8045030
_publ_section_title
;
Structure prediction by ZEFSAII (Michael W. Deem and Ramdas Pophale) SiO2 
 PCOD8045030
Probable space group: P 2
;
_chemical_formula_sum "Si O2"
_cell_formula_units_Z 9
_cell_length_a 5.123515
_cell_length_b 8.782422
_cell_length_c 11.522138
_cell_angle_alpha 90.000000
_cell_angle_beta 103.603457
_cell_angle_gamma 90.000000
_cell_volume 503.915695
_symmetry_space_group_name_H-M "P 2"
_symmetry_group_IT_number 3
_symmetry_cell_setting 'monoclinic'
loop_
_space_group_symop_operation_xyz
x,y,z
-x,y,-z
loop_
_atom_site_type_symbol
_atom_site_label
_atom_site_fract_x
_atom_site_fract_y
_atom_site_fract_z
Si Si1 0.859401 0.657780 0.728739
Si Si2 0.500000 0.748855 0.500000
Si Si3 0.409400 0.153432 0.863057
Si Si4 0.619973 0.842060 0.271364
Si Si5 0.910318 0.348035 0.863160
O O1 0.729586 0.644870 0.585491
O O2 0.645608 0.743824 0.790403
O O3 0.921859 0.490389 0.779240
O O4 0.126809 0.757754 0.756894
O O5 0.638606 0.852774 0.414400
O O6 0.611483 0.280143 0.834336
O O7 0.111155 0.220990 0.835169
O O8 0.406090 0.010816 0.778417
O O9 0.500000 0.099339 0.000000
O O10 0.000000 0.402431 0.000000
#
# Coordination Sequence:
#
# PCOD8045030 Si02
#       5
#     2   1   2   2   2
#     4  10  20  36  60  79 112 146 187 226 272 321
#     4   8  22  36  60  76 118 136 196 226 274 304
#     4  10  21  37  57  84 117 144 177 229 282 330
#     4  10  20  36  60  79 112 146 187 226 272 321
#     4  10  21  37  57  84 117 144 177 229 282 330
#
# _framework density 17.860132
#
# number of rings (size 3 to 8) (size 9 to 14) (size 15 to 20)
#    1.333    0.889    0.000    3.333    0.000    1.778 
#    0.000    1.111    0.000    0.000    0.000    0.000 
#    0.000    0.000    0.000    0.000    0.000    0.000 
#
# Total GULP energy -111551.436566 kJ/mol
# GULP energy per Si atom -12394.604063 kJ/mol
# Density = 1.781948 g / cm^3
# Si number density = 17.860132 Si / 1000 Ang^3
#
#
#
# Elastic Constant Matrix: (Units=GPa)
#
#
# Indices 1 2 3 4 5 6 
#
# 1 104.9010 17.8377 22.0129 0.0000 3.1754 0.0000
# 2 17.8377 94.1192 64.2627 0.0000 -2.3704 0.0000
# 3 22.0129 64.2627 88.1056 0.0000 -2.9187 0.0000
# 4 0.0000 0.0000 0.0000 913.5990 0.0000 -83.5072
# 5 3.1754 -2.3704 -2.9187 0.0000 12.8959 0.0000
# 6 0.0000 0.0000 0.0000 -83.5072 0.0000 28.6796
#
#
#
# Elastic Compliance Matrix: (Units=1/GPa)
#
#
# Indices 1 2 3 4 5 6 
#
# 1 0.010190 -0.000400 -0.002357 0.000000 -0.003116 0.000000
# 2 -0.000400 0.021183 -0.015333 0.000000 0.000522 0.000000
# 3 -0.002357 -0.015333 0.023223 0.000000 0.003018 0.000000
# 4 0.000000 0.000000 0.000000 0.001492 0.000000 0.004343
# 5 -0.003116 0.000522 0.003018 0.000000 0.079090 0.000000
# 6 0.000000 0.000000 0.000000 0.004343 0.000000 0.047513
#
#
# Mechanical properties :
#
#
# Convention : Reuss Voigt Hill
#
# Bulk Modulus (GPa) = 54.30582 55.03915 54.67248
# Shear Modulus (GPa) = 22.22117 203.23573 112.72845
#
# Velocity S-wave (km/s) = 3.53112 10.67895 7.95326
# Velocity P-wave (km/s) = 6.86274 13.52542 10.72460
#
# Compressibility (1/GPa) = 0.01841423
#
# Stress axis : x y z
#
# Youngs Moduli (GPa) = 98.13706 47.20749 43.06118
#
# Poissons Ratio (x) = 0.01889 0.10150
# Poissons Ratio (y) = 0.03928 0.66027
# Poissons Ratio (z) = 0.23133 0.72385
#
# Static dielectric constant tensor:
#      x y z
#    x 3.492080 0.000000 -0.017450 
#    y 0.000000 3.005330 0.000000 
#    z -0.017450 0.000000 3.154340 
# 
# 
# High freq. dielectric constant tensor:
#      x y z
#    x 1.714220 0.000000 -0.000180 
#    y 0.000000 1.675140 0.000000 
#    z -0.000180 0.000000 1.675790 
# 
# From -- ./inp_files/9776.got.cif
#   From: 2010.03.12/outbox.cif.g09.slc.cpg/sg3_5_cif.got.tgz:9776.got - 2010.03.31 09:20:49.
