data_PCOD8045800
_publ_section_title
;
Structure prediction by ZEFSAII (Michael W. Deem and Ramdas Pophale) SiO2 
 PCOD8045800
Probable space group: P 21
;
_chemical_formula_sum "Si O2"
_cell_formula_units_Z 16
_cell_length_a 32.730431
_cell_length_b 5.013262
_cell_length_c 25.900112
_cell_angle_alpha 90.000000
_cell_angle_beta 169.734335
_cell_angle_gamma 90.000000
_cell_volume 757.377029
_symmetry_space_group_name_H-M "P 21"
_symmetry_group_IT_number 4
_symmetry_cell_setting 'monoclinic'
loop_
_space_group_symop_operation_xyz
x,y,z
-x,1/2+y,-z
loop_
_atom_site_type_symbol
_atom_site_label
_atom_site_fract_x
_atom_site_fract_y
_atom_site_fract_z
Si Si1 0.231373 0.852550 0.982298
Si Si2 0.054071 0.856446 0.351716
Si Si3 0.853637 0.516576 0.321443
Si Si4 0.216441 0.911490 0.443313
Si Si5 0.949513 0.344966 0.870635
Si Si6 0.533029 0.412144 0.831128
Si Si7 0.498527 0.205448 0.031760
Si Si8 0.709286 0.843931 0.620056
O O1 0.323411 0.959142 0.042227
O O2 0.434993 0.825967 0.277536
O O3 0.105916 0.569234 0.817720
O O4 0.055417 0.065387 0.786139
O O5 0.078780 0.967163 0.324392
O O6 0.299805 0.836103 0.684127
O O7 0.710906 0.606013 0.193788
O O8 0.027792 0.281187 0.555008
O O9 0.701317 0.372766 0.088542
O O10 0.032402 0.853780 0.168895
O O11 0.378922 0.661657 0.653777
O O12 0.374246 0.158668 0.624628
O O13 0.813249 0.599132 0.719474
O O14 0.794877 0.099835 0.695764
O O15 0.203310 0.341007 0.211679
O O16 0.407996 0.446953 0.882991
#
# Coordination Sequence:
#
# PCOD8045800 Si02
#       8
#     2   2   2   2   2   2   2   2
#     4  12  24  43  65 101 131 171 217 271 321 382
#     4  12  28  43  65  96 138 172 213 264 334 396
#     4  12  28  47  69 100 128 165 221 282 323 381
#     4  12  22  45  66  97 128 181 215 265 322 391
#     4  10  19  37  66  95 128 172 216 268 326 372
#     4  12  25  43  70  93 132 165 228 270 315 381
#     4  12  28  49  68  93 133 178 215 260 340 403
#     4  10  20  37  63  99 130 164 221 274 313 380
#
# _framework density 21.125543
#
# number of rings (size 3 to 8) (size 9 to 14) (size 15 to 20)
#    0.000    0.500    3.750    4.500    7.000    0.000 
#    0.000    1.250    0.000    0.000    0.000    0.000 
#    0.000    0.000    0.000    0.000    0.000    0.000 
#
# Total GULP energy -198475.443000 kJ/mol
# GULP energy per Si atom -12404.715188 kJ/mol
# Density = 2.107746 g / cm^3
# Si number density = 21.125543 Si / 1000 Ang^3
#
#
#
# Elastic Constant Matrix: (Units=GPa)
#
#
# Indices 1 2 3 4 5 6 
#
# 1 107.6320 7.9460 35.8150 0.0000 -13.4661 0.0000
# 2 7.9460 124.2775 24.2060 0.0000 0.0597 0.0000
# 3 35.8150 24.2060 70.5915 0.0000 -6.6266 0.0000
# 4 0.0000 0.0000 0.0000 44.1666 0.0000 9.3793
# 5 -13.4661 0.0597 -6.6266 0.0000 32.1655 0.0000
# 6 0.0000 0.0000 0.0000 9.3793 0.0000 41.1365
#
#
#
# Elastic Compliance Matrix: (Units=1/GPa)
#
#
# Indices 1 2 3 4 5 6 
#
# 1 0.011613 0.000360 -0.005668 0.000000 0.003693 0.000000
# 2 0.000360 0.008646 -0.003197 0.000000 -0.000524 0.000000
# 3 -0.005668 -0.003197 0.018269 0.000000 0.001397 0.000000
# 4 0.000000 0.000000 0.000000 0.023794 0.000000 -0.005425
# 5 0.003693 -0.000524 0.001397 0.000000 0.032924 0.000000
# 6 0.000000 0.000000 0.000000 -0.005425 0.000000 0.025546
#
#
# Mechanical properties :
#
#
# Convention : Reuss Voigt Hill
#
# Bulk Modulus (GPa) = 46.47337 48.71502 47.59419
# Shear Modulus (GPa) = 34.48870 39.12932 36.80901
#
# Velocity S-wave (km/s) = 4.04488 4.30842 4.17873
# Velocity P-wave (km/s) = 6.62277 6.91808 6.77204
#
# Compressibility (1/GPa) = 0.02151770
#
# Stress axis : x y z
#
# Youngs Moduli (GPa) = 86.11323 115.65554 54.73711
#
# Poissons Ratio (x) = -0.04161 0.31027
# Poissons Ratio (y) = -0.03098 0.17497
# Poissons Ratio (z) = 0.48813 0.36970
#
# Static dielectric constant tensor:
#      x y z
#    x 3.434860 0.000000 0.099630 
#    y 0.000000 3.890000 0.000000 
#    z 0.099630 0.000000 3.511540 
# 
# 
# High freq. dielectric constant tensor:
#      x y z
#    x 1.823850 0.000000 -0.017690 
#    y 0.000000 1.852690 0.000000 
#    z -0.017690 0.000000 1.824320 
# 
# From -- ./inp_files/16266.got.cif
#   From: 2010.03.12/outbox.cif.g09.slc.cpg/sg4_9_cif.got.tgz:16266.got - 2010.03.31 09:31:35.
