data_PCOD8045445
_publ_section_title
;
Structure prediction by ZEFSAII (Michael W. Deem and Ramdas Pophale) SiO2 
 PCOD8045445
Probable space group: P 2
;
_chemical_formula_sum "Si O2"
_cell_formula_units_Z 13
_cell_length_a 16.311364
_cell_length_b 4.983905
_cell_length_c 22.060991
_cell_angle_alpha 90.000000
_cell_angle_beta 162.132686
_cell_angle_gamma 90.000000
_cell_volume 550.249689
_symmetry_space_group_name_H-M "P 2"
_symmetry_group_IT_number 3
_symmetry_cell_setting 'monoclinic'
loop_
_space_group_symop_operation_xyz
x,y,z
-x,y,-z
loop_
_atom_site_type_symbol
_atom_site_label
_atom_site_fract_x
_atom_site_fract_y
_atom_site_fract_z
Si Si1 0.500000 0.864130 0.500000
Si Si2 0.056889 0.136268 0.899895
Si Si3 0.497164 0.101168 0.696098
Si Si4 0.995535 0.107071 0.566945
Si Si5 0.650918 0.602634 0.482321
Si Si6 0.326170 0.595042 0.821255
Si Si7 0.185140 0.640336 0.914692
O O1 0.545833 0.669768 0.475298
O O2 0.748433 0.057031 0.689569
O O3 0.081488 0.438110 0.893194
O O4 0.198596 0.937591 0.951922
O O5 0.201518 0.127741 0.067018
O O6 0.440486 0.304368 0.600723
O O7 0.298056 0.149090 0.612218
O O8 0.465406 0.801949 0.649353
O O9 0.196976 0.306304 0.743686
O O10 0.000000 0.190796 0.500000
O O11 0.089642 0.803171 0.641860
O O12 0.974685 0.626313 0.710531
O O13 0.500000 0.694463 0.000000
O O14 0.518707 0.570842 0.898528
#
# Coordination Sequence:
#
# PCOD8045445 Si02
#       7
#     1   2   2   2   2   2   2
#     4  10  26  50  70 100 124 180 220 280 342 412
#     4  11  25  44  71  93 132 167 224 270 339 402
#     4  12  24  44  67 102 133 176 214 281 333 384
#     4  12  25  41  65  98 140 179 222 267 323 393
#     4  11  25  44  71  95 136 167 225 276 338 398
#     4  12  24  39  64  96 133 177 228 268 313 389
#     4  11  22  43  65  95 131 182 216 271 327 390
#
# _framework density 23.625640000000001
#
# number of rings (size 3 to 8) (size 9 to 14) (size 15 to 20)
#    0.000    0.615    0.000    9.231    0.000    6.154 
#    0.000    3.077    0.000    0.000    0.000    0.000 
#    0.000    0.000    0.000    0.000    0.000    0.000 
#
# Total GULP energy -161314.126763 kJ/mol
# GULP energy per Si atom -12408.778982 kJ/mol
# Density = 2.357187 g / cm^3
# Si number density = 23.625640 Si / 1000 Ang^3
#
#
#
# Elastic Constant Matrix: (Units=GPa)
#
#
# Indices 1 2 3 4 5 6 
#
# 1 85.9864 9.7494 37.8316 0.0000 4.3279 0.0000
# 2 9.7494 83.9281 18.9117 0.0000 -0.6411 0.0000
# 3 37.8316 18.9117 123.0685 0.0000 -5.5409 0.0000
# 4 0.0000 0.0000 0.0000 33.1970 0.0000 -10.3200
# 5 4.3279 -0.6411 -5.5409 0.0000 45.3364 0.0000
# 6 0.0000 0.0000 0.0000 -10.3200 0.0000 42.9212
#
#
#
# Elastic Compliance Matrix: (Units=1/GPa)
#
#
# Indices 1 2 3 4 5 6 
#
# 1 0.013631 -0.000657 -0.004171 0.000000 -0.001820 0.000000
# 2 -0.000657 0.012374 -0.001698 0.000000 0.000030 0.000000
# 3 -0.004171 -0.001698 0.009739 0.000000 0.001564 0.000000
# 4 0.000000 0.000000 0.000000 0.032557 0.000000 0.007828
# 5 -0.001820 0.000030 0.001564 0.000000 0.022423 0.000000
# 6 0.000000 0.000000 0.000000 0.007828 0.000000 0.025181
#
#
# Mechanical properties :
#
#
# Convention : Reuss Voigt Hill
#
# Bulk Modulus (GPa) = 44.07013 47.32982 45.69998
# Shear Modulus (GPa) = 36.62425 39.39027 38.00726
#
# Velocity S-wave (km/s) = 3.94152 4.08765 4.01525
# Velocity P-wave (km/s) = 6.27759 6.50809 6.39388
#
# Compressibility (1/GPa) = 0.02269111
#
# Stress axis : x y z
#
# Youngs Moduli (GPa) = 73.36163 80.81338 102.67829
#
# Poissons Ratio (x) = 0.05313 0.42829
# Poissons Ratio (y) = 0.04823 0.17435
# Poissons Ratio (z) = 0.30600 0.13723
#
# Static dielectric constant tensor:
#      x y z
#    x 4.091340 0.000000 0.039970 
#    y 0.000000 4.109910 0.000000 
#    z 0.039970 0.000000 4.375690 
# 
# 
# High freq. dielectric constant tensor:
#      x y z
#    x 1.931760 0.000000 -0.002460 
#    y 0.000000 1.944400 0.000000 
#    z -0.002460 0.000000 1.946140 
# 
# From -- ./inp_files/16038.got.cif
#   From: 2010.03.12/outbox.cif.g09.slc.cpg/sg3_9_cif.got.tgz:16038.got - 2010.03.31 09:20:49.
