data_PCOD8045046
_publ_section_title
;
Structure prediction by ZEFSAII (Michael W. Deem and Ramdas Pophale) SiO2 
 PCOD8045046
Probable space group: P 2
;
_chemical_formula_sum "Si O2"
_cell_formula_units_Z 14
_cell_length_a 8.681804
_cell_length_b 17.005409
_cell_length_c 8.062539
_cell_angle_alpha 90.000000
_cell_angle_beta 34.920946
_cell_angle_gamma 90.000000
_cell_volume 681.401612
_symmetry_space_group_name_H-M "P 2"
_symmetry_group_IT_number 3
_symmetry_cell_setting 'monoclinic'
loop_
_space_group_symop_operation_xyz
x,y,z
-x,y,-z
loop_
_atom_site_type_symbol
_atom_site_label
_atom_site_fract_x
_atom_site_fract_y
_atom_site_fract_z
Si Si1 0.017608 0.475170 0.169446
Si Si2 0.264477 0.015084 0.340527
Si Si3 0.000000 0.162623 0.500000
Si Si4 0.919383 0.781052 0.881319
Si Si5 0.500000 0.261519 0.000000
Si Si6 0.422830 0.868786 0.379870
Si Si7 0.514728 0.371109 0.675917
Si Si8 0.793522 0.628326 0.817462
O O1 0.115192 0.542809 0.204131
O O2 0.732837 0.441586 0.485314
O O3 0.226232 0.403788 0.984008
O O4 0.000000 0.510830 0.000000
O O5 0.163311 0.103694 0.483451
O O6 0.000000 0.971397 0.500000
O O7 0.365177 0.961208 0.402278
O O8 0.500000 0.024522 0.000000
O O9 0.772759 0.212610 0.797858
O O10 0.817685 0.692230 0.941247
O O11 0.174286 0.811515 0.550634
O O12 0.675166 0.839692 0.048567
O O13 0.000000 0.787202 0.000000
O O14 0.580738 0.308264 0.760720
O O15 0.500000 0.857831 0.500000
O O16 0.500000 0.335477 0.500000
O O17 0.000000 0.659549 0.500000
O O18 0.500000 0.621931 0.000000
#
# Coordination Sequence:
#
# PCOD8045046 Si02
#       8
#     2   2   1   2   1   2   2   2
#     4  10  22  42  61  85 123 163 203 251 303 364
#     4  10  20  37  61  83 120 153 191 244 292 372
#     4  10  22  40  60  92 120 160 198 228 320 386
#     4  10  22  39  56  81 119 165 203 247 307 355
#     4  12  22  40  70  88 130 160 196 260 310 366
#     4  10  21  37  61  86 114 155 210 250 292 356
#     4  10  23  40  65  95 120 162 212 247 309 373
#     4  12  25  37  57  88 124 154 208 257 301 357
#
# _framework density 20.545885999999999
#
# number of rings (size 3 to 8) (size 9 to 14) (size 15 to 20)
#    0.429    1.143    0.714    3.857    3.000    3.429 
#    0.000    6.429    3.143    0.000    0.000    0.000 
#    0.000    0.000    0.000    0.000    0.000    0.000 
#
# Total GULP energy -173465.533612 kJ/mol
# GULP energy per Si atom -12390.395258 kJ/mol
# Density = 2.049912 g / cm^3
# Si number density = 20.545886 Si / 1000 Ang^3
#
#
#
# Elastic Constant Matrix: (Units=GPa)
#
#
# Indices 1 2 3 4 5 6 
#
# 1 71.1132 47.5452 43.9408 0.0000 -15.8472 0.0000
# 2 47.5452 98.6689 31.8411 0.0000 -2.6331 0.0000
# 3 43.9408 31.8411 122.4564 0.0000 -24.3561 0.0000
# 4 0.0000 0.0000 0.0000 15.8822 0.0000 -11.3880
# 5 -15.8472 -2.6331 -24.3561 0.0000 28.2027 0.0000
# 6 0.0000 0.0000 0.0000 -11.3880 0.0000 31.6865
#
#
#
# Elastic Compliance Matrix: (Units=1/GPa)
#
#
# Indices 1 2 3 4 5 6 
#
# 1 0.026500 -0.010991 -0.004701 0.000000 0.009804 0.000000
# 2 -0.010991 0.015694 -0.001297 0.000000 -0.005830 0.000000
# 3 -0.004701 -0.001297 0.011640 0.000000 0.007290 0.000000
# 4 0.000000 0.000000 0.000000 0.084822 0.000000 0.030484
# 5 0.009804 -0.005830 0.007290 0.000000 0.046718 0.000000
# 6 0.000000 0.000000 0.000000 0.030484 0.000000 0.042515
#
#
# Mechanical properties :
#
#
# Convention : Reuss Voigt Hill
#
# Bulk Modulus (GPa) = 50.35950 59.87697 55.11823
# Shear Modulus (GPa) = 18.62307 26.41505 22.51906
#
# Velocity S-wave (km/s) = 3.01394 3.58950 3.31424
# Velocity P-wave (km/s) = 6.05605 6.81070 6.44443
#
# Compressibility (1/GPa) = 0.01985723
#
# Stress axis : x y z
#
# Youngs Moduli (GPa) = 37.73590 63.71959 85.90988
#
# Poissons Ratio (x) = 0.70032 0.40387
# Poissons Ratio (y) = 0.41474 0.11138
# Poissons Ratio (z) = 0.17740 0.08261
#
# Static dielectric constant tensor:
#      x y z
#    x 3.674140 0.000000 -0.284060 
#    y 0.000000 3.583040 0.000000 
#    z -0.284060 0.000000 4.094640 
# 
# 
# High freq. dielectric constant tensor:
#      x y z
#    x 1.786180 0.000000 -0.024340 
#    y 0.000000 1.796770 0.000000 
#    z -0.024340 0.000000 1.823560 
# 
# From -- ./inp_files/6148.got.cif
#   From: 2010.03.12/outbox.cif.g09.slc.cpg/sg3_4_cif.got.tgz:6148.got - 2010.03.31 09:20:49.
