data_PCOD8045727
_publ_section_title
;
Structure prediction by ZEFSAII (Michael W. Deem and Ramdas Pophale) SiO2 
 PCOD8045727
Probable space group: P 21
;
_chemical_formula_sum "Si O2"
_cell_formula_units_Z 16
_cell_length_a 9.330614
_cell_length_b 11.117319
_cell_length_c 8.384769
_cell_angle_alpha 90.000000
_cell_angle_beta 75.459577
_cell_angle_gamma 90.000000
_cell_volume 841.906046
_symmetry_space_group_name_H-M "P 21"
_symmetry_group_IT_number 4
_symmetry_cell_setting 'monoclinic'
loop_
_space_group_symop_operation_xyz
x,y,z
-x,1/2+y,-z
loop_
_atom_site_type_symbol
_atom_site_label
_atom_site_fract_x
_atom_site_fract_y
_atom_site_fract_z
Si Si1 0.996950 0.200590 0.945188
Si Si2 0.100131 0.048765 0.196102
Si Si3 0.806926 0.134838 0.450023
Si Si4 0.304268 0.633600 0.851160
Si Si5 0.212170 0.402639 0.366375
Si Si6 0.625928 0.711580 0.839583
Si Si7 0.050187 0.799107 0.355811
Si Si8 0.784562 0.888026 0.987378
O O1 0.015565 0.196798 0.747019
O O2 0.821082 0.210805 0.025890
O O3 0.072266 0.323937 0.980715
O O4 0.062578 0.083384 0.020589
O O5 0.110196 0.906696 0.225778
O O6 0.258495 0.101910 0.201791
O O7 0.972533 0.108410 0.340044
O O8 0.697623 0.167724 0.335532
O O9 0.817408 0.243030 0.574712
O O10 0.733261 0.019057 0.554327
O O11 0.460791 0.663058 0.885530
O O12 0.271478 0.490930 0.877799
O O13 0.342928 0.302304 0.318575
O O14 0.167366 0.442739 0.198254
O O15 0.072711 0.344029 0.489700
O O16 0.655265 0.787657 0.994827
#
# Coordination Sequence:
#
# PCOD8045727 Si02
#       8
#     2   2   2   2   2   2   2   2
#     4  10  19  33  59  89 109 151 205 241 293 345
#     4   9  19  37  55  87 118 153 202 251 293 355
#     4  10  19  34  58  85 115 154 206 245 297 344
#     4  11  21  37  60  86 121 159 194 251 293 362
#     4   9  18  36  60  82 116 152 191 249 303 344
#     4   9  20  38  59  80 126 154 196 245 306 355
#     4  11  19  33  64  89 117 155 203 253 295 346
#     4   9  19  38  59  84 114 156 195 253 290 349
#
# _framework density 19.004497000000001
#
# number of rings (size 3 to 8) (size 9 to 14) (size 15 to 20)
#    0.750    1.500    1.250    3.750    0.000    1.000 
#    2.250    0.000   11.000    0.000    0.000    0.000 
#    0.000    0.000    0.000    0.000    0.000    0.000 
#
# Total GULP energy -198226.604665 kJ/mol
# GULP energy per Si atom -12389.162792 kJ/mol
# Density = 1.896124 g / cm^3
# Si number density = 19.004497 Si / 1000 Ang^3
#
#
#
# Elastic Constant Matrix: (Units=GPa)
#
#
# Indices 1 2 3 4 5 6 
#
# 1 112.4544 33.8262 11.8207 0.0000 7.7978 0.0000
# 2 33.8262 93.2674 22.2128 0.0000 3.3269 0.0000
# 3 11.8207 22.2128 86.2896 0.0000 19.3278 0.0000
# 4 0.0000 0.0000 0.0000 34.8570 0.0000 -3.2729
# 5 7.7978 3.3269 19.3278 0.0000 18.6064 0.0000
# 6 0.0000 0.0000 0.0000 -3.2729 0.0000 21.1615
#
#
#
# Elastic Compliance Matrix: (Units=1/GPa)
#
#
# Indices 1 2 3 4 5 6 
#
# 1 0.010235 -0.003676 0.000466 0.000000 -0.004116 0.000000
# 2 -0.003676 0.012767 -0.003410 0.000000 0.002800 0.000000
# 3 0.000466 -0.003410 0.016043 0.000000 -0.016250 0.000000
# 4 0.000000 0.000000 0.000000 0.029111 0.000000 0.004502
# 5 -0.004116 0.002800 -0.016250 0.000000 0.071850 0.000000
# 6 0.000000 0.000000 0.000000 0.004502 0.000000 0.047952
#
#
# Mechanical properties :
#
#
# Convention : Reuss Voigt Hill
#
# Bulk Modulus (GPa) = 38.75258 47.52565 43.13911
# Shear Modulus (GPa) = 23.83221 29.86842 26.85032
#
# Velocity S-wave (km/s) = 3.54507 3.96871 3.76285
# Velocity P-wave (km/s) = 6.09854 6.78695 6.45194
#
# Compressibility (1/GPa) = 0.02580473
#
# Stress axis : x y z
#
# Youngs Moduli (GPa) = 97.70690 78.32431 62.33338
#
# Poissons Ratio (x) = 0.28793 -0.02907
# Poissons Ratio (y) = 0.35918 0.21257
# Poissons Ratio (z) = -0.04556 0.26710
#
# Static dielectric constant tensor:
#      x y z
#    x 3.097170 0.000000 0.149900 
#    y 0.000000 3.554370 0.000000 
#    z 0.149900 0.000000 3.577050 
# 
# 
# High freq. dielectric constant tensor:
#      x y z
#    x 1.702350 0.000000 0.017580 
#    y 0.000000 1.741080 0.000000 
#    z 0.017580 0.000000 1.737780 
# 
# From -- ./inp_files/6271.got.cif
#   From: 2010.03.12/outbox.cif.g09.slc.cpg/sg4_4_cif.got.tgz:6271.got - 2010.03.31 09:31:35.
