data_PCOD8045480
_publ_section_title
;
Structure prediction by ZEFSAII (Michael W. Deem and Ramdas Pophale) SiO2 
 PCOD8045480
Probable space group: P 2
;
_chemical_formula_sum "Si O2"
_cell_formula_units_Z 12
_cell_length_a 14.169468
_cell_length_b 4.919154
_cell_length_c 18.412638
_cell_angle_alpha 90.000000
_cell_angle_beta 154.372105
_cell_angle_gamma 90.000000
_cell_volume 555.099653
_symmetry_space_group_name_H-M "P 2"
_symmetry_group_IT_number 3
_symmetry_cell_setting 'monoclinic'
loop_
_space_group_symop_operation_xyz
x,y,z
-x,y,-z
loop_
_atom_site_type_symbol
_atom_site_label
_atom_site_fract_x
_atom_site_fract_y
_atom_site_fract_z
Si Si1 0.820555 0.959540 0.433248
Si Si2 0.833229 0.643959 0.824350
Si Si3 0.904709 0.588224 0.137554
Si Si4 0.465392 0.435873 0.759954
Si Si5 0.569530 0.168174 0.679836
Si Si6 0.917310 0.071235 0.658554
O O1 0.683752 0.695588 0.363755
O O2 0.000000 0.865537 0.500000
O O3 0.671500 0.198305 0.294292
O O4 0.931080 0.096068 0.580928
O O5 0.645215 0.417830 0.681316
O O6 0.954568 0.688749 0.833049
O O7 0.741385 0.925164 0.792303
O O8 0.000000 0.525858 0.000000
O O9 0.988154 0.321833 0.233373
O O10 0.931580 0.819191 0.216017
O O11 0.653680 0.546258 0.942685
O O12 0.564511 0.292861 0.757421
O O13 0.336477 0.048901 0.493638
#
# Coordination Sequence:
#
# PCOD8045480 Si02
#       6
#     2   2   2   2   2   2
#     4  11  24  47  74  97 125 175 225 271 335 430
#     4  12  24  37  64  93 131 176 237 260 302 388
#     4  12  25  41  63  99 135 173 211 281 330 370
#     4  11  23  43  70  96 133 175 223 268 340 400
#     4  11  23  41  63  90 131 184 224 261 312 388
#     4  11  25  42  64  94 136 166 215 279 343 376
#
# _framework density 21.617739
#
# number of rings (size 3 to 8) (size 9 to 14) (size 15 to 20)
#    0.000    0.667    1.667    8.000    2.333    4.000 
#    0.000    5.000    0.000    0.000    0.000    0.000 
#    0.000    0.000    0.000    0.000    0.000    0.000 
#
# Total GULP energy -148805.310879 kJ/mol
# GULP energy per Si atom -12400.442573 kJ/mol
# Density = 2.156854 g / cm^3
# Si number density = 21.617739 Si / 1000 Ang^3
#
#
#
# Elastic Constant Matrix: (Units=GPa)
#
#
# Indices 1 2 3 4 5 6 
#
# 1 94.9177 36.5236 49.3188 0.0000 4.8396 0.0000
# 2 36.5236 154.6144 55.8169 0.0000 -0.5939 0.0000
# 3 49.3188 55.8169 113.6543 0.0000 -8.5068 0.0000
# 4 0.0000 0.0000 0.0000 43.0643 0.0000 -1.4092
# 5 4.8396 -0.5939 -8.5068 0.0000 26.4802 0.0000
# 6 0.0000 0.0000 0.0000 -1.4092 0.0000 31.0408
#
#
#
# Elastic Compliance Matrix: (Units=1/GPa)
#
#
# Indices 1 2 3 4 5 6 
#
# 1 0.014342 -0.001259 -0.005947 0.000000 -0.004560 0.000000
# 2 -0.001259 0.008003 -0.003436 0.000000 -0.000694 0.000000
# 3 -0.005947 -0.003436 0.013466 0.000000 0.005336 0.000000
# 4 0.000000 0.000000 0.000000 0.023256 0.000000 0.001056
# 5 -0.004560 -0.000694 0.005336 0.000000 0.040296 0.000000
# 6 0.000000 0.000000 0.000000 0.001056 0.000000 0.032264
#
#
# Mechanical properties :
#
#
# Convention : Reuss Voigt Hill
#
# Bulk Modulus (GPa) = 68.83251 71.83390 70.33320
# Shear Modulus (GPa) = 31.69538 34.88554 33.29046
#
# Velocity S-wave (km/s) = 3.83322 4.02150 3.92849
# Velocity P-wave (km/s) = 7.17644 7.40706 7.29266
#
# Compressibility (1/GPa) = 0.01452802
#
# Stress axis : x y z
#
# Youngs Moduli (GPa) = 69.72450 124.95615 74.26121
#
# Poissons Ratio (x) = 0.15728 0.44161
# Poissons Ratio (y) = 0.08776 0.25517
# Poissons Ratio (z) = 0.41463 0.42936
#
# Static dielectric constant tensor:
#      x y z
#    x 3.652050 0.000000 0.086340 
#    y 0.000000 4.003120 0.000000 
#    z 0.086340 0.000000 4.118080 
# 
# 
# High freq. dielectric constant tensor:
#      x y z
#    x 1.826020 0.000000 -0.002010 
#    y 0.000000 1.872530 0.000000 
#    z -0.002010 0.000000 1.851190 
# 
# From -- ./inp_files/16033.got.cif
#   From: 2010.03.12/outbox.cif.g09.slc.cpg/sg3_9_cif.got.tgz:16033.got - 2010.03.31 09:20:49.
