data_PCOD8045289
_publ_section_title
;
Structure prediction by ZEFSAII (Michael W. Deem and Ramdas Pophale) SiO2 
 PCOD8045289
Probable space group: P 2
;
_chemical_formula_sum "Si O2"
_cell_formula_units_Z 14
_cell_length_a 6.937321
_cell_length_b 6.101296
_cell_length_c 15.618012
_cell_angle_alpha 90.000000
_cell_angle_beta 70.320924
_cell_angle_gamma 90.000000
_cell_volume 622.448077
_symmetry_space_group_name_H-M "P 2"
_symmetry_group_IT_number 3
_symmetry_cell_setting 'monoclinic'
loop_
_space_group_symop_operation_xyz
x,y,z
-x,y,-z
loop_
_atom_site_type_symbol
_atom_site_label
_atom_site_fract_x
_atom_site_fract_y
_atom_site_fract_z
Si Si1 0.000000 0.958660 0.500000
Si Si2 0.962392 0.459033 0.101390
Si Si3 0.678065 0.888509 0.780839
Si Si4 0.951649 0.648803 0.350106
Si Si5 0.000000 0.872410 0.000000
Si Si6 0.391471 0.561623 0.731400
Si Si7 0.231377 0.270220 0.354118
Si Si8 0.290413 0.137602 0.059765
O O1 0.083284 0.808698 0.564409
O O2 0.809806 0.108612 0.559487
O O3 0.974318 0.723521 0.090193
O O4 0.747157 0.413527 0.182320
O O5 0.142754 0.326080 0.124270
O O6 0.000000 0.361099 0.000000
O O7 0.874473 0.733975 0.740197
O O8 0.480188 0.769166 0.770149
O O9 0.715973 0.125713 0.735287
O O10 0.651963 0.939873 0.884550
O O11 0.022978 0.409529 0.371581
O O12 0.742978 0.641799 0.328247
O O13 0.195840 0.023115 0.989158
O O14 0.573914 0.425944 0.659678
O O15 0.500000 0.257310 0.000000
#
# Coordination Sequence:
#
# PCOD8045289 Si02
#       8
#     1   2   2   2   1   2   2   2
#     4  10  22  46  70 104 140 172 222 272 348 406
#     4  10  24  41  63  94 136 178 237 283 330 392
#     4  10  24  40  65  98 130 176 225 283 335 400
#     4  10  22  45  69  99 138 177 220 278 341 405
#     4  10  22  42  58  88 126 174 224 292 334 384
#     4  11  23  44  68  98 136 184 225 277 346 395
#     4  10  23  43  71  98 134 176 219 279 332 413
#     4  12  24  40  64  93 128 175 232 283 338 394
#
# _framework density 22.491834999999998
#
# number of rings (size 3 to 8) (size 9 to 14) (size 15 to 20)
#    0.429    1.143    0.714    3.000    2.000    6.286 
#    0.000   17.143    0.000    0.000    0.000    0.000 
#    0.000    0.000    0.000    0.000    0.000    0.000 
#
# Total GULP energy -173462.558628 kJ/mol
# GULP energy per Si atom -12390.182759 kJ/mol
# Density = 2.244064 g / cm^3
# Si number density = 22.491835 Si / 1000 Ang^3
#
#
#
# Elastic Constant Matrix: (Units=GPa)
#
#
# Indices 1 2 3 4 5 6 
#
# 1 160.9390 69.5827 54.7652 0.0000 7.4956 0.0000
# 2 69.5827 122.6353 38.7534 0.0000 4.9171 0.0000
# 3 54.7652 38.7534 111.8193 0.0000 3.8079 0.0000
# 4 0.0000 0.0000 0.0000 28.5463 0.0000 -2.6891
# 5 7.4956 4.9171 3.8079 0.0000 28.3888 0.0000
# 6 0.0000 0.0000 0.0000 -2.6891 0.0000 29.8650
#
#
#
# Elastic Compliance Matrix: (Units=1/GPa)
#
#
# Indices 1 2 3 4 5 6 
#
# 1 0.009082 -0.004166 -0.002961 0.000000 -0.001279 0.000000
# 2 -0.004166 0.011107 -0.001789 0.000000 -0.000584 0.000000
# 3 -0.002961 -0.001789 0.011026 0.000000 -0.000387 0.000000
# 4 0.000000 0.000000 0.000000 0.035330 0.000000 0.003181
# 5 -0.001279 -0.000584 -0.000387 0.000000 0.035716 0.000000
# 6 0.000000 0.000000 0.000000 0.003181 0.000000 0.033770
#
#
# Mechanical properties :
#
#
# Convention : Reuss Voigt Hill
#
# Bulk Modulus (GPa) = 74.71897 80.17735 77.44816
# Shear Modulus (GPa) = 31.58077 32.84617 32.21347
#
# Velocity S-wave (km/s) = 3.75120 3.82561 3.78859
# Velocity P-wave (km/s) = 7.21489 7.43226 7.32438
#
# Compressibility (1/GPa) = 0.01338348
#
# Stress axis : x y z
#
# Youngs Moduli (GPa) = 110.11069 90.03452 90.69335
#
# Poissons Ratio (x) = 0.37510 0.26850
# Poissons Ratio (y) = 0.45874 0.16225
# Poissons Ratio (z) = 0.32598 0.16107
#
# Static dielectric constant tensor:
#      x y z
#    x 3.920020 0.000000 -0.064270 
#    y 0.000000 4.102090 0.000000 
#    z -0.064270 0.000000 3.908450 
# 
# 
# High freq. dielectric constant tensor:
#      x y z
#    x 1.875960 0.000000 -0.003060 
#    y 0.000000 1.896400 0.000000 
#    z -0.003060 0.000000 1.879100 
# 
# From -- ./inp_files/14588.got.cif
#   From: 2010.03.12/outbox.cif.g09.slc.cpg/sg3_8_cif.got.tgz:14588.got - 2010.03.31 09:20:49.
