data_PCOD8045799
_publ_section_title
;
Structure prediction by ZEFSAII (Michael W. Deem and Ramdas Pophale) SiO2 
 PCOD8045799
Probable space group: P 21
;
_chemical_formula_sum "Si O2"
_cell_formula_units_Z 16
_cell_length_a 9.167157
_cell_length_b 12.838303
_cell_length_c 7.300679
_cell_angle_alpha 90.000000
_cell_angle_beta 49.012547
_cell_angle_gamma 90.000000
_cell_volume 648.586735
_symmetry_space_group_name_H-M "P 21"
_symmetry_group_IT_number 4
_symmetry_cell_setting 'monoclinic'
loop_
_space_group_symop_operation_xyz
x,y,z
-x,1/2+y,-z
loop_
_atom_site_type_symbol
_atom_site_label
_atom_site_fract_x
_atom_site_fract_y
_atom_site_fract_z
Si Si1 0.461302 0.966270 0.170358
Si Si2 0.886188 0.204437 0.849427
Si Si3 0.042238 0.508394 0.598434
Si Si4 0.220815 0.165748 0.347683
Si Si5 0.560754 0.235484 0.841040
Si Si6 0.465542 0.528956 0.304685
Si Si7 0.112639 0.477162 0.126039
Si Si8 0.184941 0.902706 0.903900
O O1 0.370566 0.850499 0.278823
O O2 0.326251 0.062138 0.352020
O O3 0.495004 0.984840 0.928977
O O4 0.664321 0.957524 0.108988
O O5 0.734417 0.180915 0.809948
O O6 0.928054 0.094219 0.909487
O O7 0.785398 0.280226 0.079731
O O8 0.100197 0.235804 0.594350
O O9 0.243686 0.510148 0.544990
O O10 0.068194 0.458107 0.376388
O O11 0.940934 0.621904 0.661351
O O12 0.892776 0.440290 0.835814
O O13 0.371229 0.243884 0.128075
O O14 0.505056 0.155364 0.722173
O O15 0.617758 0.466473 0.310598
O O16 0.969303 0.404446 0.130710
#
# Coordination Sequence:
#
# PCOD8045799 Si02
#       8
#     2   2   2   2   2   2   2   2
#     4  10  19  38  65  90 133 178 215 278 334 394
#     4  11  22  39  66  96 131 182 226 273 351 402
#     4  10  20  43  64  94 131 180 211 272 337 388
#     4  10  19  37  66  95 125 178 229 269 333 405
#     4  11  18  36  67  97 130 181 225 271 345 402
#     4  10  20  37  62  98 131 166 227 273 320 407
#     4  10  24  44  62  96 141 166 224 283 331 403
#     4  12  24  42  68 100 132 179 225 279 337 405
#
# _framework density 24.669022999999999
#
# number of rings (size 3 to 8) (size 9 to 14) (size 15 to 20)
#    0.000    1.500    8.750    0.000    3.500    1.000 
#    4.500    0.000    0.000    0.000    0.000    0.000 
#    0.000    0.000    0.000    0.000    0.000    0.000 
#
# Total GULP energy -198237.901147 kJ/mol
# GULP energy per Si atom -12389.868822 kJ/mol
# Density = 2.461287 g / cm^3
# Si number density = 24.669023 Si / 1000 Ang^3
#
#
#
# Elastic Constant Matrix: (Units=GPa)
#
#
# Indices 1 2 3 4 5 6 
#
# 1 101.0298 0.9782 23.5854 0.0000 -34.4482 0.0000
# 2 0.9782 63.6457 8.6427 0.0000 -0.8969 0.0000
# 3 23.5854 8.6427 61.8866 0.0000 -34.5468 0.0000
# 4 0.0000 0.0000 0.0000 24.9821 0.0000 -7.4761
# 5 -34.4482 -0.8969 -34.5468 0.0000 38.5087 0.0000
# 6 0.0000 0.0000 0.0000 -7.4761 0.0000 25.8281
#
#
#
# Elastic Compliance Matrix: (Units=1/GPa)
#
#
# Indices 1 2 3 4 5 6 
#
# 1 0.014617 -0.000482 0.003585 0.000000 0.016281 0.000000
# 2 -0.000482 0.016240 -0.004234 0.000000 -0.003852 0.000000
# 3 0.003585 -0.004234 0.034292 0.000000 0.033872 0.000000
# 4 0.000000 0.000000 0.000000 0.043825 0.000000 0.012685
# 5 0.016281 -0.003852 0.033872 0.000000 0.070830 0.000000
# 6 0.000000 0.000000 0.000000 0.012685 0.000000 0.042389
#
#
# Mechanical properties :
#
#
# Convention : Reuss Voigt Hill
#
# Bulk Modulus (GPa) = 15.90172 32.55275 24.22723
# Shear Modulus (GPa) = 20.37336 30.75418 25.56377
#
# Velocity S-wave (km/s) = 2.87691 3.53465 3.22261
# Velocity P-wave (km/s) = 4.18276 5.46652 4.86715
#
# Compressibility (1/GPa) = 0.06288629
#
# Stress axis : x y z
#
# Youngs Moduli (GPa) = 68.41323 61.57591 29.16121
#
# Poissons Ratio (x) = 0.02968 -0.10454
# Poissons Ratio (y) = 0.03298 0.12348
# Poissons Ratio (z) = -0.24526 0.26074
#
# Static dielectric constant tensor:
#      x y z
#    x 4.295590 0.000000 -0.654010 
#    y 0.000000 4.312900 0.000000 
#    z -0.654010 0.000000 4.431100 
# 
# 
# High freq. dielectric constant tensor:
#      x y z
#    x 1.959320 0.000000 -0.043780 
#    y 0.000000 1.974070 0.000000 
#    z -0.043780 0.000000 1.967960 
# 
# From -- ./inp_files/6584.got.cif
#   From: 2010.03.12/outbox.cif.g09.slc.cpg/sg4_4_cif.got.tgz:6584.got - 2010.03.31 09:31:35.
