data_PCOD8045039
_publ_section_title
;
Structure prediction by ZEFSAII (Michael W. Deem and Ramdas Pophale) SiO2 
 PCOD8045039
Probable space group: P 2
;
_chemical_formula_sum "Si O2"
_cell_formula_units_Z 14
_cell_length_a 8.401705
_cell_length_b 9.187038
_cell_length_c 8.949723
_cell_angle_alpha 90.000000
_cell_angle_beta 95.927629
_cell_angle_gamma 90.000000
_cell_volume 687.106711
_symmetry_space_group_name_H-M "P 2"
_symmetry_group_IT_number 3
_symmetry_cell_setting 'monoclinic'
loop_
_space_group_symop_operation_xyz
x,y,z
-x,y,-z
loop_
_atom_site_type_symbol
_atom_site_label
_atom_site_fract_x
_atom_site_fract_y
_atom_site_fract_z
Si Si1 0.876224 0.822670 0.614371
Si Si2 0.786864 0.330798 0.728905
Si Si3 0.000000 0.225792 0.500000
Si Si4 0.000000 0.224507 0.000000
Si Si5 0.597339 0.610201 0.662040
Si Si6 0.879292 0.017970 0.233039
Si Si7 0.450165 0.849126 0.825702
Si Si8 0.634184 0.045233 0.623223
O O1 0.769394 0.689586 0.661318
O O2 0.000000 0.768496 0.500000
O O3 0.762240 0.952077 0.537436
O O4 0.975739 0.900223 0.757645
O O5 0.897419 0.334661 0.886814
O O6 0.647965 0.450861 0.723523
O O7 0.706373 0.173776 0.725580
O O8 0.887168 0.335133 0.583770
O O9 0.105051 0.123206 0.620086
O O10 0.114101 0.121044 0.911332
O O11 0.500000 0.601143 0.500000
O O12 0.474133 0.682740 0.769146
O O13 0.721535 0.919292 0.218271
O O14 0.577245 0.933995 0.740924
O O15 0.500000 0.857313 0.000000
O O16 0.500000 0.106616 0.500000
#
# Coordination Sequence:
#
# PCOD8045039 Si02
#       8
#     2   2   1   1   2   2   2   2
#     4  11  19  36  63  95 121 156 211 268 309 358
#     4  11  22  42  61  91 130 162 210 255 318 378
#     4  10  20  36  68 102 112 160 220 274 308 354
#     4  10  22  40  66  98 122 162 214 270 310 370
#     4  11  26  42  60  91 132 171 209 253 318 379
#     4  11  20  38  69  96 122 154 221 271 313 359
#     4  11  24  41  61  94 129 167 208 257 319 380
#     4  11  20  36  66  94 122 159 210 268 315 360
#
# _framework density 20.37529
#
# number of rings (size 3 to 8) (size 9 to 14) (size 15 to 20)
#    0.000    1.143    3.571    5.571    3.000    0.000 
#    2.571    3.571    0.000    0.000    0.000    0.000 
#    0.000    0.000    0.000    0.000    0.000    0.000 
#
# Total GULP energy -173490.465879 kJ/mol
# GULP energy per Si atom -12392.176134 kJ/mol
# Density = 2.032891 g / cm^3
# Si number density = 20.375290 Si / 1000 Ang^3
#
#
#
# Elastic Constant Matrix: (Units=GPa)
#
#
# Indices 1 2 3 4 5 6 
#
# 1 66.8926 -7.6664 18.2370 0.0000 -6.6394 0.0000
# 2 -7.6664 34.8003 0.8801 0.0000 -10.8778 0.0000
# 3 18.2370 0.8801 110.6005 0.0000 8.2522 0.0000
# 4 0.0000 0.0000 0.0000 20.2511 0.0000 6.6811
# 5 -6.6394 -10.8778 8.2522 0.0000 27.3288 0.0000
# 6 0.0000 0.0000 0.0000 6.6811 0.0000 41.9800
#
#
#
# Elastic Compliance Matrix: (Units=1/GPa)
#
#
# Indices 1 2 3 4 5 6 
#
# 1 0.017412 0.006370 -0.003506 0.000000 0.007824 0.000000
# 2 0.006370 0.035323 -0.002554 0.000000 0.016378 0.000000
# 3 -0.003506 -0.002554 0.010005 0.000000 -0.004889 0.000000
# 4 0.000000 0.000000 0.000000 0.052117 0.000000 -0.008294
# 5 0.007824 0.016378 -0.004889 0.000000 0.046488 0.000000
# 6 0.000000 0.000000 0.000000 -0.008294 0.000000 0.025141
#
#
# Mechanical properties :
#
#
# Convention : Reuss Voigt Hill
#
# Bulk Modulus (GPa) = 15.78250 26.13276 20.95763
# Shear Modulus (GPa) = 24.15660 31.30147 27.72904
#
# Velocity S-wave (km/s) = 3.44697 3.92375 3.69306
# Velocity P-wave (km/s) = 4.85848 5.77766 5.33789
#
# Compressibility (1/GPa) = 0.06336132
#
# Stress axis : x y z
#
# Youngs Moduli (GPa) = 57.43263 28.31033 99.95315
#
# Poissons Ratio (x) = -0.18034 0.35039
# Poissons Ratio (y) = -0.36585 0.25523
# Poissons Ratio (z) = 0.20133 0.07229
#
# Static dielectric constant tensor:
#      x y z
#    x 4.030580 0.000000 -0.125530 
#    y 0.000000 3.587870 0.000000 
#    z -0.125530 0.000000 3.851310 
# 
# 
# High freq. dielectric constant tensor:
#      x y z
#    x 1.807020 0.000000 0.003480 
#    y 0.000000 1.781070 0.000000 
#    z 0.003480 0.000000 1.793770 
# 
# From -- ./inp_files/5384.got.cif
#   From: 2010.03.12/outbox.cif.g09.slc.cpg/sg3_3_cif.got.tgz:5384.got - 2010.03.31 09:20:49.
