data_PCOD8045498
_publ_section_title
;
Structure prediction by ZEFSAII (Michael W. Deem and Ramdas Pophale) SiO2 
 PCOD8045498
Probable space group: P 2
;
_chemical_formula_sum "Si O2"
_cell_formula_units_Z 10
_cell_length_a 5.738732
_cell_length_b 7.690505
_cell_length_c 10.151078
_cell_angle_alpha 90.000000
_cell_angle_beta 113.409346
_cell_angle_gamma 90.000000
_cell_volume 411.129734
_symmetry_space_group_name_H-M "P 2"
_symmetry_group_IT_number 3
_symmetry_cell_setting 'monoclinic'
loop_
_space_group_symop_operation_xyz
x,y,z
-x,y,-z
loop_
_atom_site_type_symbol
_atom_site_label
_atom_site_fract_x
_atom_site_fract_y
_atom_site_fract_z
Si Si1 0.281746 0.287990 0.348717
Si Si2 0.701224 0.680999 0.654671
Si Si3 0.290329 0.751341 0.063299
Si Si4 0.054520 0.975987 0.661251
Si Si5 0.439687 0.114076 0.126161
O O1 0.500000 0.231998 0.500000
O O2 0.201514 0.486707 0.356763
O O3 0.358066 0.259389 0.212787
O O4 0.045615 0.167072 0.325621
O O5 0.500000 0.743802 0.500000
O O6 0.576846 0.684403 0.771134
O O7 0.932544 0.818534 0.716782
O O8 0.240173 0.961234 0.046780
O O9 0.500000 0.692646 0.000000
O O10 0.000000 0.669024 0.000000
O O11 0.346703 0.989850 0.761279
O O12 0.000000 0.926528 0.500000
O O13 0.500000 0.210253 0.000000
#
# Coordination Sequence:
#
# PCOD8045498 Si02
#       5
#     2   2   2   2   2
#     4  11  24  45  67 104 138 180 241 297 357 431
#     4  11  24  44  72 104 138 182 245 295 361 431
#     4  11  24  46  72 108 145 189 237 297 363 434
#     4  12  23  44  73  99 139 190 237 297 366 426
#     4  11  24  42  72  99 138 185 234 291 360 432
#
# _framework density 24.323222999999999
#
# number of rings (size 3 to 8) (size 9 to 14) (size 15 to 20)
#    0.000    0.800    4.000    4.200    0.000    1.600 
#   10.800    0.000    0.000    0.000    0.000    0.000 
#    0.000    0.000    0.000    0.000    0.000    0.000 
#
# Total GULP energy -123923.896516 kJ/mol
# GULP energy per Si atom -12392.389652 kJ/mol
# Density = 2.426786 g / cm^3
# Si number density = 24.323223 Si / 1000 Ang^3
#
#
#
# Elastic Constant Matrix: (Units=GPa)
#
#
# Indices 1 2 3 4 5 6 
#
# 1 106.6909 11.2354 25.1608 0.0000 -2.7112 0.0000
# 2 11.2354 85.1984 -23.3118 0.0000 0.4352 0.0000
# 3 25.1608 -23.3118 127.5223 0.0000 -29.2628 0.0000
# 4 0.0000 0.0000 0.0000 21.0630 0.0000 -5.2407
# 5 -2.7112 0.4352 -29.2628 0.0000 37.7387 0.0000
# 6 0.0000 0.0000 0.0000 -5.2407 0.0000 8.4753
#
#
#
# Elastic Compliance Matrix: (Units=1/GPa)
#
#
# Indices 1 2 3 4 5 6 
#
# 1 0.010194 -0.002075 -0.002697 0.000000 -0.001335 0.000000
# 2 -0.002075 0.012898 0.003283 0.000000 0.002248 0.000000
# 3 -0.002697 0.003283 0.010852 0.000000 0.008183 0.000000
# 4 0.000000 0.000000 0.000000 0.056109 0.000000 0.034695
# 5 -0.001335 0.002248 0.008183 0.000000 0.032721 0.000000
# 6 0.000000 0.000000 0.000000 0.034695 0.000000 0.139444
#
#
# Mechanical properties :
#
#
# Convention : Reuss Voigt Hill
#
# Bulk Modulus (GPa) = 32.29483 38.39782 35.34633
# Shear Modulus (GPa) = 18.14767 33.87723 26.01245
#
# Velocity S-wave (km/s) = 2.73446 3.73606 3.27379
# Velocity P-wave (km/s) = 4.82451 5.86785 5.37157
#
# Compressibility (1/GPa) = 0.03096471
#
# Stress axis : x y z
#
# Youngs Moduli (GPa) = 98.10155 77.53245 92.15045
#
# Poissons Ratio (x) = 0.16091 0.24853
# Poissons Ratio (y) = 0.20360 -0.30254
# Poissons Ratio (z) = 0.26458 -0.25455
#
# Static dielectric constant tensor:
#      x y z
#    x 4.302480 0.000000 -0.141930 
#    y 0.000000 3.954300 0.000000 
#    z -0.141930 0.000000 4.801340 
# 
# 
# High freq. dielectric constant tensor:
#      x y z
#    x 1.950030 0.000000 -0.007460 
#    y 0.000000 1.943720 0.000000 
#    z -0.007460 0.000000 1.997020 
# 
# From -- ./inp_files/3118.got.cif
#   From: 2010.03.12/outbox.cif.g09.slc.cpg/sg3_2_cif.got.tgz:3118.got - 2010.03.31 09:20:49.
