data_PCOD8045288
_publ_section_title
;
Structure prediction by ZEFSAII (Michael W. Deem and Ramdas Pophale) SiO2 
 PCOD8045288
Probable space group: P 2
;
_chemical_formula_sum "Si O2"
_cell_formula_units_Z 12
_cell_length_a 7.569213
_cell_length_b 6.981361
_cell_length_c 14.066827
_cell_angle_alpha 90.000000
_cell_angle_beta 44.547325
_cell_angle_gamma 90.000000
_cell_volume 521.450995
_symmetry_space_group_name_H-M "P 2"
_symmetry_group_IT_number 3
_symmetry_cell_setting 'monoclinic'
loop_
_space_group_symop_operation_xyz
x,y,z
-x,y,-z
loop_
_atom_site_type_symbol
_atom_site_label
_atom_site_fract_x
_atom_site_fract_y
_atom_site_fract_z
Si Si1 0.026869 0.003640 0.598366
Si Si2 0.500000 0.810198 0.500000
Si Si3 0.983716 0.219595 0.794882
Si Si4 0.500000 0.424250 0.000000
Si Si5 0.731631 0.569302 0.247750
Si Si6 0.895811 0.872998 0.945375
Si Si7 0.590961 0.705382 0.802793
O O1 0.967129 0.192181 0.686529
O O2 0.000000 0.073025 0.500000
O O3 0.313678 0.942451 0.509495
O O4 0.844555 0.820132 0.683791
O O5 0.657422 0.674769 0.371600
O O6 0.218238 0.347070 0.742827
O O7 0.005676 0.997912 0.817472
O O8 0.730268 0.291437 0.944489
O O9 0.363740 0.542406 0.136241
O O10 0.518248 0.601372 0.249465
O O11 0.994668 0.657984 0.109054
O O12 0.596963 0.855271 0.073223
O O13 0.000000 0.972962 0.000000
#
# Coordination Sequence:
#
# PCOD8045288 Si02
#       7
#     2   1   2   1   2   2   2
#     4  12  26  49  77 106 150 206 250 307 377 451
#     4  12  24  52  74 100 146 204 256 300 376 448
#     4  12  25  44  72 111 144 190 247 315 370 437
#     4  12  24  40  70 108 150 186 246 310 376 448
#     4  11  24  46  73 103 145 198 243 313 368 444
#     4  10  22  41  74 103 142 183 238 305 378 438
#     4  11  23  47  75 107 150 197 247 304 386 446
#
# _framework density 23.012708
#
# number of rings (size 3 to 8) (size 9 to 14) (size 15 to 20)
#    0.000    0.667    5.000    3.000    2.333    0.667 
#    6.000    0.000    0.000    0.000    0.000    0.000 
#    0.000    0.000    0.000    0.000    0.000    0.000 
#
# Total GULP energy -148749.437428 kJ/mol
# GULP energy per Si atom -12395.786452 kJ/mol
# Density = 2.296033 g / cm^3
# Si number density = 23.012708 Si / 1000 Ang^3
#
#
#
# Elastic Constant Matrix: (Units=GPa)
#
#
# Indices 1 2 3 4 5 6 
#
# 1 128.7277 44.5252 35.0329 0.0000 10.8934 0.0000
# 2 44.5252 99.1004 25.6056 0.0000 6.3364 0.0000
# 3 35.0329 25.6056 85.8235 0.0000 10.5959 0.0000
# 4 0.0000 0.0000 0.0000 30.5323 0.0000 7.9705
# 5 10.8934 6.3364 10.5959 0.0000 48.8950 0.0000
# 6 0.0000 0.0000 0.0000 7.9705 0.0000 29.5285
#
#
#
# Elastic Compliance Matrix: (Units=1/GPa)
#
#
# Indices 1 2 3 4 5 6 
#
# 1 0.009889 -0.003645 -0.002811 0.000000 -0.001122 0.000000
# 2 -0.003645 0.012303 -0.002143 0.000000 -0.000318 0.000000
# 3 -0.002811 -0.002143 0.013693 0.000000 -0.002063 0.000000
# 4 0.000000 0.000000 0.000000 0.035235 0.000000 -0.009511
# 5 -0.001122 -0.000318 -0.002063 0.000000 0.021190 0.000000
# 6 0.000000 0.000000 0.000000 -0.009511 0.000000 0.036433
#
#
# Mechanical properties :
#
#
# Convention : Reuss Voigt Hill
#
# Bulk Modulus (GPa) = 53.51392 58.21989 55.86691
# Shear Modulus (GPa) = 32.85795 35.69035 34.27415
#
# Velocity S-wave (km/s) = 3.78275 3.94242 3.86341
# Velocity P-wave (km/s) = 6.51026 6.78804 6.65060
#
# Compressibility (1/GPa) = 0.01868673
#
# Stress axis : x y z
#
# Youngs Moduli (GPa) = 101.12287 81.28353 73.02818
#
# Poissons Ratio (x) = 0.29629 0.20526
# Poissons Ratio (y) = 0.36860 0.15653
# Poissons Ratio (z) = 0.28422 0.17422
#
# Static dielectric constant tensor:
#      x y z
#    x 4.289520 0.000000 0.250570 
#    y 0.000000 3.895460 0.000000 
#    z 0.250570 0.000000 4.262820 
# 
# 
# High freq. dielectric constant tensor:
#      x y z
#    x 1.917680 0.000000 0.007900 
#    y 0.000000 1.893490 0.000000 
#    z 0.007900 0.000000 1.914800 
# 
# From -- ./inp_files/13234.got.cif
#   From: 2010.03.12/outbox.cif.g09.slc.cpg/sg3_7_cif.got.tgz:13234.got - 2010.03.31 09:20:49.
