data_PCOD8045526
_publ_section_title
;
Structure prediction by ZEFSAII (Michael W. Deem and Ramdas Pophale) SiO2 
 PCOD8045526
Probable space group: P 2
;
_chemical_formula_sum "Si O2"
_cell_formula_units_Z 16
_cell_length_a 22.018399
_cell_length_b 5.308324
_cell_length_c 9.846376
_cell_angle_alpha 90.000000
_cell_angle_beta 143.435710
_cell_angle_gamma 90.000000
_cell_volume 685.590771
_symmetry_space_group_name_H-M "P 2"
_symmetry_group_IT_number 3
_symmetry_cell_setting 'monoclinic'
loop_
_space_group_symop_operation_xyz
x,y,z
-x,y,-z
loop_
_atom_site_type_symbol
_atom_site_label
_atom_site_fract_x
_atom_site_fract_y
_atom_site_fract_z
Si Si1 0.336008 0.750000 0.964291
Si Si2 0.789507 0.635468 0.000313
Si Si3 0.179183 0.804916 0.460004
Si Si4 0.948783 0.304170 0.767985
Si Si5 0.915883 0.155006 0.236205
Si Si6 0.503372 0.438508 0.861666
Si Si7 0.315217 0.723030 0.448320
Si Si8 0.471054 0.048042 0.601433
O O1 0.379497 0.509858 0.959537
O O2 0.436208 0.920944 0.151695
O O3 0.298536 0.687590 0.047572
O O4 0.249685 0.874877 0.715905
O O5 0.844777 0.385673 0.159080
O O6 0.858481 0.888707 0.107831
O O7 0.744401 0.552645 0.770855
O O8 0.128978 0.533315 0.403794
O O9 0.235398 0.814906 0.416536
O O10 0.100498 0.030488 0.308894
O O11 0.034657 0.274587 0.809043
O O12 0.000000 0.383811 0.000000
O O13 0.000000 0.095240 0.500000
O O14 0.413486 0.644914 0.714702
O O15 0.458165 0.316058 0.646015
O O16 0.500000 0.289075 0.000000
O O17 0.359684 0.930079 0.422874
O O18 0.500000 0.081614 0.500000
#
# Coordination Sequence:
#
# PCOD8045526 Si02
#       8
#     2   2   2   2   2   2   2   2
#     4  11  26  43  66 107 142 191 240 288 356 416
#     4  12  26  44  76 103 142 185 242 293 350 441
#     4  12  26  44  76 103 142 185 242 293 350 441
#     4  12  26  48  72 103 140 183 234 301 370 420
#     4  12  26  48  72 103 140 183 234 301 370 420
#     4  11  26  44  69  99 153 189 238 295 355 423
#     4  11  26  43  66 107 142 191 240 288 356 416
#     4  11  26  44  69  99 153 189 238 295 355 423
#
# _framework density 23.337536
#
# number of rings (size 3 to 8) (size 9 to 14) (size 15 to 20)
#    0.000    0.500    2.500    4.500   10.500    0.000 
#    0.000    0.000    0.000    0.000    0.000    0.000 
#    0.000    0.000    0.000    0.000    0.000    0.000 
#
# Total GULP energy -198211.528506 kJ/mol
# GULP energy per Si atom -12388.220532 kJ/mol
# Density = 2.328442 g / cm^3
# Si number density = 23.337536 Si / 1000 Ang^3
#
#
#
# Elastic Constant Matrix: (Units=GPa)
#
#
# Indices 1 2 3 4 5 6 
#
# 1 128.3572 23.5906 16.7602 0.0000 -9.0041 0.0000
# 2 23.5906 88.1661 6.0614 0.0000 8.2603 0.0000
# 3 16.7602 6.0614 96.8857 0.0000 -4.0510 0.0000
# 4 0.0000 0.0000 0.0000 22.8637 0.0000 -9.8358
# 5 -9.0041 8.2603 -4.0510 0.0000 40.5651 0.0000
# 6 0.0000 0.0000 0.0000 -9.8358 0.0000 19.0413
#
#
#
# Elastic Compliance Matrix: (Units=1/GPa)
#
#
# Indices 1 2 3 4 5 6 
#
# 1 0.008555 -0.002417 -0.001234 0.000000 0.002268 0.000000
# 2 -0.002417 0.012312 -0.000481 0.000000 -0.003092 0.000000
# 3 -0.001234 -0.000481 0.010602 0.000000 0.000883 0.000000
# 4 0.000000 0.000000 0.000000 0.056233 0.000000 0.029047
# 5 0.002268 -0.003092 0.000883 0.000000 0.025873 0.000000
# 6 0.000000 0.000000 0.000000 0.029047 0.000000 0.067522
#
#
# Mechanical properties :
#
#
# Convention : Reuss Voigt Hill
#
# Bulk Modulus (GPa) = 43.09513 45.13706 44.11610
# Shear Modulus (GPa) = 25.36834 34.29380 29.83107
#
# Velocity S-wave (km/s) = 3.30057 3.83752 3.57913
# Velocity P-wave (km/s) = 5.74727 6.24647 6.00207
#
# Compressibility (1/GPa) = 0.02320448
#
# Stress axis : x y z
#
# Youngs Moduli (GPa) = 116.88888 81.22402 94.32244
#
# Poissons Ratio (x) = 0.19630 0.11639
# Poissons Ratio (y) = 0.28249 0.04541
# Poissons Ratio (z) = 0.14423 0.03910
#
# Static dielectric constant tensor:
#      x y z
#    x 4.538360 0.000000 0.416730 
#    y 0.000000 4.099440 0.000000 
#    z 0.416730 0.000000 5.299340 
# 
# 
# High freq. dielectric constant tensor:
#      x y z
#    x 1.947650 0.000000 -0.000860 
#    y 0.000000 1.907670 0.000000 
#    z -0.000860 0.000000 1.940240 
# 
# From -- ./inp_files/9386.got.cif
#   From: 2010.03.12/outbox.cif.g09.slc.cpg/sg3_5_cif.got.tgz:9386.got - 2010.03.31 09:20:49.
