data_PCOD8045223
_publ_section_title
;
Structure prediction by ZEFSAII (Michael W. Deem and Ramdas Pophale) SiO2 
 PCOD8045223
Probable space group: P 2
;
_chemical_formula_sum "Si O2"
_cell_formula_units_Z 14
_cell_length_a 11.523931
_cell_length_b 8.845764
_cell_length_c 13.948410
_cell_angle_alpha 90.000000
_cell_angle_beta 28.081069
_cell_angle_gamma 90.000000
_cell_volume 669.304456
_symmetry_space_group_name_H-M "P 2"
_symmetry_group_IT_number 3
_symmetry_cell_setting 'monoclinic'
loop_
_space_group_symop_operation_xyz
x,y,z
-x,y,-z
loop_
_atom_site_type_symbol
_atom_site_label
_atom_site_fract_x
_atom_site_fract_y
_atom_site_fract_z
Si Si1 0.864489 0.396540 0.311336
Si Si2 0.148200 0.657069 0.034704
Si Si3 0.785684 0.918657 0.298786
Si Si4 0.488208 0.871326 0.901897
Si Si5 0.000000 0.158341 0.000000
Si Si6 0.942112 0.091520 0.752293
Si Si7 0.000000 0.008342 0.500000
Si Si8 0.664473 0.410591 0.241043
O O1 0.027212 0.252428 0.219883
O O2 0.761995 0.396669 0.278210
O O3 0.629899 0.402882 0.553338
O O4 0.036913 0.544037 0.196595
O O5 0.934238 0.771389 0.157031
O O6 0.374890 0.747697 0.913915
O O7 0.243877 0.565864 0.872641
O O8 0.500000 0.878300 0.500000
O O9 0.852828 0.058943 0.182852
O O10 0.855146 0.970552 0.356110
O O11 0.759723 0.904007 0.664272
O O12 0.500000 0.801621 0.000000
O O13 0.326213 0.025540 0.023856
O O14 0.795297 0.265245 0.094897
O O15 0.973271 0.110052 0.615049
#
# Coordination Sequence:
#
# PCOD8045223 Si02
#       8
#     2   2   2   2   1   2   1   2
#     4  11  23  40  60  87 137 173 212 259 321 383
#     4  11  24  40  62  93 130 177 213 258 324 394
#     4  11  25  38  63  97 133 171 217 265 325 389
#     4   9  22  44  70  93 123 161 220 282 327 373
#     4  12  22  36  60  88 126 174 222 258 306 382
#     4  10  21  43  66  95 123 170 215 275 322 377
#     4  10  22  44  72  94 120 162 228 280 326 376
#     4  11  23  39  60  88 134 184 209 253 317 393
#
# _framework density 20.917237
#
# number of rings (size 3 to 8) (size 9 to 14) (size 15 to 20)
#    0.000    1.429    2.857    0.857    4.000    9.143 
#    0.000    3.571    0.000    1.714    0.000    0.000 
#    0.000    0.000    0.000    0.000    0.000    0.000 
#
# Total GULP energy -173559.072686 kJ/mol
# GULP energy per Si atom -12397.076620 kJ/mol
# Density = 2.086963 g / cm^3
# Si number density = 20.917237 Si / 1000 Ang^3
#
#
#
# Elastic Constant Matrix: (Units=GPa)
#
#
# Indices 1 2 3 4 5 6 
#
# 1 94.4709 53.8384 49.6816 0.0000 -6.5757 0.0000
# 2 53.8384 149.0372 66.0714 0.0000 -5.1166 0.0000
# 3 49.6816 66.0714 145.3741 0.0000 -21.6983 0.0000
# 4 0.0000 0.0000 0.0000 23.3261 0.0000 3.7483
# 5 -6.5757 -5.1166 -21.6983 0.0000 35.2394 0.0000
# 6 0.0000 0.0000 0.0000 3.7483 0.0000 36.2843
#
#
#
# Elastic Compliance Matrix: (Units=1/GPa)
#
#
# Indices 1 2 3 4 5 6 
#
# 1 0.014435 -0.003799 -0.003179 0.000000 0.000185 0.000000
# 2 -0.003799 0.009452 -0.003192 0.000000 -0.001302 0.000000
# 3 -0.003179 -0.003192 0.010195 0.000000 0.005221 0.000000
# 4 0.000000 0.000000 0.000000 0.043594 0.000000 -0.004503
# 5 0.000185 -0.001302 0.005221 0.000000 0.031437 0.000000
# 6 0.000000 0.000000 0.000000 -0.004503 0.000000 0.028025
#
#
# Mechanical properties :
#
#
# Convention : Reuss Voigt Hill
#
# Bulk Modulus (GPa) = 72.76616 80.89610 76.83113
# Shear Modulus (GPa) = 30.85268 33.58936 32.22102
#
# Velocity S-wave (km/s) = 3.84472 4.01162 3.92906
# Velocity P-wave (km/s) = 7.38731 7.75988 7.57589
#
# Compressibility (1/GPa) = 0.01374265
#
# Stress axis : x y z
#
# Youngs Moduli (GPa) = 69.27674 105.79247 98.08418
#
# Poissons Ratio (x) = 0.40188 0.31181
# Poissons Ratio (y) = 0.26317 0.31310
# Poissons Ratio (z) = 0.22023 0.33771
#
# Static dielectric constant tensor:
#      x y z
#    x 3.836850 0.000000 -0.100830 
#    y 0.000000 3.836240 0.000000 
#    z -0.100830 0.000000 4.114660 
# 
# 
# High freq. dielectric constant tensor:
#      x y z
#    x 1.799350 0.000000 -0.001480 
#    y 0.000000 1.816650 0.000000 
#    z -0.001480 0.000000 1.834780 
# 
# From -- ./inp_files/13753.got.cif
#   From: 2010.03.12/outbox.cif.g09.slc.cpg/sg3_7_cif.got.tgz:13753.got - 2010.03.31 09:20:49.
