data_PCOD8045662
_publ_section_title
;
Structure prediction by ZEFSAII (Michael W. Deem and Ramdas Pophale) SiO2 
 PCOD8045662
Probable space group: P 21
;
_chemical_formula_sum "Si O2"
_cell_formula_units_Z 16
_cell_length_a 9.390297
_cell_length_b 8.721590
_cell_length_c 11.456334
_cell_angle_alpha 90.000000
_cell_angle_beta 123.741291
_cell_angle_gamma 90.000000
_cell_volume 780.209340
_symmetry_space_group_name_H-M "P 21"
_symmetry_group_IT_number 4
_symmetry_cell_setting 'monoclinic'
loop_
_space_group_symop_operation_xyz
x,y,z
-x,1/2+y,-z
loop_
_atom_site_type_symbol
_atom_site_label
_atom_site_fract_x
_atom_site_fract_y
_atom_site_fract_z
Si Si1 0.019644 0.060000 0.150160
Si Si2 0.871738 0.360523 0.007736
Si Si3 0.373115 0.224794 0.306588
Si Si4 0.820912 0.839281 0.464369
Si Si5 0.172537 0.486147 0.281372
Si Si6 0.531798 0.449464 0.766444
Si Si7 0.334426 0.793779 0.400693
Si Si8 0.911439 0.497838 0.573439
O O1 0.195846 0.144995 0.259843
O O2 0.889252 0.176983 0.028466
O O3 0.962212 0.011923 0.254946
O O4 0.049412 0.913482 0.081047
O O5 0.976245 0.450424 0.155852
O O6 0.668018 0.396223 0.927442
O O7 0.312640 0.401952 0.258572
O O8 0.499303 0.208815 0.473948
O O9 0.462893 0.137900 0.236722
O O10 0.790843 0.923227 0.572734
O O11 0.655844 0.876229 0.305389
O O12 0.845655 0.658291 0.490916
O O13 0.987859 0.909700 0.481264
O O14 0.202258 0.667393 0.290644
O O15 0.613073 0.403346 0.679584
O O16 0.250601 0.892927 0.466085
#
# Coordination Sequence:
#
# PCOD8045662 Si02
#       8
#     2   2   2   2   2   2   2   2
#     4  10  20  40  59  96 127 161 200 263 311 377
#     4  10  20  37  64  91 128 158 202 255 316 367
#     4  10  18  34  59  93 127 147 198 269 306 351
#     4  12  24  42  62  89 125 172 206 263 313 373
#     4  11  21  35  64  95 127 163 205 251 325 370
#     4  11  21  37  64  95 120 160 212 260 308 365
#     4  12  19  35  62  94 122 159 205 266 303 368
#     4  12  25  42  62  89 132 162 216 257 318 375
#
# _framework density 20.507314999999998
#
# number of rings (size 3 to 8) (size 9 to 14) (size 15 to 20)
#    0.000    1.000    7.500    1.500    1.750    0.000 
#    0.000    0.000    5.500    0.000    0.000    0.000 
#    0.000    0.000    0.000    0.000    0.000    0.000 
#
# Total GULP energy -198252.807423 kJ/mol
# GULP energy per Si atom -12390.800464 kJ/mol
# Density = 2.046064 g / cm^3
# Si number density = 20.507315 Si / 1000 Ang^3
#
#
#
# Elastic Constant Matrix: (Units=GPa)
#
#
# Indices 1 2 3 4 5 6 
#
# 1 60.5806 28.6351 11.4086 0.0000 7.7070 0.0000
# 2 28.6351 101.3001 16.9735 0.0000 -4.0877 0.0000
# 3 11.4086 16.9735 91.7615 0.0000 25.2490 0.0000
# 4 0.0000 0.0000 0.0000 35.9013 0.0000 -0.6950
# 5 7.7070 -4.0877 25.2490 0.0000 27.4403 0.0000
# 6 0.0000 0.0000 0.0000 -0.6950 0.0000 23.7352
#
#
#
# Elastic Compliance Matrix: (Units=1/GPa)
#
#
# Indices 1 2 3 4 5 6 
#
# 1 0.020180 -0.006086 0.000570 0.000000 -0.007099 0.000000
# 2 -0.006086 0.012427 -0.003377 0.000000 0.006668 0.000000
# 3 0.000570 -0.003377 0.015578 0.000000 -0.014997 0.000000
# 4 0.000000 0.000000 0.000000 0.027870 0.000000 0.000816
# 5 -0.007099 0.006668 -0.014997 0.000000 0.053230 0.000000
# 6 0.000000 0.000000 0.000000 0.000816 0.000000 0.042155
#
#
# Mechanical properties :
#
#
# Convention : Reuss Voigt Hill
#
# Bulk Modulus (GPa) = 32.89536 40.85296 36.87416
# Shear Modulus (GPa) = 25.08050 30.52369 27.80210
#
# Velocity S-wave (km/s) = 3.50094 3.86220 3.68600
# Velocity P-wave (km/s) = 5.69366 6.31294 6.01128
#
# Compressibility (1/GPa) = 0.03039942
#
# Stress axis : x y z
#
# Youngs Moduli (GPa) = 49.55509 80.47024 64.19245
#
# Poissons Ratio (x) = 0.48977 -0.03661
# Poissons Ratio (y) = 0.30161 0.21675
# Poissons Ratio (z) = -0.02826 0.27172
#
# Static dielectric constant tensor:
#      x y z
#    x 3.416310 0.000000 0.309380 
#    y 0.000000 4.181000 0.000000 
#    z 0.309380 0.000000 4.006200 
# 
# 
# High freq. dielectric constant tensor:
#      x y z
#    x 1.752510 0.000000 0.027460 
#    y 0.000000 1.821090 0.000000 
#    z 0.027460 0.000000 1.799640 
# 
# From -- ./inp_files/8019.got.cif
#   From: 2010.03.12/outbox.cif.g09.slc.cpg/sg4_5_cif.got.tgz:8019.got - 2010.03.31 09:31:35.
