data_PCOD8045176
_publ_section_title
;
Structure prediction by ZEFSAII (Michael W. Deem and Ramdas Pophale) SiO2 
 PCOD8045176
Probable space group: P 2
;
_chemical_formula_sum "Si O2"
_cell_formula_units_Z 14
_cell_length_a 17.003779
_cell_length_b 7.488926
_cell_length_c 8.700410
_cell_angle_alpha 90.000000
_cell_angle_beta 142.833192
_cell_angle_gamma 90.000000
_cell_volume 669.330412
_symmetry_space_group_name_H-M "P 2"
_symmetry_group_IT_number 3
_symmetry_cell_setting 'monoclinic'
loop_
_space_group_symop_operation_xyz
x,y,z
-x,y,-z
loop_
_atom_site_type_symbol
_atom_site_label
_atom_site_fract_x
_atom_site_fract_y
_atom_site_fract_z
Si Si1 0.352051 0.786040 0.748041
Si Si2 0.063370 0.641623 0.860211
Si Si3 0.228293 0.140078 0.484122
Si Si4 0.500000 0.572720 0.500000
Si Si5 0.886334 0.357927 0.433983
Si Si6 0.290011 0.490473 0.407393
Si Si7 0.000000 0.932520 0.000000
Si Si8 0.267383 0.652872 0.933887
O O1 0.298683 0.665359 0.526823
O O2 0.274514 0.759135 0.785998
O O3 0.340014 0.993784 0.685543
O O4 0.500000 0.730157 0.000000
O O5 0.143458 0.720432 0.839591
O O6 0.941470 0.520321 0.623412
O O7 0.005686 0.810893 0.857982
O O8 0.156028 0.514814 0.107002
O O9 0.159249 0.191052 0.536659
O O10 0.293208 0.315090 0.515302
O O11 0.125112 0.058708 0.204487
O O12 0.410544 0.460932 0.478078
O O13 0.600086 0.686196 0.761940
O O14 0.762606 0.441690 0.148302
O O15 0.000000 0.286087 0.500000
#
# Coordination Sequence:
#
# PCOD8045176 Si02
#       8
#     2   2   2   1   2   2   1   2
#     4  12  24  42  67  93 128 170 217 265 321 376
#     4  10  21  40  69  92 130 173 213 256 323 383
#     4  12  25  38  65 100 130 168 213 261 321 386
#     4  10  22  40  74  88 118 178 214 264 326 366
#     4  10  21  39  64  95 131 169 213 261 318 383
#     4  11  22  45  66  92 131 168 213 264 317 386
#     4  12  22  38  62 100 132 172 208 260 322 382
#     4  10  21  40  66  94 121 171 219 264 318 375
#
# _framework density 20.916426999999999
#
# number of rings (size 3 to 8) (size 9 to 14) (size 15 to 20)
#    0.000    1.143    4.286    2.571    0.000    2.857 
#    0.000    2.143    0.000    0.000    0.000    0.000 
#    0.000    0.000    0.000    0.000    0.000    0.000 
#
# Total GULP energy -173593.389239 kJ/mol
# GULP energy per Si atom -12399.527803 kJ/mol
# Density = 2.086882 g / cm^3
# Si number density = 20.916427 Si / 1000 Ang^3
#
#
#
# Elastic Constant Matrix: (Units=GPa)
#
#
# Indices 1 2 3 4 5 6 
#
# 1 114.4416 48.6271 13.9957 0.0000 -19.3407 0.0000
# 2 48.6271 100.2255 12.5190 0.0000 -7.5541 0.0000
# 3 13.9957 12.5190 83.6080 0.0000 -1.8045 0.0000
# 4 0.0000 0.0000 0.0000 21.1545 0.0000 -4.3211
# 5 -19.3407 -7.5541 -1.8045 0.0000 31.2536 0.0000
# 6 0.0000 0.0000 0.0000 -4.3211 0.0000 18.3167
#
#
#
# Elastic Compliance Matrix: (Units=1/GPa)
#
#
# Indices 1 2 3 4 5 6 
#
# 1 0.012172 -0.005300 -0.001110 0.000000 0.006187 0.000000
# 2 -0.005300 0.012655 -0.001014 0.000000 -0.000280 0.000000
# 3 -0.001110 -0.001014 0.012293 0.000000 -0.000222 0.000000
# 4 0.000000 0.000000 0.000000 0.049664 0.000000 0.011716
# 5 0.006187 -0.000280 -0.000222 0.000000 0.035744 0.000000
# 6 0.000000 0.000000 0.000000 0.011716 0.000000 0.057359
#
#
# Mechanical properties :
#
#
# Convention : Reuss Voigt Hill
#
# Bulk Modulus (GPa) = 44.90128 49.83984 47.37056
# Shear Modulus (GPa) = 24.73290 29.02052 26.87671
#
# Velocity S-wave (km/s) = 3.44243 3.72889 3.58852
# Velocity P-wave (km/s) = 6.10852 6.51301 6.31400
#
# Compressibility (1/GPa) = 0.02227108
#
# Stress axis : x y z
#
# Youngs Moduli (GPa) = 82.15824 79.02237 81.34440
#
# Poissons Ratio (x) = 0.41885 0.09032
# Poissons Ratio (y) = 0.43547 0.08245
# Poissons Ratio (z) = 0.09122 0.08010
#
# Static dielectric constant tensor:
#      x y z
#    x 4.066640 0.000000 -0.129930 
#    y 0.000000 3.404890 0.000000 
#    z -0.129930 0.000000 3.935610 
# 
# 
# High freq. dielectric constant tensor:
#      x y z
#    x 1.837060 0.000000 -0.005240 
#    y 0.000000 1.784020 0.000000 
#    z -0.005240 0.000000 1.832530 
# 
# From -- ./inp_files/8987.got.cif
#   From: 2010.03.12/outbox.cif.g09.slc.cpg/sg3_5_cif.got.tgz:8987.got - 2010.03.31 09:20:49.
