data_PCOD8045890
_publ_section_title
;
Structure prediction by ZEFSAII (Michael W. Deem and Ramdas Pophale) SiO2 
 PCOD8045890
Probable space group: P 21
;
_chemical_formula_sum "Si O2"
_cell_formula_units_Z 10
_cell_length_a 8.607061
_cell_length_b 5.089662
_cell_length_c 15.336234
_cell_angle_alpha 90.000000
_cell_angle_beta 132.565235
_cell_angle_gamma 90.000000
_cell_volume 494.811534
_symmetry_space_group_name_H-M "P 21"
_symmetry_group_IT_number 4
_symmetry_cell_setting 'monoclinic'
loop_
_space_group_symop_operation_xyz
x,y,z
-x,1/2+y,-z
loop_
_atom_site_type_symbol
_atom_site_label
_atom_site_fract_x
_atom_site_fract_y
_atom_site_fract_z
Si Si1 0.621973 0.439870 0.949144
Si Si2 0.246381 0.015740 0.357798
Si Si3 0.465170 0.511028 0.373223
Si Si4 0.502861 0.425976 0.188955
Si Si5 0.210298 0.682826 0.832175
O O1 0.665023 0.700003 0.906466
O O2 0.405105 0.479848 0.923401
O O3 0.593644 0.204074 0.871353
O O4 0.807700 0.370332 0.088653
O O5 0.294189 0.302536 0.339527
O O6 0.328007 0.989867 0.487698
O O7 0.993237 0.002842 0.261790
O O8 0.352806 0.794762 0.337182
O O9 0.541552 0.434514 0.306447
O O10 0.730036 0.361066 0.230034
#
# Coordination Sequence:
#
# PCOD8045890 Si02
#       5
#     2   2   2   2   2
#     4  10  20  35  62  86 123 151 198 256 300 355
#     4  10  23  39  64  82 125 168 198 242 312 369
#     4  10  22  43  56  89 125 161 202 251 300 363
#     4  10  20  37  61  86 123 154 197 261 291 350
#     4  10  21  38  63  91 116 162 201 246 307 363
#
# _framework density 20.209714000000002
#
# number of rings (size 3 to 8) (size 9 to 14) (size 15 to 20)
#    1.200    0.800    2.000    1.200    2.800    0.000 
#    3.600    4.000    0.000    0.000    0.000    0.000 
#    0.000    0.000    0.000    0.000    0.000    0.000 
#
# Total GULP energy -123919.951367 kJ/mol
# GULP energy per Si atom -12391.995137 kJ/mol
# Density = 2.016372 g / cm^3
# Si number density = 20.209714 Si / 1000 Ang^3
#
#
#
# Elastic Constant Matrix: (Units=GPa)
#
#
# Indices 1 2 3 4 5 6 
#
# 1 57.7921 13.7077 57.6232 0.0000 -17.3981 0.0000
# 2 13.7077 105.4765 32.9247 0.0000 -8.3773 0.0000
# 3 57.6232 32.9247 109.4214 0.0000 -15.6673 0.0000
# 4 0.0000 0.0000 0.0000 31.5440 0.0000 -2.5526
# 5 -17.3981 -8.3773 -15.6673 0.0000 37.0380 0.0000
# 6 0.0000 0.0000 0.0000 -2.5526 0.0000 21.9245
#
#
#
# Elastic Compliance Matrix: (Units=1/GPa)
#
#
# Indices 1 2 3 4 5 6 
#
# 1 0.040290 0.001945 -0.020256 0.000000 0.010797 0.000000
# 2 0.001945 0.010600 -0.003981 0.000000 0.001627 0.000000
# 3 -0.020256 -0.003981 0.020771 0.000000 -0.001629 0.000000
# 4 0.000000 0.000000 0.000000 0.032003 0.000000 0.003726
# 5 0.010797 0.001627 -0.001629 0.000000 0.031750 0.000000
# 6 0.000000 0.000000 0.000000 0.003726 0.000000 0.046045
#
#
# Mechanical properties :
#
#
# Convention : Reuss Voigt Hill
#
# Bulk Modulus (GPa) = 36.93376 53.46683 45.20030
# Shear Modulus (GPa) = 21.27040 29.33026 25.30033
#
# Velocity S-wave (km/s) = 3.24772 3.81372 3.54204
# Velocity P-wave (km/s) = 5.69021 6.77540 6.25638
#
# Compressibility (1/GPa) = 0.02707550
#
# Stress axis : x y z
#
# Youngs Moduli (GPa) = 24.82019 94.34116 48.14442
#
# Poissons Ratio (x) = -0.18345 0.97524
# Poissons Ratio (y) = -0.04826 0.19164
# Poissons Ratio (z) = 0.50277 0.37553
#
# Static dielectric constant tensor:
#      x y z
#    x 3.212060 0.000000 -0.195100 
#    y 0.000000 3.783900 0.000000 
#    z -0.195100 0.000000 3.565740 
# 
# 
# High freq. dielectric constant tensor:
#      x y z
#    x 1.751600 0.000000 -0.022140 
#    y 0.000000 1.807390 0.000000 
#    z -0.022140 0.000000 1.780660 
# 
# From -- ./inp_files/5072.got.cif
#   From: 2010.03.12/outbox.cif.g09.slc.cpg/sg4_3_cif.got.tgz:5072.got - 2010.03.31 09:31:35.
