data_PCOD8045823
_publ_section_title
;
Structure prediction by ZEFSAII (Michael W. Deem and Ramdas Pophale) SiO2 
 PCOD8045823
Probable space group: P 21
;
_chemical_formula_sum "Si O2"
_cell_formula_units_Z 14
_cell_length_a 10.433346
_cell_length_b 10.211588
_cell_length_c 16.433804
_cell_angle_alpha 90.000000
_cell_angle_beta 157.292388
_cell_angle_gamma 90.000000
_cell_volume 675.887604
_symmetry_space_group_name_H-M "P 21"
_symmetry_group_IT_number 4
_symmetry_cell_setting 'monoclinic'
loop_
_space_group_symop_operation_xyz
x,y,z
-x,1/2+y,-z
loop_
_atom_site_type_symbol
_atom_site_label
_atom_site_fract_x
_atom_site_fract_y
_atom_site_fract_z
Si Si1 0.717107 0.642100 0.348531
Si Si2 0.955079 0.832231 0.042263
Si Si3 0.057137 0.781660 0.920904
Si Si4 0.764647 0.366597 0.311905
Si Si5 0.497250 0.144569 0.603911
Si Si6 0.606346 0.550149 0.624025
Si Si7 0.974072 0.884827 0.702831
O O1 0.870719 0.516179 0.393699
O O2 0.633041 0.585337 0.388425
O O3 0.961567 0.765921 0.494523
O O4 0.378254 0.688297 0.107447
O O5 0.120937 0.693007 0.162667
O O6 0.574143 0.823386 0.844491
O O7 0.110638 0.951145 0.182719
O O8 0.014659 0.860961 0.980560
O O9 0.721005 0.695293 0.715832
O O10 0.110041 0.881025 0.875400
O O11 0.741721 0.363357 0.199216
O O12 0.444794 0.036094 0.503854
O O13 0.290910 0.270823 0.458918
O O14 0.238254 0.516535 0.443083
#
# Coordination Sequence:
#
# PCOD8045823 Si02
#       7
#     2   2   2   2   2   2   2
#     4  10  22  43  65  90 133 167 209 263 321 372
#     4  10  21  38  66  91 117 164 217 249 313 380
#     4  10  21  41  63  86 124 171 213 259 306 378
#     4  11  23  43  61  97 132 163 207 265 326 375
#     4   8  19  40  61  88 120 162 207 261 306 372
#     4  10  19  39  64  85 121 163 211 259 310 374
#     4   9  21  38  58  89 127 156 202 264 320 365
#
# _framework density 20.713501999999998
#
# number of rings (size 3 to 8) (size 9 to 14) (size 15 to 20)
#    0.000    2.286    1.429    0.857    4.000    0.000 
#    7.714    0.000    0.000    0.000    0.000    0.000 
#    0.000    0.000    0.000    0.000    0.000    0.000 
#
# Total GULP energy -173479.177805 kJ/mol
# GULP energy per Si atom -12391.369843 kJ/mol
# Density = 2.066636 g / cm^3
# Si number density = 20.713502 Si / 1000 Ang^3
#
#
#
# Elastic Constant Matrix: (Units=GPa)
#
#
# Indices 1 2 3 4 5 6 
#
# 1 135.3774 48.5213 59.5009 0.0000 -8.3116 0.0000
# 2 48.5213 80.5682 32.5286 0.0000 -0.3015 0.0000
# 3 59.5009 32.5286 78.4118 0.0000 -7.6605 0.0000
# 4 0.0000 0.0000 0.0000 35.2581 0.0000 -2.2154
# 5 -8.3116 -0.3015 -7.6605 0.0000 33.4444 0.0000
# 6 0.0000 0.0000 0.0000 -2.2154 0.0000 30.0431
#
#
#
# Elastic Compliance Matrix: (Units=1/GPa)
#
#
# Indices 1 2 3 4 5 6 
#
# 1 0.012289 -0.004424 -0.007360 0.000000 0.001328 0.000000
# 2 -0.004424 0.016558 -0.003687 0.000000 -0.001795 0.000000
# 3 -0.007360 -0.003687 0.020136 0.000000 0.002750 0.000000
# 4 0.000000 0.000000 0.000000 0.028494 0.000000 0.002101
# 5 0.001328 -0.001795 0.002750 0.000000 0.030844 0.000000
# 6 0.000000 0.000000 0.000000 0.002101 0.000000 0.033440
#
#
# Mechanical properties :
#
#
# Convention : Reuss Voigt Hill
#
# Bulk Modulus (GPa) = 55.43031 63.93987 59.68509
# Shear Modulus (GPa) = 27.97690 30.00289 28.98989
#
# Velocity S-wave (km/s) = 3.67912 3.81001 3.74513
# Velocity P-wave (km/s) = 6.69824 7.09158 6.89772
#
# Compressibility (1/GPa) = 0.01804067
#
# Stress axis : x y z
#
# Youngs Moduli (GPa) = 81.37416 60.39270 49.66154
#
# Poissons Ratio (x) = 0.26720 0.36551
# Poissons Ratio (y) = 0.36003 0.18311
# Poissons Ratio (z) = 0.59891 0.22267
#
# Static dielectric constant tensor:
#      x y z
#    x 4.019180 0.000000 -0.289550 
#    y 0.000000 3.686010 0.000000 
#    z -0.289550 0.000000 3.852920 
# 
# 
# High freq. dielectric constant tensor:
#      x y z
#    x 1.813500 0.000000 -0.013390 
#    y 0.000000 1.797950 0.000000 
#    z -0.013390 0.000000 1.805880 
# 
# From -- ./inp_files/6020.got.cif
#   From: 2010.03.12/outbox.cif.g09.slc.cpg/sg4_4_cif.got.tgz:6020.got - 2010.03.31 09:31:35.
