data_PCOD8045000
_publ_section_title
;
Structure prediction by ZEFSAII (Michael W. Deem and Ramdas Pophale) SiO2 
 PCOD8045000
Probable space group: P 2
;
_chemical_formula_sum "Si O2"
_cell_formula_units_Z 14
_cell_length_a 13.520628
_cell_length_b 8.693613
_cell_length_c 10.614188
_cell_angle_alpha 90.000000
_cell_angle_beta 32.796275
_cell_angle_gamma 90.000000
_cell_volume 675.780329
_symmetry_space_group_name_H-M "P 2"
_symmetry_group_IT_number 3
_symmetry_cell_setting 'monoclinic'
loop_
_space_group_symop_operation_xyz
x,y,z
-x,y,-z
loop_
_atom_site_type_symbol
_atom_site_label
_atom_site_fract_x
_atom_site_fract_y
_atom_site_fract_z
Si Si1 0.500000 0.144771 0.500000
Si Si2 0.442596 0.944244 0.776268
Si Si3 0.962227 0.534558 0.282496
Si Si4 0.612929 0.637395 0.527120
Si Si5 0.850629 0.794881 0.062858
Si Si6 0.361777 0.211414 0.037793
Si Si7 0.000000 0.368482 0.500000
Si Si8 0.316537 0.386372 0.838972
O O1 0.333160 0.256979 0.714586
O O2 0.568735 0.045548 0.546837
O O3 0.543184 0.780686 0.689877
O O4 0.254464 0.929516 0.897362
O O5 0.395158 0.033565 0.956754
O O6 0.757302 0.531461 0.447689
O O7 0.956662 0.488938 0.434785
O O8 0.048986 0.700708 0.156866
O O9 0.099673 0.415249 0.068645
O O10 0.703495 0.695425 0.300060
O O11 0.435139 0.537767 0.683409
O O12 0.000000 0.862290 0.000000
O O13 0.396032 0.325488 0.885799
O O14 0.500000 0.252104 0.000000
O O15 0.160596 0.246410 0.304423
#
# Coordination Sequence:
#
# PCOD8045000 Si02
#       8
#     1   2   2   2   2   2   1   2
#     4  10  20  34  60  88 122 176 196 248 328 374
#     4  11  21  40  61  93 131 170 207 259 325 381
#     4  10  21  37  63  94 114 165 211 260 314 357
#     4  11  20  37  66  91 129 157 202 269 322 371
#     4  10  20  36  60  94 130 157 202 260 320 382
#     4  10  23  44  62  88 127 172 219 259 313 375
#     4  10  22  46  64  86 134 164 222 274 296 366
#     4  10  20  36  64  88 122 160 216 262 309 375
#
# _framework density 20.716792000000002
#
# number of rings (size 3 to 8) (size 9 to 14) (size 15 to 20)
#    0.000    1.714    2.857    1.714    0.000    0.000 
#    7.714    5.000    0.000    0.000    0.000    0.000 
#    0.000    0.000    0.000    0.000    0.000    0.000 
#
# Total GULP energy -173440.533917 kJ/mol
# GULP energy per Si atom -12388.609566 kJ/mol
# Density = 2.066964 g / cm^3
# Si number density = 20.716792 Si / 1000 Ang^3
#
#
#
# Elastic Constant Matrix: (Units=GPa)
#
#
# Indices 1 2 3 4 5 6 
#
# 1 91.3089 39.5107 40.3445 0.0000 -7.8279 0.0000
# 2 39.5107 89.0793 37.4807 0.0000 -4.5672 0.0000
# 3 40.3445 37.4807 98.4092 0.0000 -0.9510 0.0000
# 4 0.0000 0.0000 0.0000 33.9718 0.0000 0.7248
# 5 -7.8279 -4.5672 -0.9510 0.0000 31.5365 0.0000
# 6 0.0000 0.0000 0.0000 0.7248 0.0000 25.4238
#
#
#
# Elastic Compliance Matrix: (Units=1/GPa)
#
#
# Indices 1 2 3 4 5 6 
#
# 1 0.015199 -0.004740 -0.004397 0.000000 0.002954 0.000000
# 2 -0.004740 0.014947 -0.003741 0.000000 0.000875 0.000000
# 3 -0.004397 -0.003741 0.013377 0.000000 -0.001230 0.000000
# 4 0.000000 0.000000 0.000000 0.029454 0.000000 -0.000840
# 5 0.002954 0.000875 -0.001230 0.000000 0.032532 0.000000
# 6 0.000000 0.000000 0.000000 -0.000840 0.000000 0.039357
#
#
# Mechanical properties :
#
#
# Convention : Reuss Voigt Hill
#
# Bulk Modulus (GPa) = 56.28438 57.05216 56.66827
# Shear Modulus (GPa) = 28.32122 28.95054 28.63588
#
# Velocity S-wave (km/s) = 3.70140 3.74229 3.72190
# Velocity P-wave (km/s) = 6.74497 6.80235 6.77372
#
# Compressibility (1/GPa) = 0.01776692
#
# Stress axis : x y z
#
# Youngs Moduli (GPa) = 65.79400 66.90163 74.75275
#
# Poissons Ratio (x) = 0.31710 0.32871
# Poissons Ratio (y) = 0.31185 0.27967
# Poissons Ratio (z) = 0.28932 0.25030
#
# Static dielectric constant tensor:
#      x y z
#    x 3.695630 0.000000 -0.028320 
#    y 0.000000 3.759130 0.000000 
#    z -0.028320 0.000000 4.029180 
# 
# 
# High freq. dielectric constant tensor:
#      x y z
#    x 1.795400 0.000000 -0.000540 
#    y 0.000000 1.805640 0.000000 
#    z -0.000540 0.000000 1.817050 
# 
# From -- ./inp_files/12193.got.cif
#   From: 2010.03.12/outbox.cif.g09.slc.cpg/sg3_7_cif.got.tgz:12193.got - 2010.03.31 09:20:49.
