data_PCOD8045924
_publ_section_title
;
Structure prediction by ZEFSAII (Michael W. Deem and Ramdas Pophale) SiO2 
 PCOD8045924
Probable space group: P 21
;
_chemical_formula_sum "Si O2"
_cell_formula_units_Z 16
_cell_length_a 17.308972
_cell_length_b 9.041087
_cell_length_c 14.108517
_cell_angle_alpha 90.000000
_cell_angle_beta 22.568168
_cell_angle_gamma 90.000000
_cell_volume 847.341135
_symmetry_space_group_name_H-M "P 21"
_symmetry_group_IT_number 4
_symmetry_cell_setting 'monoclinic'
loop_
_space_group_symop_operation_xyz
x,y,z
-x,1/2+y,-z
loop_
_atom_site_type_symbol
_atom_site_label
_atom_site_fract_x
_atom_site_fract_y
_atom_site_fract_z
Si Si1 0.396285 0.929250 0.267313
Si Si2 0.616867 0.810199 0.536868
Si Si3 0.798631 0.489149 0.320816
Si Si4 0.485491 0.263356 0.142043
Si Si5 0.244777 0.486110 0.773895
Si Si6 0.841352 0.433269 0.651015
Si Si7 0.248584 0.269640 0.223052
Si Si8 0.398163 0.806276 0.607817
O O1 0.293386 0.900453 0.485526
O O2 0.219872 0.921857 0.389384
O O3 0.504925 0.088668 0.138113
O O4 0.565224 0.804291 0.058357
O O5 0.694509 0.645627 0.432081
O O6 0.585792 0.846517 0.681835
O O7 0.782421 0.921065 0.302782
O O8 0.406930 0.827727 0.713435
O O9 0.772767 0.399396 0.252287
O O10 0.037562 0.510696 0.064039
O O11 0.321688 0.300681 0.247470
O O12 0.704035 0.324015 0.868328
O O13 0.369162 0.635777 0.618307
O O14 0.383351 0.368978 0.676644
O O15 0.818127 0.600456 0.715658
O O16 0.069884 0.382485 0.403299
#
# Coordination Sequence:
#
# PCOD8045924 Si02
#       8
#     2   2   2   2   2   2   2   2
#     4   9  21  37  59  80 112 146 189 236 278 334
#     4   9  19  39  55  83 112 150 188 238 282 328
#     4  11  20  38  60  82 111 156 191 234 289 340
#     4   9  19  38  58  80 110 148 187 231 285 330
#     4  10  21  36  58  83 115 152 189 234 282 340
#     4  10  20  37  57  86 111 148 188 226 287 341
#     4  10  20  37  59  84 115 147 182 237 282 338
#     4  10  20  38  56  82 118 147 190 238 279 331
#
# _framework density 18.882595999999999
#
# number of rings (size 3 to 8) (size 9 to 14) (size 15 to 20)
#    0.750    1.500    1.250    1.500    0.000    3.000 
#    9.000    0.000    0.000    0.000    0.000    0.000 
#    0.000    0.000    0.000    0.000    0.000    0.000 
#
# Total GULP energy -198255.352238 kJ/mol
# GULP energy per Si atom -12390.959515 kJ/mol
# Density = 1.883962 g / cm^3
# Si number density = 18.882596 Si / 1000 Ang^3
#
#
#
# Elastic Constant Matrix: (Units=GPa)
#
#
# Indices 1 2 3 4 5 6 
#
# 1 82.0366 36.9305 44.2332 0.0000 2.8319 0.0000
# 2 36.9305 77.7138 44.5773 0.0000 -4.6305 0.0000
# 3 44.2332 44.5773 88.9087 0.0000 -7.4188 0.0000
# 4 0.0000 0.0000 0.0000 20.9823 0.0000 -1.4777
# 5 2.8319 -4.6305 -7.4188 0.0000 26.6276 0.0000
# 6 0.0000 0.0000 0.0000 -1.4777 0.0000 28.6835
#
#
#
# Elastic Compliance Matrix: (Units=1/GPa)
#
#
# Indices 1 2 3 4 5 6 
#
# 1 0.018403 -0.004983 -0.007057 0.000000 -0.004790 0.000000
# 2 -0.004983 0.019422 -0.007098 0.000000 0.001930 0.000000
# 3 -0.007057 -0.007098 0.018712 0.000000 0.004730 0.000000
# 4 0.000000 0.000000 0.000000 0.047833 0.000000 0.002464
# 5 -0.004790 0.001930 0.004730 0.000000 0.039718 0.000000
# 6 0.000000 0.000000 0.000000 0.002464 0.000000 0.034990
#
#
# Mechanical properties :
#
#
# Convention : Reuss Voigt Hill
#
# Bulk Modulus (GPa) = 54.76004 55.57123 55.16563
# Shear Modulus (GPa) = 22.37728 23.45322 22.91525
#
# Velocity S-wave (km/s) = 3.44623 3.52810 3.48740
# Velocity P-wave (km/s) = 6.70064 6.78899 6.74496
#
# Compressibility (1/GPa) = 0.01826149
#
# Stress axis : x y z
#
# Youngs Moduli (GPa) = 54.33796 51.48816 53.44173
#
# Poissons Ratio (x) = 0.25655 0.37716
# Poissons Ratio (y) = 0.27075 0.37932
# Poissons Ratio (z) = 0.38348 0.36545
#
# Static dielectric constant tensor:
#      x y z
#    x 3.548790 0.000000 0.002050 
#    y 0.000000 3.454890 0.000000 
#    z 0.002050 0.000000 3.235640 
# 
# 
# High freq. dielectric constant tensor:
#      x y z
#    x 1.729930 0.000000 -0.008120 
#    y 0.000000 1.737360 0.000000 
#    z -0.008120 0.000000 1.715590 
# 
# From -- ./inp_files/13274.got.cif
#   From: 2010.03.12/outbox.cif.g09.slc.cpg/sg4_7_cif.got.tgz:13274.got - 2010.03.31 09:31:35.
