data_PCOD8045594
_publ_section_title
;
Structure prediction by ZEFSAII (Michael W. Deem and Ramdas Pophale) SiO2 
 PCOD8045594
Probable space group: P 21
;
_chemical_formula_sum "Si O2"
_cell_formula_units_Z 16
_cell_length_a 11.289650
_cell_length_b 15.277387
_cell_length_c 5.313539
_cell_angle_alpha 90.000000
_cell_angle_beta 61.925699
_cell_angle_gamma 90.000000
_cell_volume 808.627366
_symmetry_space_group_name_H-M "P 21"
_symmetry_group_IT_number 4
_symmetry_cell_setting 'monoclinic'
loop_
_space_group_symop_operation_xyz
x,y,z
-x,1/2+y,-z
loop_
_atom_site_type_symbol
_atom_site_label
_atom_site_fract_x
_atom_site_fract_y
_atom_site_fract_z
Si Si1 0.116471 0.405730 0.383476
Si Si2 0.732204 0.443424 0.267808
Si Si3 0.942825 0.602092 0.057341
Si Si4 0.181829 0.940843 0.318159
Si Si5 0.795299 0.987029 0.204749
Si Si6 0.372465 0.111428 0.127521
Si Si7 0.495986 0.559695 0.503987
Si Si8 0.117770 0.204221 0.382087
O O1 0.201666 0.427467 0.547551
O O2 0.074768 0.304951 0.425222
O O3 0.976704 0.461147 0.523218
O O4 0.201644 0.427451 0.049005
O O5 0.817586 0.534771 0.182587
O O6 0.774290 0.388140 0.473720
O O7 0.574864 0.466473 0.425053
O O8 0.774391 0.388144 0.977687
O O9 0.940913 0.661175 0.307580
O O10 0.940757 0.661293 0.811332
O O11 0.082160 0.552417 0.917740
O O12 0.266489 0.030999 0.233369
O O13 0.661024 0.043501 0.338968
O O14 0.465344 0.112595 0.786909
O O15 0.465302 0.112571 0.282478
O O16 0.280770 0.198291 0.219245
#
# Coordination Sequence:
#
# PCOD8045594 Si02
#       8
#     2   2   2   2   2   2   2   2
#     4  12  23  36  55  90 126 147 178 251 312 336
#     4  10  16  32  59  79 101 141 199 232 256 321
#     4  12  19  38  61  85 107 150 202 244 274 335
#     4  10  16  32  55  81 103 143 189 236 273 316
#     4  12  23  38  58  88 120 149 191 246 289 339
#     4  10  17  35  57  83 100 150 203 231 250 347
#     4  10  20  32  58  82 104 138 190 230 279 319
#     4  12  22  35  61  88 115 150 198 238 299 343
#
# _framework density 19.786618000000001
#
# number of rings (size 3 to 8) (size 9 to 14) (size 15 to 20)
#    0.000    1.000    7.500    2.250    0.000    0.000 
#    0.000    0.000    0.000   18.000    0.000    0.000 
#    0.000    0.000    0.000    0.000    0.000    0.000 
#
# Total GULP energy -198307.227944 kJ/mol
# GULP energy per Si atom -12394.201747 kJ/mol
# Density = 1.974158 g / cm^3
# Si number density = 19.786618 Si / 1000 Ang^3
#
#
#
# Elastic Constant Matrix: (Units=GPa)
#
#
# Indices 1 2 3 4 5 6 
#
# 1 80.0991 27.6881 54.8295 0.0000 12.4412 0.0000
# 2 27.6881 61.5819 31.3110 0.0000 2.9671 0.0000
# 3 54.8295 31.3110 152.0722 0.0000 49.3489 0.0000
# 4 0.0000 0.0000 0.0000 15.0155 0.0000 1.3213
# 5 12.4412 2.9671 49.3489 0.0000 51.7914 0.0000
# 6 0.0000 0.0000 0.0000 1.3213 0.0000 13.4863
#
#
#
# Elastic Compliance Matrix: (Units=1/GPa)
#
#
# Indices 1 2 3 4 5 6 
#
# 1 0.018130 -0.005174 -0.006014 0.000000 0.001671 0.000000
# 2 -0.005174 0.020103 -0.003334 0.000000 0.003268 0.000000
# 3 -0.006014 -0.003334 0.012883 0.000000 -0.010640 0.000000
# 4 0.000000 0.000000 0.000000 0.067177 0.000000 -0.006582
# 5 0.001671 0.003268 -0.010640 0.000000 0.028858 0.000000
# 6 0.000000 0.000000 0.000000 -0.006582 0.000000 0.074794
#
#
# Mechanical properties :
#
#
# Convention : Reuss Voigt Hill
#
# Bulk Modulus (GPa) = 45.30648 57.93448 51.62048
# Shear Modulus (GPa) = 19.35384 28.05362 23.70373
#
# Velocity S-wave (km/s) = 3.13090 3.76946 3.46492
# Velocity P-wave (km/s) = 6.00144 6.94898 6.49252
#
# Compressibility (1/GPa) = 0.02207190
#
# Stress axis : x y z
#
# Youngs Moduli (GPa) = 55.15668 49.74460 77.61939
#
# Poissons Ratio (x) = 0.25740 0.46679
# Poissons Ratio (y) = 0.28540 0.25878
# Poissons Ratio (z) = 0.33170 0.16584
#
# Static dielectric constant tensor:
#      x y z
#    x 3.965950 0.000000 0.847090 
#    y 0.000000 3.023650 0.000000 
#    z 0.847090 0.000000 4.945470 
# 
# 
# High freq. dielectric constant tensor:
#      x y z
#    x 1.777160 0.000000 0.024720 
#    y 0.000000 1.702830 0.000000 
#    z 0.024720 0.000000 1.805730 
# 
# From -- ./inp_files/3172.got.cif
#   From: 2010.03.12/outbox.cif.g09.slc.cpg/sg4_2_cif.got.tgz:3172.got - 2010.03.31 09:31:35.
