data_PCOD8045001
_publ_section_title
;
Structure prediction by ZEFSAII (Michael W. Deem and Ramdas Pophale) SiO2 
 PCOD8045001
Probable space group: P 2
;
_chemical_formula_sum "Si O2"
_cell_formula_units_Z 15
_cell_length_a 14.246831
_cell_length_b 8.158119
_cell_length_c 17.661411
_cell_angle_alpha 90.000000
_cell_angle_beta 21.682466
_cell_angle_gamma 90.000000
_cell_volume 758.409831
_symmetry_space_group_name_H-M "P 2"
_symmetry_group_IT_number 3
_symmetry_cell_setting 'monoclinic'
loop_
_space_group_symop_operation_xyz
x,y,z
-x,y,-z
loop_
_atom_site_type_symbol
_atom_site_label
_atom_site_fract_x
_atom_site_fract_y
_atom_site_fract_z
Si Si1 0.179101 0.736770 0.957521
Si Si2 0.354637 0.605705 0.684140
Si Si3 0.500000 0.059484 0.000000
Si Si4 0.493865 0.544196 0.828453
Si Si5 0.813848 0.271435 0.868256
Si Si6 0.604634 0.344944 0.596202
Si Si7 0.286438 0.867979 0.297357
Si Si8 0.641584 0.059845 0.136050
O O1 0.390835 0.720701 0.731148
O O2 0.268509 0.662443 0.969671
O O3 0.143444 0.932594 0.993750
O O4 0.940502 0.623204 0.115665
O O5 0.500000 0.664429 0.500000
O O6 0.450181 0.427311 0.641751
O O7 0.733217 0.174806 0.852648
O O8 0.562989 0.938160 0.885823
O O9 0.610167 0.446531 0.670304
O O10 0.699960 0.668909 0.709891
O O11 0.378043 0.425625 0.979250
O O12 0.104873 0.324708 0.646172
O O13 0.782050 0.162992 0.966859
O O14 0.463348 0.173295 0.717680
O O15 0.000000 0.923454 0.500000
O O16 0.400525 0.953996 0.286845
#
# Coordination Sequence:
#
# PCOD8045001 Si02
#       8
#     2   2   1   2   2   2   2   2
#     4   9  19  38  56  76 109 141 179 229 271 327
#     4  10  20  35  56  80 106 139 181 227 274 322
#     4  10  22  34  52  82 114 148 184 230 280 314
#     4   9  20  35  55  79 107 147 183 219 275 325
#     4  10  20  36  56  82 115 144 182 230 271 326
#     4  10  20  36  58  81 106 145 185 223 275 331
#     4  10  20  36  56  81 112 147 189 229 266 321
#     4   9  20  38  58  80 110 149 182 220 280 326
#
# _framework density 19.778224999999999
#
# number of rings (size 3 to 8) (size 9 to 14) (size 15 to 20)
#    0.000    2.400    0.000    1.600    0.000    4.800 
#    0.000   20.667    0.000    0.000    0.000    0.000 
#    0.000    0.000    0.000    0.000    0.000    0.000 
#
# Total GULP energy -185830.101167 kJ/mol
# GULP energy per Si atom -12388.673411 kJ/mol
# Density = 1.973321 g / cm^3
# Si number density = 19.778225 Si / 1000 Ang^3
#
#
#
# Elastic Constant Matrix: (Units=GPa)
#
#
# Indices 1 2 3 4 5 6 
#
# 1 69.6853 32.6151 28.2642 0.0000 -2.6126 0.0000
# 2 32.6151 117.5931 45.8285 0.0000 -2.6882 0.0000
# 3 28.2642 45.8285 98.2861 0.0000 -4.9712 0.0000
# 4 0.0000 0.0000 0.0000 21.1870 0.0000 -5.5247
# 5 -2.6126 -2.6882 -4.9712 0.0000 31.2148 0.0000
# 6 0.0000 0.0000 0.0000 -5.5247 0.0000 29.8876
#
#
#
# Elastic Compliance Matrix: (Units=1/GPa)
#
#
# Indices 1 2 3 4 5 6 
#
# 1 0.017364 -0.003505 -0.003328 0.000000 0.000622 0.000000
# 2 -0.003505 0.011100 -0.004168 0.000000 -0.000001 0.000000
# 3 -0.003328 -0.004168 0.013148 0.000000 0.001457 0.000000
# 4 0.000000 0.000000 0.000000 0.049589 0.000000 0.009167
# 5 0.000622 -0.000001 0.001457 0.000000 0.032320 0.000000
# 6 0.000000 0.000000 0.000000 0.009167 0.000000 0.035153
#
#
# Mechanical properties :
#
#
# Convention : Reuss Voigt Hill
#
# Bulk Modulus (GPa) = 50.99061 55.44223 53.21642
# Shear Modulus (GPa) = 26.70762 28.38165 27.54463
#
# Velocity S-wave (km/s) = 3.67870 3.79224 3.73590
# Velocity P-wave (km/s) = 6.62427 6.87514 6.75087
#
# Compressibility (1/GPa) = 0.01961145
#
# Stress axis : x y z
#
# Youngs Moduli (GPa) = 57.59174 90.08756 76.05494
#
# Poissons Ratio (x) = 0.31574 0.25308
# Poissons Ratio (y) = 0.20185 0.31700
# Poissons Ratio (z) = 0.19164 0.37548
#
# Static dielectric constant tensor:
#      x y z
#    x 3.845850 0.000000 0.143300 
#    y 0.000000 3.815900 0.000000 
#    z 0.143300 0.000000 3.482040 
# 
# 
# High freq. dielectric constant tensor:
#      x y z
#    x 1.770700 0.000000 0.007460 
#    y 0.000000 1.776570 0.000000 
#    z 0.007460 0.000000 1.755550 
# 
# From -- ./inp_files/15353.got.cif
#   From: 2010.03.12/outbox.cif.g09.slc.cpg/sg3_8_cif.got.tgz:15353.got - 2010.03.31 09:20:49.
