data_PCOD8045985
_publ_section_title
;
Structure prediction by ZEFSAII (Michael W. Deem and Ramdas Pophale) SiO2 
 PCOD8045985
Probable space group: P 21
;
_chemical_formula_sum "Si O2"
_cell_formula_units_Z 14
_cell_length_a 28.569075
_cell_length_b 4.919756
_cell_length_c 8.559117
_cell_angle_alpha 90.000000
_cell_angle_beta 31.140057
_cell_angle_gamma 90.000000
_cell_volume 622.114016
_symmetry_space_group_name_H-M "P 21"
_symmetry_group_IT_number 4
_symmetry_cell_setting 'monoclinic'
loop_
_space_group_symop_operation_xyz
x,y,z
-x,1/2+y,-z
loop_
_atom_site_type_symbol
_atom_site_label
_atom_site_fract_x
_atom_site_fract_y
_atom_site_fract_z
Si Si1 0.876023 0.053550 0.855548
Si Si2 0.982797 0.756262 0.966634
Si Si3 0.787619 0.851647 0.397096
Si Si4 0.490292 0.631936 0.918289
Si Si5 0.448962 0.023980 0.585908
Si Si6 0.929076 0.553508 0.544778
Si Si7 0.320764 0.836933 0.205321
O O1 0.861383 0.357988 0.836675
O O2 0.970037 0.035673 0.677867
O O3 0.884460 0.850100 0.682869
O O4 0.793624 0.967160 0.203161
O O5 0.885343 0.742310 0.167092
O O6 0.980051 0.946175 0.130479
O O7 0.060887 0.936434 0.657514
O O8 0.754159 0.100749 0.601676
O O9 0.718948 0.602522 0.598483
O O10 0.560515 0.560055 0.575534
O O11 0.528780 0.870549 0.918683
O O12 0.398411 0.724662 0.097265
O O13 0.470520 0.310993 0.607554
O O14 0.356995 0.911663 0.928240
#
# Coordination Sequence:
#
# PCOD8045985 Si02
#       7
#     2   2   2   2   2   2   2
#     4   9  17  31  53  80 103 138 195 237 292 335
#     4  11  22  37  59  84 115 158 212 250 300 355
#     4  11  22  37  62  88 118 159 203 256 300 362
#     4  11  22  39  67  96 126 160 207 257 305 366
#     4  10  20  38  64  95 120 167 214 242 294 388
#     4   9  17  31  53  77 103 141 191 249 277 343
#     4  11  22  39  64  92 127 161 208 249 306 373
#
# _framework density 22.503914000000002
#
# number of rings (size 3 to 8) (size 9 to 14) (size 15 to 20)
#    0.000    1.714    0.000    6.857    0.000    4.571 
#    0.000    0.000   31.429    0.000    0.000    0.000 
#    0.000    0.000    0.000    0.000    0.000    0.000 
#
# Total GULP energy -173504.172489 kJ/mol
# GULP energy per Si atom -12393.155178 kJ/mol
# Density = 2.245269 g / cm^3
# Si number density = 22.503914 Si / 1000 Ang^3
#
#
#
# Elastic Constant Matrix: (Units=GPa)
#
#
# Indices 1 2 3 4 5 6 
#
# 1 62.6472 7.1950 18.4956 0.0000 21.2741 0.0000
# 2 7.1950 92.1353 4.5007 0.0000 2.4269 0.0000
# 3 18.4956 4.5007 85.4170 0.0000 20.6326 0.0000
# 4 0.0000 0.0000 0.0000 38.5921 0.0000 -0.7729
# 5 21.2741 2.4269 20.6326 0.0000 21.5182 0.0000
# 6 0.0000 0.0000 0.0000 -0.7729 0.0000 37.9463
#
#
#
# Elastic Compliance Matrix: (Units=1/GPa)
#
#
# Indices 1 2 3 4 5 6 
#
# 1 0.024212 -0.001282 0.000744 0.000000 -0.024506 0.000000
# 2 -0.001282 0.010962 -0.000400 0.000000 0.000414 0.000000
# 3 0.000744 -0.000400 0.015271 0.000000 -0.015333 0.000000
# 4 0.000000 0.000000 0.000000 0.025923 0.000000 0.000528
# 5 -0.024506 0.000414 -0.015333 0.000000 0.085356 0.000000
# 6 0.000000 0.000000 0.000000 0.000528 0.000000 0.026364
#
#
# Mechanical properties :
#
#
# Convention : Reuss Voigt Hill
#
# Bulk Modulus (GPa) = 20.58869 33.39799 26.99334
# Shear Modulus (GPa) = 24.25393 33.61189 28.93291
#
# Velocity S-wave (km/s) = 3.28649 3.86891 3.58953
# Velocity P-wave (km/s) = 4.85491 5.90179 5.40376
#
# Compressibility (1/GPa) = 0.04857035
#
# Stress axis : x y z
#
# Youngs Moduli (GPa) = 41.30222 91.22162 65.48376
#
# Poissons Ratio (x) = 0.11691 -0.04875
# Poissons Ratio (y) = 0.05293 0.02621
# Poissons Ratio (z) = -0.03075 0.03651
#
# Static dielectric constant tensor:
#      x y z
#    x 3.764320 0.000000 0.500140 
#    y 0.000000 4.422820 0.000000 
#    z 0.500140 0.000000 4.117910 
# 
# 
# High freq. dielectric constant tensor:
#      x y z
#    x 1.846230 0.000000 0.039460 
#    y 0.000000 1.917400 0.000000 
#    z 0.039460 0.000000 1.877310 
# 
# From -- ./inp_files/10109.got.cif
#   From: 2010.03.12/outbox.cif.g09.slc.cpg/sg4_6_cif.got.tgz:10109.got - 2010.03.31 09:31:35.
