data_PCOD8045387
_publ_section_title
;
Structure prediction by ZEFSAII (Michael W. Deem and Ramdas Pophale) SiO2 
 PCOD8045387
Probable space group: P 2
;
_chemical_formula_sum "Si O2"
_cell_formula_units_Z 14
_cell_length_a 9.110474
_cell_length_b 6.605436
_cell_length_c 10.893989
_cell_angle_alpha 90.000000
_cell_angle_beta 77.919019
_cell_angle_gamma 90.000000
_cell_volume 641.066175
_symmetry_space_group_name_H-M "P 2"
_symmetry_group_IT_number 3
_symmetry_cell_setting 'monoclinic'
loop_
_space_group_symop_operation_xyz
x,y,z
-x,y,-z
loop_
_atom_site_type_symbol
_atom_site_label
_atom_site_fract_x
_atom_site_fract_y
_atom_site_fract_z
Si Si1 0.328524 0.273910 0.532202
Si Si2 0.898996 0.632170 0.403585
Si Si3 0.817733 0.648626 0.793331
Si Si4 0.170293 0.952419 0.988813
Si Si5 0.694005 0.926056 0.296467
Si Si6 0.367738 0.964840 0.314611
Si Si7 0.642241 0.262339 0.900274
O O1 0.500000 0.359395 0.500000
O O2 0.202193 0.442545 0.539146
O O3 0.300615 0.110056 0.430235
O O4 0.301248 0.163603 0.667986
O O5 0.786031 0.807334 0.383661
O O6 0.000000 0.702223 0.500000
O O7 0.012296 0.585015 0.270850
O O8 0.718665 0.448068 0.817392
O O9 0.753454 0.793221 0.696940
O O10 0.812974 0.762158 0.923809
O O11 0.241389 0.884202 0.848546
O O12 0.243964 0.156490 0.026141
O O13 0.000000 0.013130 0.000000
O O14 0.520381 0.854358 0.332127
O O15 0.412070 0.096958 0.188096
O O16 0.500000 0.345280 0.000000
#
# Coordination Sequence:
#
# PCOD8045387 Si02
#       7
#     2   2   2   2   2   2   2
#     4  10  25  45  70  96 132 178 229 284 339 403
#     4  12  26  43  67 100 133 175 228 282 347 404
#     4  11  26  41  70 104 140 178 226 284 339 407
#     4  11  24  45  65 100 144 179 225 274 342 407
#     4  11  24  44  70  94 134 183 223 276 339 406
#     4  10  23  47  68 100 136 178 231 282 338 402
#     4  11  24  41  70 100 136 184 229 279 336 405
#
# _framework density 21.838621
#
# number of rings (size 3 to 8) (size 9 to 14) (size 15 to 20)
#    0.000    1.143    2.857    1.714    4.000    8.571 
#    0.000    0.000    0.000    0.000    0.000    0.000 
#    0.000    0.000    0.000    0.000    0.000    0.000 
#
# Total GULP energy -173639.238033 kJ/mol
# GULP energy per Si atom -12402.802717 kJ/mol
# Density = 2.178892 g / cm^3
# Si number density = 21.838621 Si / 1000 Ang^3
#
#
#
# Elastic Constant Matrix: (Units=GPa)
#
#
# Indices 1 2 3 4 5 6 
#
# 1 157.9445 69.5901 52.3792 0.0000 -3.4556 0.0000
# 2 69.5901 96.1631 39.6679 0.0000 -7.6258 0.0000
# 3 52.3792 39.6679 101.5366 0.0000 -1.6053 0.0000
# 4 0.0000 0.0000 0.0000 32.0142 0.0000 -14.2380
# 5 -3.4556 -7.6258 -1.6053 0.0000 45.2242 0.0000
# 6 0.0000 0.0000 0.0000 -14.2380 0.0000 57.2286
#
#
#
# Elastic Compliance Matrix: (Units=1/GPa)
#
#
# Indices 1 2 3 4 5 6 
#
# 1 0.009906 -0.006065 -0.002747 0.000000 -0.000363 0.000000
# 2 -0.006065 0.016278 -0.003197 0.000000 0.002168 0.000000
# 3 -0.002747 -0.003197 0.012510 0.000000 -0.000305 0.000000
# 4 0.000000 0.000000 0.000000 0.035122 0.000000 0.008738
# 5 -0.000363 0.002168 -0.000305 0.000000 0.022439 0.000000
# 6 0.000000 0.000000 0.000000 0.008738 0.000000 0.019648
#
#
# Mechanical properties :
#
#
# Convention : Reuss Voigt Hill
#
# Bulk Modulus (GPa) = 68.12872 75.43539 71.78206
# Shear Modulus (GPa) = 34.52731 39.82719 37.17725
#
# Velocity S-wave (km/s) = 3.98052 4.27512 4.13045
# Velocity P-wave (km/s) = 7.23811 7.68024 7.46245
#
# Compressibility (1/GPa) = 0.01467810
#
# Stress axis : x y z
#
# Youngs Moduli (GPa) = 100.94491 61.43103 79.93791
#
# Poissons Ratio (x) = 0.37256 0.21957
# Poissons Ratio (y) = 0.61220 0.25554
# Poissons Ratio (z) = 0.27727 0.19638
#
# Static dielectric constant tensor:
#      x y z
#    x 4.110360 0.000000 0.064690 
#    y 0.000000 3.679960 0.000000 
#    z 0.064690 0.000000 4.033250 
# 
# 
# High freq. dielectric constant tensor:
#      x y z
#    x 1.873770 0.000000 -0.000420 
#    y 0.000000 1.841100 0.000000 
#    z -0.000420 0.000000 1.876530 
# 
# From -- ./inp_files/6709.got.cif
#   From: 2010.03.12/outbox.cif.g09.slc.cpg/sg3_4_cif.got.tgz:6709.got - 2010.03.31 09:20:49.
