data_PCOD8045751
_publ_section_title
;
Structure prediction by ZEFSAII (Michael W. Deem and Ramdas Pophale) SiO2 
 PCOD8045751
Probable space group: P 21
;
_chemical_formula_sum "Si O2"
_cell_formula_units_Z 16
_cell_length_a 8.821944
_cell_length_b 9.413490
_cell_length_c 14.666974
_cell_angle_alpha 90.000000
_cell_angle_beta 48.880066
_cell_angle_gamma 90.000000
_cell_volume 917.578904
_symmetry_space_group_name_H-M "P 21"
_symmetry_group_IT_number 4
_symmetry_cell_setting 'monoclinic'
loop_
_space_group_symop_operation_xyz
x,y,z
-x,1/2+y,-z
loop_
_atom_site_type_symbol
_atom_site_label
_atom_site_fract_x
_atom_site_fract_y
_atom_site_fract_z
Si Si1 0.545892 0.551910 0.194256
Si Si2 0.813229 0.776715 0.178505
Si Si3 0.178830 0.140298 0.441706
Si Si4 0.546991 0.007404 0.192680
Si Si5 0.717040 0.278340 0.031491
Si Si6 0.658337 0.277694 0.847781
Si Si7 0.868197 0.772939 0.362368
Si Si8 0.799836 0.954676 0.546075
O O1 0.737758 0.640595 0.152482
O O2 0.619380 0.401835 0.129274
O O3 0.429814 0.633430 0.159822
O O4 0.399133 0.531225 0.338513
O O5 0.772547 0.749986 0.301645
O O6 0.694886 0.916695 0.196780
O O7 0.045851 0.802931 0.067219
O O8 0.378356 0.068941 0.325402
O O9 0.184750 0.138837 0.550684
O O10 0.162571 0.305328 0.414548
O O11 0.985799 0.058882 0.482667
O O12 0.677263 0.129855 0.095613
O O13 0.449854 0.914283 0.151411
O O14 0.615405 0.276706 0.972359
O O15 0.892606 0.288343 0.735407
O O16 0.779032 0.915999 0.446269
#
# Coordination Sequence:
#
# PCOD8045751 Si02
#       8
#     2   2   2   2   2   2   2   2
#     4  11  20  37  57  82 107 148 184 218 279 319
#     4  10  24  36  55  74 115 153 176 221 273 325
#     4  10  19  35  61  83 110 136 179 228 269 325
#     4  11  20  37  57  82 107 148 184 218 279 319
#     4  11  21  38  55  79 111 142 191 231 256 324
#     4  10  20  34  58  83 108 142 180 231 276 314
#     4   9  19  36  54  82 110 141 177 217 279 315
#     4  10  19  35  61  83 110 136 179 228 269 325
#
# _framework density 17.437192
#
# number of rings (size 3 to 8) (size 9 to 14) (size 15 to 20)
#    0.750    1.000    3.750    1.500    1.750    1.000 
#    0.000    0.000    2.750    0.000    0.000    0.000 
#    0.000    0.000    0.000    0.000    0.000    0.000 
#
# Total GULP energy -198346.800919 kJ/mol
# GULP energy per Si atom -12396.675057 kJ/mol
# Density = 1.739750 g / cm^3
# Si number density = 17.437192 Si / 1000 Ang^3
#
#
#
# Elastic Constant Matrix: (Units=GPa)
#
#
# Indices 1 2 3 4 5 6 
#
# 1 67.6089 8.0905 18.2957 0.0000 2.6718 0.0000
# 2 8.0905 63.8891 -2.2554 0.0000 -5.0166 0.0000
# 3 18.2957 -2.2554 69.7705 0.0000 -0.1539 0.0000
# 4 0.0000 0.0000 0.0000 14.8929 0.0000 9.9525
# 5 2.6718 -5.0166 -0.1539 0.0000 27.3754 0.0000
# 6 0.0000 0.0000 0.0000 9.9525 0.0000 11.7193
#
#
#
# Elastic Compliance Matrix: (Units=1/GPa)
#
#
# Indices 1 2 3 4 5 6 
#
# 1 0.016339 -0.002385 -0.004366 0.000000 -0.002056 0.000000
# 2 -0.002385 0.016248 0.001158 0.000000 0.003217 0.000000
# 3 -0.004366 0.001158 0.015517 0.000000 0.000725 0.000000
# 4 0.000000 0.000000 0.000000 0.155258 0.000000 -0.131851
# 5 -0.002056 0.003217 0.000725 0.000000 0.037323 0.000000
# 6 0.000000 0.000000 0.000000 -0.131851 0.000000 0.197302
#
#
# Mechanical properties :
#
#
# Convention : Reuss Voigt Hill
#
# Bulk Modulus (GPa) = 27.08788 27.72557 27.40672
# Shear Modulus (GPa) = 10.83472 22.60670 16.72071
#
# Velocity S-wave (km/s) = 2.49541 3.60455 3.09999
# Velocity P-wave (km/s) = 4.88580 5.76702 5.34460
#
# Compressibility (1/GPa) = 0.03691689
#
# Stress axis : x y z
#
# Youngs Moduli (GPa) = 61.20282 61.54783 64.44692
#
# Poissons Ratio (x) = 0.14677 0.28139
# Poissons Ratio (y) = 0.14595 -0.07461
# Poissons Ratio (z) = 0.26722 -0.07125
#
# Static dielectric constant tensor:
#      x y z
#    x 3.147520 0.000000 0.047250 
#    y 0.000000 3.243790 0.000000 
#    z 0.047250 0.000000 3.389870 
# 
# 
# High freq. dielectric constant tensor:
#      x y z
#    x 1.663330 0.000000 -0.004100 
#    y 0.000000 1.677230 0.000000 
#    z -0.004100 0.000000 1.686910 
# 
# From -- ./inp_files/7514.got.cif
#   From: 2010.03.12/outbox.cif.g09.slc.cpg/sg4_4_cif.got.tgz:7514.got - 2010.03.31 09:31:35.
