data_PCOD8045704
_publ_section_title
;
Structure prediction by ZEFSAII (Michael W. Deem and Ramdas Pophale) SiO2 
 PCOD8045704
Probable space group: P 21
;
_chemical_formula_sum "Si O2"
_cell_formula_units_Z 16
_cell_length_a 9.081363
_cell_length_b 8.875787
_cell_length_c 11.504763
_cell_angle_alpha 90.000000
_cell_angle_beta 107.497813
_cell_angle_gamma 90.000000
_cell_volume 884.423577
_symmetry_space_group_name_H-M "P 21"
_symmetry_group_IT_number 4
_symmetry_cell_setting 'monoclinic'
loop_
_space_group_symop_operation_xyz
x,y,z
-x,1/2+y,-z
loop_
_atom_site_type_symbol
_atom_site_label
_atom_site_fract_x
_atom_site_fract_y
_atom_site_fract_z
Si Si1 0.606449 0.005560 0.719767
Si Si2 0.616741 0.660810 0.671279
Si Si3 0.486740 0.502162 0.855252
Si Si4 0.848905 0.484769 0.577103
Si Si5 0.711619 0.638355 0.350115
Si Si6 0.297048 0.665239 0.467949
Si Si7 0.803313 0.970029 0.354137
Si Si8 0.514689 0.658042 0.101415
O O1 0.442802 0.066442 0.628946
O O2 0.730145 0.077520 0.660377
O O3 0.616806 0.066631 0.855938
O O4 0.630019 0.827396 0.727456
O O5 0.595358 0.546111 0.773306
O O6 0.772133 0.613888 0.639587
O O7 0.473299 0.655234 0.550622
O O8 0.307734 0.524594 0.776569
O O9 0.527151 0.333383 0.902013
O O10 0.521383 0.611475 0.970410
O O11 0.848684 0.541001 0.441081
O O12 0.750481 0.335016 0.566912
O O13 0.024738 0.453850 0.656666
O O14 0.736707 0.813268 0.389627
O O15 0.684320 0.627628 0.203160
O O16 0.190039 0.591571 0.541201
#
# Coordination Sequence:
#
# PCOD8045704 Si02
#       8
#     2   2   2   2   2   2   2   2
#     4  10  19  32  55  81 104 138 182 240 266 310
#     4  11  19  32  55  81 108 142 189 229 267 324
#     4  10  20  35  58  82 106 141 187 234 278 324
#     4  12  21  34  54  83 120 147 181 224 288 341
#     4   9  19  35  53  80 111 144 184 226 274 322
#     4  11  19  32  53  82 107 148 185 225 273 324
#     4  10  23  35  53  81 121 151 173 227 287 346
#     4   9  18  33  55  82 105 137 187 243 267 317
#
# _framework density 18.090879000000001
#
# number of rings (size 3 to 8) (size 9 to 14) (size 15 to 20)
#    0.750    1.000    2.500    3.000    1.750    0.000 
#    0.000    0.000    0.000   10.500    0.000    0.000 
#    0.000    0.000    0.000    0.000    0.000    0.000 
#
# Total GULP energy -198235.125913 kJ/mol
# GULP energy per Si atom -12389.695370 kJ/mol
# Density = 1.804970 g / cm^3
# Si number density = 18.090879 Si / 1000 Ang^3
#
#
#
# Elastic Constant Matrix: (Units=GPa)
#
#
# Indices 1 2 3 4 5 6 
#
# 1 69.3367 31.9850 26.0197 0.0000 -2.0555 0.0000
# 2 31.9850 104.8533 21.4393 0.0000 -0.1575 0.0000
# 3 26.0197 21.4393 75.8568 0.0000 0.4640 0.0000
# 4 0.0000 0.0000 0.0000 35.3585 0.0000 -5.8088
# 5 -2.0555 -0.1575 0.4640 0.0000 12.2066 0.0000
# 6 0.0000 0.0000 0.0000 -5.8088 0.0000 13.7369
#
#
#
# Elastic Compliance Matrix: (Units=1/GPa)
#
#
# Indices 1 2 3 4 5 6 
#
# 1 0.018555 -0.004617 -0.005080 0.000000 0.003258 0.000000
# 2 -0.004617 0.011271 -0.001599 0.000000 -0.000571 0.000000
# 3 -0.005080 -0.001599 0.015386 0.000000 -0.001461 0.000000
# 4 0.000000 0.000000 0.000000 0.030393 0.000000 0.012852
# 5 0.003258 -0.000571 -0.001461 0.000000 0.082520 0.000000
# 6 0.000000 0.000000 0.000000 0.012852 0.000000 0.078231
#
#
# Mechanical properties :
#
#
# Convention : Reuss Voigt Hill
#
# Bulk Modulus (GPa) = 44.20383 45.43718 44.82050
# Shear Modulus (GPa) = 18.76265 23.63391 21.19828
#
# Velocity S-wave (km/s) = 3.22395 3.61834 3.42682
# Velocity P-wave (km/s) = 6.19240 6.52894 6.36290
#
# Compressibility (1/GPa) = 0.02262247
#
# Stress axis : x y z
#
# Youngs Moduli (GPa) = 53.89448 88.72020 64.99476
#
# Poissons Ratio (x) = 0.40958 0.33015
# Poissons Ratio (y) = 0.24880 0.10390
# Poissons Ratio (z) = 0.27377 0.14183
#
# Static dielectric constant tensor:
#      x y z
#    x 2.995200 0.000000 -0.035350 
#    y 0.000000 3.423450 0.000000 
#    z -0.035350 0.000000 3.222070 
# 
# 
# High freq. dielectric constant tensor:
#      x y z
#    x 1.660220 0.000000 -0.011530 
#    y 0.000000 1.718490 0.000000 
#    z -0.011530 0.000000 1.687990 
# 
# From -- ./inp_files/7502.got.cif
#   From: 2010.03.12/outbox.cif.g09.slc.cpg/sg4_4_cif.got.tgz:7502.got - 2010.03.31 09:31:35.
