data_PCOD8045333
_publ_section_title
;
Structure prediction by ZEFSAII (Michael W. Deem and Ramdas Pophale) SiO2 
 PCOD8045333
Probable space group: P 2
;
_chemical_formula_sum "Si O2"
_cell_formula_units_Z 14
_cell_length_a 24.109599
_cell_length_b 4.923495
_cell_length_c 14.862859
_cell_angle_alpha 90.000000
_cell_angle_beta 160.248537
_cell_angle_gamma 90.000000
_cell_volume 596.219821
_symmetry_space_group_name_H-M "P 2"
_symmetry_group_IT_number 3
_symmetry_cell_setting 'monoclinic'
loop_
_space_group_symop_operation_xyz
x,y,z
-x,y,-z
loop_
_atom_site_type_symbol
_atom_site_label
_atom_site_fract_x
_atom_site_fract_y
_atom_site_fract_z
Si Si1 0.867406 0.298560 0.620162
Si Si2 0.850190 0.809110 0.474471
Si Si3 0.218739 0.088802 0.184511
Si Si4 0.394180 0.802400 0.044991
Si Si5 0.878650 0.718407 0.240043
Si Si6 0.686787 0.578260 0.779775
Si Si7 0.390980 0.291982 0.621997
O O1 0.911450 0.569273 0.632783
O O2 0.740439 0.375716 0.503966
O O3 0.790208 0.071043 0.437366
O O4 0.031701 0.178179 0.914407
O O5 0.001322 0.902281 0.639420
O O6 0.699139 0.691409 0.185802
O O7 0.312908 0.276524 0.257803
O O8 0.308629 0.122554 0.416203
O O9 0.221434 0.783644 0.149248
O O10 0.518930 0.569802 0.270796
O O11 0.478359 0.078615 0.140557
O O12 0.261499 0.883077 0.919769
O O13 0.000000 0.568623 0.500000
O O14 0.776383 0.536020 0.013340
O O15 0.500000 0.682185 0.500000
#
# Coordination Sequence:
#
# PCOD8045333 Si02
#       7
#     2   2   2   2   2   2   2
#     4  12  24  44  69  96 135 178 229 269 333 400
#     4  11  24  44  70  98 131 180 223 276 337 405
#     4  12  24  44  66  97 135 173 228 265 339 398
#     4  11  26  44  67  99 136 174 224 279 340 392
#     4  10  22  44  69  98 135 174 222 276 338 404
#     4  12  24  42  69 100 137 176 220 279 337 403
#     4  12  26  44  66  99 136 178 223 281 330 397
#
# _framework density 23.481273000000002
#
# number of rings (size 3 to 8) (size 9 to 14) (size 15 to 20)
#    0.000    0.571    2.857    5.143    0.000    5.714 
#    0.000   10.714    0.000    0.000    0.000    0.000 
#    0.000    0.000    0.000    0.000    0.000    0.000 
#
# Total GULP energy -173525.356195 kJ/mol
# GULP energy per Si atom -12394.668300 kJ/mol
# Density = 2.342783 g / cm^3
# Si number density = 23.481273 Si / 1000 Ang^3
#
#
#
# Elastic Constant Matrix: (Units=GPa)
#
#
# Indices 1 2 3 4 5 6 
#
# 1 91.6110 11.3310 54.6918 0.0000 -1.1403 0.0000
# 2 11.3310 80.5299 11.5719 0.0000 2.7033 0.0000
# 3 54.6918 11.5719 117.4366 0.0000 -1.3894 0.0000
# 4 0.0000 0.0000 0.0000 31.5895 0.0000 0.5678
# 5 -1.1403 2.7033 -1.3894 0.0000 44.3923 0.0000
# 6 0.0000 0.0000 0.0000 0.5678 0.0000 27.2747
#
#
#
# Elastic Compliance Matrix: (Units=1/GPa)
#
#
# Indices 1 2 3 4 5 6 
#
# 1 0.015224 -0.001148 -0.006974 0.000000 0.000243 0.000000
# 2 -0.001148 0.012712 -0.000728 0.000000 -0.000826 0.000000
# 3 -0.006974 -0.000728 0.011838 0.000000 0.000236 0.000000
# 4 0.000000 0.000000 0.000000 0.031668 0.000000 -0.000659
# 5 0.000243 -0.000826 0.000236 0.000000 0.022590 0.000000
# 6 0.000000 0.000000 0.000000 -0.000659 0.000000 0.036678
#
#
# Mechanical properties :
#
#
# Convention : Reuss Voigt Hill
#
# Bulk Modulus (GPa) = 45.30274 49.41855 47.36065
# Shear Modulus (GPa) = 32.09914 34.78348 33.44131
#
# Velocity S-wave (km/s) = 3.70132 3.85298 3.77791
# Velocity P-wave (km/s) = 6.13200 6.39418 6.26446
#
# Compressibility (1/GPa) = 0.02207372
#
# Stress axis : x y z
#
# Youngs Moduli (GPa) = 65.68433 78.66836 84.47596
#
# Poissons Ratio (x) = 0.09032 0.58915
# Poissons Ratio (y) = 0.07541 0.06147
# Poissons Ratio (z) = 0.45809 0.05724
#
# Static dielectric constant tensor:
#      x y z
#    x 4.253900 0.000000 -0.112530 
#    y 0.000000 3.808490 0.000000 
#    z -0.112530 0.000000 4.528670 
# 
# 
# High freq. dielectric constant tensor:
#      x y z
#    x 1.931720 0.000000 -0.002890 
#    y 0.000000 1.901270 0.000000 
#    z -0.002890 0.000000 1.955170 
# 
# From -- ./inp_files/14395.got.cif
#   From: 2010.03.12/outbox.cif.g09.slc.cpg/sg3_8_cif.got.tgz:14395.got - 2010.03.31 09:20:49.
