data_PCOD8045515
_publ_section_title
;
Structure prediction by ZEFSAII (Michael W. Deem and Ramdas Pophale) SiO2 
 PCOD8045515
Probable space group: P 2
;
_chemical_formula_sum "Si O2"
_cell_formula_units_Z 15
_cell_length_a 19.105804
_cell_length_b 6.114511
_cell_length_c 5.196114
_cell_angle_alpha 90.000000
_cell_angle_beta 84.746542
_cell_angle_gamma 90.000000
_cell_volume 604.473938
_symmetry_space_group_name_H-M "P 2"
_symmetry_group_IT_number 3
_symmetry_cell_setting 'monoclinic'
loop_
_space_group_symop_operation_xyz
x,y,z
-x,y,-z
loop_
_atom_site_type_symbol
_atom_site_label
_atom_site_fract_x
_atom_site_fract_y
_atom_site_fract_z
Si Si1 0.886005 0.431710 0.998614
Si Si2 0.241781 0.144931 0.903938
Si Si3 0.000000 0.134155 0.000000
Si Si4 0.329267 0.477440 0.217558
Si Si5 0.199583 0.761523 0.291788
Si Si6 0.635593 0.100084 0.465714
Si Si7 0.930149 0.790622 0.355907
Si Si8 0.417976 0.858999 0.016212
O O1 0.824379 0.289062 0.147822
O O2 0.922660 0.562607 0.214956
O O3 0.856827 0.587506 0.792626
O O4 0.946840 0.283018 0.847433
O O5 0.280746 0.068571 0.625213
O O6 0.297278 0.287604 0.049880
O O7 0.222993 0.928271 0.065632
O O8 0.055491 0.993570 0.828829
O O9 0.268201 0.629219 0.367028
O O10 0.372473 0.355081 0.435861
O O11 0.379314 0.623245 0.013747
O O12 0.147674 0.869152 0.517665
O O13 0.609811 0.949427 0.703787
O O14 0.595494 0.026548 0.216712
O O15 0.000000 0.765126 0.500000
O O16 0.500000 0.814787 0.000000
#
# Coordination Sequence:
#
# PCOD8045515 Si02
#       8
#     2   2   1   2   2   2   2   2
#     4  11  25  43  69 101 143 193 253 317 396 476
#     4  11  24  47  76 115 147 198 260 330 398 472
#     4  12  26  44  62  96 144 194 254 316 386 476
#     4  11  25  47  81 115 157 205 267 329 400 482
#     4  11  24  47  74 108 148 192 254 328 398 467
#     4  12  25  51  79 117 160 209 264 327 394 477
#     4  12  25  43  66  97 144 197 250 323 388 474
#     4  12  29  52  79 117 168 211 265 329 396 479
#
# _framework density 24.814965000000001
#
# number of rings (size 3 to 8) (size 9 to 14) (size 15 to 20)
#    0.000    0.533    2.667    4.800    1.867    8.533 
#    2.400    1.333    0.000    0.000    0.000    0.000 
#    0.000    0.000    0.000    0.000    0.000    0.000 
#
# Total GULP energy -185844.743051 kJ/mol
# GULP energy per Si atom -12389.649537 kJ/mol
# Density = 2.475848 g / cm^3
# Si number density = 24.814965 Si / 1000 Ang^3
#
#
#
# Elastic Constant Matrix: (Units=GPa)
#
#
# Indices 1 2 3 4 5 6 
#
# 1 137.4445 67.6505 26.6507 0.0000 -15.2376 0.0000
# 2 67.6505 136.0563 45.6588 0.0000 -12.6742 0.0000
# 3 26.6507 45.6588 105.5981 0.0000 -18.1806 0.0000
# 4 0.0000 0.0000 0.0000 35.6955 0.0000 2.2870
# 5 -15.2376 -12.6742 -18.1806 0.0000 40.1506 0.0000
# 6 0.0000 0.0000 0.0000 2.2870 0.0000 44.4385
#
#
#
# Elastic Compliance Matrix: (Units=1/GPa)
#
#
# Indices 1 2 3 4 5 6 
#
# 1 0.009828 -0.004650 -0.000087 0.000000 0.002222 0.000000
# 2 -0.004650 0.010844 -0.003503 0.000000 0.000072 0.000000
# 3 -0.000087 -0.003503 0.011724 0.000000 0.004170 0.000000
# 4 0.000000 0.000000 0.000000 0.028107 0.000000 -0.001447
# 5 0.002222 0.000072 0.004170 0.000000 0.027661 0.000000
# 6 0.000000 0.000000 0.000000 -0.001447 0.000000 0.022577
#
#
# Mechanical properties :
#
#
# Convention : Reuss Voigt Hill
#
# Bulk Modulus (GPa) = 62.82906 73.22431 68.02669
# Shear Modulus (GPa) = 37.72783 39.99952 38.86367
#
# Velocity S-wave (km/s) = 3.90342 4.01922 3.96174
# Velocity P-wave (km/s) = 6.75940 7.14920 6.95703
#
# Compressibility (1/GPa) = 0.01591620
#
# Stress axis : x y z
#
# Youngs Moduli (GPa) = 101.75146 92.21304 85.29251
#
# Poissons Ratio (x) = 0.42883 0.00742
# Poissons Ratio (y) = 0.47319 0.29877
# Poissons Ratio (z) = 0.00885 0.32301
#
# Static dielectric constant tensor:
#      x y z
#    x 4.636410 0.000000 -0.219270 
#    y 0.000000 4.933910 0.000000 
#    z -0.219270 0.000000 4.425550 
# 
# 
# High freq. dielectric constant tensor:
#      x y z
#    x 1.998940 0.000000 -0.014150 
#    y 0.000000 2.009650 0.000000 
#    z -0.014150 0.000000 1.972100 
# 
# From -- ./inp_files/3892.got.cif
#   From: 2010.03.12/outbox.cif.g09.slc.cpg/sg3_2_cif.got.tgz:3892.got - 2010.03.31 09:20:49.
