data_PCOD8045659
_publ_section_title
;
Structure prediction by ZEFSAII (Michael W. Deem and Ramdas Pophale) SiO2 
 PCOD8045659
Probable space group: P 21
;
_chemical_formula_sum "Si O2"
_cell_formula_units_Z 14
_cell_length_a 5.414963
_cell_length_b 11.762868
_cell_length_c 11.817873
_cell_angle_alpha 90.000000
_cell_angle_beta 48.076820
_cell_angle_gamma 90.000000
_cell_volume 560.073571
_symmetry_space_group_name_H-M "P 21"
_symmetry_group_IT_number 4
_symmetry_cell_setting 'monoclinic'
loop_
_space_group_symop_operation_xyz
x,y,z
-x,1/2+y,-z
loop_
_atom_site_type_symbol
_atom_site_label
_atom_site_fract_x
_atom_site_fract_y
_atom_site_fract_z
Si Si1 0.857206 0.531760 0.715356
Si Si2 0.445545 0.988644 0.960114
Si Si3 0.504657 0.227843 0.088309
Si Si4 0.083572 0.967194 0.863294
Si Si5 0.404773 0.388369 0.476923
Si Si6 0.215869 0.242996 0.939801
Si Si7 0.295871 0.836288 0.380294
O O1 0.748604 0.664012 0.747508
O O2 0.636329 0.463282 0.690416
O O3 0.246560 0.509711 0.567572
O O4 0.795712 0.476907 0.858712
O O5 0.528349 0.861527 0.887807
O O6 0.276051 0.045877 0.899044
O O7 0.805981 0.041711 0.882240
O O8 0.386443 0.181319 0.998621
O O9 0.875411 0.184193 0.001812
O O10 0.341262 0.908628 0.701078
O O11 0.875535 0.870522 0.992498
O O12 0.602703 0.328628 0.519097
O O13 0.098244 0.310125 0.523443
O O14 0.479462 0.246325 0.756846
#
# Coordination Sequence:
#
# PCOD8045659 Si02
#       7
#     2   2   2   2   2   2   2
#     4  10  22  34  59  82 112 142 191 222 281 312
#     4  10  20  36  57  80 109 143 187 222 270 326
#     4  10  20  32  57  84 108 143 182 236 260 329
#     4  10  18  34  55  80 104 144 178 220 271 327
#     4  10  20  31  56  82 106 141 182 220 278 325
#     4  10  19  36  55  80 109 137 191 219 273 323
#     4  10  19  35  53  84 106 140 183 227 269 326
#
# _framework density 24.996714999999998
#
# number of rings (size 3 to 8) (size 9 to 14) (size 15 to 20)
#    0.857    1.143    2.857    3.429    2.000    0.000 
#    0.000    0.000    0.000   27.429    0.000    0.000 
#    0.000    0.000    0.000    0.000    0.000    0.000 
#
# Total GULP energy -173473.281973 kJ/mol
# GULP energy per Si atom -12390.948712 kJ/mol
# Density = 2.493982 g / cm^3
# Si number density = 24.996715 Si / 1000 Ang^3
#
#
#
# Elastic Constant Matrix: (Units=GPa)
#
#
# Indices 1 2 3 4 5 6 
#
# 1 240.6862 17.8235 48.9128 0.0000 0.5418 0.0000
# 2 17.8235 52.2563 -13.9490 0.0000 -4.1684 0.0000
# 3 48.9128 -13.9490 106.1039 0.0000 -2.3408 0.0000
# 4 0.0000 0.0000 0.0000 21.1093 0.0000 2.1822
# 5 0.5418 -4.1684 -2.3408 0.0000 27.1556 0.0000
# 6 0.0000 0.0000 0.0000 2.1822 0.0000 37.3786
#
#
#
# Elastic Compliance Matrix: (Units=1/GPa)
#
#
# Indices 1 2 3 4 5 6 
#
# 1 0.004856 -0.002397 -0.002569 0.000000 -0.000686 0.000000
# 2 -0.002397 0.021310 0.003987 0.000000 0.003663 0.000000
# 3 -0.002569 0.003987 0.011169 0.000000 0.001626 0.000000
# 4 0.000000 0.000000 0.000000 0.047660 0.000000 -0.002783
# 5 -0.000686 0.003663 0.001626 0.000000 0.037541 0.000000
# 6 0.000000 0.000000 0.000000 -0.002783 0.000000 0.026916
#
#
# Mechanical properties :
#
#
# Convention : Reuss Voigt Hill
#
# Bulk Modulus (GPa) = 28.26542 56.06896 42.16719
# Shear Modulus (GPa) = 30.63704 40.21263 35.42484
#
# Velocity S-wave (km/s) = 3.50472 4.01523 3.76863
# Velocity P-wave (km/s) = 5.26399 6.63139 5.98686
#
# Compressibility (1/GPa) = 0.03537892
#
# Stress axis : x y z
#
# Youngs Moduli (GPa) = 205.93825 46.92547 89.53414
#
# Poissons Ratio (x) = 0.11246 0.22999
# Poissons Ratio (y) = 0.49356 -0.35699
# Poissons Ratio (z) = 0.52899 -0.18710
#
# Static dielectric constant tensor:
#      x y z
#    x 5.757970 0.000000 0.082660 
#    y 0.000000 4.397770 0.000000 
#    z 0.082660 0.000000 4.095030 
# 
# 
# High freq. dielectric constant tensor:
#      x y z
#    x 2.030710 0.000000 0.003140 
#    y 0.000000 1.994850 0.000000 
#    z 0.003140 0.000000 1.974300 
# 
# From -- ./inp_files/1646.got.cif
#   From: 2010.03.12/outbox.cif.g09.slc.cpg/sg4_1_cif.got.tgz:1646.got - 2010.03.31 09:31:35.
