data_PCOD8045185
_publ_section_title
;
Structure prediction by ZEFSAII (Michael W. Deem and Ramdas Pophale) SiO2 
 PCOD8045185
Probable space group: P 2
;
_chemical_formula_sum "Si O2"
_cell_formula_units_Z 16
_cell_length_a 13.571390
_cell_length_b 5.027979
_cell_length_c 23.499195
_cell_angle_alpha 90.000000
_cell_angle_beta 29.045266
_cell_angle_gamma 90.000000
_cell_volume 778.503217
_symmetry_space_group_name_H-M "P 2"
_symmetry_group_IT_number 3
_symmetry_cell_setting 'monoclinic'
loop_
_space_group_symop_operation_xyz
x,y,z
-x,y,-z
loop_
_atom_site_type_symbol
_atom_site_label
_atom_site_fract_x
_atom_site_fract_y
_atom_site_fract_z
Si Si1 0.913164 0.222200 0.754462
Si Si2 0.223860 0.156168 0.501834
Si Si3 0.647458 0.721974 0.872201
Si Si4 0.824904 0.648126 0.545519
Si Si5 0.060808 0.128800 0.127817
Si Si6 0.707092 0.629837 0.028477
Si Si7 0.624678 0.699399 0.198813
Si Si8 0.324312 0.208270 0.753705
O O1 0.831270 0.516613 0.784323
O O2 0.973873 0.187156 0.788877
O O3 0.119914 0.184106 0.615302
O O4 0.738177 0.017387 0.823886
O O5 0.126136 0.360718 0.505895
O O6 0.462744 0.218114 0.387531
O O7 0.186643 0.858115 0.499622
O O8 0.522631 0.670609 0.877354
O O9 0.500000 0.686208 0.000000
O O10 0.614455 0.641659 0.686241
O O11 0.000000 0.732036 0.500000
O O12 0.845336 0.148622 0.206565
O O13 0.224453 0.329905 0.018742
O O14 0.144674 0.831270 0.079159
O O15 0.724207 0.680137 0.086856
O O16 0.724969 0.488260 0.191324
O O17 0.670090 0.991368 0.199232
#
# Coordination Sequence:
#
# PCOD8045185 Si02
#       8
#     2   2   2   2   2   2   2   2
#     4  12  24  40  65  93 122 164 203 245 310 364
#     4  10  23  40  62  90 122 157 202 250 304 354
#     4  12  23  43  61  88 133 160 195 260 297 359
#     4  10  21  40  59  89 122 160 201 248 296 365
#     4  12  24  41  64  89 121 165 208 249 302 358
#     4  12  25  39  63  94 121 162 206 245 309 369
#     4  10  23  40  61  90 124 159 203 251 306 357
#     4  10  23  44  62  87 126 158 204 263 294 350
#
# _framework density 20.55226
#
# number of rings (size 3 to 8) (size 9 to 14) (size 15 to 20)
#    0.000    1.000    2.500    3.750    3.500    3.500 
#    0.000    0.000    0.000    7.500    0.000    0.000 
#    0.000    0.000    0.000    0.000    0.000    0.000 
#
# Total GULP energy -198534.612874 kJ/mol
# GULP energy per Si atom -12408.413305 kJ/mol
# Density = 2.050548 g / cm^3
# Si number density = 20.552260 Si / 1000 Ang^3
#
#
#
# Elastic Constant Matrix: (Units=GPa)
#
#
# Indices 1 2 3 4 5 6 
#
# 1 100.4736 -2.2291 44.1463 0.0000 -6.7067 0.0000
# 2 -2.2291 74.9791 10.5090 0.0000 1.1645 0.0000
# 3 44.1463 10.5090 80.9419 0.0000 21.1709 0.0000
# 4 0.0000 0.0000 0.0000 19.6095 0.0000 -3.4527
# 5 -6.7067 1.1645 21.1709 0.0000 31.8083 0.0000
# 6 0.0000 0.0000 0.0000 -3.4527 0.0000 24.5156
#
#
#
# Elastic Compliance Matrix: (Units=1/GPa)
#
#
# Indices 1 2 3 4 5 6 
#
# 1 0.015975 0.001969 -0.011903 0.000000 0.011219 0.000000
# 2 0.001969 0.013845 -0.003448 0.000000 0.002203 0.000000
# 3 -0.011903 -0.003448 0.024116 0.000000 -0.018434 0.000000
# 4 0.000000 0.000000 0.000000 0.052292 0.000000 0.007365
# 5 0.011219 0.002203 -0.018434 0.000000 0.045993 0.000000
# 6 0.000000 0.000000 0.000000 0.007365 0.000000 0.041828
#
#
# Mechanical properties :
#
#
# Convention : Reuss Voigt Hill
#
# Bulk Modulus (GPa) = 36.80191 40.13856 38.47023
# Shear Modulus (GPa) = 21.75148 28.78456 25.26802
#
# Velocity S-wave (km/s) = 3.25676 3.74646 3.51016
# Velocity P-wave (km/s) = 5.66457 6.18765 5.93188
#
# Compressibility (1/GPa) = 0.02717250
#
# Stress axis : x y z
#
# Youngs Moduli (GPa) = 62.59625 72.23035 41.46650
#
# Poissons Ratio (x) = -0.14222 0.49358
# Poissons Ratio (y) = -0.12325 0.14296
# Poissons Ratio (z) = 0.74509 0.24902
#
# Static dielectric constant tensor:
#      x y z
#    x 3.620780 0.000000 -0.041660 
#    y 0.000000 3.928600 0.000000 
#    z -0.041660 0.000000 3.705380 
# 
# 
# High freq. dielectric constant tensor:
#      x y z
#    x 1.800040 0.000000 -0.000550 
#    y 0.000000 1.822840 0.000000 
#    z -0.000550 0.000000 1.802510 
# 
# From -- ./inp_files/15881.got.cif
#   From: 2010.03.12/outbox.cif.g09.slc.cpg/sg3_8_cif.got.tgz:15881.got - 2010.03.31 09:20:49.
