data_PCOD8045518
_publ_section_title
;
Structure prediction by ZEFSAII (Michael W. Deem and Ramdas Pophale) SiO2 
 PCOD8045518
Probable space group: P 2
;
_chemical_formula_sum "Si O2"
_cell_formula_units_Z 13
_cell_length_a 6.313049
_cell_length_b 5.155682
_cell_length_c 16.643279
_cell_angle_alpha 90.000000
_cell_angle_beta 79.994182
_cell_angle_gamma 90.000000
_cell_volume 533.467365
_symmetry_space_group_name_H-M "P 2"
_symmetry_group_IT_number 3
_symmetry_cell_setting 'monoclinic'
loop_
_space_group_symop_operation_xyz
x,y,z
-x,y,-z
loop_
_atom_site_type_symbol
_atom_site_label
_atom_site_fract_x
_atom_site_fract_y
_atom_site_fract_z
Si Si1 0.500000 0.953321 0.000000
Si Si2 0.414665 0.622424 0.149404
Si Si3 0.799643 0.577463 0.346705
Si Si4 0.108992 0.309736 0.071308
Si Si5 0.742581 0.267354 0.204387
Si Si6 0.555503 0.891438 0.688946
Si Si7 0.984259 0.072843 0.594953
O O1 0.445449 0.789988 0.922976
O O2 0.708548 0.117756 0.968390
O O3 0.197578 0.546401 0.118031
O O4 0.550392 0.364026 0.159639
O O5 0.349018 0.767580 0.235830
O O6 0.837281 0.506959 0.250744
O O7 0.544472 0.672574 0.366462
O O8 0.870840 0.324551 0.394012
O O9 0.944590 0.813006 0.365228
O O10 0.934514 0.155292 0.137210
O O11 0.000000 0.434166 0.000000
O O12 0.654972 0.056811 0.272823
O O13 0.730926 0.084211 0.636829
O O14 0.000000 0.026591 0.500000
#
# Coordination Sequence:
#
# PCOD8045518 Si02
#       7
#     1   2   2   2   2   2   2
#     4  12  26  42  66 104 142 194 252 316 384 458
#     4  11  25  44  70 102 144 198 252 318 383 453
#     4  11  26  49  78 116 154 208 259 314 394 468
#     4  12  25  43  67  98 146 192 252 314 386 451
#     4  11  25  47  74 106 143 199 258 317 379 460
#     4  11  26  49  79 111 154 204 266 323 385 471
#     4  12  28  51  79 120 162 205 257 324 398 471
#
# _framework density 24.368879
#
# number of rings (size 3 to 8) (size 9 to 14) (size 15 to 20)
#    0.000    0.615    1.538    5.538    8.615    4.923 
#    2.769    1.538    0.000    0.000    0.000    0.000 
#    0.000    0.000    0.000    0.000    0.000    0.000 
#
# Total GULP energy -161101.633875 kJ/mol
# GULP energy per Si atom -12392.433375 kJ/mol
# Density = 2.431341 g / cm^3
# Si number density = 24.368879 Si / 1000 Ang^3
#
#
#
# Elastic Constant Matrix: (Units=GPa)
#
#
# Indices 1 2 3 4 5 6 
#
# 1 124.4366 57.6010 90.2604 0.0000 6.5502 0.0000
# 2 57.6010 120.2178 41.1721 0.0000 2.5975 0.0000
# 3 90.2604 41.1721 123.9592 0.0000 -13.7944 0.0000
# 4 0.0000 0.0000 0.0000 23.6803 0.0000 -0.2017
# 5 6.5502 2.5975 -13.7944 0.0000 34.1781 0.0000
# 6 0.0000 0.0000 0.0000 -0.2017 0.0000 28.3110
#
#
#
# Elastic Compliance Matrix: (Units=1/GPa)
#
#
# Indices 1 2 3 4 5 6 
#
# 1 0.022320 -0.005098 -0.015697 0.000000 -0.010226 0.000000
# 2 -0.005098 0.010691 0.000187 0.000000 0.000240 0.000000
# 3 -0.015697 0.000187 0.020697 0.000000 0.011348 0.000000
# 4 0.000000 0.000000 0.000000 0.042232 0.000000 0.000301
# 5 -0.010226 0.000240 0.011348 0.000000 0.035780 0.000000
# 6 0.000000 0.000000 0.000000 0.000301 0.000000 0.035324
#
#
# Mechanical properties :
#
#
# Convention : Reuss Voigt Hill
#
# Bulk Modulus (GPa) = 80.03552 82.96452 81.50002
# Shear Modulus (GPa) = 23.53790 29.20588 26.37189
#
# Velocity S-wave (km/s) = 3.11126 3.46568 3.29324
# Velocity P-wave (km/s) = 6.76914 7.08052 6.92658
#
# Compressibility (1/GPa) = 0.01249445
#
# Stress axis : x y z
#
# Youngs Moduli (GPa) = 44.80301 93.53412 48.31529
#
# Poissons Ratio (x) = 0.47679 0.75840
# Poissons Ratio (y) = 0.22838 -0.00906
# Poissons Ratio (z) = 0.70327 -0.01753
#
# Static dielectric constant tensor:
#      x y z
#    x 4.572770 0.000000 0.338850 
#    y 0.000000 4.446690 0.000000 
#    z 0.338850 0.000000 4.553200 
# 
# 
# High freq. dielectric constant tensor:
#      x y z
#    x 1.976430 0.000000 0.020070 
#    y 0.000000 1.965760 0.000000 
#    z 0.020070 0.000000 1.964540 
# 
# From -- ./inp_files/3436.got.cif
#   From: 2010.03.12/outbox.cif.g09.slc.cpg/sg3_2_cif.got.tgz:3436.got - 2010.03.31 09:20:49.
