data_PCOD8045336
_publ_section_title
;
Structure prediction by ZEFSAII (Michael W. Deem and Ramdas Pophale) SiO2 
 PCOD8045336
Probable space group: P 2
;
_chemical_formula_sum "Si O2"
_cell_formula_units_Z 16
_cell_length_a 8.044745
_cell_length_b 8.947248
_cell_length_c 11.991504
_cell_angle_alpha 90.000000
_cell_angle_beta 52.595762
_cell_angle_gamma 90.000000
_cell_volume 685.643054
_symmetry_space_group_name_H-M "P 2"
_symmetry_group_IT_number 3
_symmetry_cell_setting 'monoclinic'
loop_
_space_group_symop_operation_xyz
x,y,z
-x,y,-z
loop_
_atom_site_type_symbol
_atom_site_label
_atom_site_fract_x
_atom_site_fract_y
_atom_site_fract_z
Si Si1 0.496915 0.654990 0.177294
Si Si2 0.527881 0.041959 0.615501
Si Si3 0.842152 0.426514 0.970757
Si Si4 0.917229 0.539815 0.713796
Si Si5 0.672306 0.718684 0.523619
Si Si6 0.273141 0.130177 0.077459
Si Si7 0.777952 0.918864 0.089234
Si Si8 0.181642 0.223656 0.350060
O O1 0.299336 0.631778 0.175932
O O2 0.406657 0.630141 0.337288
O O3 0.587817 0.819656 0.121757
O O4 0.686358 0.543438 0.086749
O O5 0.500000 0.104949 0.500000
O O6 0.610591 0.174808 0.664346
O O7 0.683305 0.897457 0.543682
O O8 0.303133 0.990433 0.760266
O O9 0.983620 0.486352 0.809795
O O10 0.695905 0.295736 0.983838
O O11 0.000000 0.367718 0.000000
O O12 0.853176 0.401440 0.657529
O O13 0.098574 0.649515 0.595408
O O14 0.500000 0.686654 0.500000
O O15 0.160223 0.133649 0.243003
O O16 0.500000 0.058299 0.000000
O O17 0.151996 0.037827 0.033422
O O18 0.000000 0.827779 0.000000
O O19 0.000000 0.159469 0.500000
#
# Coordination Sequence:
#
# PCOD8045336 Si02
#       8
#     2   2   2   2   2   2   2   2
#     4  11  23  41  68 102 138 181 231 290 345 425
#     4  10  24  45  69 104 143 185 236 301 359 426
#     4  11  23  42  67 100 138 181 230 289 354 418
#     4  11  24  45  72 102 141 188 238 293 353 430
#     4  10  22  44  71 102 142 185 231 293 359 422
#     4  11  23  44  68  96 139 181 234 295 346 421
#     4  11  25  44  70 103 141 188 237 293 359 420
#     4  11  24  44  69 105 137 185 241 288 359 430
#
# _framework density 23.335757000000001
#
# number of rings (size 3 to 8) (size 9 to 14) (size 15 to 20)
#    0.000    1.250    1.250    4.500    1.750    5.000 
#    0.000    2.500    0.000    0.000    0.000    0.000 
#    0.000    0.000    0.000    0.000    0.000    0.000 
#
# Total GULP energy -198233.447206 kJ/mol
# GULP energy per Si atom -12389.590450 kJ/mol
# Density = 2.328264 g / cm^3
# Si number density = 23.335757 Si / 1000 Ang^3
#
#
#
# Elastic Constant Matrix: (Units=GPa)
#
#
# Indices 1 2 3 4 5 6 
#
# 1 101.9281 34.7667 48.3887 0.0000 3.8988 0.0000
# 2 34.7667 72.2847 45.0012 0.0000 -0.3933 0.0000
# 3 48.3887 45.0012 123.8256 0.0000 0.4438 0.0000
# 4 0.0000 0.0000 0.0000 25.6659 0.0000 -2.5967
# 5 3.8988 -0.3933 0.4438 0.0000 50.5821 0.0000
# 6 0.0000 0.0000 0.0000 -2.5967 0.0000 32.9537
#
#
#
# Elastic Compliance Matrix: (Units=1/GPa)
#
#
# Indices 1 2 3 4 5 6 
#
# 1 0.012913 -0.003977 -0.003597 0.000000 -0.000995 0.000000
# 2 -0.003977 0.019106 -0.005391 0.000000 0.000502 0.000000
# 3 -0.003597 -0.005391 0.011441 0.000000 0.000135 0.000000
# 4 0.000000 0.000000 0.000000 0.039275 0.000000 0.003095
# 5 -0.000995 0.000502 0.000135 0.000000 0.019849 0.000000
# 6 0.000000 0.000000 0.000000 0.003095 0.000000 0.030589
#
#
# Mechanical properties :
#
#
# Convention : Reuss Voigt Hill
#
# Bulk Modulus (GPa) = 57.04904 61.59460 59.32182
# Shear Modulus (GPa) = 30.31270 33.16579 31.73925
#
# Velocity S-wave (km/s) = 3.60805 3.77403 3.69197
# Velocity P-wave (km/s) = 6.46973 6.74116 6.60684
#
# Compressibility (1/GPa) = 0.01752878
#
# Stress axis : x y z
#
# Youngs Moduli (GPa) = 77.44081 52.33968 87.40831
#
# Poissons Ratio (x) = 0.20813 0.31445
# Poissons Ratio (y) = 0.30795 0.47125
# Poissons Ratio (z) = 0.27859 0.28218
#
# Static dielectric constant tensor:
#      x y z
#    x 4.114610 0.000000 0.155920 
#    y 0.000000 4.051660 0.000000 
#    z 0.155920 0.000000 4.422280 
# 
# 
# High freq. dielectric constant tensor:
#      x y z
#    x 1.916460 0.000000 0.008760 
#    y 0.000000 1.910510 0.000000 
#    z 0.008760 0.000000 1.944720 
# 
# From -- ./inp_files/10702.got.cif
#   From: 2010.03.12/outbox.cif.g09.slc.cpg/sg3_6_cif.got.tgz:10702.got - 2010.03.31 09:20:49.
