data_PCOD8045791
_publ_section_title
;
Structure prediction by ZEFSAII (Michael W. Deem and Ramdas Pophale) SiO2 
 PCOD8045791
Probable space group: P 21
;
_chemical_formula_sum "Si O2"
_cell_formula_units_Z 16
_cell_length_a 9.239610
_cell_length_b 13.230274
_cell_length_c 9.191469
_cell_angle_alpha 90.000000
_cell_angle_beta 133.446147
_cell_angle_gamma 90.000000
_cell_volume 815.749121
_symmetry_space_group_name_H-M "P 21"
_symmetry_group_IT_number 4
_symmetry_cell_setting 'monoclinic'
loop_
_space_group_symop_operation_xyz
x,y,z
-x,1/2+y,-z
loop_
_atom_site_type_symbol
_atom_site_label
_atom_site_fract_x
_atom_site_fract_y
_atom_site_fract_z
Si Si1 0.394996 0.618670 0.197825
Si Si2 0.236201 0.245794 0.592992
Si Si3 0.757841 0.127807 0.593952
Si Si4 0.095563 0.624576 0.752965
Si Si5 0.400786 0.741064 0.763836
Si Si6 0.417973 0.963947 0.884129
Si Si7 0.231462 0.468682 0.650064
Si Si8 0.802319 0.644020 0.139549
O O1 0.528604 0.719900 0.261227
O O2 0.371056 0.604446 0.352788
O O3 0.506885 0.523350 0.206127
O O4 0.175527 0.622551 0.973244
O O5 0.174530 0.362271 0.538652
O O6 0.149676 0.209719 0.686041
O O7 0.109248 0.186441 0.382476
O O8 0.674231 0.228364 0.454676
O O9 0.988844 0.140532 0.802711
O O10 0.722104 0.037884 0.455949
O O11 0.279171 0.670612 0.788944
O O12 0.064754 0.516593 0.646340
O O13 0.355748 0.854769 0.782582
O O14 0.630330 0.701919 0.930455
O O15 0.243845 0.028764 0.841382
O O16 0.577591 0.947261 0.119685
#
# Coordination Sequence:
#
# PCOD8045791 Si02
#       8
#     2   2   2   2   2   2   2   2
#     4  10  23  41  53  85 128 152 192 241 295 353
#     4  11  20  36  65  85 111 157 197 242 291 346
#     4  11  24  38  57  86 126 155 190 244 298 356
#     4  10  20  37  60  90 113 153 194 251 285 345
#     4  11  20  38  64  88 115 151 205 246 287 346
#     4  10  20  38  65  84 115 155 197 249 291 344
#     4  10  19  37  63  88 116 145 206 243 290 346
#     4  11  20  37  61  90 112 154 195 244 293 342
#
# _framework density 19.613875
#
# number of rings (size 3 to 8) (size 9 to 14) (size 15 to 20)
#    0.000    1.500    8.750    0.000    1.750    2.000 
#    0.000    0.000    0.000    0.000    0.000    0.000 
#    0.000    0.000    0.000    0.000    0.000    0.000 
#
# Total GULP energy -198260.981225 kJ/mol
# GULP energy per Si atom -12391.311327 kJ/mol
# Density = 1.956923 g / cm^3
# Si number density = 19.613875 Si / 1000 Ang^3
#
#
#
# Elastic Constant Matrix: (Units=GPa)
#
#
# Indices 1 2 3 4 5 6 
#
# 1 58.5460 17.4531 24.6921 0.0000 -4.6153 0.0000
# 2 17.4531 116.5603 28.6404 0.0000 2.1690 0.0000
# 3 24.6921 28.6404 79.2370 0.0000 -2.9322 0.0000
# 4 0.0000 0.0000 0.0000 26.7445 0.0000 1.6977
# 5 -4.6153 2.1690 -2.9322 0.0000 32.1108 0.0000
# 6 0.0000 0.0000 0.0000 1.6977 0.0000 9.6414
#
#
#
# Elastic Compliance Matrix: (Units=1/GPa)
#
#
# Indices 1 2 3 4 5 6 
#
# 1 0.020131 -0.001692 -0.005569 0.000000 0.002499 0.000000
# 2 -0.001692 0.009587 -0.002981 0.000000 -0.001163 0.000000
# 3 -0.005569 -0.002981 0.015463 0.000000 0.000813 0.000000
# 4 0.000000 0.000000 0.000000 0.037813 0.000000 -0.006658
# 5 0.002499 -0.001163 0.000813 0.000000 0.031654 0.000000
# 6 0.000000 0.000000 0.000000 -0.006658 0.000000 0.104892
#
#
# Mechanical properties :
#
#
# Convention : Reuss Voigt Hill
#
# Bulk Modulus (GPa) = 40.49166 43.99050 42.24108
# Shear Modulus (GPa) = 20.14043 25.93652 23.03847
#
# Velocity S-wave (km/s) = 3.20792 3.64037 3.43096
# Velocity P-wave (km/s) = 5.86602 6.33614 6.10561
#
# Compressibility (1/GPa) = 0.02469644
#
# Stress axis : x y z
#
# Youngs Moduli (GPa) = 49.67481 104.31087 64.66916
#
# Poissons Ratio (x) = 0.17654 0.36015
# Poissons Ratio (y) = 0.08407 0.19277
# Poissons Ratio (z) = 0.27664 0.31093
#
# Static dielectric constant tensor:
#      x y z
#    x 3.164650 0.000000 0.143870 
#    y 0.000000 3.818630 0.000000 
#    z 0.143870 0.000000 3.824890 
# 
# 
# High freq. dielectric constant tensor:
#      x y z
#    x 1.723960 0.000000 0.013140 
#    y 0.000000 1.762260 0.000000 
#    z 0.013140 0.000000 1.777160 
# 
# From -- ./inp_files/6672.got.cif
#   From: 2010.03.12/outbox.cif.g09.slc.cpg/sg4_4_cif.got.tgz:6672.got - 2010.03.31 09:31:35.
