data_PCOD8045891
_publ_section_title
;
Structure prediction by ZEFSAII (Michael W. Deem and Ramdas Pophale) SiO2 
 PCOD8045891
Probable space group: P 21
;
_chemical_formula_sum "Si O2"
_cell_formula_units_Z 14
_cell_length_a 8.833705
_cell_length_b 7.409234
_cell_length_c 11.801736
_cell_angle_alpha 90.000000
_cell_angle_beta 64.419645
_cell_angle_gamma 90.000000
_cell_volume 696.721650
_symmetry_space_group_name_H-M "P 21"
_symmetry_group_IT_number 4
_symmetry_cell_setting 'monoclinic'
loop_
_space_group_symop_operation_xyz
x,y,z
-x,1/2+y,-z
loop_
_atom_site_type_symbol
_atom_site_label
_atom_site_fract_x
_atom_site_fract_y
_atom_site_fract_z
Si Si1 0.924173 0.041070 0.897767
Si Si2 0.635659 0.901725 0.852602
Si Si3 0.466491 0.381205 0.363684
Si Si4 0.281746 0.172748 0.775572
Si Si5 0.645790 0.024597 0.369407
Si Si6 0.050342 0.634509 0.866442
Si Si7 0.304796 0.081334 0.016018
O O1 0.081780 0.169850 0.811961
O O2 0.769737 0.049177 0.857980
O O3 0.854818 0.096438 0.044958
O O4 0.989728 0.837895 0.879710
O O5 0.643625 0.902542 0.714161
O O6 0.448950 0.932757 0.962794
O O7 0.675965 0.701265 0.878814
O O8 0.643970 0.481800 0.290088
O O9 0.504617 0.171672 0.380435
O O10 0.361034 0.481058 0.495353
O O11 0.383191 0.335855 0.685539
O O12 0.312178 0.201995 0.899337
O O13 0.830151 0.095692 0.278178
O O14 0.885330 0.500936 0.915939
#
# Coordination Sequence:
#
# PCOD8045891 Si02
#       7
#     2   2   2   2   2   2   2
#     4  10  20  38  61  97 127 157 209 260 316 379
#     4  10  22  37  59  92 134 154 198 269 316 369
#     4  11  24  40  63  88 123 165 216 256 304 364
#     4  10  21  40  63  91 119 164 212 251 305 383
#     4  12  22  40  67  86 120 172 214 257 297 370
#     4  10  20  35  62  88 123 165 203 255 309 374
#     4   9  21  36  57  94 124 157 202 252 327 369
#
# _framework density 20.094110000000001
#
# number of rings (size 3 to 8) (size 9 to 14) (size 15 to 20)
#    0.000    1.714    2.857    2.571    4.000    1.143 
#    0.000    2.857    0.000    0.000    0.000    0.000 
#    0.000    0.000    0.000    0.000    0.000    0.000 
#
# Total GULP energy -173511.032494 kJ/mol
# GULP energy per Si atom -12393.645178 kJ/mol
# Density = 2.004837 g / cm^3
# Si number density = 20.094110 Si / 1000 Ang^3
#
#
#
# Elastic Constant Matrix: (Units=GPa)
#
#
# Indices 1 2 3 4 5 6 
#
# 1 113.6589 29.1466 60.8162 0.0000 13.3689 0.0000
# 2 29.1466 64.6280 25.4564 0.0000 5.5225 0.0000
# 3 60.8162 25.4564 144.8559 0.0000 8.5007 0.0000
# 4 0.0000 0.0000 0.0000 31.7104 0.0000 -1.0707
# 5 13.3689 5.5225 8.5007 0.0000 22.7483 0.0000
# 6 0.0000 0.0000 0.0000 -1.0707 0.0000 28.4605
#
#
#
# Elastic Compliance Matrix: (Units=1/GPa)
#
#
# Indices 1 2 3 4 5 6 
#
# 1 0.012638 -0.003548 -0.004393 0.000000 -0.004924 0.000000
# 2 -0.003548 0.017824 -0.001545 0.000000 -0.001664 0.000000
# 3 -0.004393 -0.001545 0.009044 0.000000 -0.000423 0.000000
# 4 0.000000 0.000000 0.000000 0.031576 0.000000 0.001188
# 5 -0.004924 -0.001664 -0.000423 0.000000 0.047415 0.000000
# 6 0.000000 0.000000 0.000000 0.001188 0.000000 0.035181
#
#
# Mechanical properties :
#
#
# Convention : Reuss Voigt Hill
#
# Bulk Modulus (GPa) = 48.70182 61.55348 55.12765
# Shear Modulus (GPa) = 27.85567 30.43206 29.14386
#
# Velocity S-wave (km/s) = 3.72729 3.89585 3.81250
# Velocity P-wave (km/s) = 6.54317 7.13694 6.84650
#
# Compressibility (1/GPa) = 0.02053311
#
# Stress axis : x y z
#
# Youngs Moduli (GPa) = 79.12488 56.10343 110.56724
#
# Poissons Ratio (x) = 0.19908 0.48578
# Poissons Ratio (y) = 0.28077 0.17082
# Poissons Ratio (z) = 0.34763 0.08668
#
# Static dielectric constant tensor:
#      x y z
#    x 3.950680 0.000000 -0.164650 
#    y 0.000000 3.632130 0.000000 
#    z -0.164650 0.000000 3.718670 
# 
# 
# High freq. dielectric constant tensor:
#      x y z
#    x 1.770540 0.000000 -0.008040 
#    y 0.000000 1.786470 0.000000 
#    z -0.008040 0.000000 1.777240 
# 
# From -- ./inp_files/7619.got.cif
#   From: 2010.03.12/outbox.cif.g09.slc.cpg/sg4_4_cif.got.tgz:7619.got - 2010.03.31 09:31:35.
