data_PCOD8045269
_publ_section_title
;
Structure prediction by ZEFSAII (Michael W. Deem and Ramdas Pophale) SiO2 
 PCOD8045269
Probable space group: P 2
;
_chemical_formula_sum "Si O2"
_cell_formula_units_Z 11
_cell_length_a 13.162016
_cell_length_b 5.680756
_cell_length_c 8.147309
_cell_angle_alpha 90.000000
_cell_angle_beta 50.538333
_cell_angle_gamma 90.000000
_cell_volume 470.314262
_symmetry_space_group_name_H-M "P 2"
_symmetry_group_IT_number 3
_symmetry_cell_setting 'monoclinic'
loop_
_space_group_symop_operation_xyz
x,y,z
-x,y,-z
loop_
_atom_site_type_symbol
_atom_site_label
_atom_site_fract_x
_atom_site_fract_y
_atom_site_fract_z
Si Si1 0.883356 0.970200 0.879750
Si Si2 0.370965 0.038433 0.444903
Si Si3 0.871709 0.298201 0.374767
Si Si4 0.000000 0.629080 0.500000
Si Si5 0.742768 0.639328 0.263019
Si Si6 0.359288 0.239659 0.818414
O O1 0.908569 0.792016 0.705656
O O2 0.841777 0.830036 0.085390
O O3 0.009575 0.125795 0.791721
O O4 0.764424 0.145575 0.949269
O O5 0.254736 0.137225 0.448162
O O6 0.355713 0.136827 0.641455
O O7 0.508476 0.138676 0.229398
O O8 0.352560 0.756181 0.497353
O O9 0.838677 0.450055 0.247827
O O10 0.903383 0.464981 0.494805
O O11 0.655330 0.521464 0.203807
#
# Coordination Sequence:
#
# PCOD8045269 Si02
#       6
#     2   2   2   1   2   2
#     4  11  24  40  63  92 125 167 212 256 311 374
#     4   9  20  37  62  96 129 158 201 255 314 377
#     4  11  24  40  63  92 125 167 212 256 311 374
#     4  12  26  42  60  84 128 174 210 262 312 356
#     4  10  22  40  68  98 128 162 202 264 318 364
#     4   9  20  37  62  96 129 158 201 255 314 377
#
# _framework density 23.388618000000001
#
# number of rings (size 3 to 8) (size 9 to 14) (size 15 to 20)
#    0.000    1.818    0.000    2.727    0.000   29.091 
#    0.000    0.000    0.000   30.545    0.000    0.000 
#    0.000    0.000    0.000    0.000    0.000    0.000 
#
# Total GULP energy -136274.139000 kJ/mol
# GULP energy per Si atom -12388.558091 kJ/mol
# Density = 2.333538 g / cm^3
# Si number density = 23.388618 Si / 1000 Ang^3
#
#
#
# Elastic Constant Matrix: (Units=GPa)
#
#
# Indices 1 2 3 4 5 6 
#
# 1 108.3111 71.6764 79.6057 0.0000 -51.0993 0.0000
# 2 71.6764 157.7653 50.3558 0.0000 -31.3227 0.0000
# 3 79.6057 50.3558 60.4562 0.0000 -35.9922 0.0000
# 4 0.0000 0.0000 0.0000 30.7951 0.0000 -0.5047
# 5 -51.0993 -31.3227 -35.9922 0.0000 47.5601 0.0000
# 6 0.0000 0.0000 0.0000 -0.5047 0.0000 33.9268
#
#
#
# Elastic Compliance Matrix: (Units=1/GPa)
#
#
# Indices 1 2 3 4 5 6 
#
# 1 0.365925 -0.016375 -0.437795 0.000000 0.051060 0.000000
# 2 -0.016375 0.009372 0.012660 0.000000 -0.001841 0.000000
# 3 -0.437795 0.012660 0.559445 0.000000 -0.038663 0.000000
# 4 0.000000 0.000000 0.000000 0.032481 0.000000 0.000483
# 5 0.051060 -0.001841 -0.038663 0.000000 0.045414 0.000000
# 6 0.000000 0.000000 0.000000 0.000483 0.000000 0.029482
#
#
# Mechanical properties :
#
#
# Convention : Reuss Voigt Hill
#
# Bulk Modulus (GPa) = 19.33414 81.08981 50.21197
# Shear Modulus (GPa) = 2.57416 30.78273 16.67845
#
# Velocity S-wave (km/s) = 1.05024 3.63180 2.67329
# Velocity P-wave (km/s) = 3.12331 7.23412 5.57170
#
# Compressibility (1/GPa) = 0.05172199
#
# Stress axis : x y z
#
# Youngs Moduli (GPa) = 2.73280 106.70297 1.78749
#
# Poissons Ratio (x) = 1.74724 0.78255
# Poissons Ratio (y) = 0.04475 -0.02263
# Poissons Ratio (z) = 1.19641 -1.35082
#
# Static dielectric constant tensor:
#      x y z
#    x 4.793340 0.000000 -0.738480 
#    y 0.000000 6.158020 0.000000 
#    z -0.738480 0.000000 4.519610 
# 
# 
# High freq. dielectric constant tensor:
#      x y z
#    x 1.905120 0.000000 -0.033980 
#    y 0.000000 1.948980 0.000000 
#    z -0.033980 0.000000 1.894850 
# 
# From -- ./inp_files/8142.got.cif
#   From: 2010.03.12/outbox.cif.g09.slc.cpg/sg3_5_cif.got.tgz:8142.got - 2010.03.31 09:20:49.
