data_PCOD8045263
_publ_section_title
;
Structure prediction by ZEFSAII (Michael W. Deem and Ramdas Pophale) SiO2 
 PCOD8045263
Probable space group: P 2
;
_chemical_formula_sum "Si O2"
_cell_formula_units_Z 16
_cell_length_a 12.198765
_cell_length_b 9.152661
_cell_length_c 8.759161
_cell_angle_alpha 90.000000
_cell_angle_beta 46.350162
_cell_angle_gamma 90.000000
_cell_volume 707.631802
_symmetry_space_group_name_H-M "P 2"
_symmetry_group_IT_number 3
_symmetry_cell_setting 'monoclinic'
loop_
_space_group_symop_operation_xyz
x,y,z
-x,y,-z
loop_
_atom_site_type_symbol
_atom_site_label
_atom_site_fract_x
_atom_site_fract_y
_atom_site_fract_z
Si Si1 0.148716 0.715420 0.261409
Si Si2 0.340548 0.373085 0.570931
Si Si3 0.322391 0.878387 0.661390
Si Si4 0.191275 0.086096 0.572702
Si Si5 0.157974 0.021909 0.092399
Si Si6 0.680881 0.204471 0.839646
Si Si7 0.346792 0.505742 0.238033
Si Si8 0.162238 0.599376 0.915861
O O1 0.273893 0.660242 0.262248
O O2 0.000000 0.692057 0.500000
O O3 0.170291 0.882803 0.193298
O O4 0.150575 0.611498 0.109858
O O5 0.500000 0.343805 0.500000
O O6 0.268099 0.220750 0.588687
O O7 0.365479 0.483915 0.402859
O O8 0.222345 0.441495 0.806104
O O9 0.500000 0.905104 0.500000
O O10 0.286181 0.710883 0.729288
O O11 0.262715 0.930868 0.554645
O O12 0.226084 0.981677 0.865121
O O13 0.235166 0.093103 0.354214
O O14 0.010921 0.082069 0.765646
O O15 0.264408 0.154178 0.047059
O O16 0.745240 0.365777 0.739105
O O17 0.500000 0.194909 0.000000
O O18 0.500000 0.501237 0.000000
O O19 0.000000 0.636076 0.000000
#
# Coordination Sequence:
#
# PCOD8045263 Si02
#       8
#     2   2   2   2   2   2   2   2
#     4  11  23  41  64  92 128 170 217 271 329 395
#     4  11  24  43  67  99 134 176 226 278 336 403
#     4  11  23  41  64  91 127 172 222 278 336 401
#     4  11  23  41  65  95 131 173 221 278 336 399
#     4  11  24  42  64  95 129 170 222 278 336 401
#     4  10  22  40  62  92 129 170 218 273 332 400
#     4  10  23  41  63  93 129 169 216 271 328 394
#     4  11  24  41  63  95 132 174 222 277 336 403
#
# _framework density 22.61063
#
# number of rings (size 3 to 8) (size 9 to 14) (size 15 to 20)
#    0.000    1.250    0.000    6.000    0.000    9.500 
#    0.000    0.000    0.000    0.000    0.000    0.000 
#    0.000    0.000    0.000    0.000    0.000    0.000 
#
# Total GULP energy -198359.505784 kJ/mol
# GULP energy per Si atom -12397.469111 kJ/mol
# Density = 2.255917 g / cm^3
# Si number density = 22.610630 Si / 1000 Ang^3
#
#
#
# Elastic Constant Matrix: (Units=GPa)
#
#
# Indices 1 2 3 4 5 6 
#
# 1 113.2555 32.9032 8.5837 0.0000 -21.7670 0.0000
# 2 32.9032 54.5390 21.3067 0.0000 8.5125 0.0000
# 3 8.5837 21.3067 101.1467 0.0000 -16.0797 0.0000
# 4 0.0000 0.0000 0.0000 42.0271 0.0000 5.0088
# 5 -21.7670 8.5125 -16.0797 0.0000 34.3173 0.0000
# 6 0.0000 0.0000 0.0000 5.0088 0.0000 42.9342
#
#
#
# Elastic Compliance Matrix: (Units=1/GPa)
#
#
# Indices 1 2 3 4 5 6 
#
# 1 0.015036 -0.012776 0.003712 0.000000 0.014446 0.000000
# 2 -0.012776 0.032789 -0.009081 0.000000 -0.020492 0.000000
# 3 0.003712 -0.009081 0.013200 0.000000 0.010792 0.000000
# 4 0.000000 0.000000 0.000000 0.024130 0.000000 -0.002815
# 5 0.014446 -0.020492 0.010792 0.000000 0.048442 0.000000
# 6 0.000000 0.000000 0.000000 -0.002815 0.000000 0.023620
#
#
# Mechanical properties :
#
#
# Convention : Reuss Voigt Hill
#
# Bulk Modulus (GPa) = 40.42727 43.83649 42.13188
# Shear Modulus (GPa) = 24.78275 37.59887 31.19081
#
# Velocity S-wave (km/s) = 3.31428 4.08227 3.71816
# Velocity P-wave (km/s) = 5.70653 6.45365 6.09156
#
# Compressibility (1/GPa) = 0.02473578
#
# Stress axis : x y z
#
# Youngs Moduli (GPa) = 66.50495 30.49772 75.75701
#
# Poissons Ratio (x) = 0.38965 -0.28120
# Poissons Ratio (y) = 0.84969 0.68792
# Poissons Ratio (z) = -0.24685 0.27694
#
# Static dielectric constant tensor:
#      x y z
#    x 3.931710 0.000000 0.208840 
#    y 0.000000 4.493090 0.000000 
#    z 0.208840 0.000000 4.265590 
# 
# 
# High freq. dielectric constant tensor:
#      x y z
#    x 1.892100 0.000000 0.005640 
#    y 0.000000 1.894610 0.000000 
#    z 0.005640 0.000000 1.907820 
# 
# From -- ./inp_files/7404.got.cif
#   From: 2010.03.12/outbox.cif.g09.slc.cpg/sg3_4_cif.got.tgz:7404.got - 2010.03.31 09:20:49.
