data_PCOD8045706
_publ_section_title
;
Structure prediction by ZEFSAII (Michael W. Deem and Ramdas Pophale) SiO2 
 PCOD8045706
Probable space group: P 21
;
_chemical_formula_sum "Si O2"
_cell_formula_units_Z 16
_cell_length_a 21.316522
_cell_length_b 7.414545
_cell_length_c 12.842253
_cell_angle_alpha 90.000000
_cell_angle_beta 25.687406
_cell_angle_gamma 90.000000
_cell_volume 879.816522
_symmetry_space_group_name_H-M "P 21"
_symmetry_group_IT_number 4
_symmetry_cell_setting 'monoclinic'
loop_
_space_group_symop_operation_xyz
x,y,z
-x,1/2+y,-z
loop_
_atom_site_type_symbol
_atom_site_label
_atom_site_fract_x
_atom_site_fract_y
_atom_site_fract_z
Si Si1 0.552877 0.339420 0.800722
Si Si2 0.161980 0.982055 0.710992
Si Si3 0.461851 0.936206 0.941713
Si Si4 0.985869 0.137139 0.146815
Si Si5 0.761647 0.842979 0.490924
Si Si6 0.836951 0.509429 0.697240
Si Si7 0.990392 0.166791 0.386152
Si Si8 0.239705 0.386418 0.268459
O O1 0.678255 0.397923 0.533705
O O2 0.540501 0.126872 0.821858
O O3 0.593264 0.400482 0.858042
O O4 0.400861 0.412358 0.980666
O O5 0.150616 0.157905 0.653999
O O6 0.043156 0.839057 0.849702
O O7 0.128063 0.052342 0.878806
O O8 0.594634 0.811121 0.700014
O O9 0.323323 0.921685 0.072331
O O10 0.014482 0.144503 0.227294
O O11 0.852290 0.010966 0.309360
O O12 0.735861 0.898666 0.646768
O O13 0.959000 0.373248 0.468164
O O14 0.839232 0.695717 0.630376
O O15 0.871606 0.573884 0.763586
O O16 0.853722 0.052868 0.632194
#
# Coordination Sequence:
#
# PCOD8045706 Si02
#       8
#     2   2   2   2   2   2   2   2
#     4  10  19  32  55  85 116 142 184 235 296 335
#     4  12  21  37  56  85 116 154 182 232 288 341
#     4  10  20  33  56  90 114 142 185 241 292 343
#     4  11  23  37  56  83 116 153 192 229 277 344
#     4  10  20  35  56  83 119 142 188 233 290 332
#     4  11  21  36  56  83 116 149 184 226 287 335
#     4  11  22  37  56  81 117 151 190 227 277 339
#     4   9  20  35  53  86 112 145 183 237 277 339
#
# _framework density 18.185611000000002
#
# number of rings (size 3 to 8) (size 9 to 14) (size 15 to 20)
#    0.000    1.500    3.750    3.750    5.250    0.000 
#    0.000    0.000    0.000    3.000    0.000    0.000 
#    0.000    0.000    0.000    0.000    0.000    0.000 
#
# Total GULP energy -198215.177157 kJ/mol
# GULP energy per Si atom -12388.448572 kJ/mol
# Density = 1.814422 g / cm^3
# Si number density = 18.185611 Si / 1000 Ang^3
#
#
#
# Elastic Constant Matrix: (Units=GPa)
#
#
# Indices 1 2 3 4 5 6 
#
# 1 87.4649 34.4818 47.4323 0.0000 -16.4674 0.0000
# 2 34.4818 85.9658 40.5653 0.0000 -3.1928 0.0000
# 3 47.4323 40.5653 112.6564 0.0000 2.6825 0.0000
# 4 0.0000 0.0000 0.0000 19.6845 0.0000 2.5743
# 5 -16.4674 -3.1928 2.6825 0.0000 13.3819 0.0000
# 6 0.0000 0.0000 0.0000 2.5743 0.0000 25.6508
#
#
#
# Elastic Compliance Matrix: (Units=1/GPa)
#
#
# Indices 1 2 3 4 5 6 
#
# 1 0.023685 -0.004026 -0.009238 0.000000 0.030038 0.000000
# 2 -0.004026 0.014958 -0.003676 0.000000 -0.000648 0.000000
# 3 -0.009238 -0.003676 0.014450 0.000000 -0.015142 0.000000
# 4 0.000000 0.000000 0.000000 0.051477 0.000000 -0.005166
# 5 0.030038 -0.000648 -0.015142 0.000000 0.114572 0.000000
# 6 0.000000 0.000000 0.000000 -0.005166 0.000000 0.039504
#
#
# Mechanical properties :
#
#
# Convention : Reuss Voigt Hill
#
# Bulk Modulus (GPa) = 52.04371 59.00508 55.52440
# Shear Modulus (GPa) = 16.72634 22.65061 19.68848
#
# Velocity S-wave (km/s) = 3.03604 3.53303 3.29392
# Velocity P-wave (km/s) = 6.40080 7.01138 6.71304
#
# Compressibility (1/GPa) = 0.01921462
#
# Stress axis : x y z
#
# Youngs Moduli (GPa) = 42.22005 66.85575 69.20328
#
# Poissons Ratio (x) = 0.26913 0.63931
# Poissons Ratio (y) = 0.16996 0.25436
# Poissons Ratio (z) = 0.39003 0.24573
#
# Static dielectric constant tensor:
#      x y z
#    x 3.270190 0.000000 -0.304610 
#    y 0.000000 3.637400 0.000000 
#    z -0.304610 0.000000 3.663300 
# 
# 
# High freq. dielectric constant tensor:
#      x y z
#    x 1.665900 0.000000 -0.019680 
#    y 0.000000 1.731360 0.000000 
#    z -0.019680 0.000000 1.691780 
# 
# From -- ./inp_files/11853.got.cif
#   From: 2010.03.12/outbox.cif.g09.slc.cpg/sg4_6_cif.got.tgz:11853.got - 2010.03.31 09:31:35.
