data_PCOD8045987
_publ_section_title
;
Structure prediction by ZEFSAII (Michael W. Deem and Ramdas Pophale) SiO2 
 PCOD8045987
Probable space group: P 21
;
_chemical_formula_sum "Si O2"
_cell_formula_units_Z 16
_cell_length_a 4.902527
_cell_length_b 14.906735
_cell_length_c 11.691514
_cell_angle_alpha 90.000000
_cell_angle_beta 66.951232
_cell_angle_gamma 90.000000
_cell_volume 786.216705
_symmetry_space_group_name_H-M "P 21"
_symmetry_group_IT_number 4
_symmetry_cell_setting 'monoclinic'
loop_
_space_group_symop_operation_xyz
x,y,z
-x,1/2+y,-z
loop_
_atom_site_type_symbol
_atom_site_label
_atom_site_fract_x
_atom_site_fract_y
_atom_site_fract_z
Si Si1 0.976929 0.125000 0.656868
Si Si2 0.609770 0.274993 0.834051
Si Si3 0.693418 0.051414 0.350006
Si Si4 0.836815 0.833589 0.932717
Si Si5 0.141251 0.392674 0.832790
Si Si6 0.170893 0.169301 0.384178
Si Si7 0.508494 0.008391 0.623821
Si Si8 0.487077 0.835684 0.770171
O O1 0.765582 0.183713 0.771562
O O2 0.801280 0.038861 0.641439
O O3 0.081895 0.184525 0.531452
O O4 0.256215 0.085215 0.680724
O O5 0.426697 0.326529 0.762082
O O6 0.847359 0.344110 0.841744
O O7 0.370195 0.254920 0.975940
O O8 0.409409 0.090640 0.332808
O O9 0.587202 0.994689 0.477682
O O10 0.894318 0.136421 0.353627
O O11 0.849955 0.985993 0.235151
O O12 0.661287 0.873453 0.852537
O O13 0.163225 0.794279 0.851301
O O14 0.871188 0.910223 0.026747
O O15 0.294804 0.262617 0.318928
O O16 0.412976 0.914135 0.692591
#
# Coordination Sequence:
#
# PCOD8045987 Si02
#       8
#     2   2   2   2   2   2   2   2
#     4  10  21  42  60  95 123 150 208 255 308 354
#     4  10  20  38  66  85 118 162 202 257 292 352
#     4  10  21  42  60  95 123 150 208 255 308 354
#     4  10  22  40  60  88 124 158 214 252 270 386
#     4  10  20  38  66  85 118 162 202 257 292 352
#     4  10  23  38  63  91 128 155 193 262 305 380
#     4  10  23  38  63  91 128 155 193 262 305 380
#     4  12  22  42  62  88 126 168 198 238 332 354
#
# _framework density 20.350625000000001
#
# number of rings (size 3 to 8) (size 9 to 14) (size 15 to 20)
#    0.750    1.000    1.250    3.000    1.750    0.000 
#    2.250    5.000    0.000    0.000    0.000    0.000 
#    0.000    0.000    0.000    0.000    0.000    0.000 
#
# Total GULP energy -198281.225865 kJ/mol
# GULP energy per Si atom -12392.576617 kJ/mol
# Density = 2.030431 g / cm^3
# Si number density = 20.350625 Si / 1000 Ang^3
#
#
#
# Elastic Constant Matrix: (Units=GPa)
#
#
# Indices 1 2 3 4 5 6 
#
# 1 96.1291 10.4076 33.2029 0.0000 -16.8028 0.0000
# 2 10.4076 70.8190 55.5699 0.0000 -8.6895 0.0000
# 3 33.2029 55.5699 103.4904 0.0000 -11.2489 0.0000
# 4 0.0000 0.0000 0.0000 20.0204 0.0000 -3.9847
# 5 -16.8028 -8.6895 -11.2489 0.0000 29.8112 0.0000
# 6 0.0000 0.0000 0.0000 -3.9847 0.0000 21.0465
#
#
#
# Elastic Compliance Matrix: (Units=1/GPa)
#
#
# Indices 1 2 3 4 5 6 
#
# 1 0.012894 0.002736 -0.004932 0.000000 0.006204 0.000000
# 2 0.002736 0.025130 -0.013981 0.000000 0.003591 0.000000
# 3 -0.004932 -0.013981 0.018777 0.000000 0.000230 0.000000
# 4 0.000000 0.000000 0.000000 0.051905 0.000000 0.009827
# 5 0.006204 0.003591 0.000230 0.000000 0.038175 0.000000
# 6 0.000000 0.000000 0.000000 0.009827 0.000000 0.049374
#
#
# Mechanical properties :
#
#
# Convention : Reuss Voigt Hill
#
# Bulk Modulus (GPa) = 40.90313 52.08881 46.49597
# Shear Modulus (GPa) = 21.11859 25.59282 23.35571
#
# Velocity S-wave (km/s) = 3.22489 3.55010 3.39140
# Velocity P-wave (km/s) = 5.83175 6.51579 6.18324
#
# Compressibility (1/GPa) = 0.02444801
#
# Stress axis : x y z
#
# Youngs Moduli (GPa) = 77.55350 39.79376 53.25621
#
# Poissons Ratio (x) = -0.10888 0.26264
# Poissons Ratio (y) = -0.21219 0.74457
# Poissons Ratio (z) = 0.38247 0.55635
#
# Static dielectric constant tensor:
#      x y z
#    x 3.985190 0.000000 -0.045660 
#    y 0.000000 3.171440 0.000000 
#    z -0.045660 0.000000 3.777390 
# 
# 
# High freq. dielectric constant tensor:
#      x y z
#    x 1.825920 0.000000 -0.006050 
#    y 0.000000 1.752110 0.000000 
#    z -0.006050 0.000000 1.790880 
# 
# From -- ./inp_files/10564.got.cif
#   From: 2010.03.12/outbox.cif.g09.slc.cpg/sg4_6_cif.got.tgz:10564.got - 2010.03.31 09:31:35.
