data_PCOD8045917
_publ_section_title
;
Structure prediction by ZEFSAII (Michael W. Deem and Ramdas Pophale) SiO2 
 PCOD8045917
Probable space group: P 21
;
_chemical_formula_sum "Si O2"
_cell_formula_units_Z 16
_cell_length_a 9.135249
_cell_length_b 12.321212
_cell_length_c 9.652309
_cell_angle_alpha 90.000000
_cell_angle_beta 47.338780
_cell_angle_gamma 90.000000
_cell_volume 798.937803
_symmetry_space_group_name_H-M "P 21"
_symmetry_group_IT_number 4
_symmetry_cell_setting 'monoclinic'
loop_
_space_group_symop_operation_xyz
x,y,z
-x,1/2+y,-z
loop_
_atom_site_type_symbol
_atom_site_label
_atom_site_fract_x
_atom_site_fract_y
_atom_site_fract_z
Si Si1 0.908963 0.268340 0.388948
Si Si2 0.977894 0.557425 0.235600
Si Si3 0.795413 0.361824 0.197940
Si Si4 0.832068 0.614311 0.622881
Si Si5 0.713018 0.385956 0.766566
Si Si6 0.014406 0.302382 0.795709
Si Si7 0.715573 0.909435 0.868269
Si Si8 0.643294 0.830488 0.631496
O O1 0.797226 0.264102 0.311828
O O2 0.778430 0.341076 0.576147
O O3 0.971428 0.154352 0.418083
O O4 0.112628 0.324091 0.212417
O O5 0.209028 0.518143 0.100980
O O6 0.828863 0.479005 0.246419
O O7 0.900203 0.556683 0.440862
O O8 0.970914 0.675847 0.174627
O O9 0.583842 0.348756 0.261269
O O10 0.970169 0.358081 0.970466
O O11 0.732221 0.516828 0.773748
O O12 0.682959 0.713548 0.680392
O O13 0.837059 0.322137 0.802127
O O14 0.481876 0.360697 0.936351
O O15 0.218228 0.344932 0.593416
O O16 0.693492 0.922298 0.714799
#
# Coordination Sequence:
#
# PCOD8045917 Si02
#       8
#     2   2   2   2   2   2   2   2
#     4  10  22  42  61  92 128 156 216 264 301 378
#     4  10  21  42  63  90 131 166 211 263 313 373
#     4  11  23  40  62  93 132 161 204 270 317 374
#     4  10  20  41  68  89 122 174 210 260 314 373
#     4  12  20  37  70  91 117 169 218 251 317 376
#     4  11  23  41  66  91 130 169 207 263 322 374
#     4  10  20  36  65  93 118 164 212 260 301 378
#     4  10  21  41  63  91 132 163 206 263 315 372
#
# _framework density 20.026591
#
# number of rings (size 3 to 8) (size 9 to 14) (size 15 to 20)
#    0.000    1.500    7.500    0.000    1.750    3.000 
#    0.000    5.000    0.000    0.000    0.000    0.000 
#    0.000    0.000    0.000    0.000    0.000    0.000 
#
# Total GULP energy -198239.125894 kJ/mol
# GULP energy per Si atom -12389.945368 kJ/mol
# Density = 1.998101 g / cm^3
# Si number density = 20.026591 Si / 1000 Ang^3
#
#
#
# Elastic Constant Matrix: (Units=GPa)
#
#
# Indices 1 2 3 4 5 6 
#
# 1 84.2878 20.0776 13.9644 0.0000 1.2706 0.0000
# 2 20.0776 39.9381 21.1380 0.0000 -13.3990 0.0000
# 3 13.9644 21.1380 92.1469 0.0000 -12.6282 0.0000
# 4 0.0000 0.0000 0.0000 18.1708 0.0000 6.0436
# 5 1.2706 -13.3990 -12.6282 0.0000 30.0123 0.0000
# 6 0.0000 0.0000 0.0000 6.0436 0.0000 32.5198
#
#
#
# Elastic Compliance Matrix: (Units=1/GPa)
#
#
# Indices 1 2 3 4 5 6 
#
# 1 0.014014 -0.008113 -0.000892 0.000000 -0.004591 0.000000
# 2 -0.008113 0.036759 -0.005207 0.000000 0.014564 0.000000
# 3 -0.000892 -0.005207 0.012595 0.000000 0.003013 0.000000
# 4 0.000000 0.000000 0.000000 0.058659 0.000000 -0.010901
# 5 -0.004591 0.014564 0.003013 0.000000 0.041283 0.000000
# 6 0.000000 0.000000 0.000000 -0.010901 0.000000 0.032776
#
#
# Mechanical properties :
#
#
# Convention : Reuss Voigt Hill
#
# Bulk Modulus (GPa) = 28.61721 36.30365 32.46043
# Shear Modulus (GPa) = 21.17225 26.88677 24.02951
#
# Velocity S-wave (km/s) = 3.25500 3.66806 3.46769
# Velocity P-wave (km/s) = 5.33360 6.00888 5.68128
#
# Compressibility (1/GPa) = 0.03494401
#
# Stress axis : x y z
#
# Youngs Moduli (GPa) = 71.35920 27.20403 79.39855
#
# Poissons Ratio (x) = 0.22071 0.07080
# Poissons Ratio (y) = 0.57894 0.41343
# Poissons Ratio (z) = 0.06363 0.14165
#
# Static dielectric constant tensor:
#      x y z
#    x 3.887860 0.000000 0.107840 
#    y 0.000000 3.824860 0.000000 
#    z 0.107840 0.000000 3.786560 
# 
# 
# High freq. dielectric constant tensor:
#      x y z
#    x 1.776570 0.000000 0.004960 
#    y 0.000000 1.767230 0.000000 
#    z 0.004960 0.000000 1.785540 
# 
# From -- ./inp_files/6385.got.cif
#   From: 2010.03.12/outbox.cif.g09.slc.cpg/sg4_4_cif.got.tgz:6385.got - 2010.03.31 09:31:35.
