data_PCOD8045320
_publ_section_title
;
Structure prediction by ZEFSAII (Michael W. Deem and Ramdas Pophale) SiO2 
 PCOD8045320
Probable space group: P 2
;
_chemical_formula_sum "Si O2"
_cell_formula_units_Z 13
_cell_length_a 16.816413
_cell_length_b 7.020204
_cell_length_c 8.851345
_cell_angle_alpha 90.000000
_cell_angle_beta 144.561156
_cell_angle_gamma 90.000000
_cell_volume 605.892796
_symmetry_space_group_name_H-M "P 2"
_symmetry_group_IT_number 3
_symmetry_cell_setting 'monoclinic'
loop_
_space_group_symop_operation_xyz
x,y,z
-x,y,-z
loop_
_atom_site_type_symbol
_atom_site_label
_atom_site_fract_x
_atom_site_fract_y
_atom_site_fract_z
Si Si1 0.629875 0.664760 0.493915
Si Si2 0.847860 0.522781 0.608538
Si Si3 0.308155 0.395256 0.148204
Si Si4 0.074847 0.685483 0.769713
Si Si5 0.769282 0.003259 0.830350
Si Si6 0.000000 0.192883 0.000000
Si Si7 0.591004 0.457905 0.011143
O O1 0.775295 0.596074 0.648076
O O2 0.607787 0.536208 0.610044
O O3 0.646884 0.888459 0.556144
O O4 0.503219 0.642009 0.181149
O O5 0.918600 0.320128 0.751409
O O6 0.738570 0.511233 0.303752
O O7 0.965609 0.667258 0.736835
O O8 0.296807 0.191144 0.205646
O O9 0.160651 0.489628 0.885879
O O10 0.387321 0.349204 0.113297
O O11 0.000000 0.731577 0.500000
O O12 0.174424 0.863289 0.952820
O O13 0.891669 0.054876 0.908951
O O14 0.500000 0.346889 0.000000
#
# Coordination Sequence:
#
# PCOD8045320 Si02
#       7
#     2   2   2   2   2   1   2
#     4  10  22  43  66  95 131 180 224 265 326 396
#     4  11  20  40  70  96 137 179 210 270 339 382
#     4  11  21  42  67  95 130 172 220 279 326 389
#     4  11  22  38  64  99 137 172 214 272 335 394
#     4  11  23  37  69 100 132 170 221 271 334 392
#     4  12  20  38  68 108 136 168 218 276 338 404
#     4  10  23  41  71  89 127 183 221 265 328 392
#
# _framework density 21.455939999999998
#
# number of rings (size 3 to 8) (size 9 to 14) (size 15 to 20)
#    0.000    1.231    4.615    2.308    0.000    1.846 
#    0.000    6.154   13.538    0.000    0.000    0.000 
#    0.000    0.000    0.000    0.000    0.000    0.000 
#
# Total GULP energy -161123.561628 kJ/mol
# GULP energy per Si atom -12394.120125 kJ/mol
# Density = 2.140711 g / cm^3
# Si number density = 21.455940 Si / 1000 Ang^3
#
#
#
# Elastic Constant Matrix: (Units=GPa)
#
#
# Indices 1 2 3 4 5 6 
#
# 1 142.6848 37.0394 16.1672 0.0000 -11.9987 0.0000
# 2 37.0394 130.0207 39.3710 0.0000 -0.4950 0.0000
# 3 16.1672 39.3710 135.0099 0.0000 2.7543 0.0000
# 4 0.0000 0.0000 0.0000 16.0442 0.0000 -3.0282
# 5 -11.9987 -0.4950 2.7543 0.0000 30.3265 0.0000
# 6 0.0000 0.0000 0.0000 -3.0282 0.0000 18.2244
#
#
#
# Elastic Compliance Matrix: (Units=1/GPa)
#
#
# Indices 1 2 3 4 5 6 
#
# 1 0.007862 -0.002110 -0.000390 0.000000 0.003112 0.000000
# 2 -0.002110 0.009006 -0.002364 0.000000 -0.000473 0.000000
# 3 -0.000390 -0.002364 0.008162 0.000000 -0.000934 0.000000
# 4 0.000000 0.000000 0.000000 0.064346 0.000000 0.010692
# 5 0.003112 -0.000473 -0.000934 0.000000 0.034283 0.000000
# 6 0.000000 0.000000 0.000000 0.010692 0.000000 0.056648
#
#
# Mechanical properties :
#
#
# Convention : Reuss Voigt Hill
#
# Bulk Modulus (GPa) = 65.34659 65.87451 65.61055
# Shear Modulus (GPa) = 25.62332 33.92821 29.77577
#
# Velocity S-wave (km/s) = 3.45951 3.98087 3.72931
# Velocity P-wave (km/s) = 6.81762 7.20407 7.01351
#
# Compressibility (1/GPa) = 0.01530302
#
# Stress axis : x y z
#
# Youngs Moduli (GPa) = 127.19491 111.03515 122.51942
#
# Poissons Ratio (x) = 0.23426 0.04774
# Poissons Ratio (y) = 0.26836 0.28964
# Poissons Ratio (z) = 0.04956 0.26249
#
# Static dielectric constant tensor:
#      x y z
#    x 4.250430 0.000000 0.053850 
#    y 0.000000 3.569800 0.000000 
#    z 0.053850 0.000000 4.032860 
# 
# 
# High freq. dielectric constant tensor:
#      x y z
#    x 1.864950 0.000000 0.004080 
#    y 0.000000 1.804250 0.000000 
#    z 0.004080 0.000000 1.855270 
# 
# From -- ./inp_files/8813.got.cif
#   From: 2010.03.12/outbox.cif.g09.slc.cpg/sg3_5_cif.got.tgz:8813.got - 2010.03.31 09:20:49.
