data_PCOD8045246
_publ_section_title
;
Structure prediction by ZEFSAII (Michael W. Deem and Ramdas Pophale) SiO2 
 PCOD8045246
Probable space group: P 2
;
_chemical_formula_sum "Si O2"
_cell_formula_units_Z 13
_cell_length_a 9.496892
_cell_length_b 7.343600
_cell_length_c 16.650965
_cell_angle_alpha 90.000000
_cell_angle_beta 148.129815
_cell_angle_gamma 90.000000
_cell_volume 613.141837
_symmetry_space_group_name_H-M "P 2"
_symmetry_group_IT_number 3
_symmetry_cell_setting 'monoclinic'
loop_
_space_group_symop_operation_xyz
x,y,z
-x,y,-z
loop_
_atom_site_type_symbol
_atom_site_label
_atom_site_fract_x
_atom_site_fract_y
_atom_site_fract_z
Si Si1 0.493980 0.842950 0.752249
Si Si2 0.951036 0.356959 0.115953
Si Si3 0.256546 0.207007 0.664034
Si Si4 0.510180 0.473057 0.334874
Si Si5 0.000000 0.072331 0.000000
Si Si6 0.533066 0.630062 0.103601
Si Si7 0.003249 0.368034 0.680206
O O1 0.411899 0.677593 0.654274
O O2 0.517755 0.783244 0.855776
O O3 0.272556 0.000385 0.641163
O O4 0.765977 0.939584 0.857633
O O5 0.203531 0.480961 0.213652
O O6 0.015953 0.293690 0.238448
O O7 0.913160 0.188539 0.036400
O O8 0.678615 0.468788 0.984098
O O9 0.494316 0.336117 0.744950
O O10 0.192093 0.217805 0.727393
O O11 0.000000 0.303327 0.500000
O O12 0.706303 0.398947 0.499749
O O13 0.836212 0.556634 0.253373
O O14 0.500000 0.719716 0.000000
#
# Coordination Sequence:
#
# PCOD8045246 Si02
#       7
#     2   2   2   2   1   2   2
#     4  12  23  38  66  95 127 166 215 265 321 387
#     4  11  22  43  67  92 131 174 218 261 317 394
#     4  10  22  38  63  97 121 164 209 258 325 376
#     4  11  22  42  68  92 129 170 215 264 321 387
#     4  12  24  38  64 100 128 176 214 266 326 382
#     4  10  22  38  62  94 126 168 214 260 319 381
#     4  10  22  42  67  94 127 172 212 266 327 374
#
# _framework density 21.202269999999999
#
# number of rings (size 3 to 8) (size 9 to 14) (size 15 to 20)
#    0.000    1.231    3.077    3.231    2.154    1.231 
#    0.000    0.000    6.769    0.000    0.000    0.000 
#    0.000    0.000    0.000    0.000    0.000    0.000 
#
# Total GULP energy -161099.300656 kJ/mol
# GULP energy per Si atom -12392.253897 kJ/mol
# Density = 2.115401 g / cm^3
# Si number density = 21.202270 Si / 1000 Ang^3
#
#
#
# Elastic Constant Matrix: (Units=GPa)
#
#
# Indices 1 2 3 4 5 6 
#
# 1 118.8659 30.8579 19.5680 0.0000 -14.9467 0.0000
# 2 30.8579 98.2235 8.6434 0.0000 -11.1938 0.0000
# 3 19.5680 8.6434 71.7892 0.0000 -1.5832 0.0000
# 4 0.0000 0.0000 0.0000 19.3231 0.0000 0.5716
# 5 -14.9467 -11.1938 -1.5832 0.0000 32.5277 0.0000
# 6 0.0000 0.0000 0.0000 0.5716 0.0000 32.1091
#
#
#
# Elastic Compliance Matrix: (Units=1/GPa)
#
#
# Indices 1 2 3 4 5 6 
#
# 1 0.009892 -0.002496 -0.002317 0.000000 0.003573 0.000000
# 2 -0.002496 0.011330 -0.000624 0.000000 0.002722 0.000000
# 3 -0.002317 -0.000624 0.014624 0.000000 -0.000567 0.000000
# 4 0.000000 0.000000 0.000000 0.051779 0.000000 -0.000922
# 5 0.003573 0.002722 -0.000567 0.000000 0.033294 0.000000
# 6 0.000000 0.000000 0.000000 -0.000922 0.000000 0.031160
#
#
# Mechanical properties :
#
#
# Convention : Reuss Voigt Hill
#
# Bulk Modulus (GPa) = 40.04532 45.22412 42.63472
# Shear Modulus (GPa) = 29.19255 32.11258 30.65257
#
# Velocity S-wave (km/s) = 3.71463 3.89599 3.80639
# Velocity P-wave (km/s) = 6.10952 6.45092 6.28254
#
# Compressibility (1/GPa) = 0.02497171
#
# Stress axis : x y z
#
# Youngs Moduli (GPa) = 101.09511 88.25974 68.38182
#
# Poissons Ratio (x) = 0.22034 0.15843
# Poissons Ratio (y) = 0.25238 0.04265
# Poissons Ratio (z) = 0.23422 0.05504
#
# Static dielectric constant tensor:
#      x y z
#    x 4.151020 0.000000 -0.026220 
#    y 0.000000 3.523120 0.000000 
#    z -0.026220 0.000000 3.893420 
# 
# 
# High freq. dielectric constant tensor:
#      x y z
#    x 1.844660 0.000000 0.008620 
#    y 0.000000 1.804990 0.000000 
#    z 0.008620 0.000000 1.842400 
# 
# From -- ./inp_files/11177.got.cif
#   From: 2010.03.12/outbox.cif.g09.slc.cpg/sg3_6_cif.got.tgz:11177.got - 2010.03.31 09:20:49.
