data_PCOD8045626
_publ_section_title
;
Structure prediction by ZEFSAII (Michael W. Deem and Ramdas Pophale) SiO2 
 PCOD8045626
Probable space group: P 21
;
_chemical_formula_sum "Si O2"
_cell_formula_units_Z 14
_cell_length_a 10.266413
_cell_length_b 4.973276
_cell_length_c 21.141636
_cell_angle_alpha 90.000000
_cell_angle_beta 143.452810
_cell_angle_gamma 90.000000
_cell_volume 642.791997
_symmetry_space_group_name_H-M "P 21"
_symmetry_group_IT_number 4
_symmetry_cell_setting 'monoclinic'
loop_
_space_group_symop_operation_xyz
x,y,z
-x,1/2+y,-z
loop_
_atom_site_type_symbol
_atom_site_label
_atom_site_fract_x
_atom_site_fract_y
_atom_site_fract_z
Si Si1 0.568263 0.647850 0.357234
Si Si2 0.700650 0.178574 0.337445
Si Si3 0.098521 0.469389 0.699042
Si Si4 0.885534 0.081825 0.876819
Si Si5 0.377793 0.933694 0.816135
Si Si6 0.389843 0.064170 0.483040
Si Si7 0.157079 0.581278 0.990718
O O1 0.747913 0.421526 0.405268
O O2 0.594304 0.694239 0.441517
O O3 0.328702 0.528443 0.248779
O O4 0.589342 0.929530 0.329206
O O5 0.543851 0.318494 0.222642
O O6 0.910220 0.074318 0.378500
O O7 0.245279 0.684478 0.796932
O O8 0.853569 0.463910 0.629714
O O9 0.207371 0.178111 0.743528
O O10 0.829659 0.078877 0.928648
O O11 0.989701 0.364844 0.897739
O O12 0.071473 0.864813 0.932010
O O13 0.595696 0.024222 0.938307
O O14 0.455844 0.302981 0.461236
#
# Coordination Sequence:
#
# PCOD8045626 Si02
#       7
#     2   2   2   2   2   2   2
#     4  12  22  38  60  87 129 154 201 249 295 355
#     4  10  19  34  60  90 120 151 187 238 316 352
#     4  10  20  38  62  85 120 150 200 244 309 355
#     4  10  19  28  48  83 119 169 180 223 286 355
#     4  10  18  34  56  90 123 150 190 232 290 363
#     4  12  28  46  62  85 114 164 217 254 298 355
#     4  10  18  28  50  82 129 152 189 212 288 381
#
# _framework density 21.779985
#
# number of rings (size 3 to 8) (size 9 to 14) (size 15 to 20)
#    0.857    0.571    2.857    3.429    4.000    1.143 
#    0.000    0.000    0.000    0.000    0.000   20.000 
#    0.000    0.000    0.000    0.000    0.000    0.000 
#
# Total GULP energy -173451.085308 kJ/mol
# GULP energy per Si atom -12389.363236 kJ/mol
# Density = 2.173041 g / cm^3
# Si number density = 21.779985 Si / 1000 Ang^3
#
#
#
# Elastic Constant Matrix: (Units=GPa)
#
#
# Indices 1 2 3 4 5 6 
#
# 1 36.2448 17.1324 10.5076 0.0000 19.8067 0.0000
# 2 17.1324 135.7648 11.5042 0.0000 13.2332 0.0000
# 3 10.5076 11.5042 44.3606 0.0000 21.1707 0.0000
# 4 0.0000 0.0000 0.0000 22.1448 0.0000 7.4615
# 5 19.8067 13.2332 21.1707 0.0000 22.2596 0.0000
# 6 0.0000 0.0000 0.0000 7.4615 0.0000 27.6687
#
#
#
# Elastic Compliance Matrix: (Units=1/GPa)
#
#
# Indices 1 2 3 4 5 6 
#
# 1 0.064260 -0.002506 0.021985 0.000000 -0.076599 0.000000
# 2 -0.002506 0.007919 -0.000508 0.000000 -0.001995 0.000000
# 3 0.021985 -0.000508 0.048816 0.000000 -0.065688 0.000000
# 4 0.000000 0.000000 0.000000 0.049670 0.000000 -0.013395
# 5 -0.076599 -0.001995 -0.065688 0.000000 0.176744 0.000000
# 6 0.000000 0.000000 0.000000 -0.013395 0.000000 0.039754
#
#
# Mechanical properties :
#
#
# Convention : Reuss Voigt Hill
#
# Bulk Modulus (GPa) = 6.29177 32.73982 19.51580
# Shear Modulus (GPa) = 12.43158 26.22969 19.33063
#
# Velocity S-wave (km/s) = 2.39169 3.47407 2.98239
# Velocity P-wave (km/s) = 3.24376 5.58184 4.56502
#
# Compressibility (1/GPa) = 0.15893783
#
# Stress axis : x y z
#
# Youngs Moduli (GPa) = 15.56171 126.27202 20.48506
#
# Poissons Ratio (x) = 0.31641 -0.45036
# Poissons Ratio (y) = 0.03899 0.01041
# Poissons Ratio (z) = -0.34212 0.06415
#
# Static dielectric constant tensor:
#      x y z
#    x 3.530360 0.000000 0.240440 
#    y 0.000000 4.093340 0.000000 
#    z 0.240440 0.000000 3.609740 
# 
# 
# High freq. dielectric constant tensor:
#      x y z
#    x 1.804650 0.000000 0.028260 
#    y 0.000000 1.880670 0.000000 
#    z 0.028260 0.000000 1.836780 
# 
# From -- ./inp_files/16081.got.cif
#   From: 2010.03.12/outbox.cif.g09.slc.cpg/sg4_9_cif.got.tgz:16081.got - 2010.03.31 09:31:35.
