data_PCOD8045810
_publ_section_title
;
Structure prediction by ZEFSAII (Michael W. Deem and Ramdas Pophale) SiO2 
 PCOD8045810
Probable space group: P 21
;
_chemical_formula_sum "Si O2"
_cell_formula_units_Z 16
_cell_length_a 12.102644
_cell_length_b 12.438595
_cell_length_c 11.551565
_cell_angle_alpha 90.000000
_cell_angle_beta 155.898178
_cell_angle_gamma 90.000000
_cell_volume 710.125427
_symmetry_space_group_name_H-M "P 21"
_symmetry_group_IT_number 4
_symmetry_cell_setting 'monoclinic'
loop_
_space_group_symop_operation_xyz
x,y,z
-x,1/2+y,-z
loop_
_atom_site_type_symbol
_atom_site_label
_atom_site_fract_x
_atom_site_fract_y
_atom_site_fract_z
Si Si1 0.259726 0.673260 0.995628
Si Si2 0.774330 0.576837 0.393852
Si Si3 0.668234 0.328415 0.338167
Si Si4 0.364975 0.894261 0.444497
Si Si5 0.848437 0.694502 0.234131
Si Si6 0.445584 0.885068 0.266009
Si Si7 0.051008 0.524016 0.248134
Si Si8 0.853471 0.039028 0.911160
O O1 0.558906 0.626698 0.273971
O O2 0.318054 0.800980 0.051720
O O3 0.128092 0.645879 0.994081
O O4 0.069943 0.621114 0.715292
O O5 0.718394 0.450181 0.343740
O O6 0.727184 0.620621 0.219215
O O7 0.699886 0.315789 0.508880
O O8 0.902713 0.269129 0.489895
O O9 0.381560 0.274723 0.033084
O O10 0.454116 0.838098 0.407249
O O11 0.604773 0.969060 0.719721
O O12 0.110883 0.966955 0.177320
O O13 0.002101 0.618068 0.290601
O O14 0.743584 0.928744 0.511865
O O15 0.245800 0.984791 0.069236
O O16 0.184759 0.572659 0.259087
#
# Coordination Sequence:
#
# PCOD8045810 Si02
#       8
#     2   2   2   2   2   2   2   2
#     4  12  22  42  68 102 131 183 225 274 349 408
#     4  12  27  46  68  98 139 175 236 288 333 413
#     4  12  24  46  70  99 132 179 230 291 337 415
#     4  10  20  40  64 100 136 173 220 275 342 404
#     4  12  28  45  70 100 129 188 233 278 352 404
#     4  10  23  39  69 101 144 179 213 279 349 412
#     4  10  23  44  62 100 142 173 223 283 338 403
#     4  10  19  38  65  96 137 172 212 282 338 401
#
# _framework density 22.531230999999998
#
# number of rings (size 3 to 8) (size 9 to 14) (size 15 to 20)
#    0.000    1.000    2.500    3.750    1.750    3.000 
#    2.250    0.000    0.000    0.000    0.000    0.000 
#    0.000    0.000    0.000    0.000    0.000    0.000 
#
# Total GULP energy -198238.687397 kJ/mol
# GULP energy per Si atom -12389.917962 kJ/mol
# Density = 2.247995 g / cm^3
# Si number density = 22.531231 Si / 1000 Ang^3
#
#
#
# Elastic Constant Matrix: (Units=GPa)
#
#
# Indices 1 2 3 4 5 6 
#
# 1 93.4900 54.4172 19.3495 0.0000 0.9288 0.0000
# 2 54.4172 111.4183 37.6463 0.0000 -1.3574 0.0000
# 3 19.3495 37.6463 119.5496 0.0000 13.4326 0.0000
# 4 0.0000 0.0000 0.0000 41.8375 0.0000 4.8495
# 5 0.9288 -1.3574 13.4326 0.0000 28.2720 0.0000
# 6 0.0000 0.0000 0.0000 4.8495 0.0000 31.3169
#
#
#
# Elastic Compliance Matrix: (Units=1/GPa)
#
#
# Indices 1 2 3 4 5 6 
#
# 1 0.014965 -0.007310 -0.000027 0.000000 -0.000830 0.000000
# 2 -0.007310 0.013734 -0.003426 0.000000 0.002527 0.000000
# 3 -0.000027 -0.003426 0.010000 0.000000 -0.004915 0.000000
# 4 0.000000 0.000000 0.000000 0.024339 0.000000 -0.003769
# 5 -0.000830 0.002527 -0.004915 0.000000 0.037854 0.000000
# 6 0.000000 0.000000 0.000000 -0.003769 0.000000 0.032515
#
#
# Mechanical properties :
#
#
# Convention : Reuss Voigt Hill
#
# Bulk Modulus (GPa) = 58.22860 60.80934 59.51897
# Shear Modulus (GPa) = 31.12224 34.48826 32.80525
#
# Velocity S-wave (km/s) = 3.72061 3.91664 3.81988
# Velocity P-wave (km/s) = 6.66009 6.89209 6.77709
#
# Compressibility (1/GPa) = 0.01717369
#
# Stress axis : x y z
#
# Youngs Moduli (GPa) = 66.82242 72.81393 99.99970
#
# Poissons Ratio (x) = 0.53227 0.00270
# Poissons Ratio (y) = 0.48847 0.34255
# Poissons Ratio (z) = 0.00180 0.24943
#
# Static dielectric constant tensor:
#      x y z
#    x 4.206170 0.000000 0.102590 
#    y 0.000000 4.037480 0.000000 
#    z 0.102590 0.000000 4.092110 
# 
# 
# High freq. dielectric constant tensor:
#      x y z
#    x 1.888750 0.000000 0.012810 
#    y 0.000000 1.876600 0.000000 
#    z 0.012810 0.000000 1.901920 
# 
# From -- ./inp_files/12262.got.cif
#   From: 2010.03.12/outbox.cif.g09.slc.cpg/sg4_7_cif.got.tgz:12262.got - 2010.03.31 09:31:35.
