data_PCOD8045290
_publ_section_title
;
Structure prediction by ZEFSAII (Michael W. Deem and Ramdas Pophale) SiO2 
 PCOD8045290
Probable space group: P 2
;
_chemical_formula_sum "Si O2"
_cell_formula_units_Z 15
_cell_length_a 5.439621
_cell_length_b 7.186785
_cell_length_c 18.618862
_cell_angle_alpha 90.000000
_cell_angle_beta 87.808124
_cell_angle_gamma 90.000000
_cell_volume 727.341821
_symmetry_space_group_name_H-M "P 2"
_symmetry_group_IT_number 3
_symmetry_cell_setting 'monoclinic'
loop_
_space_group_symop_operation_xyz
x,y,z
-x,y,-z
loop_
_atom_site_type_symbol
_atom_site_label
_atom_site_fract_x
_atom_site_fract_y
_atom_site_fract_z
Si Si1 0.120543 0.627260 0.822030
Si Si2 0.475329 0.378855 0.254508
Si Si3 0.489314 0.041286 0.352373
Si Si4 0.789828 0.712983 0.699163
Si Si5 0.864413 0.954856 0.075229
Si Si6 0.500000 0.194156 0.000000
Si Si7 0.989950 0.941550 0.417356
Si Si8 0.170058 0.288726 0.122162
O O1 0.326865 0.533028 0.770584
O O2 0.220702 0.777195 0.877661
O O3 0.923065 0.735213 0.774668
O O4 0.010429 0.461718 0.870516
O O5 0.575897 0.211994 0.301658
O O6 0.286490 0.496890 0.305771
O O7 0.351713 0.283919 0.187435
O O8 0.443998 0.856081 0.303867
O O9 0.225695 0.077813 0.396449
O O10 0.719480 0.023209 0.404000
O O11 0.977354 0.755672 0.631458
O O12 0.032465 0.090992 0.121592
O O13 0.000000 0.894548 0.000000
O O14 0.617642 0.064550 0.059589
O O15 0.692863 0.322483 0.955477
O O16 0.000000 0.884884 0.500000
#
# Coordination Sequence:
#
# PCOD8045290 Si02
#       8
#     2   2   2   2   2   1   2   2
#     4  11  23  39  64  93 129 166 217 268 331 389
#     4  11  23  39  64  98 128 167 217 271 328 389
#     4  10  23  41  70  94 135 173 218 268 325 388
#     4   9  23  39  66  97 129 171 214 270 327 388
#     4  10  23  41  59  85 123 165 212 267 328 391
#     4  10  22  42  60  84 122 168 216 272 330 386
#     4  10  22  44  72  95 133 179 219 265 328 388
#     4  10  23  40  61  88 122 169 214 267 335 387
#
# _framework density 20.623038999999999
#
# number of rings (size 3 to 8) (size 9 to 14) (size 15 to 20)
#    0.800    1.067    0.000    2.800    3.733   10.133 
#    0.000    2.000    5.867    0.000    0.000    0.000 
#    0.000    0.000    0.000    0.000    0.000    0.000 
#
# Total GULP energy -185864.511132 kJ/mol
# GULP energy per Si atom -12390.967409 kJ/mol
# Density = 2.057610 g / cm^3
# Si number density = 20.623039 Si / 1000 Ang^3
#
#
#
# Elastic Constant Matrix: (Units=GPa)
#
#
# Indices 1 2 3 4 5 6 
#
# 1 102.7387 24.4115 33.1016 0.0000 7.5969 0.0000
# 2 24.4115 86.8491 68.3877 0.0000 1.3669 0.0000
# 3 33.1016 68.3877 106.5772 0.0000 1.5343 0.0000
# 4 0.0000 0.0000 0.0000 20.9449 0.0000 -12.1432
# 5 7.5969 1.3669 1.5343 0.0000 33.6474 0.0000
# 6 0.0000 0.0000 0.0000 -12.1432 0.0000 16.3374
#
#
#
# Elastic Compliance Matrix: (Units=1/GPa)
#
#
# Indices 1 2 3 4 5 6 
#
# 1 0.011022 -0.000793 -0.002881 0.000000 -0.002325 0.000000
# 2 -0.000793 0.023333 -0.014725 0.000000 -0.000097 0.000000
# 3 -0.002881 -0.014725 0.019721 0.000000 0.000349 0.000000
# 4 0.000000 0.000000 0.000000 0.083898 0.000000 0.062359
# 5 -0.002325 -0.000097 0.000349 0.000000 0.030233 0.000000
# 6 0.000000 0.000000 0.000000 0.062359 0.000000 0.107559
#
#
# Mechanical properties :
#
#
# Convention : Reuss Voigt Hill
#
# Bulk Modulus (GPa) = 57.87308 60.88518 59.37913
# Shear Modulus (GPa) = 15.70726 25.53688 20.62207
#
# Velocity S-wave (km/s) = 2.76277 3.52272 3.16563
# Velocity P-wave (km/s) = 6.18874 6.79213 6.49744
#
# Compressibility (1/GPa) = 0.01727919
#
# Stress axis : x y z
#
# Youngs Moduli (GPa) = 90.72770 42.85724 50.70703
#
# Poissons Ratio (x) = 0.03398 0.14609
# Poissons Ratio (y) = 0.07193 0.74665
# Poissons Ratio (z) = 0.26140 0.63106
#
# Static dielectric constant tensor:
#      x y z
#    x 3.843380 0.000000 -0.004690 
#    y 0.000000 3.494430 0.000000 
#    z -0.004690 0.000000 3.575700 
# 
# 
# High freq. dielectric constant tensor:
#      x y z
#    x 1.813450 0.000000 0.003710 
#    y 0.000000 1.790910 0.000000 
#    z 0.003710 0.000000 1.799500 
# 
# From -- ./inp_files/15583.got.cif
#   From: 2010.03.12/outbox.cif.g09.slc.cpg/sg3_8_cif.got.tgz:15583.got - 2010.03.31 09:20:49.
