data_PCOD8045468
_publ_section_title
;
Structure prediction by ZEFSAII (Michael W. Deem and Ramdas Pophale) SiO2 
 PCOD8045468
Probable space group: P 2
;
_chemical_formula_sum "Si O2"
_cell_formula_units_Z 9
_cell_length_a 12.457829
_cell_length_b 7.037916
_cell_length_c 6.873873
_cell_angle_alpha 90.000000
_cell_angle_beta 125.060927
_cell_angle_gamma 90.000000
_cell_volume 493.320011
_symmetry_space_group_name_H-M "P 2"
_symmetry_group_IT_number 3
_symmetry_cell_setting 'monoclinic'
loop_
_space_group_symop_operation_xyz
x,y,z
-x,y,-z
loop_
_atom_site_type_symbol
_atom_site_label
_atom_site_fract_x
_atom_site_fract_y
_atom_site_fract_z
Si Si1 0.854908 0.510680 0.264953
Si Si2 0.279927 0.507734 0.477004
Si Si3 0.144415 0.229347 0.077861
Si Si4 0.500000 0.689974 0.500000
Si Si5 0.773010 0.803091 0.874288
O O1 0.748290 0.500642 0.325024
O O2 0.829676 0.329069 0.102001
O O3 0.000000 0.505527 0.500000
O O4 0.831587 0.706949 0.127873
O O5 0.433174 0.555779 0.596157
O O6 0.191192 0.670784 0.275898
O O7 0.246449 0.305066 0.344858
O O8 0.000000 0.279456 0.000000
O O9 0.161131 0.005632 0.075845
O O10 0.613117 0.817837 0.720246
#
# Coordination Sequence:
#
# PCOD8045468 Si02
#       5
#     2   2   2   1   2
#     4  11  22  38  62  91 122 157 199 249 302 353
#     4   9  21  41  61  83 122 162 195 246 295 349
#     4  11  22  37  60  94 122 155 200 248 303 352
#     4   8  20  44  64  80 122 164 204 232 296 364
#     4   9  23  38  62  87 119 163 194 246 296 350
#
# _framework density 18.243735000000001
#
# number of rings (size 3 to 8) (size 9 to 14) (size 15 to 20)
#    1.333    0.889    2.222    0.000    3.111    4.444 
#    0.000    0.000    4.889    0.000    0.000    0.000 
#    0.000    0.000    0.000    0.000    0.000    0.000 
#
# Total GULP energy -111542.622895 kJ/mol
# GULP energy per Si atom -12393.624766 kJ/mol
# Density = 1.820221 g / cm^3
# Si number density = 18.243735 Si / 1000 Ang^3
#
#
#
# Elastic Constant Matrix: (Units=GPa)
#
#
# Indices 1 2 3 4 5 6 
#
# 1 97.0473 9.3870 17.6924 0.0000 -26.4607 0.0000
# 2 9.3870 104.7937 30.3596 0.0000 -20.2737 0.0000
# 3 17.6924 30.3596 68.5437 0.0000 -24.8167 0.0000
# 4 0.0000 0.0000 0.0000 19.5755 0.0000 6.6614
# 5 -26.4607 -20.2737 -24.8167 0.0000 40.4437 0.0000
# 6 0.0000 0.0000 0.0000 6.6614 0.0000 25.2958
#
#
#
# Elastic Compliance Matrix: (Units=1/GPa)
#
#
# Indices 1 2 3 4 5 6 
#
# 1 0.012582 0.000620 -0.000552 0.000000 0.008204 0.000000
# 2 0.000620 0.011316 -0.003820 0.000000 0.003734 0.000000
# 3 -0.000552 -0.003820 0.020055 0.000000 0.010030 0.000000
# 4 0.000000 0.000000 0.000000 0.056113 0.000000 -0.014777
# 5 0.008204 0.003734 0.010030 0.000000 0.038119 0.000000
# 6 0.000000 0.000000 0.000000 -0.014777 0.000000 0.043424
#
#
# Mechanical properties :
#
#
# Convention : Reuss Voigt Hill
#
# Bulk Modulus (GPa) = 27.43581 42.80695 35.12138
# Shear Modulus (GPa) = 24.84313 31.25938 28.05126
#
# Velocity S-wave (km/s) = 3.69417 4.14385 3.92546
# Velocity P-wave (km/s) = 5.76776 6.81250 6.31178
#
# Compressibility (1/GPa) = 0.03644872
#
# Stress axis : x y z
#
# Youngs Moduli (GPa) = 79.48021 88.36890 49.86232
#
# Poissons Ratio (x) = -0.05479 0.02752
# Poissons Ratio (y) = -0.04928 0.19049
# Poissons Ratio (z) = 0.04387 0.33760
#
# Static dielectric constant tensor:
#      x y z
#    x 3.302520 0.000000 -0.046480 
#    y 0.000000 3.121180 0.000000 
#    z -0.046480 0.000000 3.281540 
# 
# 
# High freq. dielectric constant tensor:
#      x y z
#    x 1.706780 0.000000 -0.000630 
#    y 0.000000 1.695240 0.000000 
#    z -0.000630 0.000000 1.702150 
# 
# From -- ./inp_files/2605.got.cif
#   From: 2010.03.12/outbox.cif.g09.slc.cpg/sg3_2_cif.got.tgz:2605.got - 2010.03.31 09:20:49.
