data_PCOD8045226
_publ_section_title
;
Structure prediction by ZEFSAII (Michael W. Deem and Ramdas Pophale) SiO2 
 PCOD8045226
Probable space group: P 2
;
_chemical_formula_sum "Si O2"
_cell_formula_units_Z 15
_cell_length_a 7.940358
_cell_length_b 7.468061
_cell_length_c 18.166803
_cell_angle_alpha 90.000000
_cell_angle_beta 41.233176
_cell_angle_gamma 90.000000
_cell_volume 710.058687
_symmetry_space_group_name_H-M "P 2"
_symmetry_group_IT_number 3
_symmetry_cell_setting 'monoclinic'
loop_
_space_group_symop_operation_xyz
x,y,z
-x,y,-z
loop_
_atom_site_type_symbol
_atom_site_label
_atom_site_fract_x
_atom_site_fract_y
_atom_site_fract_z
Si Si1 0.580949 0.325090 0.289052
Si Si2 0.826369 0.531313 0.487630
Si Si3 0.725235 0.391505 0.755002
Si Si4 0.110600 0.643877 0.851596
Si Si5 0.500000 0.803392 0.500000
Si Si6 0.392214 0.704770 0.911035
Si Si7 0.345909 0.053839 0.121774
Si Si8 0.211098 0.958066 0.722282
O O1 0.377579 0.387165 0.416864
O O2 0.464133 0.333167 0.246791
O O3 0.832786 0.450241 0.203281
O O4 0.662112 0.125446 0.279602
O O5 0.676789 0.692427 0.498047
O O6 0.000000 0.600450 0.500000
O O7 0.997084 0.436045 0.369253
O O8 0.625584 0.563600 0.833666
O O9 0.741970 0.223285 0.802593
O O10 0.231641 0.674023 0.891010
O O11 0.270443 0.781350 0.749267
O O12 0.802813 0.667636 0.956703
O O13 0.317386 0.935161 0.605399
O O14 0.495145 0.907640 0.883332
O O15 0.500000 0.120554 0.000000
O O16 0.091694 0.962563 0.177056
#
# Coordination Sequence:
#
# PCOD8045226 Si02
#       8
#     2   2   2   2   1   2   2   2
#     4  10  23  44  70  94 129 168 224 274 327 397
#     4  10  23  47  72  99 131 176 227 276 334 397
#     4  10  24  44  67  97 128 176 218 272 331 390
#     4  10  21  43  69  94 125 172 216 272 324 388
#     4  12  26  44  72 102 132 180 218 282 340 398
#     4  10  22  42  69  92 127 171 221 266 325 390
#     4  12  26  41  61  99 136 171 215 269 330 397
#     4  12  26  42  64 100 131 169 216 266 338 393
#
# _framework density 21.125012999999999
#
# number of rings (size 3 to 8) (size 9 to 14) (size 15 to 20)
#    0.000    1.333    2.667    1.600    5.600    1.600 
#    2.400    0.000    0.000    0.000    0.000    0.000 
#    0.000    0.000    0.000    0.000    0.000    0.000 
#
# Total GULP energy -185990.842364 kJ/mol
# GULP energy per Si atom -12399.389491 kJ/mol
# Density = 2.107693 g / cm^3
# Si number density = 21.125013 Si / 1000 Ang^3
#
#
#
# Elastic Constant Matrix: (Units=GPa)
#
#
# Indices 1 2 3 4 5 6 
#
# 1 41.0655 23.9696 27.6177 0.0000 -1.1379 0.0000
# 2 23.9696 74.8352 24.9156 0.0000 19.0174 0.0000
# 3 27.6177 24.9156 138.9248 0.0000 6.5419 0.0000
# 4 0.0000 0.0000 0.0000 29.9886 0.0000 28.7268
# 5 -1.1379 19.0174 6.5419 0.0000 29.1300 0.0000
# 6 0.0000 0.0000 0.0000 28.7268 0.0000 -25.2417
#
#
#
# Elastic Compliance Matrix: (Units=1/GPa)
#
#
# Indices 1 2 3 4 5 6 
#
# 1 0.035378 -0.012242 -0.005335 0.000000 0.010572 0.000000
# 2 -0.012242 0.021094 -0.000686 0.000000 -0.014095 0.000000
# 3 -0.005335 -0.000686 0.008460 0.000000 -0.001661 0.000000
# 4 0.000000 0.000000 0.000000 0.015954 0.000000 0.018156
# 5 0.010572 -0.014095 -0.001661 0.000000 0.044317 0.000000
# 6 0.000000 0.000000 0.000000 0.018156 0.000000 -0.018954
#
#
# Mechanical properties :
#
#
# Convention : Reuss Voigt Hill
#
# Bulk Modulus (GPa) = 35.20365 45.31459 40.25912
# Shear Modulus (GPa) = 32.84228 18.66355 25.75291
#
# Velocity S-wave (km/s) = 3.94720 2.97557 3.49531
# Velocity P-wave (km/s) = 6.12164 5.77084 5.94882
#
# Compressibility (1/GPa) = 0.02840614
#
# Stress axis : x y z
#
# Youngs Moduli (GPa) = 28.26626 47.40690 118.20377
#
# Poissons Ratio (x) = 0.58034 0.63065
# Poissons Ratio (y) = 0.34603 0.08106
# Poissons Ratio (z) = 0.15081 0.03251
#
# Static dielectric constant tensor:
#      x y z
#    x 3.742180 0.000000 -0.067330 
#    y 0.000000 3.697420 0.000000 
#    z -0.067330 0.000000 4.402640 
# 
# 
# High freq. dielectric constant tensor:
#      x y z
#    x 1.824350 0.000000 0.001750 
#    y 0.000000 1.824960 0.000000 
#    z 0.001750 0.000000 1.853310 
# 
# From -- ./inp_files/15712.got.cif
#   From: 2010.03.12/outbox.cif.g09.slc.cpg/sg3_8_cif.got.tgz:15712.got - 2010.03.31 09:20:49.
