data_PCOD8045914
_publ_section_title
;
Structure prediction by ZEFSAII (Michael W. Deem and Ramdas Pophale) SiO2 
 PCOD8045914
Probable space group: P 21
;
_chemical_formula_sum "Si O2"
_cell_formula_units_Z 14
_cell_length_a 9.904242
_cell_length_b 5.478619
_cell_length_c 26.874491
_cell_angle_alpha 90.000000
_cell_angle_beta 26.741270
_cell_angle_gamma 90.000000
_cell_volume 656.158548
_symmetry_space_group_name_H-M "P 21"
_symmetry_group_IT_number 4
_symmetry_cell_setting 'monoclinic'
loop_
_space_group_symop_operation_xyz
x,y,z
-x,1/2+y,-z
loop_
_atom_site_type_symbol
_atom_site_label
_atom_site_fract_x
_atom_site_fract_y
_atom_site_fract_z
Si Si1 0.560467 0.127240 0.871064
Si Si2 0.352201 0.298104 0.422548
Si Si3 0.372298 0.318457 0.836085
Si Si4 0.205174 0.076002 0.373805
Si Si5 0.207563 0.908433 0.548408
Si Si6 0.260102 0.617466 0.964389
Si Si7 0.225195 0.079297 0.653622
O O1 0.552949 0.137918 0.813333
O O2 0.366094 0.361170 0.956215
O O3 0.448637 0.853802 0.921773
O O4 0.899779 0.174690 0.777858
O O5 0.668678 0.397674 0.337835
O O6 0.093612 0.497291 0.497962
O O7 0.418049 0.180125 0.347426
O O8 0.201340 0.148617 0.517331
O O9 0.590317 0.370520 0.718482
O O10 0.281003 0.565855 0.897374
O O11 0.083125 0.178173 0.909668
O O12 0.086611 0.253372 0.369353
O O13 0.188995 0.943374 0.613226
O O14 0.531005 0.790669 0.430585
#
# Coordination Sequence:
#
# PCOD8045914 Si02
#       7
#     2   2   2   2   2   2   2
#     4  10  21  36  59  93 131 163 206 283 330 376
#     4  11  23  40  57  92 137 168 223 256 316 418
#     4  10  20  36  63  93 135 168 211 283 337 384
#     4  11  23  40  61  91 135 177 206 267 336 391
#     4  11  22  38  58  90 129 169 222 267 310 402
#     4  10  20  37  59 100 130 154 227 279 327 383
#     4  11  23  35  61  91 125 177 219 267 326 380
#
# _framework density 21.336306
#
# number of rings (size 3 to 8) (size 9 to 14) (size 15 to 20)
#    0.857    0.571    4.286    1.714    4.000    0.000 
#    0.000    0.000    0.000    0.000    3.714    0.000 
#    0.000    0.000    0.000    0.000    0.000    0.000 
#
# Total GULP energy -173441.402401 kJ/mol
# GULP energy per Si atom -12388.671600 kJ/mol
# Density = 2.128774 g / cm^3
# Si number density = 21.336306 Si / 1000 Ang^3
#
#
#
# Elastic Constant Matrix: (Units=GPa)
#
#
# Indices 1 2 3 4 5 6 
#
# 1 90.2300 19.5484 29.4084 -0.0001 -24.8682 0.0000
# 2 19.5484 97.2947 21.5408 0.0000 -19.3763 0.0000
# 3 29.4084 21.5408 91.0453 0.0000 -36.8818 0.0002
# 4 -0.0001 0.0000 0.0000 30.5892 -0.0001 -7.6805
# 5 -24.8682 -19.3763 -36.8818 -0.0001 29.0030 0.0001
# 6 0.0000 0.0000 0.0002 -7.6805 0.0001 22.6197
#
#
#
# Elastic Compliance Matrix: (Units=1/GPa)
#
#
# Indices 1 2 3 4 5 6 
#
# 1 0.014555 -0.000481 0.000697 0.000000 0.013045 0.000000
# 2 -0.000481 0.011902 0.000811 0.000000 0.008571 0.000000
# 3 0.000697 0.000811 0.022745 0.000000 0.030063 0.000000
# 4 0.000000 0.000000 0.000000 0.035738 0.000000 0.012135
# 5 0.013045 0.008571 0.030063 0.000000 0.089621 -0.000001
# 6 0.000000 0.000000 0.000000 0.012135 -0.000001 0.048330
#
#
# Mechanical properties :
#
#
# Convention : Reuss Voigt Hill
#
# Bulk Modulus (GPa) = 19.50963 46.61837 33.06400
# Shear Modulus (GPa) = 21.01537 30.31387 25.66462
#
# Velocity S-wave (km/s) = 3.14181 3.77339 3.47199
# Velocity P-wave (km/s) = 4.72493 6.39386 5.62167
#
# Compressibility (1/GPa) = 0.05125674
#
# Stress axis : x y z
#
# Youngs Moduli (GPa) = 68.70416 84.01999 43.96595
#
# Poissons Ratio (x) = 0.04039 -0.03063
# Poissons Ratio (y) = 0.03303 -0.03568
# Poissons Ratio (z) = -0.04787 -0.06818
#
# Static dielectric constant tensor:
#      x y z
#    x 3.683210 0.000000 -0.354210 
#    y 0.000000 3.904340 0.000000 
#    z -0.354210 0.000000 3.507090 
# 
# 
# High freq. dielectric constant tensor:
#      x y z
#    x 1.814420 0.000000 -0.032980 
#    y 0.000000 1.837900 0.000000 
#    z -0.032980 0.000000 1.818140 
# 
# From -- ./inp_files/16319.got.cif
#   From: 2010.03.12/outbox.cif.g09.slc.cpg/sg4_9_cif.got.tgz:16319.got - 2010.03.31 09:31:35.
