data_PCOD8045753
_publ_section_title
;
Structure prediction by ZEFSAII (Michael W. Deem and Ramdas Pophale) SiO2 
 PCOD8045753
Probable space group: P 21
;
_chemical_formula_sum "Si O2"
_cell_formula_units_Z 16
_cell_length_a 8.395419
_cell_length_b 5.273431
_cell_length_c 16.513128
_cell_angle_alpha 90.000000
_cell_angle_beta 84.276986
_cell_angle_gamma 90.000000
_cell_volume 727.436149
_symmetry_space_group_name_H-M "P 21"
_symmetry_group_IT_number 4
_symmetry_cell_setting 'monoclinic'
loop_
_space_group_symop_operation_xyz
x,y,z
-x,1/2+y,-z
loop_
_atom_site_type_symbol
_atom_site_label
_atom_site_fract_x
_atom_site_fract_y
_atom_site_fract_z
Si Si1 0.947622 0.506810 0.457059
Si Si2 0.616031 0.529579 0.701690
Si Si3 0.443900 0.071629 0.959686
Si Si4 0.090720 0.032957 0.019185
Si Si5 0.043347 0.534554 0.270479
Si Si6 0.580985 0.029290 0.776884
Si Si7 0.934067 0.534530 0.792225
Si Si8 0.403867 0.043309 0.485186
O O1 0.034650 0.539647 0.367181
O O2 0.992560 0.231042 0.488299
O O3 0.757083 0.522453 0.453806
O O4 0.519441 0.785630 0.729000
O O5 0.785795 0.535334 0.737796
O O6 0.646096 0.510101 0.605130
O O7 0.515627 0.284310 0.736879
O O8 0.516300 0.002129 0.869971
O O9 0.511960 0.344237 0.981996
O O10 0.253022 0.092357 0.963317
O O11 0.125189 0.037361 0.112980
O O12 0.966426 0.252893 0.002715
O O13 0.226932 0.535449 0.231065
O O14 0.961157 0.284499 0.235256
O O15 0.961533 0.783637 0.234270
O O16 0.476788 0.321242 0.494600
#
# Coordination Sequence:
#
# PCOD8045753 Si02
#       8
#     2   2   2   2   2   2   2   2
#     4  12  23  41  69 100 130 178 231 270 322 407
#     4  10  20  39  64  89 124 174 219 260 317 396
#     4  12  23  41  69 100 130 178 231 270 322 407
#     4  12  26  45  66 100 142 175 213 282 348 388
#     4  10  19  35  61  93 120 159 219 276 309 367
#     4  10  19  35  61  93 120 159 219 276 309 367
#     4  10  20  39  64  89 124 174 219 260 317 396
#     4  12  26  45  66 100 142 175 213 282 348 388
#
# _framework density 21.995056999999999
#
# number of rings (size 3 to 8) (size 9 to 14) (size 15 to 20)
#    0.000    1.000    0.000   10.500    0.000    0.000 
#    0.000    7.500    0.000    0.000    0.000    0.000 
#    0.000    0.000    0.000    0.000    0.000    0.000 
#
# Total GULP energy -198386.073855 kJ/mol
# GULP energy per Si atom -12399.129616 kJ/mol
# Density = 2.194500 g / cm^3
# Si number density = 21.995057 Si / 1000 Ang^3
#
#
#
# Elastic Constant Matrix: (Units=GPa)
#
#
# Indices 1 2 3 4 5 6 
#
# 1 62.4690 4.6903 13.7734 0.0000 -5.5629 0.0000
# 2 4.6903 184.3080 23.5014 0.0000 -1.3315 0.0000
# 3 13.7734 23.5014 125.7034 0.0000 -4.3746 0.0000
# 4 0.0000 0.0000 0.0000 45.0765 0.0000 4.7150
# 5 -5.5629 -1.3315 -4.3746 0.0000 26.6896 0.0000
# 6 0.0000 0.0000 0.0000 4.7150 0.0000 25.2611
#
#
#
# Elastic Compliance Matrix: (Units=1/GPa)
#
#
# Indices 1 2 3 4 5 6 
#
# 1 0.016677 -0.000187 -0.001681 0.000000 0.003191 0.000000
# 2 -0.000187 0.005561 -0.001017 0.000000 0.000072 0.000000
# 3 -0.001681 -0.001017 0.008363 0.000000 0.000970 0.000000
# 4 0.000000 0.000000 0.000000 0.022626 0.000000 -0.004223
# 5 0.003191 0.000072 0.000970 0.000000 0.038295 0.000000
# 6 0.000000 0.000000 0.000000 -0.004223 0.000000 0.040375
#
#
# Mechanical properties :
#
#
# Convention : Reuss Voigt Hill
#
# Bulk Modulus (GPa) = 40.27227 50.71230 45.49228
# Shear Modulus (GPa) = 34.25972 41.43979 37.84976
#
# Velocity S-wave (km/s) = 3.95094 4.34527 4.15279
# Velocity P-wave (km/s) = 6.25801 6.94849 6.61227
#
# Compressibility (1/GPa) = 0.02483098
#
# Stress axis : x y z
#
# Youngs Moduli (GPa) = 59.96337 179.83645 119.57052
#
# Poissons Ratio (x) = 0.03362 0.20103
# Poissons Ratio (y) = 0.01121 0.12156
# Poissons Ratio (z) = 0.10082 0.18283
#
# Static dielectric constant tensor:
#      x y z
#    x 3.529910 0.000000 -0.112410 
#    y 0.000000 8.548090 0.000000 
#    z -0.112410 0.000000 3.971990 
# 
# 
# High freq. dielectric constant tensor:
#      x y z
#    x 1.818020 0.000000 -0.008880 
#    y 0.000000 1.909000 0.000000 
#    z -0.008880 0.000000 1.876190 
# 
# From -- ./inp_files/13513.got.cif
#   From: 2010.03.12/outbox.cif.g09.slc.cpg/sg4_7_cif.got.tgz:13513.got - 2010.03.31 09:31:35.
