data_PCOD8045417
_publ_section_title
;
Structure prediction by ZEFSAII (Michael W. Deem and Ramdas Pophale) SiO2 
 PCOD8045417
Probable space group: P 2
;
_chemical_formula_sum "Si O2"
_cell_formula_units_Z 15
_cell_length_a 8.727300
_cell_length_b 8.302860
_cell_length_c 11.375158
_cell_angle_alpha 90.000000
_cell_angle_beta 53.281413
_cell_angle_gamma 90.000000
_cell_volume 660.713024
_symmetry_space_group_name_H-M "P 2"
_symmetry_group_IT_number 3
_symmetry_cell_setting 'monoclinic'
loop_
_space_group_symop_operation_xyz
x,y,z
-x,y,-z
loop_
_atom_site_type_symbol
_atom_site_label
_atom_site_fract_x
_atom_site_fract_y
_atom_site_fract_z
Si Si1 0.830079 0.768960 0.489802
Si Si2 0.708029 0.012719 0.350584
Si Si3 0.303593 0.437112 0.135911
Si Si4 0.482659 0.928551 0.240711
Si Si5 0.776248 0.242860 0.605091
Si Si6 0.289997 0.464738 0.572457
Si Si7 0.500000 0.750949 0.000000
Si Si8 0.956460 0.298534 0.155225
O O1 0.848128 0.588718 0.431846
O O2 0.000000 0.813119 0.500000
O O3 0.815236 0.887497 0.385420
O O4 0.635689 0.779577 0.652628
O O5 0.500000 0.065829 0.500000
O O6 0.669092 0.949741 0.236323
O O7 0.871651 0.144384 0.259312
O O8 0.263222 0.391499 0.289238
O O9 0.318589 0.633315 0.114679
O O10 0.149778 0.353933 0.125380
O O11 0.500000 0.357913 0.000000
O O12 0.347859 0.087732 0.300907
O O13 0.553517 0.872712 0.080494
O O14 0.707747 0.300764 0.506939
O O15 0.000000 0.195563 0.500000
O O16 0.500000 0.535301 0.500000
O O17 0.202245 0.435023 0.742876
O O18 0.000000 0.271946 0.000000
#
# Coordination Sequence:
#
# PCOD8045417 Si02
#       8
#     2   2   2   2   2   2   1   2
#     4  11  25  43  73 105 142 189 252 309 374 443
#     4  10  24  48  71 106 144 192 247 313 385 442
#     4  10  27  46  71 104 150 195 247 300 373 450
#     4  11  24  43  74 105 149 192 246 311 373 449
#     4  12  24  44  75 111 141 195 255 314 367 440
#     4  12  25  44  76 103 145 194 248 307 379 444
#     4  10  26  46  72 106 152 204 248 290 388 452
#     4  12  27  45  70 106 146 188 245 310 365 447
#
# _framework density 22.702746999999999
#
# number of rings (size 3 to 8) (size 9 to 14) (size 15 to 20)
#    0.400    0.533    1.333    5.600    8.400    1.067 
#    0.000    0.667    0.000    0.000    0.000    0.000 
#    0.000    0.000    0.000    0.000    0.000    0.000 
#
# Total GULP energy -185882.852823 kJ/mol
# GULP energy per Si atom -12392.190188 kJ/mol
# Density = 2.265107 g / cm^3
# Si number density = 22.702747 Si / 1000 Ang^3
#
#
#
# Elastic Constant Matrix: (Units=GPa)
#
#
# Indices 1 2 3 4 5 6 
#
# 1 153.4667 50.5876 45.3272 0.0000 8.2953 0.0000
# 2 50.5876 115.8972 56.9712 0.0000 7.6274 0.0000
# 3 45.3272 56.9712 125.3166 0.0000 22.1841 0.0000
# 4 0.0000 0.0000 0.0000 29.0135 0.0000 3.1618
# 5 8.2953 7.6274 22.1841 0.0000 43.7375 0.0000
# 6 0.0000 0.0000 0.0000 3.1618 0.0000 32.9676
#
#
#
# Elastic Compliance Matrix: (Units=1/GPa)
#
#
# Indices 1 2 3 4 5 6 
#
# 1 0.007871 -0.002628 -0.001614 0.000000 -0.000216 0.000000
# 2 -0.002628 0.012008 -0.004643 0.000000 0.000759 0.000000
# 3 -0.001614 -0.004643 0.011510 0.000000 -0.004722 0.000000
# 4 0.000000 0.000000 0.000000 0.034831 0.000000 -0.003341
# 5 -0.000216 0.000759 -0.004722 0.000000 0.025167 0.000000
# 6 0.000000 0.000000 0.000000 -0.003341 0.000000 0.030653
#
#
# Mechanical properties :
#
#
# Convention : Reuss Voigt Hill
#
# Bulk Modulus (GPa) = 73.42511 77.82804 75.62658
# Shear Modulus (GPa) = 34.63832 37.26337 35.95084
#
# Velocity S-wave (km/s) = 3.91030 4.05576 3.98370
# Velocity P-wave (km/s) = 7.26632 7.50254 7.38537
#
# Compressibility (1/GPa) = 0.01361932
#
# Stress axis : x y z
#
# Youngs Moduli (GPa) = 127.05421 83.28031 86.87930
#
# Poissons Ratio (x) = 0.21885 0.14022
# Poissons Ratio (y) = 0.33388 0.40336
# Poissons Ratio (z) = 0.20506 0.38665
#
# Static dielectric constant tensor:
#      x y z
#    x 4.248360 0.000000 0.243290 
#    y 0.000000 4.004050 0.000000 
#    z 0.243290 0.000000 4.426700 
# 
# 
# High freq. dielectric constant tensor:
#      x y z
#    x 1.901990 0.000000 0.010400 
#    y 0.000000 1.895180 0.000000 
#    z 0.010400 0.000000 1.895720 
# 
# From -- ./inp_files/10718.got.cif
#   From: 2010.03.12/outbox.cif.g09.slc.cpg/sg3_6_cif.got.tgz:10718.got - 2010.03.31 09:20:49.
