data_PCOD8045797
_publ_section_title
;
Structure prediction by ZEFSAII (Michael W. Deem and Ramdas Pophale) SiO2 
 PCOD8045797
Probable space group: P 21
;
_chemical_formula_sum "Si O2"
_cell_formula_units_Z 12
_cell_length_a 6.380432
_cell_length_b 4.808586
_cell_length_c 25.387008
_cell_angle_alpha 90.000000
_cell_angle_beta 39.899198
_cell_angle_gamma 90.000000
_cell_volume 499.613634
_symmetry_space_group_name_H-M "P 21"
_symmetry_group_IT_number 4
_symmetry_cell_setting 'monoclinic'
loop_
_space_group_symop_operation_xyz
x,y,z
-x,1/2+y,-z
loop_
_atom_site_type_symbol
_atom_site_label
_atom_site_fract_x
_atom_site_fract_y
_atom_site_fract_z
Si Si1 0.616696 0.781060 0.340420
Si Si2 0.340534 0.286313 0.340050
Si Si3 0.670312 0.260637 0.826819
Si Si4 0.620593 0.258344 0.172990
Si Si5 0.858141 0.892027 0.000249
Si Si6 0.662032 0.591447 0.447681
O O1 0.522025 0.466769 0.348171
O O2 0.658858 0.779371 0.395243
O O3 0.955373 0.856547 0.246125
O O4 0.337792 0.983002 0.368944
O O5 0.563218 0.293957 0.245491
O O6 0.988690 0.415326 0.395522
O O7 0.458795 0.442693 0.826650
O O8 0.626547 0.947775 0.814160
O O9 0.518979 0.302389 0.915307
O O10 0.002893 0.329912 0.085423
O O11 0.090180 0.714377 0.995619
O O12 0.389940 0.343533 0.500101
#
# Coordination Sequence:
#
# PCOD8045797 Si02
#       6
#     2   2   2   2   2   2
#     4  12  26  44  72 105 135 176 226 281 341 417
#     4  12  26  44  72 105 135 176 226 281 341 417
#     4  10  19  37  65  93 136 181 224 271 331 394
#     4  10  19  37  65  93 136 181 224 271 331 394
#     4   8  16  30  56  94 126 178 228 264 316 388
#     4  12  28  50  76  98 136 182 224 290 360 418
#
# _framework density 24.018561999999999
#
# number of rings (size 3 to 8) (size 9 to 14) (size 15 to 20)
#    0.000    1.333    1.667    4.000    2.333    2.667 
#    0.000    1.667    0.000    0.000    0.000    0.000 
#    0.000    0.000    0.000    0.000    0.000    0.000 
#
# Total GULP energy -148669.847120 kJ/mol
# GULP energy per Si atom -12389.153927 kJ/mol
# Density = 2.396389 g / cm^3
# Si number density = 24.018562 Si / 1000 Ang^3
#
#
#
# Elastic Constant Matrix: (Units=GPa)
#
#
# Indices 1 2 3 4 5 6 
#
# 1 66.7337 16.8383 52.0581 0.0000 -1.6757 0.0000
# 2 16.8383 102.9226 39.5584 0.0000 -3.9097 0.0000
# 3 52.0581 39.5584 149.2724 0.0000 -16.0300 0.0000
# 4 0.0000 0.0000 0.0000 36.4828 0.0000 1.3001
# 5 -1.6757 -3.9097 -16.0300 0.0000 9.9102 0.0000
# 6 0.0000 0.0000 0.0000 1.3001 0.0000 41.2116
#
#
#
# Elastic Compliance Matrix: (Units=1/GPa)
#
#
# Indices 1 2 3 4 5 6 
#
# 1 0.021451 -0.000669 -0.008402 0.000000 -0.010227 0.000000
# 2 -0.000669 0.010840 -0.002653 0.000000 -0.000128 0.000000
# 3 -0.008402 -0.002653 0.012184 0.000000 0.017240 0.000000
# 4 0.000000 0.000000 0.000000 0.027441 0.000000 -0.000866
# 5 -0.010227 -0.000128 0.017240 0.000000 0.127013 0.000000
# 6 0.000000 0.000000 0.000000 -0.000866 0.000000 0.024292
#
#
# Mechanical properties :
#
#
# Convention : Reuss Voigt Hill
#
# Bulk Modulus (GPa) = 47.55722 59.53759 53.54740
# Shear Modulus (GPa) = 19.70991 31.55251 25.63121
#
# Velocity S-wave (km/s) = 2.86774 3.62839 3.27026
# Velocity P-wave (km/s) = 5.55053 6.51119 6.04996
#
# Compressibility (1/GPa) = 0.02102730
#
# Stress axis : x y z
#
# Youngs Moduli (GPa) = 46.61742 92.24761 82.07519
#
# Poissons Ratio (x) = 0.06168 0.68961
# Poissons Ratio (y) = 0.03117 0.21778
# Poissons Ratio (z) = 0.39169 0.24477
#
# Static dielectric constant tensor:
#      x y z
#    x 3.554910 0.000000 -0.219750 
#    y 0.000000 4.487490 0.000000 
#    z -0.219750 0.000000 4.857860 
# 
# 
# High freq. dielectric constant tensor:
#      x y z
#    x 1.890100 0.000000 -0.010930 
#    y 0.000000 1.978340 0.000000 
#    z -0.010930 0.000000 1.976050 
# 
# From -- ./inp_files/3903.got.cif
#   From: 2010.03.12/outbox.cif.g09.slc.cpg/sg4_2_cif.got.tgz:3903.got - 2010.03.31 09:31:35.
