data_PCOD8045772
_publ_section_title
;
Structure prediction by ZEFSAII (Michael W. Deem and Ramdas Pophale) SiO2 
 PCOD8045772
Probable space group: P 21
;
_chemical_formula_sum "Si O2"
_cell_formula_units_Z 8
_cell_length_a 18.871364
_cell_length_b 4.976516
_cell_length_c 9.865323
_cell_angle_alpha 90.000000
_cell_angle_beta 153.760242
_cell_angle_gamma 90.000000
_cell_volume 409.626816
_symmetry_space_group_name_H-M "P 21"
_symmetry_group_IT_number 4
_symmetry_cell_setting 'monoclinic'
loop_
_space_group_symop_operation_xyz
x,y,z
-x,1/2+y,-z
loop_
_atom_site_type_symbol
_atom_site_label
_atom_site_fract_x
_atom_site_fract_y
_atom_site_fract_z
Si Si1 0.604253 0.769330 0.159229
Si Si2 0.844594 0.671671 0.352028
Si Si3 0.898546 0.771072 0.858958
Si Si4 0.050322 0.172319 0.757812
O O1 0.672822 0.727468 0.125108
O O2 0.741920 0.705637 0.503863
O O3 0.454980 0.573362 0.927372
O O4 0.899814 0.372238 0.483974
O O5 0.829278 0.706773 0.163077
O O6 0.978031 0.873587 0.640886
O O7 0.043453 0.573743 0.067052
O O8 0.852935 0.732118 0.938812
#
# Coordination Sequence:
#
# PCOD8045772 Si02
#       4
#     2   2   2   2
#     4  12  24  38  56  88 125 155 184 236 304 350
#     4  10  20  36  59  85 116 148 192 239 293 333
#     4  12  21  38  62  88 113 150 207 239 274 342
#     4  10  19  36  61  87 108 147 201 248 271 331
#
# _framework density 19.529971
#
# number of rings (size 3 to 8) (size 9 to 14) (size 15 to 20)
#    0.000    1.000    5.000    3.000    0.000    0.000 
#    0.000    2.500    0.000    0.000    0.000    0.000 
#    0.000    0.000    0.000    0.000    0.000    0.000 
#
# Total GULP energy -99239.706999 kJ/mol
# GULP energy per Si atom -12404.963375 kJ/mol
# Density = 1.948552 g / cm^3
# Si number density = 19.529971 Si / 1000 Ang^3
#
#
#
# Elastic Constant Matrix: (Units=GPa)
#
#
# Indices 1 2 3 4 5 6 
#
# 1 136.0459 9.5126 46.7605 0.0000 -8.4036 0.0000
# 2 9.5126 70.9505 7.0622 0.0000 1.2049 0.0000
# 3 46.7605 7.0622 63.0067 0.0000 -8.0418 0.0000
# 4 0.0000 0.0000 0.0000 28.3308 0.0000 5.9675
# 5 -8.4036 1.2049 -8.0418 0.0000 34.3027 0.0000
# 6 0.0000 0.0000 0.0000 5.9675 0.0000 31.1838
#
#
#
# Elastic Compliance Matrix: (Units=1/GPa)
#
#
# Indices 1 2 3 4 5 6 
#
# 1 0.009912 -0.000626 -0.007189 0.000000 0.000765 0.000000
# 2 -0.000626 0.014320 -0.001262 0.000000 -0.000952 0.000000
# 3 -0.007189 -0.001262 0.021780 0.000000 0.003389 0.000000
# 4 0.000000 0.000000 0.000000 0.036780 0.000000 -0.007038
# 5 0.000765 -0.000952 0.003389 0.000000 0.030168 0.000000
# 6 0.000000 0.000000 0.000000 -0.007038 0.000000 0.033415
#
#
# Mechanical properties :
#
#
# Convention : Reuss Voigt Hill
#
# Bulk Modulus (GPa) = 35.89464 44.07484 39.98474
# Shear Modulus (GPa) = 28.76625 32.54134 30.65379
#
# Velocity S-wave (km/s) = 3.84204 4.08637 3.96609
# Velocity P-wave (km/s) = 6.17259 6.69936 6.44136
#
# Compressibility (1/GPa) = 0.02785931
#
# Stress axis : x y z
#
# Youngs Moduli (GPa) = 100.88468 69.83198 45.91294
#
# Poissons Ratio (x) = 0.04375 0.33005
# Poissons Ratio (y) = 0.06320 0.05793
# Poissons Ratio (z) = 0.72522 0.08811
#
# Static dielectric constant tensor:
#      x y z
#    x 3.947070 0.000000 -0.216630 
#    y 0.000000 3.695390 0.000000 
#    z -0.216630 0.000000 3.142410 
# 
# 
# High freq. dielectric constant tensor:
#      x y z
#    x 1.777280 0.000000 -0.017670 
#    y 0.000000 1.783730 0.000000 
#    z -0.017670 0.000000 1.712130 
# 
# From -- ./inp_files/879.got.cif
#   From: 2010.03.12/outbox.cif.g09.slc.cpg/sg4_1_cif.got.tgz:879.got - 2010.03.31 09:31:35.
