data_PCOD8045545
_publ_section_title
;
Structure prediction by ZEFSAII (Michael W. Deem and Ramdas Pophale) SiO2 
 PCOD8045545
Probable space group: P 2
;
_chemical_formula_sum "Si O2"
_cell_formula_units_Z 9
_cell_length_a 7.652512
_cell_length_b 5.047776
_cell_length_c 8.903893
_cell_angle_alpha 90.000000
_cell_angle_beta 99.866667
_cell_angle_gamma 90.000000
_cell_volume 338.853891
_symmetry_space_group_name_H-M "P 2"
_symmetry_group_IT_number 3
_symmetry_cell_setting 'monoclinic'
loop_
_space_group_symop_operation_xyz
x,y,z
-x,y,-z
loop_
_atom_site_type_symbol
_atom_site_label
_atom_site_fract_x
_atom_site_fract_y
_atom_site_fract_z
Si Si1 0.098536 0.059470 0.157969
Si Si2 0.698034 0.560485 0.777846
Si Si3 0.500000 0.261679 0.000000
Si Si4 0.785386 0.520392 0.456826
Si Si5 0.756279 0.018845 0.266344
O O1 0.134770 0.372625 0.154270
O O2 0.969272 0.004618 0.278478
O O3 0.274032 0.875890 0.195033
O O4 0.000000 0.950824 0.000000
O O5 0.676726 0.525666 0.596601
O O6 0.546689 0.451081 0.865958
O O7 0.658861 0.076113 0.090317
O O8 0.719644 0.245718 0.380204
O O9 0.000000 0.547967 0.500000
O O10 0.699090 0.742413 0.333641
#
# Coordination Sequence:
#
# PCOD8045545 Si02
#       5
#     2   2   1   2   2
#     4  12  23  44  79 114 142 208 265 325 355 465
#     4  12  27  46  78 113 158 194 266 312 399 445
#     4  12  32  52  74 120 164 214 240 326 394 482
#     4  12  24  47  82 117 144 202 263 334 367 458
#     4  12  26  48  80 113 158 194 266 315 398 446
#
# _framework density 26.560117999999999
#
# number of rings (size 3 to 8) (size 9 to 14) (size 15 to 20)
#    0.000    0.000    6.667    2.667    3.111    4.444 
#    0.000    2.222    0.000    0.000    0.000    0.000 
#    0.000    0.000    0.000    0.000    0.000    0.000 
#
# Total GULP energy -111522.567644 kJ/mol
# GULP energy per Si atom -12391.396405 kJ/mol
# Density = 2.649967 g / cm^3
# Si number density = 26.560118 Si / 1000 Ang^3
#
#
#
# Elastic Constant Matrix: (Units=GPa)
#
#
# Indices 1 2 3 4 5 6 
#
# 1 78.7651 5.1739 29.9605 0.0000 -24.5011 0.0000
# 2 5.1739 135.8335 31.5941 0.0000 -3.4089 0.0000
# 3 29.9605 31.5941 117.0396 0.0000 -14.1791 0.0000
# 4 0.0000 0.0000 0.0000 54.8746 0.0000 -1.9499
# 5 -24.5011 -3.4089 -14.1791 0.0000 54.7924 0.0000
# 6 0.0000 0.0000 0.0000 -1.9499 0.0000 32.8320
#
#
#
# Elastic Compliance Matrix: (Units=1/GPa)
#
#
# Indices 1 2 3 4 5 6 
#
# 1 0.015916 0.000344 -0.003409 0.000000 0.006256 0.000000
# 2 0.000344 0.007863 -0.002202 0.000000 0.000073 0.000000
# 3 -0.003409 -0.002202 0.010127 0.000000 0.000959 0.000000
# 4 0.000000 0.000000 0.000000 0.018262 0.000000 0.001085
# 5 0.006256 0.000073 0.000959 0.000000 0.021301 0.000000
# 6 0.000000 0.000000 0.000000 0.001085 0.000000 0.030522
#
#
# Mechanical properties :
#
#
# Convention : Reuss Voigt Hill
#
# Bulk Modulus (GPa) = 42.78581 51.67726 47.23154
# Shear Modulus (GPa) = 40.87742 46.16046 43.51894
#
# Velocity S-wave (km/s) = 3.92733 4.17341 4.05224
# Velocity P-wave (km/s) = 6.05882 6.53621 6.30204
#
# Compressibility (1/GPa) = 0.02337223
#
# Stress axis : x y z
#
# Youngs Moduli (GPa) = 62.82857 127.18139 98.74241
#
# Poissons Ratio (x) = -0.04371 0.33663
# Poissons Ratio (y) = -0.02160 0.21739
# Poissons Ratio (z) = 0.21419 0.28001
#
# Static dielectric constant tensor:
#      x y z
#    x 4.812180 0.000000 -0.116740 
#    y 0.000000 4.651810 0.000000 
#    z -0.116740 0.000000 4.921280 
# 
# 
# High freq. dielectric constant tensor:
#      x y z
#    x 2.057840 0.000000 -0.017290 
#    y 0.000000 2.071410 0.000000 
#    z -0.017290 0.000000 2.081150 
# 
# From -- ./inp_files/4731.got.cif
#   From: 2010.03.12/outbox.cif.g09.slc.cpg/sg3_3_cif.got.tgz:4731.got - 2010.03.31 09:20:49.
