data_PCOD8045297
_publ_section_title
;
Structure prediction by ZEFSAII (Michael W. Deem and Ramdas Pophale) SiO2 
 PCOD8045297
Probable space group: P 2
;
_chemical_formula_sum "Si O2"
_cell_formula_units_Z 11
_cell_length_a 7.445572
_cell_length_b 5.329798
_cell_length_c 12.376880
_cell_angle_alpha 90.000000
_cell_angle_beta 74.039405
_cell_angle_gamma 90.000000
_cell_volume 472.223037
_symmetry_space_group_name_H-M "P 2"
_symmetry_group_IT_number 3
_symmetry_cell_setting 'monoclinic'
loop_
_space_group_symop_operation_xyz
x,y,z
-x,y,-z
loop_
_atom_site_type_symbol
_atom_site_label
_atom_site_fract_x
_atom_site_fract_y
_atom_site_fract_z
Si Si1 0.224086 0.964000 0.679624
Si Si2 0.521791 0.313131 0.685430
Si Si3 0.500000 0.637663 0.500000
Si Si4 0.803554 0.013168 0.764048
Si Si5 0.164263 0.509239 0.116809
Si Si6 0.752044 0.597728 0.138457
O O1 0.323975 0.783929 0.577902
O O2 0.241890 0.866276 0.801771
O O3 0.334187 0.222043 0.656641
O O4 0.011707 0.020560 0.681664
O O5 0.607634 0.489635 0.578828
O O6 0.660034 0.082575 0.691419
O O7 0.443561 0.459812 0.803144
O O8 0.763804 0.234226 0.859234
O O9 0.770550 0.729411 0.811336
O O10 0.941375 0.463355 0.148598
O O11 0.245437 0.612626 0.991015
#
# Coordination Sequence:
#
# PCOD8045297 Si02
#       6
#     2   2   1   2   2   2
#     4  10  22  46  68  98 137 184 226 296 339 421
#     4  11  23  44  69 100 134 184 228 299 340 415
#     4  10  24  46  74  96 136 184 244 288 370 400
#     4  11  25  42  71 101 145 173 234 280 348 407
#     4  10  22  42  66 105 139 193 220 276 337 422
#     4   9  21  39  70  95 146 183 231 266 349 406
#
# _framework density 23.294077000000001
#
# number of rings (size 3 to 8) (size 9 to 14) (size 15 to 20)
#    0.000    1.818    1.818    0.545    7.636    2.182 
#    0.000    5.455    0.000    0.000    0.000    0.000 
#    0.000    0.000    0.000    0.000    0.000    0.000 
#
# Total GULP energy -136273.728696 kJ/mol
# GULP energy per Si atom -12388.520791 kJ/mol
# Density = 2.324106 g / cm^3
# Si number density = 23.294077 Si / 1000 Ang^3
#
#
#
# Elastic Constant Matrix: (Units=GPa)
#
#
# Indices 1 2 3 4 5 6 
#
# 1 105.6726 22.4529 38.9195 0.0000 -9.8280 0.0000
# 2 22.4529 74.5430 16.0617 0.0000 -7.9865 0.0000
# 3 38.9195 16.0617 115.1393 0.0000 -20.5811 0.0000
# 4 0.0000 0.0000 0.0000 17.3322 0.0000 7.6879
# 5 -9.8280 -7.9865 -20.5811 0.0000 20.8568 0.0000
# 6 0.0000 0.0000 0.0000 7.6879 0.0000 38.2437
#
#
#
# Elastic Compliance Matrix: (Units=1/GPa)
#
#
# Indices 1 2 3 4 5 6 
#
# 1 0.011319 -0.002586 -0.003265 0.000000 0.001122 0.000000
# 2 -0.002586 0.014719 -0.000473 0.000000 0.003951 0.000000
# 3 -0.003265 -0.000473 0.011592 0.000000 0.009719 0.000000
# 4 0.000000 0.000000 0.000000 0.063344 0.000000 -0.012734
# 5 0.001122 0.003951 0.009719 0.000000 0.059579 0.000000
# 6 0.000000 0.000000 0.000000 -0.012734 0.000000 0.028708
#
#
# Mechanical properties :
#
#
# Convention : Reuss Voigt Hill
#
# Bulk Modulus (GPa) = 40.02692 50.02480 45.02586
# Shear Modulus (GPa) = 23.78275 29.81460 26.79868
#
# Velocity S-wave (km/s) = 3.19874 3.58148 3.39551
# Velocity P-wave (km/s) = 5.55547 6.21487 5.89440
#
# Compressibility (1/GPa) = 0.02498319
#
# Stress axis : x y z
#
# Youngs Moduli (GPa) = 88.34359 67.93863 86.26595
#
# Poissons Ratio (x) = 0.17568 0.28166
# Poissons Ratio (y) = 0.22844 0.04080
# Poissons Ratio (z) = 0.28844 0.03213
#
# Static dielectric constant tensor:
#      x y z
#    x 4.217610 0.000000 -0.225280 
#    y 0.000000 4.166880 0.000000 
#    z -0.225280 0.000000 4.116480 
# 
# 
# High freq. dielectric constant tensor:
#      x y z
#    x 1.919250 0.000000 -0.011160 
#    y 0.000000 1.923420 0.000000 
#    z -0.011160 0.000000 1.910440 
# 
# From -- ./inp_files/10111.got.cif
#   From: 2010.03.12/outbox.cif.g09.slc.cpg/sg3_6_cif.got.tgz:10111.got - 2010.03.31 09:20:49.
