data_PCOD8045012
_publ_section_title
;
Structure prediction by ZEFSAII (Michael W. Deem and Ramdas Pophale) SiO2 
 PCOD8045012
Probable space group: P 2
;
_chemical_formula_sum "Si O2"
_cell_formula_units_Z 14
_cell_length_a 11.160466
_cell_length_b 8.405713
_cell_length_c 13.547030
_cell_angle_alpha 90.000000
_cell_angle_beta 145.863449
_cell_angle_gamma 90.000000
_cell_volume 713.170225
_symmetry_space_group_name_H-M "P 2"
_symmetry_group_IT_number 3
_symmetry_cell_setting 'monoclinic'
loop_
_space_group_symop_operation_xyz
x,y,z
-x,y,-z
loop_
_atom_site_type_symbol
_atom_site_label
_atom_site_fract_x
_atom_site_fract_y
_atom_site_fract_z
Si Si1 0.626766 0.320650 0.237583
Si Si2 0.491659 0.974568 0.771016
Si Si3 0.881784 0.558772 0.554948
Si Si4 0.908337 0.989133 0.160146
Si Si5 0.183187 0.329528 0.845690
Si Si6 0.659411 0.822674 0.521870
Si Si7 0.834983 0.842700 0.315816
O O1 0.599257 0.149287 0.268828
O O2 0.755436 0.443197 0.394028
O O3 0.758670 0.292204 0.228036
O O4 0.390191 0.386435 0.049099
O O5 0.447472 0.946569 0.626065
O O6 0.384687 0.842902 0.771873
O O7 0.744232 0.954949 0.959749
O O8 0.709695 0.666087 0.493501
O O9 0.003238 0.464300 0.724319
O O10 0.066970 0.664831 0.628854
O O11 0.804417 0.926512 0.190902
O O12 0.130408 0.903443 0.288040
O O13 0.931935 0.177901 0.184680
O O14 0.500000 0.776612 0.500000
O O15 0.000000 0.939144 0.500000
#
# Coordination Sequence:
#
# PCOD8045012 Si02
#       7
#     2   2   2   2   2   2   2
#     4  10  21  35  59  91 127 156 181 234 298 373
#     4  11  21  39  63  90 120 156 198 249 300 354
#     4  11  23  36  56  86 124 159 192 239 294 359
#     4  10  21  38  64  90 119 154 195 246 303 355
#     4  10  20  35  57  93 126 151 185 228 301 373
#     4  11  26  44  59  83 116 161 216 257 292 336
#     4  11  19  34  55  95 125 154 184 232 303 368
#
# _framework density 19.630655999999998
#
# number of rings (size 3 to 8) (size 9 to 14) (size 15 to 20)
#    0.000    1.429    4.286    2.571    0.000    2.857 
#    7.714    2.857    0.000    1.714    0.000    0.000 
#    0.000    0.000    0.000    0.000    0.000    0.000 
#
# Total GULP energy -173520.227310 kJ/mol
# GULP energy per Si atom -12394.301951 kJ/mol
# Density = 1.958598 g / cm^3
# Si number density = 19.630656 Si / 1000 Ang^3
#
#
#
# Elastic Constant Matrix: (Units=GPa)
#
#
# Indices 1 2 3 4 5 6 
#
# 1 61.6688 33.7124 27.5301 0.0000 6.5315 0.0000
# 2 33.7124 94.3731 64.3962 0.0000 0.9444 0.0000
# 3 27.5301 64.3962 132.3451 0.0000 2.0424 0.0000
# 4 0.0000 0.0000 0.0000 26.9250 0.0000 -0.3358
# 5 6.5315 0.9444 2.0424 0.0000 17.6785 0.0000
# 6 0.0000 0.0000 0.0000 -0.3358 0.0000 13.8254
#
#
#
# Elastic Compliance Matrix: (Units=1/GPa)
#
#
# Indices 1 2 3 4 5 6 
#
# 1 0.021155 -0.006824 -0.000967 0.000000 -0.007340 0.000000
# 2 -0.006824 0.018064 -0.007407 0.000000 0.002412 0.000000
# 3 -0.000967 -0.007407 0.011370 0.000000 -0.000561 0.000000
# 4 0.000000 0.000000 0.000000 0.037151 0.000000 0.000902
# 5 -0.007340 0.002412 -0.000561 0.000000 0.059214 0.000000
# 6 0.000000 0.000000 0.000000 0.000902 0.000000 0.072353
#
#
# Mechanical properties :
#
#
# Convention : Reuss Voigt Hill
#
# Bulk Modulus (GPa) = 49.52233 59.96271 54.74252
# Shear Modulus (GPa) = 19.49815 22.53565 21.01690
#
# Velocity S-wave (km/s) = 3.15501 3.39187 3.27558
# Velocity P-wave (km/s) = 6.20918 6.77875 6.50020
#
# Compressibility (1/GPa) = 0.02019291
#
# Stress axis : x y z
#
# Youngs Moduli (GPa) = 47.26999 55.35803 87.94997
#
# Poissons Ratio (x) = 0.37775 0.08505
# Poissons Ratio (y) = 0.32256 0.65148
# Poissons Ratio (z) = 0.04571 0.41006
#
# Static dielectric constant tensor:
#      x y z
#    x 3.104500 0.000000 -0.023070 
#    y 0.000000 3.645810 0.000000 
#    z -0.023070 0.000000 3.916030 
# 
# 
# High freq. dielectric constant tensor:
#      x y z
#    x 1.713120 0.000000 -0.005730 
#    y 0.000000 1.766130 0.000000 
#    z -0.005730 0.000000 1.788140 
# 
# From -- ./inp_files/11744.got.cif
#   From: 2010.03.12/outbox.cif.g09.slc.cpg/sg3_6_cif.got.tgz:11744.got - 2010.03.31 09:20:49.
