data_PCOD8045020
_publ_section_title
;
Structure prediction by ZEFSAII (Michael W. Deem and Ramdas Pophale) SiO2 
 PCOD8045020
Probable space group: P 2
;
_chemical_formula_sum "Si O2"
_cell_formula_units_Z 16
_cell_length_a 7.834302
_cell_length_b 18.276313
_cell_length_c 8.800791
_cell_angle_alpha 90.000000
_cell_angle_beta 144.778565
_cell_angle_gamma 90.000000
_cell_volume 726.756885
_symmetry_space_group_name_H-M "P 2"
_symmetry_group_IT_number 3
_symmetry_cell_setting 'monoclinic'
loop_
_space_group_symop_operation_xyz
x,y,z
-x,y,-z
loop_
_atom_site_type_symbol
_atom_site_label
_atom_site_fract_x
_atom_site_fract_y
_atom_site_fract_z
Si Si1 0.667340 0.129660 0.963075
Si Si2 0.330811 0.294139 0.036706
Si Si3 0.826025 0.774493 0.216495
Si Si4 0.830222 0.893718 0.721038
Si Si5 0.173428 0.378183 0.469487
Si Si6 0.232471 0.544466 0.532544
Si Si7 0.159399 0.630678 0.965715
Si Si8 0.836987 0.041058 0.541386
O O1 0.736864 0.211665 0.957531
O O2 0.475546 0.082183 0.705254
O O3 0.500000 0.133576 0.000000
O O4 0.979077 0.090312 0.208916
O O5 0.535313 0.328594 0.314943
O O6 0.500000 0.293391 0.000000
O O7 0.036709 0.344322 0.813674
O O8 0.000000 0.762763 0.500000
O O9 0.996004 0.829446 0.232993
O O10 0.500000 0.808891 0.000000
O O11 0.777842 0.697049 0.101064
O O12 0.500000 0.862663 0.500000
O O13 0.793946 0.962606 0.584283
O O14 0.000000 0.914509 0.000000
O O15 0.285443 0.460478 0.524882
O O16 0.000000 0.373952 0.500000
O O17 0.538223 0.585194 0.793548
O O18 0.000000 0.552282 0.500000
O O19 0.091243 0.578198 0.281066
O O20 0.000000 0.662005 0.000000
O O21 0.000000 0.029775 0.500000
#
# Coordination Sequence:
#
# PCOD8045020 Si02
#       8
#     2   2   2   2   2   2   2   2
#     4   9  17  29  51  82 119 156 198 253 309 361
#     4   9  15  26  45  78 118 152 190 250 316 357
#     4  12  26  46  71  96 124 162 205 256 311 372
#     4  12  26  44  66  95 129 165 205 256 311 372
#     4   9  17  28  48  79 116 153 195 250 308 359
#     4  11  22  39  62  90 124 164 209 256 307 369
#     4  12  25  42  63  92 126 162 203 252 308 369
#     4  10  20  36  57  86 120 160 205 251 304 365
#
# _framework density 22.015616000000001
#
# number of rings (size 3 to 8) (size 9 to 14) (size 15 to 20)
#    0.000    1.500    0.000    6.375    0.000    7.500 
#    0.000    0.000    0.000    0.000    0.000   30.625 
#    0.000    0.000    0.000    0.000    0.000    0.000 
#
# Total GULP energy -198395.515769 kJ/mol
# GULP energy per Si atom -12399.719736 kJ/mol
# Density = 2.196551 g / cm^3
# Si number density = 22.015616 Si / 1000 Ang^3
#
#
#
# Elastic Constant Matrix: (Units=GPa)
#
#
# Indices 1 2 3 4 5 6 
#
# 1 74.6962 25.7052 45.4281 0.0000 18.1749 0.0000
# 2 25.7052 185.5825 74.2771 0.0000 5.2566 0.0000
# 3 45.4281 74.2771 201.4035 0.0000 24.7389 0.0000
# 4 0.0000 0.0000 0.0000 57.2570 0.0000 71.8706
# 5 18.1749 5.2566 24.7389 0.0000 33.6455 0.0000
# 6 0.0000 0.0000 0.0000 71.8706 0.0000 184.2679
#
#
#
# Elastic Compliance Matrix: (Units=1/GPa)
#
#
# Indices 1 2 3 4 5 6 
#
# 1 0.017076 -0.001142 -0.002550 0.000000 -0.007171 0.000000
# 2 -0.001142 0.006417 -0.002267 0.000000 0.001281 0.000000
# 3 -0.002550 -0.002267 0.006775 0.000000 -0.003250 0.000000
# 4 0.000000 0.000000 0.000000 0.034217 0.000000 -0.013346
# 5 -0.007171 0.001281 -0.003250 0.000000 0.035785 0.000000
# 6 0.000000 0.000000 0.000000 -0.013346 0.000000 0.010632
#
#
# Mechanical properties :
#
#
# Convention : Reuss Voigt Hill
#
# Bulk Modulus (GPa) = 54.48684 83.61144 69.04914
# Shear Modulus (GPa) = 38.77864 76.11887 57.44876
#
# Velocity S-wave (km/s) = 4.20147 5.88643 5.11382
# Velocity P-wave (km/s) = 6.95266 9.17936 8.14248
#
# Compressibility (1/GPa) = 0.01835306
#
# Stress axis : x y z
#
# Youngs Moduli (GPa) = 58.56189 155.82531 147.59234
#
# Poissons Ratio (x) = 0.17789 0.37632
# Poissons Ratio (y) = 0.06685 0.33452
# Poissons Ratio (z) = 0.14932 0.35318
#
# Static dielectric constant tensor:
#      x y z
#    x 3.767750 0.000000 0.194410 
#    y 0.000000 4.060370 0.000000 
#    z 0.194410 0.000000 4.467220 
# 
# 
# High freq. dielectric constant tensor:
#      x y z
#    x 1.845520 0.000000 0.008490 
#    y 0.000000 1.878610 0.000000 
#    z 0.008490 0.000000 1.885140 
# 
# From -- ./inp_files/6264.got.cif
#   From: 2010.03.12/outbox.cif.g09.slc.cpg/sg3_4_cif.got.tgz:6264.got - 2010.03.31 09:20:49.
