data_PCOD8045124
_publ_section_title
;
Structure prediction by ZEFSAII (Michael W. Deem and Ramdas Pophale) SiO2 
 PCOD8045124
Probable space group: P 2
;
_chemical_formula_sum "Si O2"
_cell_formula_units_Z 14
_cell_length_a 9.449331
_cell_length_b 14.365020
_cell_length_c 5.194111
_cell_angle_alpha 90.000000
_cell_angle_beta 117.297199
_cell_angle_gamma 90.000000
_cell_volume 626.533377
_symmetry_space_group_name_H-M "P 2"
_symmetry_group_IT_number 3
_symmetry_cell_setting 'monoclinic'
loop_
_space_group_symop_operation_xyz
x,y,z
-x,y,-z
loop_
_atom_site_type_symbol
_atom_site_label
_atom_site_fract_x
_atom_site_fract_y
_atom_site_fract_z
Si Si1 0.186169 0.975680 0.635752
Si Si2 0.601002 0.813110 0.334691
Si Si3 0.083655 0.362549 0.820881
Si Si4 0.394344 0.261934 0.163878
Si Si5 0.810649 0.083740 0.858929
Si Si6 0.599356 0.598115 0.338755
Si Si7 0.055423 0.565649 0.299682
O O1 0.244905 0.875934 0.582236
O O2 0.000000 0.966410 0.500000
O O3 0.244467 0.049865 0.469235
O O4 0.241716 0.008150 0.966225
O O5 0.500000 0.843308 0.500000
O O6 0.652754 0.705668 0.398027
O O7 0.500000 0.830860 0.000000
O O8 0.000000 0.316505 0.500000
O O9 0.054151 0.473153 0.796298
O O10 0.273588 0.345444 0.987020
O O11 0.000000 0.316477 0.000000
O O12 0.500000 0.290968 0.500000
O O13 0.283994 0.175896 0.149236
O O14 0.500000 0.239842 0.000000
O O15 0.000000 0.102042 0.000000
O O16 0.500000 0.568017 0.500000
O O17 0.760239 0.538924 0.508877
O O18 0.500000 0.573864 0.000000
O O19 0.000000 0.626211 0.500000
O O20 0.000000 0.622867 0.000000
#
# Coordination Sequence:
#
# PCOD8045124 Si02
#       7
#     2   2   2   2   2   2   2
#     4  10  21  37  57  86 117 157 205 246 288 348
#     4  10  21  36  57  84 121 160 194 244 304 347
#     4  10  22  43  64  86 119 157 196 242 304 366
#     4  12  25  40  62  93 121 155 203 254 301 358
#     4  10  22  39  59  82 119 161 200 246 298 350
#     4  10  21  39  61  90 123 159 202 249 298 355
#     4  10  21  40  63  89 117 155 199 243 302 364
#
# _framework density 22.345178000000001
#
# number of rings (size 3 to 8) (size 9 to 14) (size 15 to 20)
#    0.000    1.714    0.000    3.857    0.000    5.714 
#    0.000   19.286    0.000    0.000    0.000    0.000 
#    0.000    0.000    0.000    0.000    0.000    0.000 
#
# Total GULP energy -173486.557666 kJ/mol
# GULP energy per Si atom -12391.896976 kJ/mol
# Density = 2.229432 g / cm^3
# Si number density = 22.345178 Si / 1000 Ang^3
#
#
#
# Elastic Constant Matrix: (Units=GPa)
#
#
# Indices 1 2 3 4 5 6 
#
# 1 136.1265 25.5568 71.7636 0.0000 -26.3413 0.0000
# 2 25.5568 46.6241 9.4076 0.0000 2.7384 0.0000
# 3 71.7636 9.4076 176.8907 0.0000 -25.9717 0.0000
# 4 0.0000 0.0000 0.0000 13.8455 0.0000 12.8108
# 5 -26.3413 2.7384 -25.9717 0.0000 47.6137 0.0000
# 6 0.0000 0.0000 0.0000 12.8108 0.0000 26.1610
#
#
#
# Elastic Compliance Matrix: (Units=1/GPa)
#
#
# Indices 1 2 3 4 5 6 
#
# 1 0.011171 -0.005673 -0.003560 0.000000 0.004565 0.000000
# 2 -0.005673 0.024746 0.000343 0.000000 -0.004375 0.000000
# 3 -0.003560 0.000343 0.007378 0.000000 0.002035 0.000000
# 4 0.000000 0.000000 0.000000 0.132062 0.000000 -0.064670
# 5 0.004565 -0.004375 0.002035 0.000000 0.024889 0.000000
# 6 0.000000 0.000000 0.000000 -0.064670 0.000000 0.069893
#
#
# Mechanical properties :
#
#
# Convention : Reuss Voigt Hill
#
# Bulk Modulus (GPa) = 39.19324 63.67748 51.43536
# Shear Modulus (GPa) = 16.86766 34.38493 25.62629
#
# Velocity S-wave (km/s) = 2.75047 3.92702 3.39017
# Velocity P-wave (km/s) = 5.25973 7.00864 6.19620
#
# Compressibility (1/GPa) = 0.02551461
#
# Stress axis : x y z
#
# Youngs Moduli (GPa) = 89.51399 40.41125 135.53550
#
# Poissons Ratio (x) = 0.22927 0.48254
# Poissons Ratio (y) = 0.50784 -0.04653
# Poissons Ratio (z) = 0.31869 -0.01387
#
# Static dielectric constant tensor:
#      x y z
#    x 4.713910 0.000000 -1.150460 
#    y 0.000000 3.856760 0.000000 
#    z -1.150460 0.000000 5.575440 
# 
# 
# High freq. dielectric constant tensor:
#      x y z
#    x 1.898360 0.000000 -0.019040 
#    y 0.000000 1.847300 0.000000 
#    z -0.019040 0.000000 1.899560 
# 
# From -- ./inp_files/1443.got.cif
#   From: 2010.03.12/outbox.cif.g09.slc.cpg/sg3_1_cif.got.tgz:1443.got - 2010.03.31 09:20:49.
