data_PCOD8045196
_publ_section_title
;
Structure prediction by ZEFSAII (Michael W. Deem and Ramdas Pophale) SiO2 
 PCOD8045196
Probable space group: P 2
;
_chemical_formula_sum "Si O2"
_cell_formula_units_Z 14
_cell_length_a 12.987875
_cell_length_b 6.200692
_cell_length_c 10.726937
_cell_angle_alpha 90.000000
_cell_angle_beta 136.053729
_cell_angle_gamma 90.000000
_cell_volume 599.519258
_symmetry_space_group_name_H-M "P 2"
_symmetry_group_IT_number 3
_symmetry_cell_setting 'monoclinic'
loop_
_space_group_symop_operation_xyz
x,y,z
-x,y,-z
loop_
_atom_site_type_symbol
_atom_site_label
_atom_site_fract_x
_atom_site_fract_y
_atom_site_fract_z
Si Si1 0.263520 0.787490 0.373463
Si Si2 0.367812 0.176111 0.970975
Si Si3 0.849699 0.821555 0.304719
Si Si4 0.187433 0.479888 0.525983
Si Si5 0.500000 0.483577 0.500000
Si Si6 0.000000 0.654423 0.000000
Si Si7 0.421551 0.168083 0.639272
Si Si8 0.885029 0.488340 0.149142
O O1 0.236950 0.671601 0.479890
O O2 0.357737 0.636027 0.364618
O O3 0.110690 0.819436 0.166028
O O4 0.345767 0.009290 0.474427
O O5 0.260609 0.352786 0.940493
O O6 0.277179 0.002984 0.808852
O O7 0.500000 0.277893 0.000000
O O8 0.454330 0.060771 0.162874
O O9 0.805412 0.594920 0.333443
O O10 0.873871 0.739723 0.184218
O O11 0.000000 0.915474 0.500000
O O12 0.297449 0.277362 0.619800
O O13 0.026364 0.387058 0.346174
O O14 0.502450 0.348013 0.628175
O O15 0.918469 0.496826 0.029785
#
# Coordination Sequence:
#
# PCOD8045196 Si02
#       8
#     2   2   2   2   1   1   2   2
#     4  10  21  40  64  91 130 175 222 274 330 392
#     4  12  26  40  66 102 133 172 220 269 333 406
#     4  10  23  43  66  95 131 169 215 275 333 393
#     4   9  21  42  65  91 129 171 220 279 333 389
#     4  10  22  40  62  92 134 176 220 274 326 390
#     4  10  22  44  70  98 132 176 228 282 328 384
#     4  11  23  40  65  96 131 177 218 268 337 398
#     4  10  23  43  68  97 131 175 222 275 331 390
#
# _framework density 23.352046000000001
#
# number of rings (size 3 to 8) (size 9 to 14) (size 15 to 20)
#    0.000    1.714    0.000    3.000    0.000   12.571 
#    0.000    7.143    0.000    0.000    0.000    0.000 
#    0.000    0.000    0.000    0.000    0.000    0.000 
#
# Total GULP energy -173497.594960 kJ/mol
# GULP energy per Si atom -12392.685354 kJ/mol
# Density = 2.329890 g / cm^3
# Si number density = 23.352046 Si / 1000 Ang^3
#
#
#
# Elastic Constant Matrix: (Units=GPa)
#
#
# Indices 1 2 3 4 5 6 
#
# 1 144.2573 45.6830 52.1708 0.0000 9.4748 0.0000
# 2 45.6830 85.9713 65.3917 0.0000 7.2223 0.0000
# 3 52.1708 65.3917 165.6724 0.0000 8.5947 0.0000
# 4 0.0000 0.0000 0.0000 30.4638 0.0000 11.1175
# 5 9.4748 7.2223 8.5947 0.0000 30.8131 0.0000
# 6 0.0000 0.0000 0.0000 11.1175 0.0000 0.4951
#
#
#
# Elastic Compliance Matrix: (Units=1/GPa)
#
#
# Indices 1 2 3 4 5 6 
#
# 1 0.008585 -0.003487 -0.001251 0.000000 -0.001474 0.000000
# 2 -0.003487 0.018173 -0.005996 0.000000 -0.001515 0.000000
# 3 -0.001251 -0.005996 0.008832 0.000000 -0.000673 0.000000
# 4 0.000000 0.000000 0.000000 -0.004562 0.000000 0.102449
# 5 -0.001474 -0.001515 -0.000673 0.000000 0.033450 0.000000
# 6 0.000000 0.000000 0.000000 0.102449 0.000000 -0.280728
#
#
# Mechanical properties :
#
#
# Convention : Reuss Voigt Hill
#
# Bulk Modulus (GPa) = 70.81227 80.26579 75.53903
# Shear Modulus (GPa) = -26.30538 27.86475 0.77968
#
# Velocity S-wave (km/s) = -3.35993 3.45809 0.57845
# Velocity P-wave (km/s) = 3.91630 7.09867 5.73274
#
# Compressibility (1/GPa) = 0.01412185
#
# Stress axis : x y z
#
# Youngs Moduli (GPa) = 116.47633 55.02737 113.22982
#
# Poissons Ratio (x) = 0.19187 0.14163
# Poissons Ratio (y) = 0.40614 0.67896
# Poissons Ratio (z) = 0.14569 0.32996
#
# Static dielectric constant tensor:
#      x y z
#    x 4.703980 0.000000 0.133910 
#    y 0.000000 3.668740 0.000000 
#    z 0.133910 0.000000 4.294740 
# 
# 
# High freq. dielectric constant tensor:
#      x y z
#    x 1.946840 0.000000 0.000320 
#    y 0.000000 1.885560 0.000000 
#    z 0.000320 0.000000 1.935150 
# 
# From -- ./inp_files/12107.got.cif
#   From: 2010.03.12/outbox.cif.g09.slc.cpg/sg3_7_cif.got.tgz:12107.got - 2010.03.31 09:20:49.
