data_PCOD8045025
_publ_section_title
;
Structure prediction by ZEFSAII (Michael W. Deem and Ramdas Pophale) SiO2 
 PCOD8045025
Probable space group: P 2
;
_chemical_formula_sum "Si O2"
_cell_formula_units_Z 15
_cell_length_a 9.044372
_cell_length_b 11.558987
_cell_length_c 11.189924
_cell_angle_alpha 90.000000
_cell_angle_beta 40.457474
_cell_angle_gamma 90.000000
_cell_volume 759.087863
_symmetry_space_group_name_H-M "P 2"
_symmetry_group_IT_number 3
_symmetry_cell_setting 'monoclinic'
loop_
_space_group_symop_operation_xyz
x,y,z
-x,y,-z
loop_
_atom_site_type_symbol
_atom_site_label
_atom_site_fract_x
_atom_site_fract_y
_atom_site_fract_z
Si Si1 0.701549 0.893370 0.456222
Si Si2 0.570975 0.174028 0.077618
Si Si3 0.287859 0.705597 0.215510
Si Si4 0.786855 0.648080 0.471930
Si Si5 0.500000 0.468951 0.500000
Si Si6 0.956249 0.070243 0.161654
Si Si7 0.253995 0.959600 0.314473
Si Si8 0.740487 0.279523 0.200905
O O1 0.500000 0.939444 0.500000
O O2 0.743408 0.757811 0.413536
O O3 0.628319 0.920505 0.635393
O O4 0.917374 0.965508 0.276607
O O5 0.561793 0.254891 0.201384
O O6 0.397590 0.065870 0.177724
O O7 0.500000 0.244722 0.000000
O O8 0.826548 0.129259 0.912726
O O9 0.330762 0.665532 0.325807
O O10 0.245309 0.845018 0.234957
O O11 0.061377 0.637129 0.312044
O O12 0.500000 0.671363 0.000000
O O13 0.672672 0.540347 0.476498
O O14 0.657246 0.391676 0.319622
O O15 0.751892 0.165928 0.279831
O O16 0.000000 0.023466 0.000000
O O17 0.000000 0.001916 0.500000
O O18 0.000000 0.302117 0.000000
#
# Coordination Sequence:
#
# PCOD8045025 Si02
#       8
#     2   2   2   2   1   2   2   2
#     4  11  19  33  55  86 131 154 194 258 307 375
#     4  10  20  36  58  93 128 157 203 248 306 388
#     4  10  21  42  63  87 129 169 198 252 322 372
#     4  10  23  41  60  98 122 160 218 262 299 387
#     4  12  24  46  70  86 122 170 222 272 318 340
#     4   9  20  37  56  89 126 164 203 249 314 379
#     4  11  20  32  57  92 132 164 194 239 312 386
#     4   9  23  44  64  89 123 166 213 265 308 363
#
# _framework density 19.760559000000001
#
# number of rings (size 3 to 8) (size 9 to 14) (size 15 to 20)
#    0.000    2.133    3.333    2.800    4.667    1.067 
#    0.000    6.667    0.000    0.000    0.000    0.000 
#    0.000    0.000    0.000    0.000    0.000    0.000 
#
# Total GULP energy -185869.562216 kJ/mol
# GULP energy per Si atom -12391.304148 kJ/mol
# Density = 1.971558 g / cm^3
# Si number density = 19.760559 Si / 1000 Ang^3
#
#
#
# Elastic Constant Matrix: (Units=GPa)
#
#
# Indices 1 2 3 4 5 6 
#
# 1 123.9124 40.5454 40.4141 0.0000 1.6090 0.0000
# 2 40.5454 106.2434 46.9704 0.0000 9.0557 0.0000
# 3 40.4141 46.9704 95.9832 0.0000 1.8141 0.0000
# 4 0.0000 0.0000 0.0000 19.6660 0.0000 1.2272
# 5 1.6090 9.0557 1.8141 0.0000 21.6736 0.0000
# 6 0.0000 0.0000 0.0000 1.2272 0.0000 24.8682
#
#
#
# Elastic Compliance Matrix: (Units=1/GPa)
#
#
# Indices 1 2 3 4 5 6 
#
# 1 0.009838 -0.002509 -0.002925 0.000000 0.000563 0.000000
# 2 -0.002509 0.013113 -0.005269 0.000000 -0.004852 0.000000
# 3 -0.002925 -0.005269 0.014205 0.000000 0.001230 0.000000
# 4 0.000000 0.000000 0.000000 0.051006 0.000000 -0.002517
# 5 0.000563 -0.004852 0.001230 0.000000 0.048021 0.000000
# 6 0.000000 0.000000 0.000000 -0.002517 0.000000 0.040336
#
#
# Mechanical properties :
#
#
# Convention : Reuss Voigt Hill
#
# Bulk Modulus (GPa) = 63.49209 64.66652 64.07930
# Shear Modulus (GPa) = 24.60928 26.45552 25.53240
#
# Velocity S-wave (km/s) = 3.53281 3.66294 3.59846
# Velocity P-wave (km/s) = 6.98867 7.11938 7.05433
#
# Compressibility (1/GPa) = 0.01574999
#
# Stress axis : x y z
#
# Youngs Moduli (GPa) = 101.64716 76.26168 70.39725
#
# Poissons Ratio (x) = 0.19136 0.20591
# Poissons Ratio (y) = 0.25506 0.37090
# Poissons Ratio (z) = 0.29732 0.40179
#
# Static dielectric constant tensor:
#      x y z
#    x 3.946610 0.000000 0.137290 
#    y 0.000000 3.398840 0.000000 
#    z 0.137290 0.000000 3.703050 
# 
# 
# High freq. dielectric constant tensor:
#      x y z
#    x 1.791310 0.000000 0.000250 
#    y 0.000000 1.740790 0.000000 
#    z 0.000250 0.000000 1.759450 
# 
# From -- ./inp_files/10976.got.cif
#   From: 2010.03.12/outbox.cif.g09.slc.cpg/sg3_6_cif.got.tgz:10976.got - 2010.03.31 09:20:49.
