data_PCOD8045427
_publ_section_title
;
Structure prediction by ZEFSAII (Michael W. Deem and Ramdas Pophale) SiO2 
 PCOD8045427
Probable space group: P 2
;
_chemical_formula_sum "Si O2"
_cell_formula_units_Z 15
_cell_length_a 9.997827
_cell_length_b 6.419973
_cell_length_c 11.647626
_cell_angle_alpha 90.000000
_cell_angle_beta 113.698383
_cell_angle_gamma 90.000000
_cell_volume 684.568780
_symmetry_space_group_name_H-M "P 2"
_symmetry_group_IT_number 3
_symmetry_cell_setting 'monoclinic'
loop_
_space_group_symop_operation_xyz
x,y,z
-x,y,-z
loop_
_atom_site_type_symbol
_atom_site_label
_atom_site_fract_x
_atom_site_fract_y
_atom_site_fract_z
Si Si1 0.858252 0.435860 0.265554
Si Si2 0.500000 0.899684 0.000000
Si Si3 0.653292 0.270005 0.782776
Si Si4 0.715485 0.584958 0.991224
Si Si5 0.841280 0.772754 0.451294
Si Si6 0.841574 0.564516 0.690753
Si Si7 0.647314 0.095312 0.264787
Si Si8 0.867595 0.889485 0.887767
O O1 0.752652 0.530012 0.133452
O O2 0.871150 0.594362 0.371700
O O3 0.792852 0.227353 0.294798
O O4 0.022448 0.402681 0.272780
O O5 0.587825 0.754072 0.943531
O O6 0.598042 0.036365 0.119071
O O7 0.709383 0.431305 0.703643
O O8 0.481291 0.214956 0.709197
O O9 0.740823 0.053887 0.817541
O O10 0.668069 0.374101 0.912195
O O11 0.843076 0.699857 0.967980
O O12 0.792403 0.662711 0.553056
O O13 0.000000 0.892974 0.500000
O O14 0.702367 0.909149 0.365000
O O15 0.897434 0.767891 0.779857
O O16 0.000000 0.009841 0.000000
#
# Coordination Sequence:
#
# PCOD8045427 Si02
#       8
#     2   1   2   2   2   2   2   2
#     4  11  23  42  72 101 137 185 232 289 344 408
#     4  12  22  42  70 104 146 180 222 288 366 418
#     4  11  26  41  69 107 142 179 233 285 354 428
#     4  11  22  40  65 103 144 176 220 281 357 412
#     4  10  25  48  71  98 134 189 241 289 343 405
#     4  10  25  46  70  98 142 186 236 288 346 416
#     4  12  25  43  73 108 139 180 232 296 347 426
#     4  11  23  41  69 101 141 182 230 278 349 419
#
# _framework density 21.911605000000002
#
# number of rings (size 3 to 8) (size 9 to 14) (size 15 to 20)
#    0.000    1.067    4.000    1.600    1.867    4.800 
#    0.000    4.000    0.000    0.000    0.000    0.000 
#    0.000    0.000    0.000    0.000    0.000    0.000 
#
# Total GULP energy -185895.428139 kJ/mol
# GULP energy per Si atom -12393.028543 kJ/mol
# Density = 2.186173 g / cm^3
# Si number density = 21.911605 Si / 1000 Ang^3
#
#
#
# Elastic Constant Matrix: (Units=GPa)
#
#
# Indices 1 2 3 4 5 6 
#
# 1 114.3709 48.9653 55.3770 0.0000 -5.2014 0.0000
# 2 48.9653 79.2243 28.4896 0.0000 4.9374 0.0000
# 3 55.3770 28.4896 98.1605 0.0000 2.5067 0.0000
# 4 0.0000 0.0000 0.0000 -85.1220 0.0000 6.2212
# 5 -5.2014 4.9374 2.5067 0.0000 28.8131 0.0000
# 6 0.0000 0.0000 0.0000 6.2212 0.0000 49.4437
#
#
#
# Elastic Compliance Matrix: (Units=1/GPa)
#
#
# Indices 1 2 3 4 5 6 
#
# 1 0.015312 -0.007371 -0.006617 0.000000 0.004603 0.000000
# 2 -0.007371 0.017766 -0.000888 0.000000 -0.004298 0.000000
# 3 -0.006617 -0.000888 0.014236 0.000000 -0.002281 0.000000
# 4 0.000000 0.000000 0.000000 -0.011641 0.000000 0.001465
# 5 0.004603 -0.004298 -0.002281 0.000000 0.036472 0.000000
# 6 0.000000 0.000000 0.000000 0.001465 0.000000 0.020041
#
#
# Mechanical properties :
#
#
# Convention : Reuss Voigt Hill
#
# Bulk Modulus (GPa) = 56.94031 61.93551 59.43791
# Shear Modulus (GPa) = 39.12610 9.22188 24.17399
#
# Velocity S-wave (km/s) = 4.23026 2.05373 3.32512
# Velocity P-wave (km/s) = 7.06420 5.82676 6.47511
#
# Compressibility (1/GPa) = 0.01756225
#
# Stress axis : x y z
#
# Youngs Moduli (GPa) = 65.30647 56.28886 70.24432
#
# Poissons Ratio (x) = 0.41493 0.46478
# Poissons Ratio (y) = 0.48141 0.06236
# Poissons Ratio (z) = 0.43210 0.04997
#
# Static dielectric constant tensor:
#      x y z
#    x 4.609030 0.000000 -0.176660 
#    y 0.000000 3.829820 0.000000 
#    z -0.176660 0.000000 3.949310 
# 
# 
# High freq. dielectric constant tensor:
#      x y z
#    x 1.868010 0.000000 -0.004550 
#    y 0.000000 1.859870 0.000000 
#    z -0.004550 0.000000 1.862370 
# 
# From -- ./inp_files/11332.got.cif
#   From: 2010.03.12/outbox.cif.g09.slc.cpg/sg3_6_cif.got.tgz:11332.got - 2010.03.31 09:20:49.
