data_PCOD8045993
_publ_section_title
;
Structure prediction by ZEFSAII (Michael W. Deem and Ramdas Pophale) SiO2 
 PCOD8045993
Probable space group: P 21
;
_chemical_formula_sum "Si O2"
_cell_formula_units_Z 16
_cell_length_a 11.584442
_cell_length_b 8.928141
_cell_length_c 10.790110
_cell_angle_alpha 90.000000
_cell_angle_beta 36.511038
_cell_angle_gamma 90.000000
_cell_volume 663.991738
_symmetry_space_group_name_H-M "P 21"
_symmetry_group_IT_number 4
_symmetry_cell_setting 'monoclinic'
loop_
_space_group_symop_operation_xyz
x,y,z
-x,1/2+y,-z
loop_
_atom_site_type_symbol
_atom_site_label
_atom_site_fract_x
_atom_site_fract_y
_atom_site_fract_z
Si Si1 0.322118 0.113830 0.744143
Si Si2 0.819670 0.447843 0.654926
Si Si3 0.486973 0.403532 0.571233
Si Si4 0.078217 0.666935 0.286316
Si Si5 0.162848 0.593667 0.760998
Si Si6 0.610427 0.952002 0.066852
Si Si7 0.981473 0.295801 0.927964
Si Si8 0.155886 0.157748 0.133673
O O1 0.516968 0.222402 0.551408
O O2 0.169082 0.243021 0.843410
O O3 0.314261 0.973836 0.655538
O O4 0.303785 0.080185 0.905649
O O5 0.909788 0.284483 0.609410
O O6 0.595142 0.424405 0.818909
O O7 0.841853 0.550750 0.753593
O O8 0.932228 0.530679 0.445833
O O9 0.340420 0.476308 0.591460
O O10 0.421930 0.469468 0.758523
O O11 0.001324 0.753221 0.231094
O O12 0.292238 0.602476 0.071367
O O13 0.976410 0.476583 0.951196
O O14 0.071189 0.674455 0.718054
O O15 0.192801 0.707734 0.851267
O O16 0.759526 0.819479 0.905144
#
# Coordination Sequence:
#
# PCOD8045993 Si02
#       8
#     2   2   2   2   2   2   2   2
#     4   9  21  36  61  92 132 165 216 277 342 407
#     4  12  26  46  69  99 138 185 235 286 334 412
#     4  10  20  39  58  98 126 169 218 271 348 402
#     4  12  25  45  70 100 137 185 237 279 345 403
#     4  10  20  38  67  92 132 162 216 277 341 409
#     4  11  24  46  69  97 136 181 231 289 338 411
#     4  10  20  39  63  94 126 172 213 279 337 405
#     4  10  22  45  63  94 135 175 226 282 345 405
#
# _framework density 24.096684
#
# number of rings (size 3 to 8) (size 9 to 14) (size 15 to 20)
#    0.000    1.500    2.500    3.000    0.000    3.000 
#   11.250    1.250    0.000    0.000    0.000    0.000 
#    0.000    0.000    0.000    0.000    0.000    0.000 
#
# Total GULP energy -198233.122744 kJ/mol
# GULP energy per Si atom -12389.570172 kJ/mol
# Density = 2.404184 g / cm^3
# Si number density = 24.096684 Si / 1000 Ang^3
#
#
#
# Elastic Constant Matrix: (Units=GPa)
#
#
# Indices 1 2 3 4 5 6 
#
# 1 96.5803 19.7586 -3.3635 0.0000 2.5105 0.0000
# 2 19.7586 108.3215 11.2283 0.0000 13.7376 0.0000
# 3 -3.3635 11.2283 36.3764 0.0000 15.1376 0.0000
# 4 0.0000 0.0000 0.0000 48.0530 0.0000 2.4286
# 5 2.5105 13.7376 15.1376 0.0000 18.7294 0.0000
# 6 0.0000 0.0000 0.0000 2.4286 0.0000 34.6742
#
#
#
# Elastic Compliance Matrix: (Units=1/GPa)
#
#
# Indices 1 2 3 4 5 6 
#
# 1 0.010898 -0.001991 0.002445 0.000000 -0.001976 0.000000
# 2 -0.001991 0.010542 -0.000499 0.000000 -0.007062 0.000000
# 3 0.002445 -0.000499 0.041970 0.000000 -0.033883 0.000000
# 4 0.000000 0.000000 0.000000 0.020884 0.000000 -0.001463
# 5 -0.001976 -0.007062 -0.033883 0.000000 0.086222 0.000000
# 6 0.000000 0.000000 0.000000 -0.001463 0.000000 0.028942
#
#
# Mechanical properties :
#
#
# Convention : Reuss Voigt Hill
#
# Bulk Modulus (GPa) = 15.79282 32.94724 24.37003
# Shear Modulus (GPa) = 22.65968 34.53497 28.59732
#
# Velocity S-wave (km/s) = 3.06986 3.78985 3.44870
# Velocity P-wave (km/s) = 4.37420 5.73177 5.09837
#
# Compressibility (1/GPa) = 0.06331990
#
# Stress axis : x y z
#
# Youngs Moduli (GPa) = 91.76145 94.85623 23.82628
#
# Poissons Ratio (x) = 0.18882 -0.05824
# Poissons Ratio (y) = 0.18266 0.01190
# Poissons Ratio (z) = -0.22432 0.04736
#
# Static dielectric constant tensor:
#      x y z
#    x 4.261570 0.000000 -0.191020 
#    y 0.000000 4.804660 0.000000 
#    z -0.191020 0.000000 4.596770 
# 
# 
# High freq. dielectric constant tensor:
#      x y z
#    x 1.938520 0.000000 -0.006770 
#    y 0.000000 1.982450 0.000000 
#    z -0.006770 0.000000 1.963560 
# 
# From -- ./inp_files/12107.got.cif
#   From: 2010.03.12/outbox.cif.g09.slc.cpg/sg4_7_cif.got.tgz:12107.got - 2010.03.31 09:31:35.
