data_PCOD8045077
_publ_section_title
;
Structure prediction by ZEFSAII (Michael W. Deem and Ramdas Pophale) SiO2 
 PCOD8045077
Probable space group: P 2
;
_chemical_formula_sum "Si O2"
_cell_formula_units_Z 14
_cell_length_a 8.841298
_cell_length_b 11.359284
_cell_length_c 9.698548
_cell_angle_alpha 90.000000
_cell_angle_beta 44.062801
_cell_angle_gamma 90.000000
_cell_volume 677.387808
_symmetry_space_group_name_H-M "P 2"
_symmetry_group_IT_number 3
_symmetry_cell_setting 'monoclinic'
loop_
_space_group_symop_operation_xyz
x,y,z
-x,y,-z
loop_
_atom_site_type_symbol
_atom_site_label
_atom_site_fract_x
_atom_site_fract_y
_atom_site_fract_z
Si Si1 0.702925 0.082750 0.961052
Si Si2 0.330362 0.458417 0.499816
Si Si3 0.696596 0.124384 0.284330
Si Si4 0.635305 0.484770 0.046270
Si Si5 0.952543 0.908355 0.189333
Si Si6 0.023809 0.289345 0.200458
Si Si7 0.985819 0.647341 0.172952
O O1 0.832856 0.193814 0.809253
O O2 0.846707 0.965639 0.860983
O O3 0.500000 0.054938 0.000000
O O4 0.637083 0.112407 0.162431
O O5 0.500000 0.408563 0.500000
O O6 0.454820 0.498569 0.282026
O O7 0.150110 0.356708 0.587688
O O8 0.211414 0.570698 0.641510
O O9 0.500000 0.179067 0.500000
O O10 0.899923 0.213926 0.163173
O O11 0.749237 0.998528 0.324715
O O12 0.500000 0.450400 0.000000
O O13 0.776636 0.603809 0.928021
O O14 0.808587 0.383496 0.976002
O O15 0.923585 0.777766 0.270352
O O16 0.000000 0.888826 0.000000
O O17 0.000000 0.637375 0.000000
#
# Coordination Sequence:
#
# PCOD8045077 Si02
#       7
#     2   2   2   2   2   2   2
#     4  10  21  39  61  88 120 157 193 246 307 346
#     4  11  23  37  65  91 115 162 203 240 295 357
#     4  10  21  38  62  89 115 157 203 243 292 356
#     4  11  25  42  60  90 126 157 195 250 304 348
#     4   8  18  38  61  84 119 156 197 247 293 348
#     4  10  23  38  60  86 124 156 199 240 289 361
#     4  10  20  39  63  91 120 155 205 250 287 355
#
# _framework density 20.667629999999999
#
# number of rings (size 3 to 8) (size 9 to 14) (size 15 to 20)
#    0.000    2.000    1.429    2.143    6.000    3.429 
#    5.143    2.143    3.143    0.000    0.000    0.000 
#    0.000    0.000    0.000    0.000    0.000    0.000 
#
# Total GULP energy -173472.425652 kJ/mol
# GULP energy per Si atom -12390.887547 kJ/mol
# Density = 2.062059 g / cm^3
# Si number density = 20.667630 Si / 1000 Ang^3
#
#
#
# Elastic Constant Matrix: (Units=GPa)
#
#
# Indices 1 2 3 4 5 6 
#
# 1 114.6184 36.1849 36.2559 0.0000 -14.4179 0.0000
# 2 36.1849 145.9241 41.1625 0.0000 -16.5073 0.0000
# 3 36.2559 41.1625 115.2917 0.0000 -10.0911 0.0000
# 4 0.0000 0.0000 0.0000 17.1977 0.0000 -4.0696
# 5 -14.4179 -16.5073 -10.0911 0.0000 26.0801 0.0000
# 6 0.0000 0.0000 0.0000 -4.0696 0.0000 16.3554
#
#
#
# Elastic Compliance Matrix: (Units=1/GPa)
#
#
# Indices 1 2 3 4 5 6 
#
# 1 0.010444 -0.001465 -0.002419 0.000000 0.003911 0.000000
# 2 -0.001465 0.008230 -0.002166 0.000000 0.003561 0.000000
# 3 -0.002419 -0.002166 0.010320 0.000000 0.001285 0.000000
# 4 0.000000 0.000000 0.000000 0.061785 0.000000 0.015373
# 5 0.003911 0.003561 0.001285 0.000000 0.043256 0.000000
# 6 0.000000 0.000000 0.000000 0.015373 0.000000 0.064967
#
#
# Mechanical properties :
#
#
# Convention : Reuss Voigt Hill
#
# Bulk Modulus (GPa) = 59.19192 67.00454 63.09823
# Shear Modulus (GPa) = 23.06971 29.40871 26.23921
#
# Velocity S-wave (km/s) = 3.34462 3.77627 3.56698
# Velocity P-wave (km/s) = 6.60435 7.17663 6.89643
#
# Compressibility (1/GPa) = 0.01689420
#
# Stress axis : x y z
#
# Youngs Moduli (GPa) = 95.74645 121.50682 96.89805
#
# Poissons Ratio (x) = 0.17802 0.23440
# Poissons Ratio (y) = 0.14028 0.20987
# Poissons Ratio (z) = 0.23161 0.26317
#
# Static dielectric constant tensor:
#      x y z
#    x 3.478110 0.000000 -0.242480 
#    y 0.000000 4.320440 0.000000 
#    z -0.242480 0.000000 3.686580 
# 
# 
# High freq. dielectric constant tensor:
#      x y z
#    x 1.786460 0.000000 -0.024870 
#    y 0.000000 1.817810 0.000000 
#    z -0.024870 0.000000 1.802120 
# 
# From -- ./inp_files/10968.got.cif
#   From: 2010.03.12/outbox.cif.g09.slc.cpg/sg3_6_cif.got.tgz:10968.got - 2010.03.31 09:20:49.
