data_PCOD8045452
_publ_section_title
;
Structure prediction by ZEFSAII (Michael W. Deem and Ramdas Pophale) SiO2 
 PCOD8045452
Probable space group: P 2
;
_chemical_formula_sum "Si O2"
_cell_formula_units_Z 12
_cell_length_a 14.203229
_cell_length_b 9.270710
_cell_length_c 9.663940
_cell_angle_alpha 90.000000
_cell_angle_beta 150.402164
_cell_angle_gamma 90.000000
_cell_volume 628.494199
_symmetry_space_group_name_H-M "P 2"
_symmetry_group_IT_number 3
_symmetry_cell_setting 'monoclinic'
loop_
_space_group_symop_operation_xyz
x,y,z
-x,y,-z
loop_
_atom_site_type_symbol
_atom_site_label
_atom_site_fract_x
_atom_site_fract_y
_atom_site_fract_z
Si Si1 0.910819 0.677490 0.236957
Si Si2 0.215442 0.982203 0.030027
Si Si3 0.911727 0.173032 0.735548
Si Si4 0.509192 0.646057 0.346359
Si Si5 0.378362 0.958124 0.534939
Si Si6 0.865603 0.492521 0.696631
O O1 0.881755 0.845188 0.165407
O O2 0.000000 0.659357 0.500000
O O3 0.055860 0.605604 0.314033
O O4 0.703288 0.601264 0.972125
O O5 0.251366 0.942737 0.235468
O O6 0.415446 0.032761 0.220500
O O7 0.071473 0.116336 0.833048
O O8 0.852174 0.333024 0.612264
O O9 0.736196 0.058802 0.504097
O O10 0.000000 0.183698 0.000000
O O11 0.500000 0.667544 0.500000
O O12 0.580121 0.794455 0.363201
O O13 0.652382 0.524154 0.477585
O O14 0.000000 0.498751 0.000000
#
# Coordination Sequence:
#
# PCOD8045452 Si02
#       6
#     2   2   2   2   2   2
#     4  11  23  38  59  86 115 150 191 237 286 333
#     4   9  16  32  52  77 110 140 183 228 279 323
#     4   9  19  30  51  85 113 141 181 232 281 328
#     4  11  19  36  61  85 111 149 194 237 279 328
#     4   9  15  30  53  82 105 140 183 233 273 322
#     4  11  21  36  57  85 118 151 189 232 282 342
#
# _framework density 19.093256
#
# number of rings (size 3 to 8) (size 9 to 14) (size 15 to 20)
#    0.000    2.000    5.000    1.000    0.000    3.333 
#    3.000    0.833    0.000    4.000    0.000    0.000 
#    0.000    0.000    0.000    0.000    0.000    0.000 
#
# Total GULP energy -148728.525166 kJ/mol
# GULP energy per Si atom -12394.043764 kJ/mol
# Density = 1.904980 g / cm^3
# Si number density = 19.093256 Si / 1000 Ang^3
#
#
#
# Elastic Constant Matrix: (Units=GPa)
#
#
# Indices 1 2 3 4 5 6 
#
# 1 66.8968 39.2996 49.0182 0.0000 16.2062 0.0000
# 2 39.2996 88.3368 36.8314 0.0000 17.6469 0.0000
# 3 49.0182 36.8314 99.9338 0.0000 15.5915 0.0000
# 4 0.0000 0.0000 0.0000 43.3806 0.0000 28.6956
# 5 16.2062 17.6469 15.5915 0.0000 33.9233 0.0000
# 6 0.0000 0.0000 0.0000 28.6956 0.0000 31.5422
#
#
#
# Elastic Compliance Matrix: (Units=1/GPa)
#
#
# Indices 1 2 3 4 5 6 
#
# 1 0.027843 -0.007132 -0.010268 0.000000 -0.004872 0.000000
# 2 -0.007132 0.016059 -0.001776 0.000000 -0.004130 0.000000
# 3 -0.010268 -0.001776 0.015931 0.000000 -0.001493 0.000000
# 4 0.000000 0.000000 0.000000 0.057888 0.000000 -0.052664
# 5 -0.004872 -0.004130 -0.001493 0.000000 0.034640 0.000000
# 6 0.000000 0.000000 0.000000 -0.052664 0.000000 0.079615
#
#
# Mechanical properties :
#
#
# Convention : Reuss Voigt Hill
#
# Bulk Modulus (GPa) = 46.55609 56.16289 51.35949
# Shear Modulus (GPa) = 18.01883 30.43710 24.22797
#
# Velocity S-wave (km/s) = 3.07535 3.99699 3.56607
# Velocity P-wave (km/s) = 6.08661 7.12601 6.62672
#
# Compressibility (1/GPa) = 0.02147947
#
# Stress axis : x y z
#
# Youngs Moduli (GPa) = 35.91629 62.27103 62.77211
#
# Poissons Ratio (x) = 0.44413 0.64456
# Poissons Ratio (y) = 0.25616 0.11147
# Poissons Ratio (z) = 0.36880 0.11058
#
# Static dielectric constant tensor:
#      x y z
#    x 2.895650 0.000000 0.245000 
#    y 0.000000 3.622260 0.000000 
#    z 0.245000 0.000000 3.430110 
# 
# 
# High freq. dielectric constant tensor:
#      x y z
#    x 1.716150 0.000000 0.039760 
#    y 0.000000 1.736110 0.000000 
#    z 0.039760 0.000000 1.731500 
# 
# From -- ./inp_files/5627.got.cif
#   From: 2010.03.12/outbox.cif.g09.slc.cpg/sg3_3_cif.got.tgz:5627.got - 2010.03.31 09:20:49.
