data_PCOD8045177
_publ_section_title
;
Structure prediction by ZEFSAII (Michael W. Deem and Ramdas Pophale) SiO2 
 PCOD8045177
Probable space group: P 2
;
_chemical_formula_sum "Si O2"
_cell_formula_units_Z 16
_cell_length_a 12.335129
_cell_length_b 8.749949
_cell_length_c 8.361524
_cell_angle_alpha 90.000000
_cell_angle_beta 59.427779
_cell_angle_gamma 90.000000
_cell_volume 777.019867
_symmetry_space_group_name_H-M "P 2"
_symmetry_group_IT_number 3
_symmetry_cell_setting 'monoclinic'
loop_
_space_group_symop_operation_xyz
x,y,z
-x,y,-z
loop_
_atom_site_type_symbol
_atom_site_label
_atom_site_fract_x
_atom_site_fract_y
_atom_site_fract_z
Si Si1 0.361792 0.040190 0.525100
Si Si2 0.225399 0.685292 0.095296
Si Si3 0.389906 0.449284 0.795196
Si Si4 0.376245 0.913452 0.168792
Si Si5 0.139931 0.426347 0.367576
Si Si6 0.332723 0.394741 0.486847
Si Si7 0.854454 0.947293 0.064157
Si Si8 0.270575 0.179709 0.062604
O O1 0.500000 0.037714 0.500000
O O2 0.324219 0.211852 0.507355
O O3 0.249810 0.968596 0.717436
O O4 0.374828 0.933581 0.359696
O O5 0.263493 0.801481 0.206510
O O6 0.130210 0.568952 0.253030
O O7 0.342063 0.585962 0.941962
O O8 0.161501 0.777944 0.998565
O O9 0.334553 0.473235 0.659257
O O10 0.540230 0.448475 0.696408
O O11 0.346179 0.280729 0.879408
O O12 0.368209 0.074403 0.082925
O O13 0.500000 0.835439 0.000000
O O14 0.215077 0.462450 0.475540
O O15 0.205887 0.281883 0.242549
O O16 0.000000 0.371761 0.500000
O O17 0.833006 0.078878 0.950144
O O18 0.000000 0.965260 0.000000
#
# Coordination Sequence:
#
# PCOD8045177 Si02
#       8
#     2   2   2   2   2   2   2   2
#     4  12  22  43  69 102 132 170 229 286 338 392
#     4  10  26  45  60  98 135 180 216 264 335 407
#     4  10  21  41  68  96 131 166 221 275 337 390
#     4  11  23  39  66  98 135 171 214 274 340 399
#     4  11  26  42  65  95 133 179 226 269 334 401
#     4  11  21  39  69  98 126 165 221 284 328 388
#     4  11  25  44  69  98 138 183 224 274 337 405
#     4  10  21  39  65  96 129 165 218 274 325 391
#
# _framework density 20.591493
#
# number of rings (size 3 to 8) (size 9 to 14) (size 15 to 20)
#    0.000    1.250    3.750    2.250    3.500    4.000 
#    4.500    5.000    0.000    0.000    0.000    0.000 
#    0.000    0.000    0.000    0.000    0.000    0.000 
#
# Total GULP energy -198371.988980 kJ/mol
# GULP energy per Si atom -12398.249311 kJ/mol
# Density = 2.054463 g / cm^3
# Si number density = 20.591493 Si / 1000 Ang^3
#
#
#
# Elastic Constant Matrix: (Units=GPa)
#
#
# Indices 1 2 3 4 5 6 
#
# 1 124.3648 16.6521 39.2900 0.0000 -1.9808 0.0000
# 2 16.6521 66.9719 2.4691 0.0000 10.0294 0.0000
# 3 39.2900 2.4691 67.3150 0.0000 0.0802 0.0000
# 4 0.0000 0.0000 0.0000 16.1189 0.0000 6.7365
# 5 -1.9808 10.0294 0.0802 0.0000 30.0466 0.0000
# 6 0.0000 0.0000 0.0000 6.7365 0.0000 21.0783
#
#
#
# Elastic Compliance Matrix: (Units=1/GPa)
#
#
# Indices 1 2 3 4 5 6 
#
# 1 0.010275 -0.002569 -0.005905 0.000000 0.001551 0.000000
# 2 -0.002569 0.016382 0.000906 0.000000 -0.005640 0.000000
# 3 -0.005905 0.000906 0.018270 0.000000 -0.000740 0.000000
# 4 0.000000 0.000000 0.000000 0.071603 0.000000 -0.022884
# 5 0.001551 -0.005640 -0.000740 0.000000 0.035268 0.000000
# 6 0.000000 0.000000 0.000000 -0.022884 0.000000 0.054756
#
#
# Mechanical properties :
#
#
# Convention : Reuss Voigt Hill
#
# Bulk Modulus (GPa) = 33.56940 41.71932 37.64436
# Shear Modulus (GPa) = 21.58702 26.79814 24.19258
#
# Velocity S-wave (km/s) = 3.24133 3.61143 3.43137
# Velocity P-wave (km/s) = 5.50874 6.13957 5.83269
#
# Compressibility (1/GPa) = 0.02978904
#
# Stress axis : x y z
#
# Youngs Moduli (GPa) = 97.32265 61.04365 54.73537
#
# Poissons Ratio (x) = 0.15684 0.32321
# Poissons Ratio (y) = 0.25006 -0.04956
# Poissons Ratio (z) = 0.57468 -0.05528
#
# Static dielectric constant tensor:
#      x y z
#    x 3.660610 0.000000 0.157160 
#    y 0.000000 3.775060 0.000000 
#    z 0.157160 0.000000 3.801710 
# 
# 
# High freq. dielectric constant tensor:
#      x y z
#    x 1.802400 0.000000 0.013030 
#    y 0.000000 1.810240 0.000000 
#    z 0.013030 0.000000 1.809090 
# 
# From -- ./inp_files/7420.got.cif
#   From: 2010.03.12/outbox.cif.g09.slc.cpg/sg3_4_cif.got.tgz:7420.got - 2010.03.31 09:20:49.
