data_PCOD8045798
_publ_section_title
;
Structure prediction by ZEFSAII (Michael W. Deem and Ramdas Pophale) SiO2 
 PCOD8045798
Probable space group: P 21
;
_chemical_formula_sum "Si O2"
_cell_formula_units_Z 14
_cell_length_a 9.255579
_cell_length_b 15.043850
_cell_length_c 5.028070
_cell_angle_alpha 90.000000
_cell_angle_beta 73.751190
_cell_angle_gamma 90.000000
_cell_volume 672.140890
_symmetry_space_group_name_H-M "P 21"
_symmetry_group_IT_number 4
_symmetry_cell_setting 'monoclinic'
loop_
_space_group_symop_operation_xyz
x,y,z
-x,1/2+y,-z
loop_
_atom_site_type_symbol
_atom_site_label
_atom_site_fract_x
_atom_site_fract_y
_atom_site_fract_z
Si Si1 0.281061 0.185960 0.668259
Si Si2 0.044831 0.057453 0.658261
Si Si3 0.648542 0.796378 0.871282
Si Si4 0.074390 0.950904 0.162347
Si Si5 0.540577 0.506014 0.392662
Si Si6 0.372899 0.898634 0.147753
Si Si7 0.780026 0.967916 0.590902
O O1 0.107909 0.154552 0.702618
O O2 0.339491 0.258016 0.430220
O O3 0.393099 0.102816 0.587124
O O4 0.275622 0.229955 0.960353
O O5 0.122954 0.031367 0.338164
O O6 0.094779 0.984622 0.852393
O O7 0.863068 0.048554 0.712426
O O8 0.729781 0.892421 0.826481
O O9 0.473879 0.811267 0.041434
O O10 0.197687 0.874118 0.168953
O O11 0.902523 0.923212 0.323007
O O12 0.602936 0.432501 0.564638
O O13 0.358148 0.508399 0.505239
O O14 0.581762 0.478697 0.072759
#
# Coordination Sequence:
#
# PCOD8045798 Si02
#       7
#     2   2   2   2   2   2   2
#     4  12  22  41  61  95 126 163 203 267 322 352
#     4  10  21  37  65  90 116 166 207 242 302 384
#     4  11  25  37  64  93 130 155 207 269 320 350
#     4  10  19  37  66  88 111 154 218 240 290 361
#     4  11  21  37  67  86 121 159 217 246 294 380
#     4  11  20  40  63  91 114 169 207 249 295 386
#     4   9  24  39  66  91 120 164 217 245 303 379
#
# _framework density 20.828966000000001
#
# number of rings (size 3 to 8) (size 9 to 14) (size 15 to 20)
#    0.857    0.571    2.857    3.429    6.000    0.000 
#    0.000    1.429    0.000    0.000    0.000    0.000 
#    0.000    0.000    0.000    0.000    0.000    0.000 
#
# Total GULP energy -173450.139233 kJ/mol
# GULP energy per Si atom -12389.295660 kJ/mol
# Density = 2.078156 g / cm^3
# Si number density = 20.828966 Si / 1000 Ang^3
#
#
#
# Elastic Constant Matrix: (Units=GPa)
#
#
# Indices 1 2 3 4 5 6 
#
# 1 123.0552 20.6460 12.5731 0.0000 -4.2989 0.0000
# 2 20.6460 51.2005 8.7011 0.0000 -2.5518 0.0000
# 3 12.5731 8.7011 75.7839 0.0000 5.7578 0.0000
# 4 0.0000 0.0000 0.0000 32.1618 0.0000 -0.7977
# 5 -4.2989 -2.5518 5.7578 0.0000 32.6250 0.0000
# 6 0.0000 0.0000 0.0000 -0.7977 0.0000 31.9364
#
#
#
# Elastic Compliance Matrix: (Units=1/GPa)
#
#
# Indices 1 2 3 4 5 6 
#
# 1 0.008840 -0.003310 -0.001171 0.000000 0.001113 0.000000
# 2 -0.003310 0.021287 -0.002015 0.000000 0.001585 0.000000
# 3 -0.001171 -0.002015 0.013830 0.000000 -0.002753 0.000000
# 4 0.000000 0.000000 0.000000 0.031112 0.000000 0.000777
# 5 0.001113 0.001585 -0.002753 0.000000 0.031408 0.000000
# 6 0.000000 0.000000 0.000000 0.000777 0.000000 0.031332
#
#
# Mechanical properties :
#
#
# Convention : Reuss Voigt Hill
#
# Bulk Modulus (GPa) = 32.29505 37.09779 34.69642
# Shear Modulus (GPa) = 31.03193 33.21926 32.12559
#
# Velocity S-wave (km/s) = 3.86404 3.99790 3.93154
# Velocity P-wave (km/s) = 5.95368 6.25782 6.10764
#
# Compressibility (1/GPa) = 0.03096450
#
# Stress axis : x y z
#
# Youngs Moduli (GPa) = 113.11761 46.97623 72.30531
#
# Poissons Ratio (x) = 0.15551 0.08468
# Poissons Ratio (y) = 0.37445 0.14572
# Poissons Ratio (z) = 0.13248 0.09467
#
# Static dielectric constant tensor:
#      x y z
#    x 4.201270 0.000000 -0.025080 
#    y 0.000000 3.328360 0.000000 
#    z -0.025080 0.000000 3.736500 
# 
# 
# High freq. dielectric constant tensor:
#      x y z
#    x 1.829260 0.000000 0.005960 
#    y 0.000000 1.762480 0.000000 
#    z 0.005960 0.000000 1.828310 
# 
# From -- ./inp_files/1706.got.cif
#   From: 2010.03.12/outbox.cif.g09.slc.cpg/sg4_1_cif.got.tgz:1706.got - 2010.03.31 09:31:35.
