data_PCOD8045566
_publ_section_title
;
Structure prediction by ZEFSAII (Michael W. Deem and Ramdas Pophale) SiO2 
 PCOD8045566
Probable space group: P 2
;
_chemical_formula_sum "Si O2"
_cell_formula_units_Z 12
_cell_length_a 18.371960
_cell_length_b 5.025311
_cell_length_c 7.916355
_cell_angle_alpha 90.000000
_cell_angle_beta 41.655801
_cell_angle_gamma 90.000000
_cell_volume 485.779788
_symmetry_space_group_name_H-M "P 2"
_symmetry_group_IT_number 3
_symmetry_cell_setting 'monoclinic'
loop_
_space_group_symop_operation_xyz
x,y,z
-x,y,-z
loop_
_atom_site_type_symbol
_atom_site_label
_atom_site_fract_x
_atom_site_fract_y
_atom_site_fract_z
Si Si1 0.067141 0.563800 0.228540
Si Si2 0.723276 0.084776 0.727276
Si Si3 0.545975 0.423240 0.165703
Si Si4 0.976973 0.080454 0.224830
Si Si5 0.697399 0.728749 0.106474
Si Si6 0.397761 0.910541 0.389939
O O1 0.193267 0.559651 0.060611
O O2 0.000000 0.439727 0.500000
O O3 0.046325 0.354418 0.114552
O O4 0.023329 0.859531 0.270916
O O5 0.850720 0.144843 0.482365
O O6 0.703080 0.917342 0.933133
O O7 0.680864 0.936844 0.633883
O O8 0.653862 0.359646 0.862935
O O9 0.472436 0.656743 0.215966
O O10 0.476273 0.156198 0.294467
O O11 0.596203 0.521043 0.258829
O O12 0.000000 0.964548 0.000000
O O13 0.677454 0.885527 0.314227
#
# Coordination Sequence:
#
# PCOD8045566 Si02
#       6
#     2   2   2   2   2   2
#     4  12  26  50  78 111 151 200 257 317 391 465
#     4  12  29  51  80 114 155 211 259 319 397 462
#     4  12  29  50  78 115 156 203 262 317 385 464
#     4  12  28  51  79 114 154 200 260 326 389 465
#     4  12  29  50  81 113 157 207 259 324 393 463
#     4  12  31  49  78 117 158 205 263 320 383 471
#
# _framework density 24.702549000000001
#
# number of rings (size 3 to 8) (size 9 to 14) (size 15 to 20)
#    0.000    0.000    3.333    4.000   11.667    1.333 
#    0.000    0.000    0.000    0.000    0.000    0.000 
#    0.000    0.000    0.000    0.000    0.000    0.000 
#
# Total GULP energy -148820.692288 kJ/mol
# GULP energy per Si atom -12401.724357 kJ/mol
# Density = 2.464633 g / cm^3
# Si number density = 24.702549 Si / 1000 Ang^3
#
#
#
# Elastic Constant Matrix: (Units=GPa)
#
#
# Indices 1 2 3 4 5 6 
#
# 1 145.1084 37.5701 59.5547 0.0000 0.2998 0.0000
# 2 37.5701 127.8508 26.3245 0.0000 -8.4426 0.0000
# 3 59.5547 26.3245 95.9082 0.0000 2.0939 0.0000
# 4 0.0000 0.0000 0.0000 32.0048 0.0000 -2.9351
# 5 0.2998 -8.4426 2.0939 0.0000 52.8783 0.0000
# 6 0.0000 0.0000 0.0000 -2.9351 0.0000 47.8189
#
#
#
# Elastic Compliance Matrix: (Units=1/GPa)
#
#
# Indices 1 2 3 4 5 6 
#
# 1 0.009580 -0.001694 -0.005481 0.000000 -0.000108 0.000000
# 2 -0.001694 0.008697 -0.001367 0.000000 0.001452 0.000000
# 3 -0.005481 -0.001367 0.014222 0.000000 -0.000750 0.000000
# 4 0.000000 0.000000 0.000000 0.031422 0.000000 0.001929
# 5 -0.000108 0.001452 -0.000750 0.000000 0.019174 0.000000
# 6 0.000000 0.000000 0.000000 0.001929 0.000000 0.021031
#
#
# Mechanical properties :
#
#
# Convention : Reuss Voigt Hill
#
# Bulk Modulus (GPa) = 64.87512 68.41845 66.64678
# Shear Modulus (GPa) = 39.57357 42.90162 41.23760
#
# Velocity S-wave (km/s) = 4.00685 4.17193 4.09022
# Velocity P-wave (km/s) = 6.90840 7.13889 7.02459
#
# Compressibility (1/GPa) = 0.01541423
#
# Stress axis : x y z
#
# Youngs Moduli (GPa) = 104.38678 114.98648 70.31378
#
# Poissons Ratio (x) = 0.19474 0.38542
# Poissons Ratio (y) = 0.17679 0.09613
# Poissons Ratio (z) = 0.57219 0.15720
#
# Static dielectric constant tensor:
#      x y z
#    x 4.203770 0.000000 0.029450 
#    y 0.000000 4.627320 0.000000 
#    z 0.029450 0.000000 4.479450 
# 
# 
# High freq. dielectric constant tensor:
#      x y z
#    x 2.003580 0.000000 -0.006160 
#    y 0.000000 1.986200 0.000000 
#    z -0.006160 0.000000 1.991060 
# 
# From -- ./inp_files/8787.got.cif
#   From: 2010.03.12/outbox.cif.g09.slc.cpg/sg3_5_cif.got.tgz:8787.got - 2010.03.31 09:20:49.
