data_PCOD8045103
_publ_section_title
;
Structure prediction by ZEFSAII (Michael W. Deem and Ramdas Pophale) SiO2 
 PCOD8045103
Probable space group: P 2
;
_chemical_formula_sum "Si O2"
_cell_formula_units_Z 14
_cell_length_a 14.336494
_cell_length_b 8.475313
_cell_length_c 10.759366
_cell_angle_alpha 90.000000
_cell_angle_beta 149.458077
_cell_angle_gamma 90.000000
_cell_volume 664.344396
_symmetry_space_group_name_H-M "P 2"
_symmetry_group_IT_number 3
_symmetry_cell_setting 'monoclinic'
loop_
_space_group_symop_operation_xyz
x,y,z
-x,y,-z
loop_
_atom_site_type_symbol
_atom_site_label
_atom_site_fract_x
_atom_site_fract_y
_atom_site_fract_z
Si Si1 0.302626 0.380010 0.542094
Si Si2 0.430849 0.176180 0.287495
Si Si3 0.007204 0.705588 0.651167
Si Si4 0.406425 0.673725 0.765422
Si Si5 0.096076 0.385409 0.866223
Si Si6 0.196200 0.599910 0.198187
Si Si7 0.651762 0.816536 0.829185
O O1 0.411408 0.225131 0.627752
O O2 0.410110 0.480768 0.770981
O O3 0.288814 0.523508 0.425153
O O4 0.107717 0.312064 0.363810
O O5 0.500000 0.243496 0.500000
O O6 0.245439 0.249714 0.015354
O O7 0.413463 0.990429 0.278195
O O8 0.807935 0.725168 0.484652
O O9 0.000000 0.751037 0.500000
O O10 0.095511 0.529023 0.766101
O O11 0.144994 0.824479 0.878215
O O12 0.500000 0.734509 0.000000
O O13 0.508918 0.743767 0.763112
O O14 0.146457 0.450188 0.058181
O O15 0.335471 0.718434 0.286463
O O16 0.000000 0.687125 0.000000
#
# Coordination Sequence:
#
# PCOD8045103 Si02
#       7
#     2   2   2   2   2   2   2
#     4  10  21  39  66  92 125 163 213 266 315 371
#     4  12  25  39  60  95 137 169 198 255 333 391
#     4  10  20  42  70  90 120 164 219 269 307 360
#     4  11  23  40  71  95 120 165 225 272 305 364
#     4   9  20  39  62  93 121 161 208 261 315 374
#     4   9  18  39  65  92 120 165 213 268 309 368
#     4  11  25  40  61  97 135 168 211 254 328 386
#
# _framework density 21.073408000000001
#
# number of rings (size 3 to 8) (size 9 to 14) (size 15 to 20)
#    0.000    1.714    2.857    2.571    2.000    1.143 
#    2.571    1.429    0.000    0.000    0.000    0.000 
#    0.000    0.000    0.000    0.000    0.000    0.000 
#
# Total GULP energy -173476.756311 kJ/mol
# GULP energy per Si atom -12391.196879 kJ/mol
# Density = 2.102544 g / cm^3
# Si number density = 21.073408 Si / 1000 Ang^3
#
#
#
# Elastic Constant Matrix: (Units=GPa)
#
#
# Indices 1 2 3 4 5 6 
#
# 1 72.2627 12.1987 19.4842 0.0000 20.4705 0.0000
# 2 12.1987 61.6828 28.7440 0.0000 18.4264 0.0000
# 3 19.4842 28.7440 92.7711 0.0000 20.9377 0.0000
# 4 0.0000 0.0000 0.0000 25.3081 0.0000 3.8326
# 5 20.4705 18.4264 20.9377 0.0000 37.3105 0.0000
# 6 0.0000 0.0000 0.0000 3.8326 0.0000 16.9277
#
#
#
# Elastic Compliance Matrix: (Units=1/GPa)
#
#
# Indices 1 2 3 4 5 6 
#
# 1 0.016600 -0.000093 -0.001617 0.000000 -0.008154 0.000000
# 2 -0.000093 0.020661 -0.004684 0.000000 -0.007524 0.000000
# 3 -0.001617 -0.004684 0.013566 0.000000 -0.004412 0.000000
# 4 0.000000 0.000000 0.000000 0.040916 0.000000 -0.009264
# 5 -0.008154 -0.007524 -0.004412 0.000000 0.037468 0.000000
# 6 0.000000 0.000000 0.000000 -0.009264 0.000000 0.061172
#
#
# Mechanical properties :
#
#
# Convention : Reuss Voigt Hill
#
# Bulk Modulus (GPa) = 26.28958 38.61893 32.45426
# Shear Modulus (GPa) = 23.16417 26.99524 25.07970
#
# Velocity S-wave (km/s) = 3.31904 3.58300 3.45354
# Velocity P-wave (km/s) = 5.21443 5.95675 5.59791
#
# Compressibility (1/GPa) = 0.03803788
#
# Stress axis : x y z
#
# Youngs Moduli (GPa) = 60.24081 48.40105 73.71417
#
# Poissons Ratio (x) = 0.00453 0.11921
# Poissons Ratio (y) = 0.00563 0.34526
# Poissons Ratio (z) = 0.09742 0.22670
#
# Static dielectric constant tensor:
#      x y z
#    x 3.900070 0.000000 0.183740 
#    y 0.000000 3.312350 0.000000 
#    z 0.183740 0.000000 4.175930 
# 
# 
# High freq. dielectric constant tensor:
#      x y z
#    x 1.825890 0.000000 0.012480 
#    y 0.000000 1.777500 0.000000 
#    z 0.012480 0.000000 1.848610 
# 
# From -- ./inp_files/12226.got.cif
#   From: 2010.03.12/outbox.cif.g09.slc.cpg/sg3_7_cif.got.tgz:12226.got - 2010.03.31 09:20:49.
