data_PCOD8045871
_publ_section_title
;
Structure prediction by ZEFSAII (Michael W. Deem and Ramdas Pophale) SiO2 
 PCOD8045871
Probable space group: P 21
;
_chemical_formula_sum "Si O2"
_cell_formula_units_Z 16
_cell_length_a 14.852792
_cell_length_b 4.938335
_cell_length_c 21.515754
_cell_angle_alpha 90.000000
_cell_angle_beta 147.264006
_cell_angle_gamma 90.000000
_cell_volume 853.408362
_symmetry_space_group_name_H-M "P 21"
_symmetry_group_IT_number 4
_symmetry_cell_setting 'monoclinic'
loop_
_space_group_symop_operation_xyz
x,y,z
-x,1/2+y,-z
loop_
_atom_site_type_symbol
_atom_site_label
_atom_site_fract_x
_atom_site_fract_y
_atom_site_fract_z
Si Si1 0.139632 0.637600 0.445067
Si Si2 0.416846 0.619641 0.350392
Si Si3 0.070282 0.367989 0.573744
Si Si4 0.963295 0.133277 0.018851
Si Si5 0.216812 0.132055 0.272052
Si Si6 0.591266 0.085970 0.800047
Si Si7 0.211983 0.147938 0.409373
Si Si8 0.615703 0.086649 0.298785
O O1 0.102982 0.359655 0.386683
O O2 0.283625 0.582047 0.578468
O O3 0.975240 0.750073 0.384819
O O4 0.200280 0.850125 0.430144
O O5 0.369057 0.342472 0.357170
O O6 0.419197 0.545597 0.279471
O O7 0.593898 0.730991 0.476563
O O8 0.278088 0.837834 0.287285
O O9 0.256757 0.491390 0.681348
O O10 0.944398 0.616041 0.483495
O O11 0.066684 0.218600 0.139594
O O12 0.779203 0.035486 0.932160
O O13 0.942982 0.393662 0.962959
O O14 0.145267 0.134490 0.300411
O O15 0.539792 0.387259 0.788403
O O16 0.463158 0.880571 0.759700
#
# Coordination Sequence:
#
# PCOD8045871 Si02
#       8
#     2   2   2   2   2   2   2   2
#     4  11  20  35  54  81 113 145 173 217 281 335
#     4  12  21  37  55  77 111 149 187 222 273 324
#     4  10  20  34  54  82 116 149 173 218 281 346
#     4  12  23  38  56  75 106 147 192 233 275 309
#     4  12  24  39  52  77 110 150 194 230 266 317
#     4  12  21  34  58  79 106 151 183 225 277 318
#     4  12  23  34  55  80 111 149 185 220 267 335
#     4  11  20  35  54  83 113 138 181 223 272 338
#
# _framework density 18.748352000000001
#
# number of rings (size 3 to 8) (size 9 to 14) (size 15 to 20)
#    0.000    0.500    5.000    6.750    0.000    0.000 
#    0.000    0.000    0.000    0.000    0.000    3.500 
#    0.000    2.000    0.000    0.000    0.000    0.000 
#
# Total GULP energy -198445.320559 kJ/mol
# GULP energy per Si atom -12402.832535 kJ/mol
# Density = 1.870568 g / cm^3
# Si number density = 18.748352 Si / 1000 Ang^3
#
#
#
# Elastic Constant Matrix: (Units=GPa)
#
#
# Indices 1 2 3 4 5 6 
#
# 1 90.0993 24.3973 45.0311 0.0000 5.3178 0.0000
# 2 24.3973 93.3116 13.5107 0.0000 -0.5745 0.0000
# 3 45.0311 13.5107 68.3005 0.0000 -1.9343 0.0000
# 4 0.0000 0.0000 0.0000 16.9501 0.0000 11.7433
# 5 5.3178 -0.5745 -1.9343 0.0000 22.5478 0.0000
# 6 0.0000 0.0000 0.0000 11.7433 0.0000 39.6964
#
#
#
# Elastic Compliance Matrix: (Units=1/GPa)
#
#
# Indices 1 2 3 4 5 6 
#
# 1 0.017918 -0.003073 -0.011355 0.000000 -0.005278 0.000000
# 2 -0.003073 0.011560 -0.000232 0.000000 0.000999 0.000000
# 3 -0.011355 -0.000232 0.022303 0.000000 0.004585 0.000000
# 4 0.000000 0.000000 0.000000 0.074206 0.000000 -0.021952
# 5 -0.005278 0.000999 0.004585 0.000000 0.046014 0.000000
# 6 0.000000 0.000000 0.000000 -0.021952 0.000000 0.031685
#
#
# Mechanical properties :
#
#
# Convention : Reuss Voigt Hill
#
# Bulk Modulus (GPa) = 44.52256 46.39885 45.46070
# Shear Modulus (GPa) = 20.79061 27.09034 23.94048
#
# Velocity S-wave (km/s) = 3.33367 3.80537 3.57730
# Velocity P-wave (km/s) = 6.21424 6.64151 6.43143
#
# Compressibility (1/GPa) = 0.02246053
#
# Stress axis : x y z
#
# Youngs Moduli (GPa) = 55.81089 86.50459 44.83637
#
# Poissons Ratio (x) = 0.26584 0.50911
# Poissons Ratio (y) = 0.17152 0.01041
# Poissons Ratio (z) = 0.63372 0.02009
#
# Static dielectric constant tensor:
#      x y z
#    x 3.472360 0.000000 0.093680 
#    y 0.000000 3.687020 0.000000 
#    z 0.093680 0.000000 3.147060 
# 
# 
# High freq. dielectric constant tensor:
#      x y z
#    x 1.717280 0.000000 0.012990 
#    y 0.000000 1.755260 0.000000 
#    z 0.012990 0.000000 1.682890 
# 
# From -- ./inp_files/15740.got.cif
#   From: 2010.03.12/outbox.cif.g09.slc.cpg/sg4_8_cif.got.tgz:15740.got - 2010.03.31 09:31:35.
