data_PCOD8045233
_publ_section_title
;
Structure prediction by ZEFSAII (Michael W. Deem and Ramdas Pophale) SiO2 
 PCOD8045233
Probable space group: P 2
;
_chemical_formula_sum "Si O2"
_cell_formula_units_Z 11
_cell_length_a 14.953637
_cell_length_b 5.224061
_cell_length_c 5.052468
_cell_angle_alpha 90.000000
_cell_angle_beta 63.725677
_cell_angle_gamma 90.000000
_cell_volume 353.914619
_symmetry_space_group_name_H-M "P 2"
_symmetry_group_IT_number 3
_symmetry_cell_setting 'monoclinic'
loop_
_space_group_symop_operation_xyz
x,y,z
-x,y,-z
loop_
_atom_site_type_symbol
_atom_site_label
_atom_site_fract_x
_atom_site_fract_y
_atom_site_fract_z
Si Si1 0.741002 0.013280 0.117311
Si Si2 0.197660 0.512512 0.725151
Si Si3 0.566234 0.698804 0.661953
Si Si4 0.614536 0.198811 0.795914
Si Si5 0.901763 0.879383 0.527548
Si Si6 0.000000 0.276971 0.000000
O O1 0.750604 0.221808 0.354108
O O2 0.729673 0.707480 0.201454
O O3 0.660589 0.107515 0.007637
O O4 0.849007 0.031292 0.837242
O O5 0.175371 0.667544 0.482817
O O6 0.087493 0.468093 0.000562
O O7 0.500000 0.614028 0.500000
O O8 0.620927 0.978454 0.548549
O O9 0.648051 0.482781 0.641477
O O10 0.500000 0.786341 0.000000
O O11 0.500000 0.280693 0.000000
O O12 0.000000 0.732065 0.500000
O O13 0.938482 0.103725 0.285269
#
# Coordination Sequence:
#
# PCOD8045233 Si02
#       6
#     2   2   2   2   2   1
#     4  12  27  49  73 109 156 197 260 312 386 461
#     4  12  26  48  69 113 144 200 255 313 380 464
#     4  10  21  44  74 108 143 196 253 313 382 461
#     4  10  23  48  73 107 149 199 248 317 381 457
#     4  12  25  49  75 108 153 201 251 319 392 467
#     4  12  24  48  70 110 142 196 250 306 390 460
#
# _framework density 31.080943999999999
#
# number of rings (size 3 to 8) (size 9 to 14) (size 15 to 20)
#    0.000    0.727    3.636    3.273    2.545    0.727 
#   22.909    0.000    0.000    0.000    0.000    0.000 
#    0.000    0.000    0.000    0.000    0.000    0.000 
#
# Total GULP energy -136358.368781 kJ/mol
# GULP energy per Si atom -12396.215344 kJ/mol
# Density = 3.101020 g / cm^3
# Si number density = 31.080944 Si / 1000 Ang^3
#
#
#
# Elastic Constant Matrix: (Units=GPa)
#
#
# Indices 1 2 3 4 5 6 
#
# 1 197.7366 101.4483 26.6458 0.0000 22.4111 0.0000
# 2 101.4483 256.5675 74.1690 0.0000 -3.7758 0.0000
# 3 26.6458 74.1690 115.6427 0.0000 -2.7849 0.0000
# 4 0.0000 0.0000 0.0000 39.5876 0.0000 -5.0165
# 5 22.4111 -3.7758 -2.7849 0.0000 66.2077 0.0000
# 6 0.0000 0.0000 0.0000 -5.0165 0.0000 71.1710
#
#
#
# Elastic Compliance Matrix: (Units=1/GPa)
#
#
# Indices 1 2 3 4 5 6 
#
# 1 0.006714 -0.002733 0.000148 0.000000 -0.002422 0.000000
# 2 -0.002733 0.005899 -0.003126 0.000000 0.001130 0.000000
# 3 0.000148 -0.003126 0.010624 0.000000 0.000219 0.000000
# 4 0.000000 0.000000 0.000000 0.025488 0.000000 0.001797
# 5 -0.002422 0.001130 0.000219 0.000000 0.015998 0.000000
# 6 0.000000 0.000000 0.000000 0.001797 0.000000 0.014177
#
#
# Mechanical properties :
#
#
# Convention : Reuss Voigt Hill
#
# Bulk Modulus (GPa) = 84.65356 108.27476 96.46416
# Shear Modulus (GPa) = 53.04446 59.90552 56.47499
#
# Velocity S-wave (km/s) = 4.13565 4.39498 4.26729
# Velocity P-wave (km/s) = 7.07816 7.78887 7.44201
#
# Compressibility (1/GPa) = 0.01181285
#
# Stress axis : x y z
#
# Youngs Moduli (GPa) = 148.94016 169.53013 94.12970
#
# Poissons Ratio (x) = 0.46334 -0.01389
# Poissons Ratio (y) = 0.40707 0.29427
# Poissons Ratio (z) = -0.02198 0.52999
#
# Static dielectric constant tensor:
#      x y z
#    x 6.780860 0.000000 -1.128510 
#    y 0.000000 6.357510 0.000000 
#    z -1.128510 0.000000 6.762760 
# 
# 
# High freq. dielectric constant tensor:
#      x y z
#    x 2.321860 0.000000 -0.071590 
#    y 0.000000 2.324910 0.000000 
#    z -0.071590 0.000000 2.304480 
# 
# From -- ./inp_files/2694.got.cif
#   From: 2010.03.12/outbox.cif.g09.slc.cpg/sg3_2_cif.got.tgz:2694.got - 2010.03.31 09:20:49.
