data_PCOD8045318
_publ_section_title
;
Structure prediction by ZEFSAII (Michael W. Deem and Ramdas Pophale) SiO2 
 PCOD8045318
Probable space group: P 2
;
_chemical_formula_sum "Si O2"
_cell_formula_units_Z 10
_cell_length_a 8.041459
_cell_length_b 5.168110
_cell_length_c 21.378797
_cell_angle_alpha 90.000000
_cell_angle_beta 29.869943
_cell_angle_gamma 90.000000
_cell_volume 442.494523
_symmetry_space_group_name_H-M "P 2"
_symmetry_group_IT_number 3
_symmetry_cell_setting 'monoclinic'
loop_
_space_group_symop_operation_xyz
x,y,z
-x,y,-z
loop_
_atom_site_type_symbol
_atom_site_label
_atom_site_fract_x
_atom_site_fract_y
_atom_site_fract_z
Si Si1 0.741014 0.549410 0.248195
Si Si2 0.859787 0.512682 0.769292
Si Si3 0.999135 0.000491 0.656069
Si Si4 0.332797 0.749998 0.862166
Si Si5 0.647526 0.046221 0.583549
O O1 0.781539 0.585210 0.160918
O O2 0.549250 0.286077 0.324385
O O3 0.097722 0.537758 0.169010
O O4 0.538161 0.782226 0.343608
O O5 0.093317 0.733281 0.660492
O O6 0.481835 0.557230 0.867571
O O7 0.990434 0.229415 0.709114
O O8 0.619557 0.960979 0.750549
O O9 0.281749 0.072122 0.513710
O O10 0.000000 0.881515 0.000000
O O11 0.000000 0.030113 0.500000
#
# Coordination Sequence:
#
# PCOD8045318 Si02
#       5
#     2   2   2   2   2
#     4  12  25  40  70  99 131 184 216 280 338 396
#     4  10  23  43  63 103 132 170 234 264 344 400
#     4  10  22  43  64  97 137 171 216 280 333 394
#     4  10  25  47  70  93 139 177 230 278 333 393
#     4  12  22  40  67 100 139 170 226 269 339 416
#
# _framework density 22.599149000000001
#
# number of rings (size 3 to 8) (size 9 to 14) (size 15 to 20)
#    1.200    0.000    2.000    4.200    0.000    6.400 
#    0.000    0.000    4.400    0.000    0.000    0.000 
#    0.000    0.000    0.000    0.000    0.000    0.000 
#
# Total GULP energy -123887.142779 kJ/mol
# GULP energy per Si atom -12388.714278 kJ/mol
# Density = 2.254771 g / cm^3
# Si number density = 22.599149 Si / 1000 Ang^3
#
#
#
# Elastic Constant Matrix: (Units=GPa)
#
#
# Indices 1 2 3 4 5 6 
#
# 1 175.4857 12.2941 21.6197 0.0000 16.9268 0.0000
# 2 12.2941 132.5112 25.0095 0.0000 0.6158 0.0000
# 3 21.6197 25.0095 92.1647 0.0000 -3.9596 0.0000
# 4 0.0000 0.0000 0.0000 16.7636 0.0000 6.0653
# 5 16.9268 0.6158 -3.9596 0.0000 11.1892 0.0000
# 6 0.0000 0.0000 0.0000 6.0653 0.0000 27.1220
#
#
#
# Elastic Compliance Matrix: (Units=1/GPa)
#
#
# Indices 1 2 3 4 5 6 
#
# 1 0.007074 -0.000208 -0.002094 0.000000 -0.011430 0.000000
# 2 -0.000208 0.007976 -0.002154 0.000000 -0.000887 0.000000
# 3 -0.002094 -0.002154 0.012253 0.000000 0.007622 0.000000
# 4 0.000000 0.000000 0.000000 0.064905 0.000000 -0.014515
# 5 -0.011430 -0.000887 0.007622 0.000000 0.109410 0.000000
# 6 0.000000 0.000000 0.000000 -0.014515 0.000000 0.040116
#
#
# Mechanical properties :
#
#
# Convention : Reuss Voigt Hill
#
# Bulk Modulus (GPa) = 54.37173 57.55650 55.96411
# Shear Modulus (GPa) = 19.47225 33.76417 26.61821
#
# Velocity S-wave (km/s) = 2.93855 3.86948 3.43569
# Velocity P-wave (km/s) = 5.96866 6.74445 6.36838
#
# Compressibility (1/GPa) = 0.01839191
#
# Stress axis : x y z
#
# Youngs Moduli (GPa) = 141.37218 125.36925 81.61109
#
# Poissons Ratio (x) = 0.02607 0.17089
# Poissons Ratio (y) = 0.02940 0.17577
# Poissons Ratio (z) = 0.29602 0.27002
#
# Static dielectric constant tensor:
#      x y z
#    x 4.566240 0.000000 -0.074990 
#    y 0.000000 3.926100 0.000000 
#    z -0.074990 0.000000 3.989200 
# 
# 
# High freq. dielectric constant tensor:
#      x y z
#    x 1.921080 0.000000 -0.000360 
#    y 0.000000 1.887810 0.000000 
#    z -0.000360 0.000000 1.852320 
# 
# From -- ./inp_files/6366.got.cif
#   From: 2010.03.12/outbox.cif.g09.slc.cpg/sg3_4_cif.got.tgz:6366.got - 2010.03.31 09:20:49.
