data_PCOD8045561
_publ_section_title
;
Structure prediction by ZEFSAII (Michael W. Deem and Ramdas Pophale) SiO2 
 PCOD8045561
Probable space group: P 2
;
_chemical_formula_sum "Si O2"
_cell_formula_units_Z 11
_cell_length_a 5.698721
_cell_length_b 5.086432
_cell_length_c 15.134507
_cell_angle_alpha 90.000000
_cell_angle_beta 72.892414
_cell_angle_gamma 90.000000
_cell_volume 419.280896
_symmetry_space_group_name_H-M "P 2"
_symmetry_group_IT_number 3
_symmetry_cell_setting 'monoclinic'
loop_
_space_group_symop_operation_xyz
x,y,z
-x,y,-z
loop_
_atom_site_type_symbol
_atom_site_label
_atom_site_fract_x
_atom_site_fract_y
_atom_site_fract_z
Si Si1 0.233401 0.161650 0.845334
Si Si2 0.930492 0.820786 0.766951
Si Si3 0.500000 0.205245 0.500000
Si Si4 0.377065 0.453058 0.675070
Si Si5 0.442875 0.659072 0.904990
Si Si6 0.199740 0.831803 0.408512
O O1 0.401071 0.199196 0.737883
O O2 0.242696 0.439317 0.896707
O O3 0.970973 0.057867 0.834607
O O4 0.332406 0.947217 0.902552
O O5 0.170849 0.635559 0.742491
O O6 0.694242 0.646663 0.820225
O O7 0.915837 0.944926 0.669850
O O8 0.310327 0.378139 0.580418
O O9 0.357438 0.047942 0.441362
O O10 0.641155 0.586422 0.640728
O O11 0.500000 0.611556 0.000000
O O12 0.000000 0.727828 0.500000
#
# Coordination Sequence:
#
# PCOD8045561 Si02
#       6
#     2   2   1   2   2   2
#     4  12  26  54  78 120 161 203 276 328 402 506
#     4  12  26  50  82 112 166 217 263 343 411 475
#     4  12  26  44  70 112 164 204 284 326 388 506
#     4  12  25  48  74 111 164 208 274 332 397 496
#     4  12  29  55  84 120 163 209 270 339 415 490
#     4  12  25  47  73 114 161 217 270 336 407 477
#
# _framework density 26.235395
#
# number of rings (size 3 to 8) (size 9 to 14) (size 15 to 20)
#    0.000    0.000    3.636    6.545    2.545    4.364 
#    6.545    1.818    0.000    0.000    0.000    0.000 
#    0.000    0.000    0.000    0.000    0.000    0.000 
#
# Total GULP energy -136304.418690 kJ/mol
# GULP energy per Si atom -12391.310790 kJ/mol
# Density = 2.617568 g / cm^3
# Si number density = 26.235395 Si / 1000 Ang^3
#
#
#
# Elastic Constant Matrix: (Units=GPa)
#
#
# Indices 1 2 3 4 5 6 
#
# 1 84.9587 24.4578 20.7533 0.0000 23.6126 0.0000
# 2 24.4578 116.3069 25.5783 0.0000 23.0355 0.0000
# 3 20.7533 25.5783 146.1438 0.0000 49.7958 0.0000
# 4 0.0000 0.0000 0.0000 46.0496 0.0000 12.1325
# 5 23.6126 23.0355 49.7958 0.0000 59.6828 0.0000
# 6 0.0000 0.0000 0.0000 12.1325 0.0000 17.3646
#
#
#
# Elastic Compliance Matrix: (Units=1/GPa)
#
#
# Indices 1 2 3 4 5 6 
#
# 1 0.013619 -0.001944 -0.000019 0.000000 -0.004622 0.000000
# 2 -0.001944 0.009621 -0.000565 0.000000 -0.002472 0.000000
# 3 -0.000019 -0.000565 0.009595 0.000000 -0.007780 0.000000
# 4 0.000000 0.000000 0.000000 0.026615 0.000000 -0.018596
# 5 -0.004622 -0.002472 -0.007780 0.000000 0.026029 0.000000
# 6 0.000000 0.000000 0.000000 -0.018596 0.000000 0.070581
#
#
# Mechanical properties :
#
#
# Convention : Reuss Voigt Hill
#
# Bulk Modulus (GPa) = 35.99942 54.33202 45.16572
# Shear Modulus (GPa) = 29.34665 43.06073 36.20369
#
# Velocity S-wave (km/s) = 3.34816 4.05572 3.71881
# Velocity P-wave (km/s) = 5.35709 6.53347 5.97430
#
# Compressibility (1/GPa) = 0.02777822
#
# Stress axis : x y z
#
# Youngs Moduli (GPa) = 73.42460 103.94124 104.22040
#
# Poissons Ratio (x) = 0.20210 0.00196
# Poissons Ratio (y) = 0.14277 0.05892
# Poissons Ratio (z) = 0.00138 0.05876
#
# Static dielectric constant tensor:
#      x y z
#    x 4.789340 0.000000 0.249470 
#    y 0.000000 4.682180 0.000000 
#    z 0.249470 0.000000 5.438280 
# 
# 
# High freq. dielectric constant tensor:
#      x y z
#    x 2.039450 0.000000 0.026610 
#    y 0.000000 2.048080 0.000000 
#    z 0.026610 0.000000 2.071560 
# 
# From -- ./inp_files/12785.got.cif
#   From: 2010.03.12/outbox.cif.g09.slc.cpg/sg3_7_cif.got.tgz:12785.got - 2010.03.31 09:20:49.
