data_PCOD8045362
_publ_section_title
;
Structure prediction by ZEFSAII (Michael W. Deem and Ramdas Pophale) SiO2 
 PCOD8045362
Probable space group: P 2
;
_chemical_formula_sum "Si O2"
_cell_formula_units_Z 14
_cell_length_a 8.041849
_cell_length_b 6.664308
_cell_length_c 17.556562
_cell_angle_alpha 90.000000
_cell_angle_beta 135.660477
_cell_angle_gamma 90.000000
_cell_volume 657.613868
_symmetry_space_group_name_H-M "P 2"
_symmetry_group_IT_number 3
_symmetry_cell_setting 'monoclinic'
loop_
_space_group_symop_operation_xyz
x,y,z
-x,y,-z
loop_
_atom_site_type_symbol
_atom_site_label
_atom_site_fract_x
_atom_site_fract_y
_atom_site_fract_z
Si Si1 0.253173 0.402520 0.103089
Si Si2 0.745176 0.881914 0.407261
Si Si3 0.347697 0.076492 0.786088
Si Si4 0.677691 0.252996 0.487765
Si Si5 0.970627 0.426514 0.288973
Si Si6 0.367411 0.540651 0.300871
Si Si7 0.468809 0.681978 0.901088
O O1 0.442883 0.227470 0.165034
O O2 0.243078 0.511404 0.180261
O O3 0.298489 0.582046 0.058376
O O4 0.000000 0.304936 0.000000
O O5 0.513269 0.748991 0.350244
O O6 0.000000 0.766063 0.500000
O O7 0.730011 0.969938 0.317200
O O8 0.767360 0.047699 0.480981
O O9 0.134485 0.199968 0.759176
O O10 0.447938 0.918240 0.880016
O O11 0.500000 0.209954 0.500000
O O12 0.550109 0.362805 0.376431
O O13 0.893983 0.398696 0.585903
O O14 0.752631 0.580653 0.216786
O O15 0.155197 0.525184 0.291438
O O16 0.500000 0.636628 0.000000
#
# Coordination Sequence:
#
# PCOD8045362 Si02
#       7
#     2   2   2   2   2   2   2
#     4  11  24  44  69  97 136 181 238 296 356 419
#     4  12  24  41  71 102 140 181 232 299 350 426
#     4  11  24  44  68 102 136 186 240 288 362 421
#     4  10  23  41  66  99 138 178 227 284 360 426
#     4  10  24  44  68  97 140 183 231 289 355 425
#     4  11  24  42  67 100 137 180 232 288 355 416
#     4  11  25  45  68  98 136 182 240 295 354 423
#
# _framework density 21.289086999999999
#
# number of rings (size 3 to 8) (size 9 to 14) (size 15 to 20)
#    0.000    1.143    4.286    0.857    2.000    8.571 
#    2.571    0.000    0.000    0.000    0.000    0.000 
#    0.000    0.000    0.000    0.000    0.000    0.000 
#
# Total GULP energy -173481.617241 kJ/mol
# GULP energy per Si atom -12391.544089 kJ/mol
# Density = 2.124063 g / cm^3
# Si number density = 21.289087 Si / 1000 Ang^3
#
#
#
# Elastic Constant Matrix: (Units=GPa)
#
#
# Indices 1 2 3 4 5 6 
#
# 1 76.4005 38.9636 45.6431 0.0000 3.4456 0.0000
# 2 38.9636 81.2484 19.2325 0.0000 0.8075 0.0000
# 3 45.6431 19.2325 114.0344 0.0000 0.6015 0.0000
# 4 0.0000 0.0000 0.0000 29.9859 0.0000 -45.2191
# 5 3.4456 0.8075 0.6015 0.0000 41.2301 0.0000
# 6 0.0000 0.0000 0.0000 -45.2191 0.0000 -362.9615
#
#
#
# Elastic Compliance Matrix: (Units=1/GPa)
#
#
# Indices 1 2 3 4 5 6 
#
# 1 0.022030 -0.008816 -0.007323 0.000000 -0.001562 0.000000
# 2 -0.008816 0.016350 0.000769 0.000000 0.000405 0.000000
# 3 -0.007323 0.000769 0.011568 0.000000 0.000428 0.000000
# 4 0.000000 0.000000 0.000000 0.028075 0.000000 -0.003498
# 5 -0.001562 0.000405 0.000428 0.000000 0.024370 0.000000
# 6 0.000000 0.000000 0.000000 -0.003498 0.000000 -0.002319
#
#
# Mechanical properties :
#
#
# Convention : Reuss Voigt Hill
#
# Bulk Modulus (GPa) = 52.05892 53.26241 52.66067
# Shear Modulus (GPa) = 36.43904 -47.15951 -5.36024
#
# Velocity S-wave (km/s) = 4.14167 -4.71169 -1.58849
# Velocity P-wave (km/s) = 6.88315 2.12770 4.62875
#
# Compressibility (1/GPa) = 0.01920900
#
# Stress axis : x y z
#
# Youngs Moduli (GPa) = 45.39256 61.16351 86.44343
#
# Poissons Ratio (x) = 0.53921 0.63299
# Poissons Ratio (y) = 0.40018 -0.06648
# Poissons Ratio (z) = 0.33239 -0.04704
#
# Static dielectric constant tensor:
#      x y z
#    x 4.036490 0.000000 -0.103210 
#    y 0.000000 3.832730 0.000000 
#    z -0.103210 0.000000 4.478010 
# 
# 
# High freq. dielectric constant tensor:
#      x y z
#    x 1.836260 0.000000 0.005630 
#    y 0.000000 1.827740 0.000000 
#    z 0.005630 0.000000 1.851040 
# 
# From -- ./inp_files/8804.got.cif
#   From: 2010.03.12/outbox.cif.g09.slc.cpg/sg3_5_cif.got.tgz:8804.got - 2010.03.31 09:20:49.
