data_PCOD8045037
_publ_section_title
;
Structure prediction by ZEFSAII (Michael W. Deem and Ramdas Pophale) SiO2 
 PCOD8045037
Probable space group: P 2
;
_chemical_formula_sum "Si O2"
_cell_formula_units_Z 15
_cell_length_a 7.804516
_cell_length_b 8.498898
_cell_length_c 18.184366
_cell_angle_alpha 90.000000
_cell_angle_beta 34.963767
_cell_angle_gamma 90.000000
_cell_volume 691.202921
_symmetry_space_group_name_H-M "P 2"
_symmetry_group_IT_number 3
_symmetry_cell_setting 'monoclinic'
loop_
_space_group_symop_operation_xyz
x,y,z
-x,y,-z
loop_
_atom_site_type_symbol
_atom_site_label
_atom_site_fract_x
_atom_site_fract_y
_atom_site_fract_z
Si Si1 0.500000 0.086740 0.500000
Si Si2 0.408921 0.385903 0.110258
Si Si3 0.775660 0.694814 0.758555
Si Si4 0.832193 0.857833 0.488138
Si Si5 0.793570 0.301898 0.277552
Si Si6 0.078599 0.149228 0.052267
Si Si7 0.769280 0.670537 0.273835
Si Si8 0.729211 0.818732 0.981044
O O1 0.589440 0.201560 0.402665
O O2 0.756611 0.981034 0.449004
O O3 0.319405 0.512297 0.203205
O O4 0.125952 0.277055 0.192365
O O5 0.500000 0.468183 0.000000
O O6 0.670821 0.280044 0.049408
O O7 0.463311 0.792282 0.876538
O O8 0.925348 0.732291 0.627788
O O9 0.031509 0.733121 0.728687
O O10 0.536812 0.767082 0.618599
O O11 0.000000 0.936296 0.500000
O O12 0.698042 0.484800 0.305959
O O13 0.795876 0.224988 0.195015
O O14 0.000000 0.083744 0.000000
O O15 0.192847 0.000762 0.058300
O O16 0.966955 0.712101 0.131236
O O17 0.500000 0.760253 0.000000
#
# Coordination Sequence:
#
# PCOD8045037 Si02
#       8
#     1   2   2   2   2   2   2   2
#     4  12  26  46  68  96 138 182 228 282 340 414
#     4   9  19  39  64  94 125 168 224 271 334 404
#     4  10  20  38  68  95 123 172 222 280 330 395
#     4  12  27  44  67 101 140 182 228 280 341 412
#     4  10  23  41  69  94 123 182 225 277 340 399
#     4  11  23  37  58  96 138 170 214 280 341 401
#     4  10  21  44  70  96 129 172 234 278 338 404
#     4  10  20  36  66  94 121 165 219 275 332 401
#
# _framework density 21.701294999999998
#
# number of rings (size 3 to 8) (size 9 to 14) (size 15 to 20)
#    0.000    1.600    1.333    4.800    7.467    3.200 
#    0.000    2.000    0.000    0.000    0.000    0.000 
#    0.000    0.000    0.000    0.000    0.000    0.000 
#
# Total GULP energy -185874.243650 kJ/mol
# GULP energy per Si atom -12391.616243 kJ/mol
# Density = 2.165190 g / cm^3
# Si number density = 21.701295 Si / 1000 Ang^3
#
#
#
# Elastic Constant Matrix: (Units=GPa)
#
#
# Indices 1 2 3 4 5 6 
#
# 1 58.5893 31.2780 20.6332 0.0000 5.6243 0.0000
# 2 31.2780 117.3268 47.3698 0.0000 -4.0793 0.0000
# 3 20.6332 47.3698 133.9821 0.0000 -8.3963 0.0000
# 4 0.0000 0.0000 0.0000 19.3119 0.0000 -2.4154
# 5 5.6243 -4.0793 -8.3963 0.0000 21.9234 0.0000
# 6 0.0000 0.0000 0.0000 -2.4154 0.0000 8.7819
#
#
#
# Elastic Compliance Matrix: (Units=1/GPa)
#
#
# Indices 1 2 3 4 5 6 
#
# 1 0.021150 -0.005122 -0.001891 0.000000 -0.007103 0.000000
# 2 -0.005122 0.011188 -0.003027 0.000000 0.002237 0.000000
# 3 -0.001891 -0.003027 0.009037 0.000000 0.003383 0.000000
# 4 0.000000 0.000000 0.000000 0.053627 0.000000 0.014750
# 5 -0.007103 0.002237 0.003383 0.000000 0.049148 0.000000
# 6 0.000000 0.000000 0.000000 0.014750 0.000000 0.117928
#
#
# Mechanical properties :
#
#
# Convention : Reuss Voigt Hill
#
# Bulk Modulus (GPa) = 46.95771 56.49558 51.72665
# Shear Modulus (GPa) = 17.28573 24.04457 20.66515
#
# Velocity S-wave (km/s) = 2.82535 3.33224 3.08921
# Velocity P-wave (km/s) = 5.68583 6.39491 6.05077
#
# Compressibility (1/GPa) = 0.02129576
#
# Stress axis : x y z
#
# Youngs Moduli (GPa) = 47.28084 89.37830 110.65479
#
# Poissons Ratio (x) = 0.45777 0.20930
# Poissons Ratio (y) = 0.24216 0.33493
# Poissons Ratio (z) = 0.08943 0.27053
#
# Static dielectric constant tensor:
#      x y z
#    x 3.641500 0.000000 -0.063110 
#    y 0.000000 3.729650 0.000000 
#    z -0.063110 0.000000 4.252870 
# 
# 
# High freq. dielectric constant tensor:
#      x y z
#    x 1.818110 0.000000 -0.005300 
#    y 0.000000 1.854090 0.000000 
#    z -0.005300 0.000000 1.862910 
# 
# From -- ./inp_files/15046.got.cif
#   From: 2010.03.12/outbox.cif.g09.slc.cpg/sg3_8_cif.got.tgz:15046.got - 2010.03.31 09:20:49.
