data_PCOD8045550
_publ_section_title
;
Structure prediction by ZEFSAII (Michael W. Deem and Ramdas Pophale) SiO2 
 PCOD8045550
Probable space group: P 2
;
_chemical_formula_sum "Si O2"
_cell_formula_units_Z 13
_cell_length_a 9.082802
_cell_length_b 5.107423
_cell_length_c 12.201295
_cell_angle_alpha 90.000000
_cell_angle_beta 76.743942
_cell_angle_gamma 90.000000
_cell_volume 550.933112
_symmetry_space_group_name_H-M "P 2"
_symmetry_group_IT_number 3
_symmetry_cell_setting 'monoclinic'
loop_
_space_group_symop_operation_xyz
x,y,z
-x,y,-z
loop_
_atom_site_type_symbol
_atom_site_label
_atom_site_fract_x
_atom_site_fract_y
_atom_site_fract_z
Si Si1 0.650618 0.165500 0.046054
Si Si2 0.055116 0.749232 0.297055
Si Si3 0.431792 0.228522 0.692861
Si Si4 0.743965 0.045331 0.580158
Si Si5 0.842737 0.660997 0.962976
Si Si6 0.000000 0.370660 0.500000
Si Si7 0.288313 0.737572 0.619135
O O1 0.603974 0.259127 0.174324
O O2 0.500000 0.165777 0.000000
O O3 0.773398 0.373906 0.986105
O O4 0.727099 0.879366 0.028588
O O5 0.155705 0.984258 0.329160
O O6 0.132884 0.683790 0.170054
O O7 0.064726 0.525299 0.386142
O O8 0.878627 0.802786 0.306774
O O9 0.343043 0.443457 0.636324
O O10 0.610695 0.239861 0.639494
O O11 0.395517 0.934688 0.663951
O O12 0.697275 0.790367 0.515048
O O13 0.858166 0.202174 0.479719
O O14 0.000000 0.683165 0.000000
#
# Coordination Sequence:
#
# PCOD8045550 Si02
#       7
#     2   2   2   2   2   1   2
#     4  12  27  52  74 112 147 200 258 310 375 445
#     4  12  26  46  77 107 151 198 256 306 374 447
#     4  12  29  47  77 104 157 195 247 312 385 441
#     4  12  27  46  74 112 148 204 247 308 375 460
#     4  12  28  49  79 111 150 199 255 316 375 439
#     4  12  24  46  76 110 148 194 256 306 366 456
#     4  12  26  49  71 114 149 197 243 314 375 457
#
# _framework density 23.596330999999999
#
# number of rings (size 3 to 8) (size 9 to 14) (size 15 to 20)
#    0.000    0.000    3.077    6.000    6.462    2.462 
#    0.000    0.000    0.000    0.000    0.000    0.000 
#    0.000    0.000    0.000    0.000    0.000    0.000 
#
# Total GULP energy -161162.876276 kJ/mol
# GULP energy per Si atom -12397.144329 kJ/mol
# Density = 2.354262 g / cm^3
# Si number density = 23.596331 Si / 1000 Ang^3
#
#
#
# Elastic Constant Matrix: (Units=GPa)
#
#
# Indices 1 2 3 4 5 6 
#
# 1 154.6243 36.1283 51.2556 0.0000 4.1724 0.0000
# 2 36.1283 85.8970 11.9043 0.0000 4.4199 0.0000
# 3 51.2556 11.9043 97.7824 0.0000 -3.6089 0.0000
# 4 0.0000 0.0000 0.0000 15.9373 0.0000 -14.7393
# 5 4.1724 4.4199 -3.6089 0.0000 35.7591 0.0000
# 6 0.0000 0.0000 0.0000 -14.7393 0.0000 47.2239
#
#
#
# Elastic Compliance Matrix: (Units=1/GPa)
#
#
# Indices 1 2 3 4 5 6 
#
# 1 0.008573 -0.002974 -0.004171 0.000000 -0.001054 0.000000
# 2 -0.002974 0.012967 -0.000066 0.000000 -0.001262 0.000000
# 3 -0.004171 -0.000066 0.012486 0.000000 0.001755 0.000000
# 4 0.000000 0.000000 0.000000 0.088207 0.000000 0.027531
# 5 -0.001054 -0.001262 0.001755 0.000000 0.028421 0.000000
# 6 0.000000 0.000000 0.000000 0.027531 0.000000 0.029768
#
#
# Mechanical properties :
#
#
# Convention : Reuss Voigt Hill
#
# Bulk Modulus (GPa) = 51.00990 59.65334 55.33162
# Shear Modulus (GPa) = 24.82890 35.71845 30.27368
#
# Velocity S-wave (km/s) = 3.24734 3.89489 3.58576
# Velocity P-wave (km/s) = 5.97703 6.75000 6.37524
#
# Compressibility (1/GPa) = 0.01960404
#
# Stress axis : x y z
#
# Youngs Moduli (GPa) = 116.64495 77.12051 80.09072
#
# Poissons Ratio (x) = 0.22932 0.33403
# Poissons Ratio (y) = 0.34685 0.00533
# Poissons Ratio (z) = 0.48649 0.00513
#
# Static dielectric constant tensor:
#      x y z
#    x 4.642060 0.000000 -0.108670 
#    y 0.000000 4.309170 0.000000 
#    z -0.108670 0.000000 4.235790 
# 
# 
# High freq. dielectric constant tensor:
#      x y z
#    x 1.961220 0.000000 -0.000660 
#    y 0.000000 1.941140 0.000000 
#    z -0.000660 0.000000 1.937040 
# 
# From -- ./inp_files/10215.got.cif
#   From: 2010.03.12/outbox.cif.g09.slc.cpg/sg3_6_cif.got.tgz:10215.got - 2010.03.31 09:20:49.
