data_PCOD8045787
_publ_section_title
;
Structure prediction by ZEFSAII (Michael W. Deem and Ramdas Pophale) SiO2 
 PCOD8045787
Probable space group: P 21
;
_chemical_formula_sum "Si O2"
_cell_formula_units_Z 16
_cell_length_a 24.850631
_cell_length_b 5.021866
_cell_length_c 31.611108
_cell_angle_alpha 90.000000
_cell_angle_beta 11.326273
_cell_angle_gamma 90.000000
_cell_volume 774.772900
_symmetry_space_group_name_H-M "P 21"
_symmetry_group_IT_number 4
_symmetry_cell_setting 'monoclinic'
loop_
_space_group_symop_operation_xyz
x,y,z
-x,1/2+y,-z
loop_
_atom_site_type_symbol
_atom_site_label
_atom_site_fract_x
_atom_site_fract_y
_atom_site_fract_z
Si Si1 0.178453 0.072380 0.355423
Si Si2 0.792992 0.069335 0.507872
Si Si3 0.272812 0.523669 0.017471
Si Si4 0.142934 0.566336 0.940131
Si Si5 0.646554 0.567166 0.268348
Si Si6 0.664003 0.587770 0.860361
Si Si7 0.051034 0.521447 0.707998
Si Si8 0.571871 0.065416 0.195564
O O1 0.421026 0.037412 0.201491
O O2 0.292872 0.160842 0.221810
O O3 0.978855 0.294844 0.528118
O O4 0.577922 0.834277 0.676452
O O5 0.653199 0.334337 0.633434
O O6 0.054046 0.000513 0.335233
O O7 0.881551 0.111670 0.391375
O O8 0.272626 0.598937 0.968415
O O9 0.165982 0.224616 0.105091
O O10 0.077911 0.727583 0.192725
O O11 0.319957 0.363461 0.775552
O O12 0.193933 0.506366 0.950069
O O13 0.243446 0.862218 0.851569
O O14 0.819714 0.533090 0.178336
O O15 0.326128 0.519537 0.524436
O O16 0.450446 0.346435 0.027708
#
# Coordination Sequence:
#
# PCOD8045787 Si02
#       8
#     2   2   2   2   2   2   2   2
#     4  12  24  44  63  85 119 166 206 243 303 368
#     4  12  23  39  66  87 117 157 213 248 294 359
#     4  12  26  39  61  90 129 156 196 253 311 362
#     4  10  19  37  61  92 117 156 203 251 284 353
#     4  10  20  36  63  90 120 154 203 245 296 354
#     4  12  24  41  61  90 120 155 201 258 306 351
#     4  12  22  41  59  93 122 160 194 252 311 355
#     4  12  22  41  60  93 118 160 202 252 293 354
#
# _framework density 20.651212000000001
#
# number of rings (size 3 to 8) (size 9 to 14) (size 15 to 20)
#    0.000    0.500    2.500    7.500    0.000    0.000 
#    0.000    1.250    0.000    0.000    0.000    0.000 
#    0.000    0.000    0.000    0.000    0.000    0.000 
#
# Total GULP energy -198533.835293 kJ/mol
# GULP energy per Si atom -12408.364706 kJ/mol
# Density = 2.060421 g / cm^3
# Si number density = 20.651212 Si / 1000 Ang^3
#
#
#
# Elastic Constant Matrix: (Units=GPa)
#
#
# Indices 1 2 3 4 5 6 
#
# 1 121.3973 6.1257 25.6231 0.0039 -10.6749 0.0003
# 2 6.1257 91.7017 30.3275 0.0006 -10.8350 0.0000
# 3 25.6231 30.3275 84.6640 -0.0016 -17.3803 -0.0001
# 4 0.0039 0.0006 -0.0016 35.7391 -0.0005 -0.2545
# 5 -10.6749 -10.8350 -17.3803 -0.0005 45.9182 0.0001
# 6 0.0003 0.0000 -0.0001 -0.2545 0.0001 26.4497
#
#
#
# Elastic Compliance Matrix: (Units=1/GPa)
#
#
# Indices 1 2 3 4 5 6 
#
# 1 0.008866 0.000402 -0.002586 -0.000001 0.001177 0.000000
# 2 0.000402 0.012466 -0.004298 0.000000 0.001408 0.000000
# 3 -0.002586 -0.004298 0.014965 0.000001 0.004049 0.000000
# 4 -0.000001 0.000000 0.000001 0.027982 0.000000 0.000269
# 5 0.001177 0.001408 0.004049 0.000000 0.023916 0.000000
# 6 0.000000 0.000000 0.000000 0.000269 0.000000 0.037810
#
#
# Mechanical properties :
#
#
# Convention : Reuss Voigt Hill
#
# Bulk Modulus (GPa) = 42.85660 46.87949 44.86805
# Shear Modulus (GPa) = 34.07218 37.33386 35.70302
#
# Velocity S-wave (km/s) = 4.06629 4.25647 4.16247
# Velocity P-wave (km/s) = 6.54553 6.84884 6.69890
#
# Compressibility (1/GPa) = 0.02333363
#
# Stress axis : x y z
#
# Youngs Moduli (GPa) = 112.78517 80.21896 66.82393
#
# Poissons Ratio (x) = -0.03225 0.17278
# Poissons Ratio (y) = -0.04534 0.28721
# Poissons Ratio (z) = 0.29162 0.34478
#
# Static dielectric constant tensor:
#      x y z
#    x 3.789530 0.000010 -0.258730 
#    y 0.000010 3.778650 0.000000 
#    z -0.258730 0.000000 3.738610 
# 
# 
# High freq. dielectric constant tensor:
#      x y z
#    x 1.809290 0.000000 -0.019440 
#    y 0.000000 1.826330 0.000000 
#    z -0.019440 0.000000 1.803320 
# 
# From -- ./inp_files/15863.got.cif
#   From: 2010.03.12/outbox.cif.g09.slc.cpg/sg4_8_cif.got.tgz:15863.got - 2010.03.31 09:31:35.
