data_PCOD8045888
_publ_section_title
;
Structure prediction by ZEFSAII (Michael W. Deem and Ramdas Pophale) SiO2 
 PCOD8045888
Probable space group: P 21
;
_chemical_formula_sum "Si O2"
_cell_formula_units_Z 14
_cell_length_a 8.680663
_cell_length_b 11.572186
_cell_length_c 7.953806
_cell_angle_alpha 90.000000
_cell_angle_beta 127.376375
_cell_angle_gamma 90.000000
_cell_volume 634.932238
_symmetry_space_group_name_H-M "P 21"
_symmetry_group_IT_number 4
_symmetry_cell_setting 'monoclinic'
loop_
_space_group_symop_operation_xyz
x,y,z
-x,1/2+y,-z
loop_
_atom_site_type_symbol
_atom_site_label
_atom_site_fract_x
_atom_site_fract_y
_atom_site_fract_z
Si Si1 0.875632 0.709330 0.812972
Si Si2 0.374931 0.377940 0.526957
Si Si3 0.295335 0.804629 0.714370
Si Si4 0.464133 0.096590 0.242215
Si Si5 0.411542 0.052729 0.840338
Si Si6 0.692918 0.234087 0.895008
Si Si7 0.881343 0.731066 0.446321
O O1 0.749723 0.830543 0.716440
O O2 0.754697 0.614257 0.836436
O O3 0.908417 0.664680 0.643603
O O4 0.089002 0.722853 0.035395
O O5 0.414843 0.515659 0.546814
O O6 0.579948 0.310146 0.681416
O O7 0.250764 0.345474 0.612995
O O8 0.443542 0.722305 0.716684
O O9 0.084016 0.771394 0.502181
O O10 0.351294 0.935790 0.704677
O O11 0.299176 0.795298 0.918301
O O12 0.473685 0.027204 0.072903
O O13 0.583050 0.111054 0.844305
O O14 0.229575 0.140313 0.745211
#
# Coordination Sequence:
#
# PCOD8045888 Si02
#       7
#     2   2   2   2   2   2   2
#     4   9  21  40  58  87 115 165 205 234 316 360
#     4   9  19  39  61  80 122 159 193 247 305 358
#     4  10  20  35  61  93 118 157 206 251 300 362
#     4  11  22  37  63  93 118 154 214 251 298 369
#     4  10  20  38  63  88 126 159 206 258 299 362
#     4   9  18  41  58  81 119 166 191 250 306 359
#     4   8  20  38  60  82 126 162 197 239 322 352
#
# _framework density 22.049596999999999
#
# number of rings (size 3 to 8) (size 9 to 14) (size 15 to 20)
#    0.857    1.714    1.429    0.000    2.000    1.143 
#    5.143    0.000    0.000    0.000    0.000    0.000 
#    0.000    0.000    0.000    0.000    0.000    0.000 
#
# Total GULP energy -173454.414160 kJ/mol
# GULP energy per Si atom -12389.601011 kJ/mol
# Density = 2.199941 g / cm^3
# Si number density = 22.049597 Si / 1000 Ang^3
#
#
#
# Elastic Constant Matrix: (Units=GPa)
#
#
# Indices 1 2 3 4 5 6 
#
# 1 92.8451 49.0849 33.5903 0.0000 37.9508 0.0000
# 2 49.0849 136.2873 29.3186 0.0000 26.3949 0.0000
# 3 33.5903 29.3186 65.8385 0.0000 39.0800 0.0000
# 4 0.0000 0.0000 0.0000 26.4600 0.0000 7.0424
# 5 37.9508 26.3949 39.0800 0.0000 41.6848 0.0000
# 6 0.0000 0.0000 0.0000 7.0424 0.0000 14.9700
#
#
#
# Elastic Compliance Matrix: (Units=1/GPa)
#
#
# Indices 1 2 3 4 5 6 
#
# 1 0.018959 -0.004046 0.001925 0.000000 -0.016504 0.000000
# 2 -0.004046 0.009277 -0.001728 0.000000 -0.000570 0.000000
# 3 0.001925 -0.001728 0.034648 0.000000 -0.033141 0.000000
# 4 0.000000 0.000000 0.000000 0.043202 0.000000 -0.020324
# 5 -0.016504 -0.000570 -0.033141 0.000000 0.070446 0.000000
# 6 0.000000 0.000000 0.000000 -0.020324 0.000000 0.076361
#
#
# Mechanical properties :
#
#
# Convention : Reuss Voigt Hill
#
# Bulk Modulus (GPa) = 18.12097 57.66207 37.89152
# Shear Modulus (GPa) = 17.92201 28.82143 23.37172
#
# Velocity S-wave (km/s) = 2.85407 3.61933 3.25924
# Velocity P-wave (km/s) = 4.37002 6.60863 5.60228
#
# Compressibility (1/GPa) = 0.05518468
#
# Stress axis : x y z
#
# Youngs Moduli (GPa) = 52.74497 107.79440 28.86192
#
# Poissons Ratio (x) = 0.43615 -0.05556
# Poissons Ratio (y) = 0.21341 0.04989
# Poissons Ratio (z) = -0.10154 0.18632
#
# Static dielectric constant tensor:
#      x y z
#    x 3.683820 0.000000 0.343280 
#    y 0.000000 3.611820 0.000000 
#    z 0.343280 0.000000 3.883100 
# 
# 
# High freq. dielectric constant tensor:
#      x y z
#    x 1.851410 0.000000 0.023080 
#    y 0.000000 1.846360 0.000000 
#    z 0.023080 0.000000 1.852610 
# 
# From -- ./inp_files/5965.got.cif
#   From: 2010.03.12/outbox.cif.g09.slc.cpg/sg4_3_cif.got.tgz:5965.got - 2010.03.31 09:31:35.
