data_PCOD8045133
_publ_section_title
;
Structure prediction by ZEFSAII (Michael W. Deem and Ramdas Pophale) SiO2 
 PCOD8045133
Probable space group: P 2
;
_chemical_formula_sum "Si O2"
_cell_formula_units_Z 14
_cell_length_a 18.320445
_cell_length_b 6.404389
_cell_length_c 9.579768
_cell_angle_alpha 90.000000
_cell_angle_beta 38.342202
_cell_angle_gamma 90.000000
_cell_volume 697.285013
_symmetry_space_group_name_H-M "P 2"
_symmetry_group_IT_number 3
_symmetry_cell_setting 'monoclinic'
loop_
_space_group_symop_operation_xyz
x,y,z
-x,y,-z
loop_
_atom_site_type_symbol
_atom_site_label
_atom_site_fract_x
_atom_site_fract_y
_atom_site_fract_z
Si Si1 0.196276 0.437440 0.614121
Si Si2 0.364658 0.168784 0.541836
Si Si3 0.000000 0.140149 0.500000
Si Si4 0.196282 0.437356 0.297033
Si Si5 0.817104 0.826058 0.178288
Si Si6 0.817092 0.825991 0.870457
Si Si7 0.364670 0.168723 0.864183
Si Si8 0.000000 0.140242 0.000000
O O1 0.306368 0.345453 0.533456
O O2 0.235236 0.480360 0.397138
O O3 0.158084 0.654420 0.741945
O O4 0.084655 0.283817 0.779232
O O5 0.349335 0.236545 0.726011
O O6 0.499990 0.147895 0.295881
O O7 0.305204 0.943853 0.604457
O O8 0.084658 0.283732 0.466802
O O9 0.078903 0.996489 0.281802
O O10 0.158103 0.654280 0.283680
O O11 0.306383 0.345310 0.047481
O O12 0.921097 0.996578 0.018505
O O13 0.812068 0.722167 0.031931
O O14 0.694779 0.943779 0.020121
#
# Coordination Sequence:
#
# PCOD8045133 Si02
#       8
#     2   2   1   2   2   2   2   1
#     4  11  23  37  57  87 118 147 183 232 287 336
#     4   9  20  40  62  82 109 149 194 234 273 327
#     4  10  22  38  58  80 112 152 192 232 274 330
#     4  11  23  37  57  87 118 147 183 232 287 336
#     4  10  21  37  58  83 111 148 192 233 276 331
#     4  10  21  37  58  83 111 148 192 233 276 331
#     4   9  20  40  62  82 109 149 194 234 273 327
#     4  10  22  38  58  80 112 152 192 232 274 330
#
# _framework density 20.077874000000001
#
# number of rings (size 3 to 8) (size 9 to 14) (size 15 to 20)
#    0.000    2.000    0.000    2.571    0.000   13.143 
#    0.000    2.857    0.000    0.000    0.000    0.000 
#    0.000    0.000    0.000    0.000    0.000    0.000 
#
# Total GULP energy -173630.132189 kJ/mol
# GULP energy per Si atom -12402.152299 kJ/mol
# Density = 2.003218 g / cm^3
# Si number density = 20.077874 Si / 1000 Ang^3
#
#
#
# Elastic Constant Matrix: (Units=GPa)
#
#
# Indices 1 2 3 4 5 6 
#
# 1 112.2435 60.4037 70.1627 0.0000 1.7029 0.0000
# 2 60.4037 115.4223 58.6078 0.0000 6.0660 0.0000
# 3 70.1627 58.6078 113.6901 0.0000 -6.3770 0.0000
# 4 0.0000 0.0000 0.0000 21.6549 0.0000 5.9200
# 5 1.7029 6.0660 -6.3770 0.0000 47.8008 0.0000
# 6 0.0000 0.0000 0.0000 5.9200 0.0000 23.4225
#
#
#
# Elastic Compliance Matrix: (Units=1/GPa)
#
#
# Indices 1 2 3 4 5 6 
#
# 1 0.016166 -0.004484 -0.007723 0.000000 -0.001037 0.000000
# 2 -0.004484 0.013239 -0.004174 0.000000 -0.002077 0.000000
# 3 -0.007723 -0.004174 0.015878 0.000000 0.002923 0.000000
# 4 0.000000 0.000000 0.000000 0.049607 0.000000 -0.012538
# 5 -0.001037 -0.002077 0.002923 0.000000 0.021611 0.000000
# 6 0.000000 0.000000 0.000000 -0.012538 0.000000 0.045863
#
#
# Mechanical properties :
#
#
# Convention : Reuss Voigt Hill
#
# Bulk Modulus (GPa) = 79.87092 79.96713 79.91902
# Shear Modulus (GPa) = 25.08801 28.72109 26.90455
#
# Velocity S-wave (km/s) = 3.53871 3.78628 3.66459
# Velocity P-wave (km/s) = 7.52088 7.68306 7.60240
#
# Compressibility (1/GPa) = 0.01252020
#
# Stress axis : x y z
#
# Youngs Moduli (GPa) = 61.85965 75.53438 62.98067
#
# Poissons Ratio (x) = 0.33868 0.48641
# Poissons Ratio (y) = 0.27737 0.26289
# Poissons Ratio (z) = 0.47776 0.31529
#
# Static dielectric constant tensor:
#      x y z
#    x 3.563220 0.000000 -0.139390 
#    y 0.000000 3.574990 0.000000 
#    z -0.139390 0.000000 3.605040 
# 
# 
# High freq. dielectric constant tensor:
#      x y z
#    x 1.781210 0.000000 -0.004050 
#    y 0.000000 1.780920 0.000000 
#    z -0.004050 0.000000 1.782440 
# 
# From -- ./inp_files/8830.got.cif
#   From: 2010.03.12/outbox.cif.g09.slc.cpg/sg3_5_cif.got.tgz:8830.got - 2010.03.31 09:20:49.
