data_PCOD8045851
_publ_section_title
;
Structure prediction by ZEFSAII (Michael W. Deem and Ramdas Pophale) SiO2 
 PCOD8045851
Probable space group: P 21
;
_chemical_formula_sum "Si O2"
_cell_formula_units_Z 14
_cell_length_a 11.998778
_cell_length_b 9.108650
_cell_length_c 6.445420
_cell_angle_alpha 90.000000
_cell_angle_beta 103.556115
_cell_angle_gamma 90.000000
_cell_volume 684.812114
_symmetry_space_group_name_H-M "P 21"
_symmetry_group_IT_number 4
_symmetry_cell_setting 'monoclinic'
loop_
_space_group_symop_operation_xyz
x,y,z
-x,1/2+y,-z
loop_
_atom_site_type_symbol
_atom_site_label
_atom_site_fract_x
_atom_site_fract_y
_atom_site_fract_z
Si Si1 0.097794 0.899510 0.586087
Si Si2 0.415240 0.748454 0.811916
Si Si3 0.620268 0.532196 0.936589
Si Si4 0.801219 0.172367 0.053258
Si Si5 0.118433 0.099377 0.939685
Si Si6 0.295947 0.837546 0.373863
Si Si7 0.965023 0.908985 0.140290
O O1 0.117020 0.774209 0.768554
O O2 0.211851 0.918462 0.498410
O O3 0.987569 0.872474 0.392240
O O4 0.069051 0.050056 0.694717
O O5 0.536315 0.670320 0.898109
O O6 0.321633 0.652254 0.893503
O O7 0.384933 0.744736 0.553719
O O8 0.415722 0.914986 0.902054
O O9 0.624641 0.451347 0.716514
O O10 0.745537 0.599201 0.028861
O O11 0.857238 0.013744 0.056412
O O12 0.781389 0.237574 0.813888
O O13 0.066756 0.255783 0.984388
O O14 0.080234 0.980628 0.095873
#
# Coordination Sequence:
#
# PCOD8045851 Si02
#       7
#     2   2   2   2   2   2   2
#     4  11  19  42  65  90 125 171 207 263 311 372
#     4  10  24  42  71  89 130 165 212 264 316 372
#     4  11  23  45  66  96 125 168 211 265 313 375
#     4  10  22  42  65  93 129 169 208 262 315 377
#     4  12  24  41  65  93 130 167 208 263 317 375
#     4  10  19  43  67  88 132 163 207 256 327 362
#     4  12  25  39  65  95 131 165 215 259 315 379
#
# _framework density 20.443565
#
# number of rings (size 3 to 8) (size 9 to 14) (size 15 to 20)
#    0.000    1.143    5.714    2.571    2.000    3.429 
#    0.000    0.000    0.000    0.000    0.000    0.000 
#    0.000    0.000    0.000    0.000    0.000    0.000 
#
# Total GULP energy -173541.688712 kJ/mol
# GULP energy per Si atom -12395.834908 kJ/mol
# Density = 2.039703 g / cm^3
# Si number density = 20.443565 Si / 1000 Ang^3
#
#
#
# Elastic Constant Matrix: (Units=GPa)
#
#
# Indices 1 2 3 4 5 6 
#
# 1 69.4299 56.4579 20.9678 0.0000 10.6296 0.0000
# 2 56.4579 132.7765 51.6553 0.0000 7.7989 0.0000
# 3 20.9678 51.6553 123.6506 0.0000 5.3724 0.0000
# 4 0.0000 0.0000 0.0000 20.5313 0.0000 2.0530
# 5 10.6296 7.7989 5.3724 0.0000 26.9237 0.0000
# 6 0.0000 0.0000 0.0000 2.0530 0.0000 46.4729
#
#
#
# Elastic Compliance Matrix: (Units=1/GPa)
#
#
# Indices 1 2 3 4 5 6 
#
# 1 0.023054 -0.009569 0.000366 0.000000 -0.006403 0.000000
# 2 -0.009569 0.013060 -0.003866 0.000000 0.000767 0.000000
# 3 0.000366 -0.003866 0.009682 0.000000 -0.000957 0.000000
# 4 0.000000 0.000000 0.000000 0.048922 0.000000 -0.002161
# 5 -0.006403 0.000767 -0.000957 0.000000 0.039639 0.000000
# 6 0.000000 0.000000 0.000000 -0.002161 0.000000 0.021613
#
#
# Mechanical properties :
#
#
# Convention : Reuss Voigt Hill
#
# Bulk Modulus (GPa) = 50.87182 64.89101 57.88141
# Shear Modulus (GPa) = 26.50265 31.90398 29.20332
#
# Velocity S-wave (km/s) = 3.60444 3.95471 3.78363
# Velocity P-wave (km/s) = 6.50082 7.25696 6.88927
#
# Compressibility (1/GPa) = 0.01965725
#
# Stress axis : x y z
#
# Youngs Moduli (GPa) = 43.37630 76.57257 103.28585
#
# Poissons Ratio (x) = 0.73274 -0.03785
# Poissons Ratio (y) = 0.41508 0.39933
# Poissons Ratio (z) = -0.01589 0.29605
#
# Static dielectric constant tensor:
#      x y z
#    x 3.571810 0.000000 -0.030280 
#    y 0.000000 3.503660 0.000000 
#    z -0.030280 0.000000 4.051450 
# 
# 
# High freq. dielectric constant tensor:
#      x y z
#    x 1.793640 0.000000 -0.003130 
#    y 0.000000 1.781470 0.000000 
#    z -0.003130 0.000000 1.813440 
# 
# From -- ./inp_files/2441.got.cif
#   From: 2010.03.12/outbox.cif.g09.slc.cpg/sg4_2_cif.got.tgz:2441.got - 2010.03.31 09:31:35.
