data_PCOD8045638
_publ_section_title
;
Structure prediction by ZEFSAII (Michael W. Deem and Ramdas Pophale) SiO2 
 PCOD8045638
Probable space group: P 21
;
_chemical_formula_sum "Si O2"
_cell_formula_units_Z 12
_cell_length_a 17.098937
_cell_length_b 5.128638
_cell_length_c 10.664794
_cell_angle_alpha 90.000000
_cell_angle_beta 140.867190
_cell_angle_gamma 90.000000
_cell_volume 590.249519
_symmetry_space_group_name_H-M "P 21"
_symmetry_group_IT_number 4
_symmetry_cell_setting 'monoclinic'
loop_
_space_group_symop_operation_xyz
x,y,z
-x,1/2+y,-z
loop_
_atom_site_type_symbol
_atom_site_label
_atom_site_fract_x
_atom_site_fract_y
_atom_site_fract_z
Si Si1 0.464837 0.809980 0.027316
Si Si2 0.008864 0.121503 0.677691
Si Si3 0.811733 0.331828 0.258500
Si Si4 0.444219 0.236179 0.587540
Si Si5 0.114036 0.629637 0.897427
Si Si6 0.659158 0.233978 0.658431
O O1 0.325778 0.915789 0.875377
O O2 0.460818 0.559534 0.931542
O O3 0.529472 0.707054 0.233511
O O4 0.874895 0.189276 0.455773
O O5 0.053258 0.345417 0.829252
O O6 0.105631 0.085162 0.680159
O O7 0.006675 0.852950 0.755299
O O8 0.804851 0.138473 0.130145
O O9 0.573283 0.222797 0.674133
O O10 0.377869 0.510910 0.484570
O O11 0.352430 0.008983 0.426590
O O12 0.199727 0.687573 0.123605
#
# Coordination Sequence:
#
# PCOD8045638 Si02
#       6
#     2   2   2   2   2   2
#     4  12  27  39  57  82 124 169 187 221 273 363
#     4  10  19  31  57  82 118 140 176 257 289 331
#     4  10  21  35  55  85 120 145 195 230 293 344
#     4  10  20  36  51  81 108 149 197 221 286 330
#     4  10  18  31  53  89 109 136 173 236 313 326
#     4  10  19  32  59  79 111 141 178 259 282 326
#
# _framework density 20.330383000000001
#
# number of rings (size 3 to 8) (size 9 to 14) (size 15 to 20)
#    1.000    0.667    3.333    2.000    2.333    1.333 
#    0.000    0.000    0.000    0.000    0.000   23.333 
#    0.000    0.000    0.000    0.000    0.000    0.000 
#
# Total GULP energy -148749.110214 kJ/mol
# GULP energy per Si atom -12395.759184 kJ/mol
# Density = 2.028411 g / cm^3
# Si number density = 20.330383 Si / 1000 Ang^3
#
#
#
# Elastic Constant Matrix: (Units=GPa)
#
#
# Indices 1 2 3 4 5 6 
#
# 1 28.9418 7.7826 13.6732 0.0000 -7.9461 0.0000
# 2 7.7826 109.3387 11.1548 0.0000 -6.3835 0.0000
# 3 13.6732 11.1548 108.4401 0.0000 -5.9611 0.0000
# 4 0.0000 0.0000 0.0000 25.8730 0.0000 -2.1399
# 5 -7.9461 -6.3835 -5.9611 0.0000 16.0521 0.0000
# 6 0.0000 0.0000 0.0000 -2.1399 0.0000 16.4289
#
#
#
# Elastic Compliance Matrix: (Units=1/GPa)
#
#
# Indices 1 2 3 4 5 6 
#
# 1 0.042027 -0.001480 -0.004120 0.000000 0.018685 0.000000
# 2 -0.001480 0.009480 -0.000634 0.000000 0.002801 0.000000
# 3 -0.004120 -0.000634 0.009882 0.000000 0.001378 0.000000
# 4 0.000000 0.000000 0.000000 0.039071 0.000000 0.005089
# 5 0.018685 0.002801 0.001378 0.000000 0.073172 0.000000
# 6 0.000000 0.000000 0.000000 0.005089 0.000000 0.061531
#
#
# Mechanical properties :
#
#
# Convention : Reuss Voigt Hill
#
# Bulk Modulus (GPa) = 20.44175 34.66018 27.55097
# Shear Modulus (GPa) = 18.94383 25.94482 22.44432
#
# Velocity S-wave (km/s) = 3.05585 3.57621 3.32622
# Velocity P-wave (km/s) = 4.74632 5.84276 5.32285
#
# Compressibility (1/GPa) = 0.04891949
#
# Stress axis : x y z
#
# Youngs Moduli (GPa) = 23.79449 105.49039 101.19250
#
# Poissons Ratio (x) = 0.15615 0.41688
# Poissons Ratio (y) = 0.03522 0.06421
# Poissons Ratio (z) = 0.09803 0.06693
#
# Static dielectric constant tensor:
#      x y z
#    x 3.112040 0.000000 -0.058110 
#    y 0.000000 3.648080 0.000000 
#    z -0.058110 0.000000 3.575990 
# 
# 
# High freq. dielectric constant tensor:
#      x y z
#    x 1.728590 0.000000 -0.006020 
#    y 0.000000 1.803090 0.000000 
#    z -0.006020 0.000000 1.806080 
# 
# From -- ./inp_files/9092.got.cif
#   From: 2010.03.12/outbox.cif.g09.slc.cpg/sg4_5_cif.got.tgz:9092.got - 2010.03.31 09:31:35.
