data_PCOD8045555
_publ_section_title
;
Structure prediction by ZEFSAII (Michael W. Deem and Ramdas Pophale) SiO2 
 PCOD8045555
Probable space group: P 2
;
_chemical_formula_sum "Si O2"
_cell_formula_units_Z 10
_cell_length_a 7.552319
_cell_length_b 5.345331
_cell_length_c 15.305505
_cell_angle_alpha 90.000000
_cell_angle_beta 140.606885
_cell_angle_gamma 90.000000
_cell_volume 392.128517
_symmetry_space_group_name_H-M "P 2"
_symmetry_group_IT_number 3
_symmetry_cell_setting 'monoclinic'
loop_
_space_group_symop_operation_xyz
x,y,z
-x,y,-z
loop_
_atom_site_type_symbol
_atom_site_label
_atom_site_fract_x
_atom_site_fract_y
_atom_site_fract_z
Si Si1 0.500000 0.457650 0.500000
Si Si2 0.159644 0.068694 0.754853
Si Si3 0.517602 0.580966 0.108674
Si Si4 0.242180 0.111726 0.254516
Si Si5 0.780805 0.830709 0.488784
Si Si6 0.000000 0.385379 0.000000
O O1 0.352199 0.314294 0.365243
O O2 0.744576 0.623988 0.550071
O O3 0.344012 0.828395 0.797713
O O4 0.905907 0.075121 0.587108
O O5 0.324215 0.325268 0.806821
O O6 0.045895 0.017769 0.810364
O O7 0.206365 0.567630 0.027364
O O8 0.500000 0.613123 0.000000
O O9 0.176390 0.216906 0.134332
O O10 0.478815 0.898747 0.332435
O O11 0.000000 0.734503 0.500000
#
# Coordination Sequence:
#
# PCOD8045555 Si02
#       6
#     1   2   2   2   2   1
#     4  12  24  50  76 114 160 210 268 340 406 470
#     4  12  25  52  79 115 160 213 269 334 408 471
#     4  12  28  50  79 114 164 213 265 340 401 486
#     4  12  26  52  79 114 166 215 268 341 408 490
#     4  12  27  46  80 116 154 213 274 341 402 482
#     4  12  30  52  80 122 164 218 278 326 416 500
#
# _framework density 25.501842
#
# number of rings (size 3 to 8) (size 9 to 14) (size 15 to 20)
#    0.000    0.000    6.000    3.000    2.800    1.600 
#    0.000    0.000    0.000    0.000    0.000    0.000 
#    0.000    0.000    0.000    0.000    0.000    0.000 
#
# Total GULP energy -124024.579551 kJ/mol
# GULP energy per Si atom -12402.457955 kJ/mol
# Density = 2.544380 g / cm^3
# Si number density = 25.501842 Si / 1000 Ang^3
#
#
#
# Elastic Constant Matrix: (Units=GPa)
#
#
# Indices 1 2 3 4 5 6 
#
# 1 186.6077 28.2110 15.9499 0.0000 6.7018 0.0000
# 2 28.2110 119.1837 29.0197 0.0000 14.3892 0.0000
# 3 15.9499 29.0197 118.2788 0.0000 -11.9555 0.0000
# 4 0.0000 0.0000 0.0000 21.7614 0.0000 27.3307
# 5 6.7018 14.3892 -11.9555 0.0000 46.4335 0.0000
# 6 0.0000 0.0000 0.0000 27.3307 0.0000 -11.8829
#
#
#
# Elastic Compliance Matrix: (Units=1/GPa)
#
#
# Indices 1 2 3 4 5 6 
#
# 1 0.005596 -0.001121 -0.000540 0.000000 -0.000600 0.000000
# 2 -0.001121 0.009710 -0.002586 0.000000 -0.003513 0.000000
# 3 -0.000540 -0.002586 0.009498 0.000000 0.003325 0.000000
# 4 0.000000 0.000000 0.000000 0.011817 0.000000 0.027180
# 5 -0.000600 -0.003513 0.003325 0.000000 0.023567 0.000000
# 6 0.000000 0.000000 0.000000 0.027180 0.000000 -0.021641
#
#
# Mechanical properties :
#
#
# Convention : Reuss Voigt Hill
#
# Bulk Modulus (GPa) = 61.31469 63.38128 62.34798
# Shear Modulus (GPa) = 95.27856 34.65503 64.96679
#
# Velocity S-wave (km/s) = 6.11903 3.69036 5.05279
# Velocity P-wave (km/s) = 8.60342 6.56246 7.65130
#
# Compressibility (1/GPa) = 0.01630930
#
# Stress axis : x y z
#
# Youngs Moduli (GPa) = 178.70030 102.99190 105.28462
#
# Poissons Ratio (x) = 0.11542 0.05688
# Poissons Ratio (y) = 0.20026 0.27229
# Poissons Ratio (z) = 0.09655 0.26636
#
# Static dielectric constant tensor:
#      x y z
#    x 5.295360 0.000000 0.426980 
#    y 0.000000 4.466840 0.000000 
#    z 0.426980 0.000000 4.796390 
# 
# 
# High freq. dielectric constant tensor:
#      x y z
#    x 2.040310 0.000000 0.006860 
#    y 0.000000 2.007720 0.000000 
#    z 0.006860 0.000000 2.025690 
# 
# From -- ./inp_files/13229.got.cif
#   From: 2010.03.12/outbox.cif.g09.slc.cpg/sg3_7_cif.got.tgz:13229.got - 2010.03.31 09:20:49.
