data_PCOD8045346
_publ_section_title
;
Structure prediction by ZEFSAII (Michael W. Deem and Ramdas Pophale) SiO2 
 PCOD8045346
Probable space group: P 2
;
_chemical_formula_sum "Si O2"
_cell_formula_units_Z 14
_cell_length_a 16.377133
_cell_length_b 6.472214
_cell_length_c 8.856146
_cell_angle_alpha 90.000000
_cell_angle_beta 39.723958
_cell_angle_gamma 90.000000
_cell_volume 599.925308
_symmetry_space_group_name_H-M "P 2"
_symmetry_group_IT_number 3
_symmetry_cell_setting 'monoclinic'
loop_
_space_group_symop_operation_xyz
x,y,z
-x,y,-z
loop_
_atom_site_type_symbol
_atom_site_label
_atom_site_fract_x
_atom_site_fract_y
_atom_site_fract_z
Si Si1 0.768111 0.766130 0.151377
Si Si2 0.500000 0.103936 0.000000
Si Si3 0.714110 0.455764 0.680500
Si Si4 0.568602 0.760366 0.672100
Si Si5 0.069796 0.171093 0.628294
Si Si6 0.809786 0.104784 0.854386
Si Si7 0.664055 0.489336 0.074012
Si Si8 0.000000 0.892045 0.000000
O O1 0.654007 0.856176 0.416732
O O2 0.734472 0.544279 0.130480
O O3 0.897672 0.748503 0.061672
O O4 0.779527 0.894298 0.981002
O O5 0.498035 0.949207 0.857239
O O6 0.622084 0.253663 0.818826
O O7 0.663097 0.634292 0.646267
O O8 0.855542 0.380932 0.429817
O O9 0.729137 0.561356 0.823857
O O10 0.477016 0.586451 0.728602
O O11 0.148360 0.063659 0.378397
O O12 0.925974 0.220224 0.778413
O O13 0.072311 0.028299 0.772286
O O14 0.679239 0.240171 0.048637
#
# Coordination Sequence:
#
# PCOD8045346 Si02
#       8
#     2   1   2   2   2   2   2   1
#     4  11  26  42  67  95 140 172 227 287 332 403
#     4  12  22  42  70  94 134 184 224 286 346 396
#     4  11  23  43  71  96 134 182 223 290 334 410
#     4  12  25  43  64 107 133 178 236 274 340 415
#     4   9  20  41  73  96 131 171 237 267 342 409
#     4   9  22  45  66  97 131 185 219 282 339 398
#     4  11  23  43  63  98 135 173 231 270 340 408
#     4  10  22  46  66 108 126 178 232 280 342 404
#
# _framework density 23.336237000000001
#
# number of rings (size 3 to 8) (size 9 to 14) (size 15 to 20)
#    0.000    1.429    2.857    1.286    4.000    5.714 
#    2.571   10.714    0.000    0.000    0.000    0.000 
#    0.000    0.000    0.000    0.000    0.000    0.000 
#
# Total GULP energy -173441.646995 kJ/mol
# GULP energy per Si atom -12388.689071 kJ/mol
# Density = 2.328312 g / cm^3
# Si number density = 23.336237 Si / 1000 Ang^3
#
#
#
# Elastic Constant Matrix: (Units=GPa)
#
#
# Indices 1 2 3 4 5 6 
#
# 1 90.0065 7.9205 25.0884 0.0000 27.8389 0.0000
# 2 7.9205 39.6877 29.8479 0.0000 13.3865 0.0000
# 3 25.0884 29.8479 106.1163 0.0000 12.4348 0.0000
# 4 0.0000 0.0000 0.0000 35.9821 0.0000 -6.2801
# 5 27.8389 13.3865 12.4348 0.0000 32.8993 0.0000
# 6 0.0000 0.0000 0.0000 -6.2801 0.0000 38.3085
#
#
#
# Elastic Compliance Matrix: (Units=1/GPa)
#
#
# Indices 1 2 3 4 5 6 
#
# 1 0.015966 0.003947 -0.003258 0.000000 -0.013884 0.000000
# 2 0.003947 0.036459 -0.009478 0.000000 -0.014592 0.000000
# 3 -0.003258 -0.009478 0.012645 0.000000 0.001834 0.000000
# 4 0.000000 0.000000 0.000000 0.028610 0.000000 0.004690
# 5 -0.013884 -0.014592 0.001834 0.000000 0.047389 0.000000
# 6 0.000000 0.000000 0.000000 0.004690 0.000000 0.026873
#
#
# Mechanical properties :
#
#
# Convention : Reuss Voigt Hill
#
# Bulk Modulus (GPa) = 21.05642 40.16936 30.61289
# Shear Modulus (GPa) = 24.83233 32.96823 28.90028
#
# Velocity S-wave (km/s) = 3.26561 3.76273 3.52295
# Velocity P-wave (km/s) = 4.82303 6.01067 5.44930
#
# Compressibility (1/GPa) = 0.04749146
#
# Stress axis : x y z
#
# Youngs Moduli (GPa) = 62.63505 27.42784 79.08289
#
# Poissons Ratio (x) = -0.10826 0.25764
# Poissons Ratio (y) = -0.24722 0.74957
# Poissons Ratio (z) = 0.20405 0.25997
#
# Static dielectric constant tensor:
#      x y z
#    x 4.516690 0.000000 0.094770 
#    y 0.000000 3.890500 0.000000 
#    z 0.094770 0.000000 4.335350 
# 
# 
# High freq. dielectric constant tensor:
#      x y z
#    x 1.944980 0.000000 0.008530 
#    y 0.000000 1.894840 0.000000 
#    z 0.008530 0.000000 1.921130 
# 
# From -- ./inp_files/8834.got.cif
#   From: 2010.03.12/outbox.cif.g09.slc.cpg/sg3_5_cif.got.tgz:8834.got - 2010.03.31 09:20:49.
