data_PCOD8045748
_publ_section_title
;
Structure prediction by ZEFSAII (Michael W. Deem and Ramdas Pophale) SiO2 
 PCOD8045748
Probable space group: P 21
;
_chemical_formula_sum "Si O2"
_cell_formula_units_Z 16
_cell_length_a 9.466212
_cell_length_b 13.828444
_cell_length_c 7.607746
_cell_angle_alpha 90.000000
_cell_angle_beta 65.012802
_cell_angle_gamma 90.000000
_cell_volume 902.664772
_symmetry_space_group_name_H-M "P 21"
_symmetry_group_IT_number 4
_symmetry_cell_setting 'monoclinic'
loop_
_space_group_symop_operation_xyz
x,y,z
-x,1/2+y,-z
loop_
_atom_site_type_symbol
_atom_site_label
_atom_site_fract_x
_atom_site_fract_y
_atom_site_fract_z
Si Si1 0.690869 0.198210 0.036201
Si Si2 0.605049 0.739672 0.629177
Si Si3 0.306835 0.747711 0.592745
Si Si4 0.028537 0.818283 0.150347
Si Si5 0.927787 0.414063 0.232608
Si Si6 0.194941 0.611082 0.354734
Si Si7 0.118173 0.129940 0.654379
Si Si8 0.149161 0.402394 0.440610
O O1 0.729038 0.110990 0.882383
O O2 0.788593 0.291933 0.915676
O O3 0.504129 0.215369 0.143574
O O4 0.751700 0.183007 0.207173
O O5 0.492736 0.765528 0.521681
O O6 0.713199 0.648497 0.521322
O O7 0.708375 0.829722 0.628389
O O8 0.222313 0.851273 0.634475
O O9 0.275443 0.692899 0.428878
O O10 0.927234 0.718304 0.190394
O O11 0.975755 0.882132 0.342371
O O12 0.003171 0.881777 0.990417
O O13 0.879043 0.526995 0.248431
O O14 0.065381 0.396640 0.297746
O O15 0.224041 0.507985 0.428320
O O16 0.009644 0.630289 0.435805
#
# Coordination Sequence:
#
# PCOD8045748 Si02
#       8
#     2   2   2   2   2   2   2   2
#     4   8  18  35  53  74 110 141 174 223 268 318
#     4   9  19  38  53  77 116 139 172 236 269 313
#     4   9  19  34  58  75 111 147 174 218 282 320
#     4   9  18  36  55  77 108 143 178 226 271 318
#     4  10  19  35  59  80 103 149 184 218 275 327
#     4  10  19  36  58  78 106 149 182 217 274 326
#     4   9  19  35  58  80 111 138 187 233 259 319
#     4  10  21  35  56  83 109 138 187 231 260 321
#
# _framework density 17.725297000000001
#
# number of rings (size 3 to 8) (size 9 to 14) (size 15 to 20)
#    0.750    2.000    0.000    2.250    0.000    5.000 
#    4.500    3.750    0.000    0.000    0.000    0.000 
#    0.000    0.000    0.000    0.000    0.000    0.000 
#
# Total GULP energy -198229.422246 kJ/mol
# GULP energy per Si atom -12389.338890 kJ/mol
# Density = 1.768495 g / cm^3
# Si number density = 17.725297 Si / 1000 Ang^3
#
#
#
# Elastic Constant Matrix: (Units=GPa)
#
#
# Indices 1 2 3 4 5 6 
#
# 1 79.7782 42.4309 39.4619 0.0000 -14.7447 0.0000
# 2 42.4309 127.7302 57.0100 0.0000 0.3848 0.0000
# 3 39.4619 57.0100 111.2624 0.0000 -11.9040 0.0000
# 4 0.0000 0.0000 0.0000 27.0124 0.0000 6.7488
# 5 -14.7447 0.3848 -11.9040 0.0000 32.5584 0.0000
# 6 0.0000 0.0000 0.0000 6.7488 0.0000 18.1903
#
#
#
# Elastic Compliance Matrix: (Units=1/GPa)
#
#
# Indices 1 2 3 4 5 6 
#
# 1 0.017819 -0.004473 -0.003288 0.000000 0.006920 0.000000
# 2 -0.004473 0.011413 -0.004676 0.000000 -0.003870 0.000000
# 3 -0.003288 -0.004676 0.012901 0.000000 0.003283 0.000000
# 4 0.000000 0.000000 0.000000 0.040802 0.000000 -0.015138
# 5 0.006920 -0.003870 0.003283 0.000000 0.035094 0.000000
# 6 0.000000 0.000000 0.000000 -0.015138 0.000000 0.060591
#
#
# Mechanical properties :
#
#
# Convention : Reuss Voigt Hill
#
# Bulk Modulus (GPa) = 57.93490 66.28626 62.11058
# Shear Modulus (GPa) = 23.89525 27.54341 25.71933
#
# Velocity S-wave (km/s) = 3.67561 3.94624 3.81333
# Velocity P-wave (km/s) = 7.12526 7.63160 7.38277
#
# Compressibility (1/GPa) = 0.01726075
#
# Stress axis : x y z
#
# Youngs Moduli (GPa) = 56.12014 87.61590 77.51355
#
# Poissons Ratio (x) = 0.39188 0.25484
# Poissons Ratio (y) = 0.25101 0.36244
# Poissons Ratio (z) = 0.18451 0.40968
#
# Static dielectric constant tensor:
#      x y z
#    x 3.176520 0.000000 -0.080860 
#    y 0.000000 3.289580 0.000000 
#    z -0.080860 0.000000 3.312210 
# 
# 
# High freq. dielectric constant tensor:
#      x y z
#    x 1.673930 0.000000 -0.005270 
#    y 0.000000 1.677140 0.000000 
#    z -0.005270 0.000000 1.682070 
# 
# From -- ./inp_files/6222.got.cif
#   From: 2010.03.12/outbox.cif.g09.slc.cpg/sg4_4_cif.got.tgz:6222.got - 2010.03.31 09:31:35.
