data_PCOD8045376
_publ_section_title
;
Structure prediction by ZEFSAII (Michael W. Deem and Ramdas Pophale) SiO2 
 PCOD8045376
Probable space group: P 2
;
_chemical_formula_sum "Si O2"
_cell_formula_units_Z 14
_cell_length_a 9.679034
_cell_length_b 5.579562
_cell_length_c 19.999995
_cell_angle_alpha 90.000000
_cell_angle_beta 145.977958
_cell_angle_gamma 90.000000
_cell_volume 604.325971
_symmetry_space_group_name_H-M "P 2"
_symmetry_group_IT_number 3
_symmetry_cell_setting 'monoclinic'
loop_
_space_group_symop_operation_xyz
x,y,z
-x,y,-z
loop_
_atom_site_type_symbol
_atom_site_label
_atom_site_fract_x
_atom_site_fract_y
_atom_site_fract_z
Si Si1 0.170530 0.242990 0.741563
Si Si2 0.172762 0.051644 0.511263
Si Si3 0.983593 0.088935 0.797351
Si Si4 0.612167 0.356083 0.726670
Si Si5 0.573836 0.733101 0.602467
Si Si6 0.345014 0.998406 0.049587
Si Si7 0.618527 0.494735 0.875707
O O1 0.356158 0.015019 0.827291
O O2 0.331334 0.476125 0.784565
O O3 0.974980 0.191292 0.605287
O O4 0.043170 0.285392 0.763146
O O5 0.344133 0.235498 0.621094
O O6 0.000000 0.936807 0.500000
O O7 0.338169 0.851982 0.543245
O O8 0.832395 0.167860 0.803107
O O9 0.815483 0.896149 0.691760
O O10 0.239217 0.988799 0.931500
O O11 0.647660 0.507192 0.674485
O O12 0.645560 0.510033 0.806691
O O13 0.500000 0.641692 0.500000
O O14 0.244715 0.247867 0.044798
O O15 0.264938 0.745151 0.051653
#
# Coordination Sequence:
#
# PCOD8045376 Si02
#       7
#     2   2   2   2   2   2   2
#     4  10  23  44  72 104 142 188 238 292 353 429
#     4  11  22  45  68  99 140 182 241 296 357 427
#     4  11  25  48  68 104 144 189 236 300 360 432
#     4  11  27  42  70 106 141 189 238 299 362 432
#     4  11  26  42  70 103 139 190 237 297 365 434
#     4  10  25  48  74 105 143 188 247 290 359 420
#     4  10  25  48  72 106 140 188 241 295 350 426
#
# _framework density 23.166304
#
# number of rings (size 3 to 8) (size 9 to 14) (size 15 to 20)
#    0.857    0.571    2.857    0.429   10.000    3.429 
#    2.571    0.000    0.000    0.000    0.000    0.000 
#    0.000    0.000    0.000    0.000    0.000    0.000 
#
# Total GULP energy -173447.373241 kJ/mol
# GULP energy per Si atom -12389.098089 kJ/mol
# Density = 2.311358 g / cm^3
# Si number density = 23.166304 Si / 1000 Ang^3
#
#
#
# Elastic Constant Matrix: (Units=GPa)
#
#
# Indices 1 2 3 4 5 6 
#
# 1 100.4097 9.1912 21.8964 0.0000 -17.8525 0.0000
# 2 9.1912 91.5771 3.8579 0.0000 -10.4336 0.0000
# 3 21.8964 3.8579 77.9065 0.0000 -11.9106 0.0000
# 4 0.0000 0.0000 0.0000 13.4320 0.0000 -17.7122
# 5 -17.8525 -10.4336 -11.9106 0.0000 39.9849 0.0000
# 6 0.0000 0.0000 0.0000 -17.7122 0.0000 22.7733
#
#
#
# Elastic Compliance Matrix: (Units=1/GPa)
#
#
# Indices 1 2 3 4 5 6 
#
# 1 0.011296 -0.000555 -0.002513 0.000000 0.004150 0.000000
# 2 -0.000555 0.011283 0.000010 0.000000 0.002699 0.000000
# 3 -0.002513 0.000010 0.014009 0.000000 0.003053 0.000000
# 4 0.000000 0.000000 0.000000 -2.908405 0.000000 -2.262039
# 5 0.004150 0.002699 0.003053 0.000000 0.028476 0.000000
# 6 0.000000 0.000000 0.000000 -2.262039 0.000000 -1.715410
#
#
# Mechanical properties :
#
#
# Convention : Reuss Voigt Hill
#
# Bulk Modulus (GPa) = 32.81805 37.75381 35.28593
# Shear Modulus (GPa) = -1.10072 30.90123 14.90025
#
# Velocity S-wave (km/s) = -0.69005 3.65620 2.53886
# Velocity P-wave (km/s) = 3.68268 5.84431 4.88458
#
# Compressibility (1/GPa) = 0.03047103
#
# Stress axis : x y z
#
# Youngs Moduli (GPa) = 88.52811 88.63222 71.38522
#
# Poissons Ratio (x) = 0.04919 0.17938
# Poissons Ratio (y) = 0.04914 -0.00071
# Poissons Ratio (z) = 0.22246 -0.00088
#
# Static dielectric constant tensor:
#      x y z
#    x 4.071790 0.000000 0.082280 
#    y 0.000000 3.870510 0.000000 
#    z 0.082280 0.000000 4.199130 
# 
# 
# High freq. dielectric constant tensor:
#      x y z
#    x 1.921890 0.000000 -0.002100 
#    y 0.000000 1.883940 0.000000 
#    z -0.002100 0.000000 1.930170 
# 
# From -- ./inp_files/14898.got.cif
#   From: 2010.03.12/outbox.cif.g09.slc.cpg/sg3_8_cif.got.tgz:14898.got - 2010.03.31 09:20:49.
