data_PCOD8045275
_publ_section_title
;
Structure prediction by ZEFSAII (Michael W. Deem and Ramdas Pophale) SiO2 
 PCOD8045275
Probable space group: P 2
;
_chemical_formula_sum "Si O2"
_cell_formula_units_Z 15
_cell_length_a 17.324679
_cell_length_b 6.256939
_cell_length_c 8.886453
_cell_angle_alpha 90.000000
_cell_angle_beta 134.697128
_cell_angle_gamma 90.000000
_cell_volume 684.737645
_symmetry_space_group_name_H-M "P 2"
_symmetry_group_IT_number 3
_symmetry_cell_setting 'monoclinic'
loop_
_space_group_symop_operation_xyz
x,y,z
-x,y,-z
loop_
_atom_site_type_symbol
_atom_site_label
_atom_site_fract_x
_atom_site_fract_y
_atom_site_fract_z
Si Si1 0.150671 0.942710 0.871532
Si Si2 0.876586 0.060091 0.850877
Si Si3 0.449095 0.135753 0.773310
Si Si4 0.656054 0.253646 0.885613
Si Si5 0.803971 0.553132 0.275944
Si Si6 0.000000 0.256267 0.500000
Si Si7 0.703770 0.398893 0.631577
Si Si8 0.275195 0.787431 0.534377
O O1 0.147186 0.726420 0.772048
O O2 0.136110 0.892898 0.028073
O O3 0.053600 0.105601 0.698532
O O4 0.266376 0.050704 0.006029
O O5 0.821196 0.957443 0.627341
O O6 0.819651 0.284885 0.812809
O O7 0.000000 0.119144 0.000000
O O8 0.542695 0.146991 0.776970
O O9 0.357422 0.299806 0.595898
O O10 0.392205 0.903238 0.714087
O O11 0.500000 0.210482 0.000000
O O12 0.640076 0.367209 0.701386
O O13 0.701779 0.430340 0.063735
O O14 0.905350 0.396603 0.450095
O O15 0.758714 0.657655 0.365143
O O16 0.717406 0.645183 0.606539
#
# Coordination Sequence:
#
# PCOD8045275 Si02
#       8
#     2   2   2   2   2   1   2   2
#     4  10  22  41  62  91 129 170 226 268 330 401
#     4  10  24  40  64  91 130 177 216 278 335 391
#     4  11  23  42  66  95 132 173 218 275 338 386
#     4  10  22  43  67  94 130 175 219 278 331 395
#     4  11  23  40  67  98 134 176 224 279 332 406
#     4  10  24  36  64  92 132 174 224 274 332 396
#     4  10  23  44  65  96 131 170 226 272 333 404
#     4  11  25  41  65 100 135 168 227 278 333 404
#
# _framework density 21.906199999999998
#
# number of rings (size 3 to 8) (size 9 to 14) (size 15 to 20)
#    0.000    1.600    0.000    3.200    5.600    5.333 
#    0.000    5.333    0.000    0.000    0.000    0.000 
#    0.000    0.000    0.000    0.000    0.000    0.000 
#
# Total GULP energy -185979.037268 kJ/mol
# GULP energy per Si atom -12398.602485 kJ/mol
# Density = 2.185634 g / cm^3
# Si number density = 21.906200 Si / 1000 Ang^3
#
#
#
# Elastic Constant Matrix: (Units=GPa)
#
#
# Indices 1 2 3 4 5 6 
#
# 1 124.8191 31.8238 53.5454 0.0000 9.9230 0.0000
# 2 31.8238 62.0164 25.0745 0.0000 10.3532 0.0000
# 3 53.5454 25.0745 108.5848 0.0000 5.9301 0.0000
# 4 0.0000 0.0000 0.0000 34.3577 0.0000 -4.1703
# 5 9.9230 10.3532 5.9301 0.0000 38.4507 0.0000
# 6 0.0000 0.0000 0.0000 -4.1703 0.0000 34.0431
#
#
#
# Elastic Compliance Matrix: (Units=1/GPa)
#
#
# Indices 1 2 3 4 5 6 
#
# 1 0.010957 -0.003606 -0.004507 0.000000 -0.001161 0.000000
# 2 -0.003606 0.019668 -0.002546 0.000000 -0.003972 0.000000
# 3 -0.004507 -0.002546 0.012020 0.000000 -0.000005 0.000000
# 4 0.000000 0.000000 0.000000 0.029545 0.000000 0.003619
# 5 -0.001161 -0.003972 -0.000005 0.000000 0.027377 0.000000
# 6 0.000000 0.000000 0.000000 0.003619 0.000000 0.029818
#
#
# Mechanical properties :
#
#
# Convention : Reuss Voigt Hill
#
# Bulk Modulus (GPa) = 46.89170 57.36751 52.12960
# Shear Modulus (GPa) = 31.68308 33.70209 32.69258
#
# Velocity S-wave (km/s) = 3.80716 3.92659 3.86734
# Velocity P-wave (km/s) = 6.38577 6.84121 6.61741
#
# Compressibility (1/GPa) = 0.02132574
#
# Stress axis : x y z
#
# Youngs Moduli (GPa) = 91.26796 50.84361 83.19413
#
# Poissons Ratio (x) = 0.18336 0.37494
# Poissons Ratio (y) = 0.32915 0.21185
# Poissons Ratio (z) = 0.41132 0.12947
#
# Static dielectric constant tensor:
#      x y z
#    x 3.862170 0.000000 0.024560 
#    y 0.000000 3.876820 0.000000 
#    z 0.024560 0.000000 4.162920 
# 
# 
# High freq. dielectric constant tensor:
#      x y z
#    x 1.860310 0.000000 0.000900 
#    y 0.000000 1.854470 0.000000 
#    z 0.000900 0.000000 1.877220 
# 
# From -- ./inp_files/8869.got.cif
#   From: 2010.03.12/outbox.cif.g09.slc.cpg/sg3_5_cif.got.tgz:8869.got - 2010.03.31 09:20:49.
