data_PCOD8045696
_publ_section_title
;
Structure prediction by ZEFSAII (Michael W. Deem and Ramdas Pophale) SiO2 
 PCOD8045696
Probable space group: P 21
;
_chemical_formula_sum "Si O2"
_cell_formula_units_Z 10
_cell_length_a 14.060486
_cell_length_b 8.511974
_cell_length_c 6.977804
_cell_angle_alpha 90.000000
_cell_angle_beta 140.998664
_cell_angle_gamma 90.000000
_cell_volume 525.573786
_symmetry_space_group_name_H-M "P 21"
_symmetry_group_IT_number 4
_symmetry_cell_setting 'monoclinic'
loop_
_space_group_symop_operation_xyz
x,y,z
-x,1/2+y,-z
loop_
_atom_site_type_symbol
_atom_site_label
_atom_site_fract_x
_atom_site_fract_y
_atom_site_fract_z
Si Si1 0.933521 0.154790 0.282638
Si Si2 0.819689 0.492654 0.126819
Si Si3 0.331894 0.439683 0.118675
Si Si4 0.248213 0.206602 0.667357
Si Si5 0.383317 0.153991 0.472825
O O1 0.837738 0.308078 0.185866
O O2 0.065883 0.199644 0.336142
O O3 0.019899 0.086322 0.606938
O O4 0.817804 0.022223 0.025942
O O5 0.712582 0.557332 0.132672
O O6 0.743563 0.533640 0.804547
O O7 0.391810 0.312061 0.361999
O O8 0.455149 0.572700 0.276930
O O9 0.290159 0.364716 0.848249
O O10 0.344977 0.200178 0.628650
#
# Coordination Sequence:
#
# PCOD8045696 Si02
#       5
#     2   2   2   2   2
#     4  10  18  42  62  82 126 151 189 248 288 341
#     4   9  19  38  60  86 117 154 191 239 289 341
#     4  11  23  40  59  88 121 154 191 246 291 340
#     4   9  21  39  60  85 116 154 198 235 286 348
#     4  11  23  39  61  87 120 153 199 236 294 350
#
# _framework density 19.026826
#
# number of rings (size 3 to 8) (size 9 to 14) (size 15 to 20)
#    1.200    0.800    2.000    1.200    0.000    6.400 
#    0.000    0.000    0.000    0.000    0.000    0.000 
#    0.000    0.000    0.000    0.000    0.000    0.000 
#
# Total GULP energy -123897.360273 kJ/mol
# GULP energy per Si atom -12389.736027 kJ/mol
# Density = 1.898352 g / cm^3
# Si number density = 19.026826 Si / 1000 Ang^3
#
#
#
# Elastic Constant Matrix: (Units=GPa)
#
#
# Indices 1 2 3 4 5 6 
#
# 1 101.9519 49.1089 48.0159 0.0000 -0.8684 0.0000
# 2 49.1089 112.9396 47.2627 0.0000 5.5417 0.0000
# 3 48.0159 47.2627 73.4416 0.0000 6.2774 0.0000
# 4 0.0000 0.0000 0.0000 40.2401 0.0000 17.8390
# 5 -0.8684 5.5417 6.2774 0.0000 32.0769 0.0000
# 6 0.0000 0.0000 0.0000 17.8390 0.0000 25.1741
#
#
#
# Elastic Compliance Matrix: (Units=1/GPa)
#
#
# Indices 1 2 3 4 5 6 
#
# 1 0.015233 -0.003408 -0.007985 0.000000 0.002564 0.000000
# 2 -0.003408 0.012891 -0.005969 0.000000 -0.001151 0.000000
# 3 -0.007985 -0.005969 0.022993 0.000000 -0.003685 0.000000
# 4 0.000000 0.000000 0.000000 0.036233 0.000000 -0.025676
# 5 0.002564 -0.001151 -0.003685 0.000000 0.032164 0.000000
# 6 0.000000 0.000000 0.000000 -0.025676 0.000000 0.057918
#
#
# Mechanical properties :
#
#
# Convention : Reuss Voigt Hill
#
# Bulk Modulus (GPa) = 61.00454 64.12314 62.56384
# Shear Modulus (GPa) = 22.97579 29.09460 26.03520
#
# Velocity S-wave (km/s) = 3.47875 3.91466 3.70312
# Velocity P-wave (km/s) = 6.94749 7.36256 7.15803
#
# Compressibility (1/GPa) = 0.01639222
#
# Stress axis : x y z
#
# Youngs Moduli (GPa) = 65.64883 77.57634 43.49081
#
# Poissons Ratio (x) = 0.26436 0.34728
# Poissons Ratio (y) = 0.22371 0.25961
# Poissons Ratio (z) = 0.52422 0.46307
#
# Static dielectric constant tensor:
#      x y z
#    x 3.133090 0.000000 0.219280 
#    y 0.000000 3.494990 0.000000 
#    z 0.219280 0.000000 3.450880 
# 
# 
# High freq. dielectric constant tensor:
#      x y z
#    x 1.707400 0.000000 0.023720 
#    y 0.000000 1.752370 0.000000 
#    z 0.023720 0.000000 1.733960 
# 
# From -- ./inp_files/990.got.cif
#   From: 2010.03.12/outbox.cif.g09.slc.cpg/sg4_1_cif.got.tgz:990.got - 2010.03.31 09:31:35.
