data_PCOD8045801
_publ_section_title
;
Structure prediction by ZEFSAII (Michael W. Deem and Ramdas Pophale) SiO2 
 PCOD8045801
Probable space group: P 21
;
_chemical_formula_sum "Si O2"
_cell_formula_units_Z 16
_cell_length_a 9.030742
_cell_length_b 10.798657
_cell_length_c 12.141365
_cell_angle_alpha 90.000000
_cell_angle_beta 39.264288
_cell_angle_gamma 90.000000
_cell_volume 749.367251
_symmetry_space_group_name_H-M "P 21"
_symmetry_group_IT_number 4
_symmetry_cell_setting 'monoclinic'
loop_
_space_group_symop_operation_xyz
x,y,z
-x,1/2+y,-z
loop_
_atom_site_type_symbol
_atom_site_label
_atom_site_fract_x
_atom_site_fract_y
_atom_site_fract_z
Si Si1 0.685707 0.852690 0.731536
Si Si2 0.909290 0.662069 0.737046
Si Si3 0.381616 0.753510 0.376044
Si Si4 0.412374 0.359452 0.530394
Si Si5 0.416300 0.147845 0.374977
Si Si6 0.831758 0.459874 0.617704
Si Si7 0.361894 0.010779 0.799806
Si Si8 0.099875 0.539355 0.828037
O O1 0.757989 0.790080 0.807231
O O2 0.564199 0.741485 0.736567
O O3 0.907286 0.907147 0.538468
O O4 0.491992 0.961846 0.837643
O O5 0.787264 0.538711 0.754856
O O6 0.146665 0.675250 0.530136
O O7 0.964878 0.644307 0.833644
O O8 0.426535 0.841520 0.455525
O O9 0.347349 0.842997 0.289107
O O10 0.591868 0.657662 0.236397
O O11 0.340904 0.223325 0.527691
O O12 0.555432 0.438146 0.356966
O O13 0.175547 0.430563 0.700411
O O14 0.673554 0.091094 0.241912
O O15 0.219851 0.046115 0.459967
O O16 0.083605 0.990839 0.975193
#
# Coordination Sequence:
#
# PCOD8045801 Si02
#       8
#     2   2   2   2   2   2   2   2
#     4   9  20  38  62  87 128 166 206 268 316 389
#     4  10  19  39  64  90 125 167 211 265 326 387
#     4  11  20  37  66  90 125 169 214 263 324 382
#     4  11  21  41  65  92 127 171 214 271 326 384
#     4  10  20  37  64  92 126 162 218 264 319 388
#     4  10  19  37  67  94 121 173 216 260 330 392
#     4  11  24  42  64  98 134 164 222 274 327 388
#     4  12  23  41  66  99 130 170 215 279 328 388
#
# _framework density 21.351345999999999
#
# number of rings (size 3 to 8) (size 9 to 14) (size 15 to 20)
#    0.000    1.500    5.000    0.750    0.000    2.000 
#    2.250    0.000    8.250    0.000    0.000    0.000 
#    0.000    0.000    0.000    0.000    0.000    0.000 
#
# Total GULP energy -198239.034375 kJ/mol
# GULP energy per Si atom -12389.939648 kJ/mol
# Density = 2.130275 g / cm^3
# Si number density = 21.351346 Si / 1000 Ang^3
#
#
#
# Elastic Constant Matrix: (Units=GPa)
#
#
# Indices 1 2 3 4 5 6 
#
# 1 97.4342 26.5328 20.9735 0.0000 -12.0860 0.0000
# 2 26.5328 77.8773 33.1400 0.0000 -9.4613 0.0000
# 3 20.9735 33.1400 94.2519 0.0000 -12.9640 0.0000
# 4 0.0000 0.0000 0.0000 10.1662 0.0000 -0.7984
# 5 -12.0860 -9.4613 -12.9640 0.0000 19.3784 0.0000
# 6 0.0000 0.0000 0.0000 -0.7984 0.0000 51.1562
#
#
#
# Elastic Compliance Matrix: (Units=1/GPa)
#
#
# Indices 1 2 3 4 5 6 
#
# 1 0.011946 -0.003056 -0.000842 0.000000 0.005395 0.000000
# 2 -0.003056 0.016200 -0.004615 0.000000 0.002916 0.000000
# 3 -0.000842 -0.004615 0.013258 0.000000 0.006091 0.000000
# 4 0.000000 0.000000 0.000000 0.098486 0.000000 0.001537
# 5 0.005395 0.002916 0.006091 0.000000 0.060468 0.000000
# 6 0.000000 0.000000 0.000000 0.001537 0.000000 0.019572
#
#
# Mechanical properties :
#
#
# Convention : Reuss Voigt Hill
#
# Bulk Modulus (GPa) = 41.02055 47.87289 44.44672
# Shear Modulus (GPa) = 20.40144 28.73463 24.56803
#
# Velocity S-wave (km/s) = 3.09449 3.67249 3.39581
# Velocity P-wave (km/s) = 5.65877 6.36028 6.01975
#
# Compressibility (1/GPa) = 0.02437802
#
# Stress axis : x y z
#
# Youngs Moduli (GPa) = 83.70966 61.72788 75.42837
#
# Poissons Ratio (x) = 0.18867 0.06347
# Poissons Ratio (y) = 0.25585 0.34810
# Poissons Ratio (z) = 0.07044 0.28487
#
# Static dielectric constant tensor:
#      x y z
#    x 4.176610 0.000000 -0.112430 
#    y 0.000000 4.351510 0.000000 
#    z -0.112430 0.000000 3.234770 
# 
# 
# High freq. dielectric constant tensor:
#      x y z
#    x 1.854540 0.000000 -0.012610 
#    y 0.000000 1.856400 0.000000 
#    z -0.012610 0.000000 1.771240 
# 
# From -- ./inp_files/6287.got.cif
#   From: 2010.03.12/outbox.cif.g09.slc.cpg/sg4_4_cif.got.tgz:6287.got - 2010.03.31 09:31:35.
