data_PCOD8045609
_publ_section_title
;
Structure prediction by ZEFSAII (Michael W. Deem and Ramdas Pophale) SiO2 
 PCOD8045609
Probable space group: P 21
;
_chemical_formula_sum "Si O2"
_cell_formula_units_Z 16
_cell_length_a 8.720984
_cell_length_b 5.249466
_cell_length_c 17.118180
_cell_angle_alpha 90.000000
_cell_angle_beta 68.644344
_cell_angle_gamma 90.000000
_cell_volume 729.869974
_symmetry_space_group_name_H-M "P 21"
_symmetry_group_IT_number 4
_symmetry_cell_setting 'monoclinic'
loop_
_space_group_symop_operation_xyz
x,y,z
-x,1/2+y,-z
loop_
_atom_site_type_symbol
_atom_site_label
_atom_site_fract_x
_atom_site_fract_y
_atom_site_fract_z
Si Si1 0.688277 0.486410 0.329667
Si Si2 0.207162 0.060579 0.015267
Si Si3 0.687277 0.993162 0.594856
Si Si4 0.860709 0.061599 0.019562
Si Si5 0.172380 0.994998 0.356252
Si Si6 0.015808 0.072717 0.819970
Si Si7 0.843046 0.572410 0.807992
Si Si8 0.215457 0.486533 0.596542
O O1 0.498984 0.509157 0.340481
O O2 0.790453 0.523125 0.229838
O O3 0.721495 0.205825 0.357384
O O4 0.741142 0.705716 0.380473
O O5 0.258345 0.314011 0.957906
O O6 0.273375 0.055437 0.092025
O O7 0.258755 0.808626 0.957334
O O8 0.001890 0.062864 0.059636
O O9 0.788086 0.219888 0.616417
O O10 0.688019 0.027001 0.502052
O O11 0.765766 0.719438 0.599477
O O12 0.965853 0.063479 0.919494
O O13 0.256285 0.030143 0.254326
O O14 0.977650 0.019224 0.382062
O O15 0.976628 0.345848 0.788551
O O16 0.920266 0.853079 0.789924
#
# Coordination Sequence:
#
# PCOD8045609 Si02
#       8
#     2   2   2   2   2   2   2   2
#     4  12  22  39  58  80 105 140 177 219 268 314
#     4   8  14  24  40  69  98 130 156 206 252 294
#     4  12  26  38  55  81 109 135 177 225 269 313
#     4   8  14  23  41  67 102 124 160 204 256 289
#     4  12  22  39  56  80 106 140 174 222 266 313
#     4  10  17  31  50  76  99 136 170 212 251 310
#     4  10  18  31  52  73 103 134 174 206 254 308
#     4  12  23  41  60  76 102 141 182 220 266 317
#
# _framework density 21.921713
#
# number of rings (size 3 to 8) (size 9 to 14) (size 15 to 20)
#    0.000    1.500    2.500    4.500    0.000    0.000 
#    0.000    0.000    0.000    0.000    0.000    1.750 
#    0.000    0.000    0.000    0.000    0.000    0.000 
#
# Total GULP energy -198233.912113 kJ/mol
# GULP energy per Si atom -12389.619507 kJ/mol
# Density = 2.187182 g / cm^3
# Si number density = 21.921713 Si / 1000 Ang^3
#
#
#
# Elastic Constant Matrix: (Units=GPa)
#
#
# Indices 1 2 3 4 5 6 
#
# 1 52.0984 13.9557 3.8948 0.0000 -4.1134 0.0000
# 2 13.9557 151.7225 -1.0096 0.0000 2.9625 0.0000
# 3 3.8948 -1.0096 49.1550 0.0000 11.1515 0.0000
# 4 0.0000 0.0000 0.0000 26.3771 0.0000 8.7538
# 5 -4.1134 2.9625 11.1515 0.0000 14.8113 0.0000
# 6 0.0000 0.0000 0.0000 8.7538 0.0000 22.4025
#
#
#
# Elastic Compliance Matrix: (Units=1/GPa)
#
#
# Indices 1 2 3 4 5 6 
#
# 1 0.020748 -0.002109 -0.003727 0.000000 0.008990 0.000000
# 2 -0.002109 0.006842 0.000906 0.000000 -0.002636 0.000000
# 3 -0.003727 0.000906 0.025246 0.000000 -0.020224 0.000000
# 4 0.000000 0.000000 0.000000 0.043560 0.000000 -0.017021
# 5 0.008990 -0.002636 -0.020224 0.000000 0.085767 0.000000
# 6 0.000000 0.000000 0.000000 -0.017021 0.000000 0.051289
#
#
# Mechanical properties :
#
#
# Convention : Reuss Voigt Hill
#
# Bulk Modulus (GPa) = 23.26864 31.85087 27.55975
# Shear Modulus (GPa) = 19.40716 28.46051 23.93384
#
# Velocity S-wave (km/s) = 2.97862 3.60707 3.30780
# Velocity P-wave (km/s) = 4.73994 5.64880 5.21421
#
# Compressibility (1/GPa) = 0.04297631
#
# Stress axis : x y z
#
# Youngs Moduli (GPa) = 48.19814 146.14662 39.61062
#
# Poissons Ratio (x) = 0.30818 0.14762
# Poissons Ratio (y) = 0.10164 -0.03587
# Poissons Ratio (z) = 0.17962 -0.13236
#
# Static dielectric constant tensor:
#      x y z
#    x 3.436600 0.000000 0.231070 
#    y 0.000000 4.935780 0.000000 
#    z 0.231070 0.000000 4.166420 
# 
# 
# High freq. dielectric constant tensor:
#      x y z
#    x 1.800490 0.000000 0.025810 
#    y 0.000000 1.905880 0.000000 
#    z 0.025810 0.000000 1.857260 
# 
# From -- ./inp_files/10009.got.cif
#   From: 2010.03.12/outbox.cif.g09.slc.cpg/sg4_6_cif.got.tgz:10009.got - 2010.03.31 09:31:35.
