data_PCOD8045393
_publ_section_title
;
Structure prediction by ZEFSAII (Michael W. Deem and Ramdas Pophale) SiO2 
 PCOD8045393
Probable space group: P 2
;
_chemical_formula_sum "Si O2"
_cell_formula_units_Z 14
_cell_length_a 17.039429
_cell_length_b 5.180748
_cell_length_c 23.640524
_cell_angle_alpha 90.000000
_cell_angle_beta 162.880151
_cell_angle_gamma 90.000000
_cell_volume 614.327917
_symmetry_space_group_name_H-M "P 2"
_symmetry_group_IT_number 3
_symmetry_cell_setting 'monoclinic'
loop_
_space_group_symop_operation_xyz
x,y,z
-x,y,-z
loop_
_atom_site_type_symbol
_atom_site_label
_atom_site_fract_x
_atom_site_fract_y
_atom_site_fract_z
Si Si1 0.919869 0.922570 0.601134
Si Si2 0.455083 0.891372 0.361387
Si Si3 0.404789 0.559267 0.092214
Si Si4 0.000000 0.219990 0.000000
Si Si5 0.944602 0.512929 0.855605
Si Si6 0.270607 0.050665 0.655021
Si Si7 0.500000 0.190839 0.500000
Si Si8 0.232752 0.433447 0.847024
O O1 0.133231 0.690096 0.745272
O O2 0.694972 0.799417 0.487116
O O3 0.791992 0.979161 0.452457
O O4 0.033202 0.189985 0.704759
O O5 0.266684 0.065185 0.193931
O O6 0.276560 0.669389 0.263492
O O7 0.583654 0.030377 0.503250
O O8 0.605408 0.800924 0.228062
O O9 0.537405 0.299280 0.208472
O O10 0.286908 0.502067 0.949439
O O11 0.166195 0.653229 0.970035
O O12 0.904029 0.370112 0.989569
O O13 0.776662 0.337471 0.697901
O O14 0.000000 0.128233 0.500000
O O15 0.500000 0.341889 0.000000
#
# Coordination Sequence:
#
# PCOD8045393 Si02
#       8
#     2   2   2   1   2   2   1   2
#     4  12  27  44  76 104 143 186 234 287 362 415
#     4  11  25  41  67  97 140 178 231 276 341 412
#     4  12  27  44  76 104 143 186 234 287 362 415
#     4  10  24  42  64  92 140 178 226 278 334 398
#     4  11  25  41  67  97 140 178 231 276 341 412
#     4  12  26  49  74 106 141 183 239 297 351 417
#     4  10  24  42  64  92 140 178 226 278 334 398
#     4  12  26  49  74 106 141 183 239 297 351 417
#
# _framework density 22.789131999999999
#
# number of rings (size 3 to 8) (size 9 to 14) (size 15 to 20)
#    0.000    0.571    0.000    6.857   16.000    0.000 
#    0.000    0.000    0.000    0.000    0.000    0.000 
#    0.000    0.000    0.000    0.000    0.000    0.000 
#
# Total GULP energy -173560.136259 kJ/mol
# GULP energy per Si atom -12397.152590 kJ/mol
# Density = 2.273726 g / cm^3
# Si number density = 22.789132 Si / 1000 Ang^3
#
#
#
# Elastic Constant Matrix: (Units=GPa)
#
#
# Indices 1 2 3 4 5 6 
#
# 1 102.1112 7.4982 42.4277 0.0000 2.2670 0.0000
# 2 7.4982 108.5370 23.4361 0.0000 -14.8132 0.0000
# 3 42.4277 23.4361 68.9062 0.0000 -19.1131 0.0000
# 4 0.0000 0.0000 0.0000 56.3017 0.0000 -8.1508
# 5 2.2670 -14.8132 -19.1131 0.0000 51.0642 0.0000
# 6 0.0000 0.0000 0.0000 -8.1508 0.0000 37.6174
#
#
#
# Elastic Compliance Matrix: (Units=1/GPa)
#
#
# Indices 1 2 3 4 5 6 
#
# 1 0.013988 0.000619 -0.009982 0.000000 -0.004178 0.000000
# 2 0.000619 0.010123 -0.003367 0.000000 0.001649 0.000000
# 3 -0.009982 -0.003367 0.024165 0.000000 0.008511 0.000000
# 4 0.000000 0.000000 0.000000 0.018337 0.000000 0.003973
# 5 -0.004178 0.001649 0.008511 0.000000 0.023433 0.000000
# 6 0.000000 0.000000 0.000000 0.003973 0.000000 0.027444
#
#
# Mechanical properties :
#
#
# Convention : Reuss Voigt Hill
#
# Bulk Modulus (GPa) = 43.82948 47.36425 45.59687
# Shear Modulus (GPa) = 33.21054 42.74283 37.97668
#
# Velocity S-wave (km/s) = 3.82160 4.33549 4.08663
# Velocity P-wave (km/s) = 6.22472 6.77428 6.50531
#
# Compressibility (1/GPa) = 0.02281569
#
# Stress axis : x y z
#
# Youngs Moduli (GPa) = 71.48857 98.78813 41.38256
#
# Poissons Ratio (x) = -0.06114 0.41309
# Poissons Ratio (y) = -0.04424 0.13932
# Poissons Ratio (z) = 0.71362 0.33258
#
# Static dielectric constant tensor:
#      x y z
#    x 4.232380 0.000000 -0.171060 
#    y 0.000000 4.575870 0.000000 
#    z -0.171060 0.000000 4.330620 
# 
# 
# High freq. dielectric constant tensor:
#      x y z
#    x 1.916850 0.000000 -0.010060 
#    y 0.000000 1.900490 0.000000 
#    z -0.010060 0.000000 1.919490 
# 
# From -- ./inp_files/15658.got.cif
#   From: 2010.03.12/outbox.cif.g09.slc.cpg/sg3_8_cif.got.tgz:15658.got - 2010.03.31 09:20:49.
