data_PCOD8045106
_publ_section_title
;
Structure prediction by ZEFSAII (Michael W. Deem and Ramdas Pophale) SiO2 
 PCOD8045106
Probable space group: P 2
;
_chemical_formula_sum "Si O2"
_cell_formula_units_Z 14
_cell_length_a 12.897416
_cell_length_b 7.590434
_cell_length_c 8.893925
_cell_angle_alpha 90.000000
_cell_angle_beta 53.349488
_cell_angle_gamma 90.000000
_cell_volume 698.545963
_symmetry_space_group_name_H-M "P 2"
_symmetry_group_IT_number 3
_symmetry_cell_setting 'monoclinic'
loop_
_space_group_symop_operation_xyz
x,y,z
-x,y,-z
loop_
_atom_site_type_symbol
_atom_site_label
_atom_site_fract_x
_atom_site_fract_y
_atom_site_fract_z
Si Si1 0.872358 0.088420 0.315439
Si Si2 0.495407 0.646313 0.171917
Si Si3 0.704265 0.385168 0.969034
Si Si4 0.260584 0.701987 0.876542
Si Si5 0.135804 0.392974 0.460101
Si Si6 0.777485 0.704815 0.440475
Si Si7 0.833856 0.074949 0.009027
O O1 0.817211 0.233121 0.475581
O O2 0.025049 0.121439 0.172213
O O3 0.833323 0.899441 0.417830
O O4 0.810182 0.115061 0.205202
O O5 0.591417 0.748555 0.203847
O O6 0.354183 0.665106 0.358772
O O7 0.500000 0.729542 0.000000
O O8 0.552610 0.443342 0.111685
O O9 0.749885 0.411738 0.759301
O O10 0.728451 0.187163 0.006942
O O11 0.787605 0.523852 0.998642
O O12 0.244675 0.667256 0.714660
O O13 0.176847 0.866003 0.006858
O O14 0.120704 0.568070 0.575394
O O15 0.000000 0.349665 0.500000
#
# Coordination Sequence:
#
# PCOD8045106 Si02
#       7
#     2   2   2   2   2   2   2
#     4  10  24  38  65  91 128 162 212 263 310 383
#     4  10  21  42  61  90 124 162 208 259 309 372
#     4  10  22  39  62  87 127 161 204 258 313 373
#     4   9  22  39  68  91 121 166 208 262 311 372
#     4  12  24  39  61  94 130 165 208 258 320 385
#     4  11  22  43  64  92 125 165 217 257 315 373
#     4  10  20  43  61  94 124 163 209 258 319 371
#
# _framework density 20.041630999999999
#
# number of rings (size 3 to 8) (size 9 to 14) (size 15 to 20)
#    0.857    0.857    2.857    1.286    2.000    2.857 
#    2.571    0.714    3.143    0.000    0.000    0.000 
#    0.000    0.000    0.000    0.000    0.000    0.000 
#
# Total GULP energy -173504.521093 kJ/mol
# GULP energy per Si atom -12393.180078 kJ/mol
# Density = 1.999602 g / cm^3
# Si number density = 20.041631 Si / 1000 Ang^3
#
#
#
# Elastic Constant Matrix: (Units=GPa)
#
#
# Indices 1 2 3 4 5 6 
#
# 1 50.2956 17.3230 14.2853 0.0000 9.8985 0.0000
# 2 17.3230 112.9780 60.9099 0.0000 15.8841 0.0000
# 3 14.2853 60.9099 104.1507 0.0000 10.4963 0.0000
# 4 0.0000 0.0000 0.0000 30.1730 0.0000 -2.7695
# 5 9.8985 15.8841 10.4963 0.0000 30.5983 0.0000
# 6 0.0000 0.0000 0.0000 -2.7695 0.0000 23.5463
#
#
#
# Elastic Compliance Matrix: (Units=1/GPa)
#
#
# Indices 1 2 3 4 5 6 
#
# 1 0.022027 -0.001835 -0.001373 0.000000 -0.005702 0.000000
# 2 -0.001835 0.013641 -0.007325 0.000000 -0.003975 0.000000
# 3 -0.001373 -0.007325 0.014134 0.000000 -0.000602 0.000000
# 4 0.000000 0.000000 0.000000 0.033504 0.000000 0.003941
# 5 -0.005702 -0.003975 -0.000602 0.000000 0.036796 0.000000
# 6 0.000000 0.000000 0.000000 0.003941 0.000000 0.042933
#
#
# Mechanical properties :
#
#
# Convention : Reuss Voigt Hill
#
# Bulk Modulus (GPa) = 34.80150 50.27344 42.53747
# Shear Modulus (GPa) = 25.81577 28.52394 27.16986
#
# Velocity S-wave (km/s) = 3.59292 3.77667 3.68594
# Velocity P-wave (km/s) = 5.88340 6.64504 6.27579
#
# Compressibility (1/GPa) = 0.02873440
#
# Stress axis : x y z
#
# Youngs Moduli (GPa) = 45.39932 73.30994 70.74951
#
# Poissons Ratio (x) = 0.13456 0.09715
# Poissons Ratio (y) = 0.08333 0.51825
# Poissons Ratio (z) = 0.06234 0.53700
#
# Static dielectric constant tensor:
#      x y z
#    x 3.625490 0.000000 0.280890 
#    y 0.000000 3.574490 0.000000 
#    z 0.280890 0.000000 3.616040 
# 
# 
# High freq. dielectric constant tensor:
#      x y z
#    x 1.779610 0.000000 0.018380 
#    y 0.000000 1.773640 0.000000 
#    z 0.018380 0.000000 1.784900 
# 
# From -- ./inp_files/8046.got.cif
#   From: 2010.03.12/outbox.cif.g09.slc.cpg/sg3_5_cif.got.tgz:8046.got - 2010.03.31 09:20:49.
