data_PCOD8045570
_publ_section_title
;
Structure prediction by ZEFSAII (Michael W. Deem and Ramdas Pophale) SiO2 
 PCOD8045570
Probable space group: P 2
;
_chemical_formula_sum "Si O2"
_cell_formula_units_Z 10
_cell_length_a 10.115626
_cell_length_b 5.551902
_cell_length_c 14.203034
_cell_angle_alpha 90.000000
_cell_angle_beta 151.785383
_cell_angle_gamma 90.000000
_cell_volume 377.112320
_symmetry_space_group_name_H-M "P 2"
_symmetry_group_IT_number 3
_symmetry_cell_setting 'monoclinic'
loop_
_space_group_symop_operation_xyz
x,y,z
-x,y,-z
loop_
_atom_site_type_symbol
_atom_site_label
_atom_site_fract_x
_atom_site_fract_y
_atom_site_fract_z
Si Si1 0.562101 0.164430 0.409050
Si Si2 0.997045 0.408142 0.788813
Si Si3 0.500000 0.229862 0.000000
Si Si4 0.684911 0.946265 0.300475
Si Si5 0.500000 0.763711 0.500000
Si Si6 0.272776 0.573719 0.134669
O O1 0.201466 0.180698 0.360724
O O2 0.389831 0.419590 0.299217
O O3 0.677832 0.153418 0.375870
O O4 0.411567 0.918018 0.349070
O O5 0.791288 0.636974 0.653136
O O6 0.241651 0.406947 0.862684
O O7 0.150501 0.372924 0.984925
O O8 0.415620 0.053067 0.861319
O O9 0.485767 0.730565 0.208439
O O10 0.000000 0.844432 0.500000
O O11 0.000000 0.721371 0.000000
#
# Coordination Sequence:
#
# PCOD8045570 Si02
#       6
#     2   2   1   2   1   2
#     4  12  26  52  80 116 166 208 261 340 399 476
#     4  12  27  51  81 119 161 210 270 328 396 486
#     4  12  28  54  80 116 168 212 274 334 396 478
#     4  12  28  53  81 117 161 216 266 331 405 476
#     4  12  28  50  86 120 162 210 264 338 412 464
#     4  12  28  49  82 121 158 208 272 328 404 483
#
# _framework density 26.517296000000002
#
# number of rings (size 3 to 8) (size 9 to 14) (size 15 to 20)
#    0.000    0.000    4.000    5.400    2.800    8.800 
#    3.600    0.000    0.000    0.000    0.000    0.000 
#    0.000    0.000    0.000    0.000    0.000    0.000 
#
# Total GULP energy -123887.021654 kJ/mol
# GULP energy per Si atom -12388.702165 kJ/mol
# Density = 2.645694 g / cm^3
# Si number density = 26.517296 Si / 1000 Ang^3
#
#
#
# Elastic Constant Matrix: (Units=GPa)
#
#
# Indices 1 2 3 4 5 6 
#
# 1 150.0365 55.6096 89.0768 0.0000 8.3301 0.0000
# 2 55.6096 96.0685 66.4834 0.0000 22.8339 0.0000
# 3 89.0768 66.4834 187.3593 0.0000 16.6882 0.0000
# 4 0.0000 0.0000 0.0000 26.8161 0.0000 0.0425
# 5 8.3301 22.8339 16.6882 0.0000 78.8713 0.0000
# 6 0.0000 0.0000 0.0000 0.0425 0.0000 54.8098
#
#
#
# Elastic Compliance Matrix: (Units=1/GPa)
#
#
# Indices 1 2 3 4 5 6 
#
# 1 0.010063 -0.003499 -0.003606 0.000000 0.000713 0.000000
# 2 -0.003499 0.015755 -0.003622 0.000000 -0.003425 0.000000
# 3 -0.003606 -0.003622 0.008368 0.000000 -0.000341 0.000000
# 4 0.000000 0.000000 0.000000 0.037291 0.000000 -0.000029
# 5 0.000713 -0.003425 -0.000341 0.000000 0.013667 0.000000
# 6 0.000000 0.000000 0.000000 -0.000029 0.000000 0.018245
#
#
# Mechanical properties :
#
#
# Convention : Reuss Voigt Hill
#
# Bulk Modulus (GPa) = 78.54547 95.08932 86.81739
# Shear Modulus (GPa) = 38.73306 46.91908 42.82607
#
# Velocity S-wave (km/s) = 3.82602 4.21096 4.02310
# Velocity P-wave (km/s) = 7.01446 7.71881 7.37505
#
# Compressibility (1/GPa) = 0.01273148
#
# Stress axis : x y z
#
# Youngs Moduli (GPa) = 99.36948 63.47018 119.50856
#
# Poissons Ratio (x) = 0.22208 0.43100
# Poissons Ratio (y) = 0.34769 0.43287
# Poissons Ratio (z) = 0.35837 0.22990
#
# Static dielectric constant tensor:
#      x y z
#    x 5.362060 0.000000 -0.122120 
#    y 0.000000 4.385800 0.000000 
#    z -0.122120 0.000000 5.232260 
# 
# 
# High freq. dielectric constant tensor:
#      x y z
#    x 2.097400 0.000000 -0.009580 
#    y 0.000000 2.041630 0.000000 
#    z -0.009580 0.000000 2.086570 
# 
# From -- ./inp_files/8455.got.cif
#   From: 2010.03.12/outbox.cif.g09.slc.cpg/sg3_5_cif.got.tgz:8455.got - 2010.03.31 09:20:49.
