data_PCOD8045400
_publ_section_title
;
Structure prediction by ZEFSAII (Michael W. Deem and Ramdas Pophale) SiO2 
 PCOD8045400
Probable space group: P 2
;
_chemical_formula_sum "Si O2"
_cell_formula_units_Z 14
_cell_length_a 16.119397
_cell_length_b 6.971289
_cell_length_c 8.351728
_cell_angle_alpha 90.000000
_cell_angle_beta 138.390925
_cell_angle_gamma 90.000000
_cell_volume 623.211560
_symmetry_space_group_name_H-M "P 2"
_symmetry_group_IT_number 3
_symmetry_cell_setting 'monoclinic'
loop_
_space_group_symop_operation_xyz
x,y,z
-x,y,-z
loop_
_atom_site_type_symbol
_atom_site_label
_atom_site_fract_x
_atom_site_fract_y
_atom_site_fract_z
Si Si1 0.363814 0.703730 0.371874
Si Si2 0.197578 0.067780 0.073151
Si Si3 0.436711 0.442426 0.747659
Si Si4 0.043766 0.857234 0.243245
Si Si5 0.900065 0.477414 0.489745
Si Si6 0.689432 0.394379 0.955331
Si Si7 0.200038 0.201671 0.412346
O O1 0.500000 0.747186 0.500000
O O2 0.367023 0.618449 0.557656
O O3 0.292649 0.547403 0.160585
O O4 0.290656 0.902207 0.268045
O O5 0.255127 0.186452 0.009329
O O6 0.175734 0.216954 0.187426
O O7 0.066531 0.977480 0.830732
O O8 0.543499 0.362341 0.782849
O O9 0.342029 0.268580 0.653501
O O10 0.500000 0.522130 0.000000
O O11 0.068278 0.682643 0.394651
O O12 0.171419 0.981978 0.422455
O O13 0.000000 0.798077 0.000000
O O14 0.900634 0.332102 0.639663
O O15 0.000000 0.414214 0.500000
O O16 0.761915 0.477218 0.213767
#
# Coordination Sequence:
#
# PCOD8045400 Si02
#       7
#     2   2   2   2   2   2   2
#     4  10  24  42  72 105 140 184 232 288 350 419
#     4  11  24  45  73 107 136 185 238 288 347 426
#     4  11  23  46  70 103 141 186 233 283 355 416
#     4  10  26  45  69 104 135 184 241 285 350 418
#     4  12  26  45  71  97 141 182 229 299 348 419
#     4  11  24  44  73 103 143 184 229 288 353 422
#     4  11  25  43  71  97 141 184 231 289 350 416
#
# _framework density 22.464283999999999
#
# number of rings (size 3 to 8) (size 9 to 14) (size 15 to 20)
#    0.000    1.143    2.857    1.714    6.000    5.714 
#    0.000    2.143    0.000    0.000    0.000    0.000 
#    0.000    0.000    0.000    0.000    0.000    0.000 
#
# Total GULP energy -173604.798614 kJ/mol
# GULP energy per Si atom -12400.342758 kJ/mol
# Density = 2.241315 g / cm^3
# Si number density = 22.464284 Si / 1000 Ang^3
#
#
#
# Elastic Constant Matrix: (Units=GPa)
#
#
# Indices 1 2 3 4 5 6 
#
# 1 118.2306 60.9493 33.4678 0.0000 3.9892 0.0000
# 2 60.9493 112.6112 70.9131 0.0000 -6.0727 0.0000
# 3 33.4678 70.9131 115.2685 0.0000 -4.0979 0.0000
# 4 0.0000 0.0000 0.0000 35.9610 0.0000 2.0763
# 5 3.9892 -6.0727 -4.0979 0.0000 35.2469 0.0000
# 6 0.0000 0.0000 0.0000 2.0763 0.0000 36.2516
#
#
#
# Elastic Compliance Matrix: (Units=1/GPa)
#
#
# Indices 1 2 3 4 5 6 
#
# 1 0.011991 -0.007144 0.000825 0.000000 -0.002492 0.000000
# 2 -0.007144 0.018828 -0.009403 0.000000 0.002959 0.000000
# 3 0.000825 -0.009403 0.014219 0.000000 -0.000060 0.000000
# 4 0.000000 0.000000 0.000000 0.027900 0.000000 -0.001598
# 5 -0.002492 0.002959 -0.000060 0.000000 0.029156 0.000000
# 6 0.000000 0.000000 0.000000 -0.001598 0.000000 0.027676
#
#
# Mechanical properties :
#
#
# Convention : Reuss Voigt Hill
#
# Bulk Modulus (GPa) = 73.56910 75.19673 74.38291
# Shear Modulus (GPa) = 30.16648 33.54391 31.85520
#
# Velocity S-wave (km/s) = 3.66849 3.86840 3.76977
# Velocity P-wave (km/s) = 7.12490 7.31432 7.22023
#
# Compressibility (1/GPa) = 0.01359266
#
# Stress axis : x y z
#
# Youngs Moduli (GPa) = 83.39266 53.11326 70.32960
#
# Poissons Ratio (x) = 0.37944 -0.05800
# Poissons Ratio (y) = 0.59575 0.66134
# Poissons Ratio (z) = -0.06877 0.49944
#
# Static dielectric constant tensor:
#      x y z
#    x 4.325430 0.000000 0.051740 
#    y 0.000000 3.868610 0.000000 
#    z 0.051740 0.000000 4.040700 
# 
# 
# High freq. dielectric constant tensor:
#      x y z
#    x 1.905580 0.000000 0.004060 
#    y 0.000000 1.870880 0.000000 
#    z 0.004060 0.000000 1.881480 
# 
# From -- ./inp_files/8823.got.cif
#   From: 2010.03.12/outbox.cif.g09.slc.cpg/sg3_5_cif.got.tgz:8823.got - 2010.03.31 09:20:49.
