data_PCOD8045499
_publ_section_title
;
Structure prediction by ZEFSAII (Michael W. Deem and Ramdas Pophale) SiO2 
 PCOD8045499
Probable space group: P 2
;
_chemical_formula_sum "Si O2"
_cell_formula_units_Z 15
_cell_length_a 8.781697
_cell_length_b 7.518590
_cell_length_c 18.433191
_cell_angle_alpha 90.000000
_cell_angle_beta 146.243303
_cell_angle_gamma 90.000000
_cell_volume 676.285856
_symmetry_space_group_name_H-M "P 2"
_symmetry_group_IT_number 3
_symmetry_cell_setting 'monoclinic'
loop_
_space_group_symop_operation_xyz
x,y,z
-x,y,-z
loop_
_atom_site_type_symbol
_atom_site_label
_atom_site_fract_x
_atom_site_fract_y
_atom_site_fract_z
Si Si1 0.686183 0.046660 0.259052
Si Si2 0.862172 0.484891 0.637818
Si Si3 0.191541 0.092912 0.355177
Si Si4 0.000000 0.872600 0.500000
Si Si5 0.077515 0.770247 0.217279
Si Si6 0.387105 0.436666 0.748850
Si Si7 0.618439 0.601997 0.404853
Si Si8 0.741026 0.752016 0.946700
O O1 0.526651 0.234012 0.199642
O O2 0.977012 0.053213 0.333699
O O3 0.761297 0.990160 0.370453
O O4 0.487105 0.903887 0.144963
O O5 0.825002 0.303738 0.669523
O O6 0.951168 0.648171 0.722991
O O7 0.596691 0.517087 0.478243
O O8 0.096668 0.469309 0.670354
O O9 0.500000 0.037401 0.500000
O O10 0.105301 0.977293 0.250987
O O11 0.864992 0.743818 0.506628
O O12 0.342540 0.708924 0.277413
O O13 0.820311 0.741155 0.062818
O O14 0.346659 0.460258 0.646162
O O15 0.621343 0.563542 0.873678
O O16 0.000000 0.806409 0.000000
#
# Coordination Sequence:
#
# PCOD8045499 Si02
#       8
#     2   2   2   1   2   2   2   2
#     4  11  26  41  68 104 139 183 234 290 351 419
#     4  11  24  43  67 105 138 177 229 291 359 422
#     4  11  24  43  67 104 143 175 230 291 360 421
#     4  12  20  38  70 100 136 176 226 288 358 406
#     4  12  25  42  71  94 138 188 232 286 348 414
#     4  11  24  44  69 101 136 185 232 292 352 421
#     4  12  21  43  70 101 142 180 233 293 352 419
#     4  12  25  50  66 100 139 188 241 292 347 418
#
# _framework density 22.179970000000001
#
# number of rings (size 3 to 8) (size 9 to 14) (size 15 to 20)
#    0.000    0.533    4.000    4.400    3.733    3.733 
#    4.800    2.667    0.000    0.000    0.000    0.000 
#    0.000    0.000    0.000    0.000    0.000    0.000 
#
# Total GULP energy -186016.451712 kJ/mol
# GULP energy per Si atom -12401.096781 kJ/mol
# Density = 2.212949 g / cm^3
# Si number density = 22.179970 Si / 1000 Ang^3
#
#
#
# Elastic Constant Matrix: (Units=GPa)
#
#
# Indices 1 2 3 4 5 6 
#
# 1 73.9632 48.2074 33.7369 0.0000 -10.1488 0.0000
# 2 48.2074 162.4550 76.6990 0.0000 -5.4930 0.0000
# 3 33.7369 76.6990 152.0033 0.0000 -25.7229 0.0000
# 4 0.0000 0.0000 0.0000 27.2495 0.0000 3.4474
# 5 -10.1488 -5.4930 -25.7229 0.0000 36.3113 0.0000
# 6 0.0000 0.0000 0.0000 3.4474 0.0000 33.9764
#
#
#
# Elastic Compliance Matrix: (Units=1/GPa)
#
#
# Indices 1 2 3 4 5 6 
#
# 1 0.017438 -0.004606 -0.000954 0.000000 0.003501 0.000000
# 2 -0.004606 0.009413 -0.004209 0.000000 -0.002845 0.000000
# 3 -0.000954 -0.004209 0.009955 0.000000 0.006149 0.000000
# 4 0.000000 0.000000 0.000000 0.037175 0.000000 -0.003772
# 5 0.003501 -0.002845 0.006149 0.000000 0.032444 0.000000
# 6 0.000000 0.000000 0.000000 -0.003772 0.000000 0.029815
#
#
# Mechanical properties :
#
#
# Convention : Reuss Voigt Hill
#
# Bulk Modulus (GPa) = 57.90839 78.41203 68.16021
# Shear Modulus (GPa) = 30.95347 34.82598 32.88972
#
# Velocity S-wave (km/s) = 3.73977 3.96682 3.85497
# Velocity P-wave (km/s) = 6.69425 7.51067 7.11418
#
# Compressibility (1/GPa) = 0.01726865
#
# Stress axis : x y z
#
# Youngs Moduli (GPa) = 57.34716 106.23276 100.45387
#
# Poissons Ratio (x) = 0.48929 0.09580
# Poissons Ratio (y) = 0.26413 0.42281
# Poissons Ratio (z) = 0.05469 0.44714
#
# Static dielectric constant tensor:
#      x y z
#    x 4.031080 0.000000 0.185550 
#    y 0.000000 4.208770 0.000000 
#    z 0.185550 0.000000 3.864080 
# 
# 
# High freq. dielectric constant tensor:
#      x y z
#    x 1.887450 0.000000 0.008990 
#    y 0.000000 1.880250 0.000000 
#    z 0.008990 0.000000 1.863900 
# 
# From -- ./inp_files/15071.got.cif
#   From: 2010.03.12/outbox.cif.g09.slc.cpg/sg3_8_cif.got.tgz:15071.got - 2010.03.31 09:20:49.
