data_PCOD8045816
_publ_section_title
;
Structure prediction by ZEFSAII (Michael W. Deem and Ramdas Pophale) SiO2 
 PCOD8045816
Probable space group: P 21
;
_chemical_formula_sum "Si O2"
_cell_formula_units_Z 16
_cell_length_a 8.584777
_cell_length_b 9.365607
_cell_length_c 11.445879
_cell_angle_alpha 90.000000
_cell_angle_beta 116.161907
_cell_angle_gamma 90.000000
_cell_volume 825.987691
_symmetry_space_group_name_H-M "P 21"
_symmetry_group_IT_number 4
_symmetry_cell_setting 'monoclinic'
loop_
_space_group_symop_operation_xyz
x,y,z
-x,1/2+y,-z
loop_
_atom_site_type_symbol
_atom_site_label
_atom_site_fract_x
_atom_site_fract_y
_atom_site_fract_z
Si Si1 0.295890 0.073100 0.955962
Si Si2 0.737202 0.800858 0.880115
Si Si3 0.042056 0.428033 0.237779
Si Si4 0.194496 0.448381 0.630679
Si Si5 0.373572 0.537700 0.470206
Si Si6 0.387749 0.372361 0.924973
Si Si7 0.937784 0.260505 0.422052
Si Si8 0.577345 0.326425 0.398332
O O1 0.395661 0.198681 0.915183
O O2 0.235427 0.140240 0.060497
O O3 0.125993 0.025865 0.830440
O O4 0.419994 0.937751 0.017153
O O5 0.907442 0.854668 0.868567
O O6 0.573601 0.792006 0.741684
O O7 0.698364 0.907572 0.976882
O O8 0.198481 0.526171 0.335705
O O9 0.004429 0.301908 0.316351
O O10 0.349137 0.457584 0.586734
O O11 0.271217 0.441272 0.785341
O O12 0.078249 0.590489 0.576664
O O13 0.074043 0.311529 0.565749
O O14 0.536489 0.471158 0.455090
O O15 0.414137 0.702927 0.501764
O O16 0.755172 0.339534 0.385843
#
# Coordination Sequence:
#
# PCOD8045816 Si02
#       8
#     2   2   2   2   2   2   2   2
#     4  10  22  40  62  90 122 167 211 260 307 372
#     4   9  22  39  61  86 124 163 199 258 307 377
#     4  10  21  41  60  92 122 161 207 258 319 363
#     4  10  22  39  58  94 119 159 207 252 313 374
#     4   9  21  37  60  84 124 150 198 255 304 369
#     4  10  23  41  63  90 123 167 216 252 313 375
#     4  10  22  36  67  84 125 161 198 261 308 368
#     4  10  19  39  59  86 117 156 200 244 315 360
#
# _framework density 19.370749
#
# number of rings (size 3 to 8) (size 9 to 14) (size 15 to 20)
#    0.750    1.500    0.000    2.250    7.000    4.000 
#    4.500    2.500    0.000    0.000    0.000    0.000 
#    0.000    0.000    0.000    0.000    0.000    0.000 
#
# Total GULP energy -198339.994308 kJ/mol
# GULP energy per Si atom -12396.249644 kJ/mol
# Density = 1.932666 g / cm^3
# Si number density = 19.370749 Si / 1000 Ang^3
#
#
#
# Elastic Constant Matrix: (Units=GPa)
#
#
# Indices 1 2 3 4 5 6 
#
# 1 73.8696 35.8335 40.8656 0.0000 -2.4307 0.0000
# 2 35.8335 63.3405 39.6189 0.0000 3.0225 0.0000
# 3 40.8656 39.6189 102.5405 0.0000 -2.5624 0.0000
# 4 0.0000 0.0000 0.0000 28.0749 0.0000 1.5025
# 5 -2.4307 3.0225 -2.5624 0.0000 27.6405 0.0000
# 6 0.0000 0.0000 0.0000 1.5025 0.0000 33.2020
#
#
#
# Elastic Compliance Matrix: (Units=1/GPa)
#
#
# Indices 1 2 3 4 5 6 
#
# 1 0.020463 -0.008733 -0.004723 0.000000 0.002317 0.000000
# 2 -0.008733 0.024802 -0.006204 0.000000 -0.004055 0.000000
# 3 -0.004723 -0.006204 0.014071 0.000000 0.001567 0.000000
# 4 0.000000 0.000000 0.000000 0.035705 0.000000 -0.001616
# 5 0.002317 -0.004055 0.001567 0.000000 0.036971 0.000000
# 6 0.000000 0.000000 0.000000 -0.001616 0.000000 0.030192
#
#
# Mechanical properties :
#
#
# Convention : Reuss Voigt Hill
#
# Bulk Modulus (GPa) = 49.95972 52.48740 51.22356
# Shear Modulus (GPa) = 24.01595 26.01232 25.01414
#
# Velocity S-wave (km/s) = 3.52491 3.66849 3.59741
# Velocity P-wave (km/s) = 6.51260 6.71556 6.61486
#
# Compressibility (1/GPa) = 0.02001613
#
# Stress axis : x y z
#
# Youngs Moduli (GPa) = 48.86975 40.31942 71.06947
#
# Poissons Ratio (x) = 0.35209 0.33567
# Poissons Ratio (y) = 0.42676 0.44091
# Poissons Ratio (z) = 0.23082 0.25014
#
# Static dielectric constant tensor:
#      x y z
#    x 3.629040 0.000000 -0.129090 
#    y 0.000000 3.369120 0.000000 
#    z -0.129090 0.000000 3.528060 
# 
# 
# High freq. dielectric constant tensor:
#      x y z
#    x 1.748070 0.000000 -0.002880 
#    y 0.000000 1.742510 0.000000 
#    z -0.002880 0.000000 1.759660 
# 
# From -- ./inp_files/7763.got.cif
#   From: 2010.03.12/outbox.cif.g09.slc.cpg/sg4_4_cif.got.tgz:7763.got - 2010.03.31 09:31:35.
