data_PCOD8045335
_publ_section_title
;
Structure prediction by ZEFSAII (Michael W. Deem and Ramdas Pophale) SiO2 
 PCOD8045335
Probable space group: P 2
;
_chemical_formula_sum "Si O2"
_cell_formula_units_Z 14
_cell_length_a 19.291856
_cell_length_b 6.179870
_cell_length_c 10.845180
_cell_angle_alpha 90.000000
_cell_angle_beta 29.963788
_cell_angle_gamma 90.000000
_cell_volume 645.779650
_symmetry_space_group_name_H-M "P 2"
_symmetry_group_IT_number 3
_symmetry_cell_setting 'monoclinic'
loop_
_space_group_symop_operation_xyz
x,y,z
-x,y,-z
loop_
_atom_site_type_symbol
_atom_site_label
_atom_site_fract_x
_atom_site_fract_y
_atom_site_fract_z
Si Si1 0.615381 0.192880 0.153869
Si Si2 0.953030 0.178365 0.877936
Si Si3 0.216014 0.207393 0.614947
Si Si4 0.527863 0.918922 0.814195
Si Si5 0.869929 0.466841 0.788018
Si Si6 0.747668 0.840162 0.108064
Si Si7 0.396615 0.545605 0.459105
O O1 0.579532 0.087579 0.078103
O O2 0.493838 0.365981 0.377627
O O3 0.634698 0.019781 0.236772
O O4 0.762844 0.298188 0.894790
O O5 0.916355 0.382978 0.850390
O O6 0.118928 0.192880 0.643225
O O7 0.876739 0.192878 0.123264
O O8 0.895422 0.952294 0.912688
O O9 0.316907 0.002775 0.449840
O O10 0.296479 0.433466 0.511629
O O11 0.506299 0.695583 0.774608
O O12 0.500000 0.886834 0.000000
O O13 0.000000 0.498954 0.500000
O O14 0.787207 0.690175 0.931904
O O15 0.682652 0.692887 0.317355
#
# Coordination Sequence:
#
# PCOD8045335 Si02
#       7
#     2   2   2   2   2   2   2
#     4  10  26  45  68  98 141 174 220 286 339 390
#     4  10  22  44  70  97 134 175 221 277 333 398
#     4  10  22  44  70  97 134 175 221 277 333 398
#     4  11  25  44  68 101 135 174 227 275 342 403
#     4  11  25  44  68 101 135 174 227 275 342 403
#     4  11  23  45  70 101 132 178 230 276 334 402
#     4  11  23  45  70 101 132 178 230 276 334 402
#
# _framework density 21.679223
#
# number of rings (size 3 to 8) (size 9 to 14) (size 15 to 20)
#    0.000    1.429    2.857    0.857    2.000    9.143 
#    5.143    0.000    0.000    0.000    0.000    0.000 
#    0.000    0.000    0.000    0.000    0.000    0.000 
#
# Total GULP energy -173504.061256 kJ/mol
# GULP energy per Si atom -12393.147233 kJ/mol
# Density = 2.162988 g / cm^3
# Si number density = 21.679223 Si / 1000 Ang^3
#
#
#
# Elastic Constant Matrix: (Units=GPa)
#
#
# Indices 1 2 3 4 5 6 
#
# 1 123.6827 61.9432 59.2283 0.0000 -24.1179 0.0000
# 2 61.9432 136.8406 56.1779 0.0000 -4.7883 0.0000
# 3 59.2283 56.1779 92.9988 0.0000 -1.3713 0.0000
# 4 0.0000 0.0000 0.0000 27.7345 0.0000 -2.1283
# 5 -24.1179 -4.7883 -1.3713 0.0000 36.6274 0.0000
# 6 0.0000 0.0000 0.0000 -2.1283 0.0000 30.2912
#
#
#
# Elastic Compliance Matrix: (Units=1/GPa)
#
#
# Indices 1 2 3 4 5 6 
#
# 1 0.015211 -0.003510 -0.007430 0.000000 0.009278 0.000000
# 2 -0.003510 0.010568 -0.004164 0.000000 -0.001086 0.000000
# 3 -0.007430 -0.004164 0.017930 0.000000 -0.004765 0.000000
# 4 0.000000 0.000000 0.000000 0.036252 0.000000 0.002547
# 5 0.009278 -0.001086 -0.004765 0.000000 0.033091 0.000000
# 6 0.000000 0.000000 0.000000 0.002547 0.000000 0.033192
#
#
# Mechanical properties :
#
#
# Convention : Reuss Voigt Hill
#
# Bulk Modulus (GPa) = 74.07570 78.69119 76.38344
# Shear Modulus (GPa) = 27.63151 30.67547 29.15349
#
# Velocity S-wave (km/s) = 3.57397 3.76569 3.67108
# Velocity P-wave (km/s) = 7.16060 7.43532 7.29925
#
# Compressibility (1/GPa) = 0.01349970
#
# Stress axis : x y z
#
# Youngs Moduli (GPa) = 65.74402 94.62096 55.77249
#
# Poissons Ratio (x) = 0.33216 0.41438
# Poissons Ratio (y) = 0.23079 0.23226
# Poissons Ratio (z) = 0.48846 0.39404
#
# Static dielectric constant tensor:
#      x y z
#    x 4.657460 0.000000 -0.732640 
#    y 0.000000 4.286600 0.000000 
#    z -0.732640 0.000000 3.776290 
# 
# 
# High freq. dielectric constant tensor:
#      x y z
#    x 1.856860 0.000000 -0.016530 
#    y 0.000000 1.862540 0.000000 
#    z -0.016530 0.000000 1.836960 
# 
# From -- ./inp_files/12592.got.cif
#   From: 2010.03.12/outbox.cif.g09.slc.cpg/sg3_7_cif.got.tgz:12592.got - 2010.03.31 09:20:49.
