data_PCOD8045435
_publ_section_title
;
Structure prediction by ZEFSAII (Michael W. Deem and Ramdas Pophale) SiO2 
 PCOD8045435
Probable space group: P 2
;
_chemical_formula_sum "Si O2"
_cell_formula_units_Z 10
_cell_length_a 11.911706
_cell_length_b 5.365027
_cell_length_c 17.394537
_cell_angle_alpha 90.000000
_cell_angle_beta 157.942509
_cell_angle_gamma 90.000000
_cell_volume 417.456466
_symmetry_space_group_name_H-M "P 2"
_symmetry_group_IT_number 3
_symmetry_cell_setting 'monoclinic'
loop_
_space_group_symop_operation_xyz
x,y,z
-x,y,-z
loop_
_atom_site_type_symbol
_atom_site_label
_atom_site_fract_x
_atom_site_fract_y
_atom_site_fract_z
Si Si1 0.551901 0.915700 0.944408
Si Si2 0.349750 0.223022 0.328861
Si Si3 0.792544 0.399404 0.036722
Si Si4 0.000000 0.785374 0.500000
Si Si5 0.549648 0.504986 0.315430
Si Si6 0.000000 0.860492 0.000000
O O1 0.709524 0.660262 0.021021
O O2 0.249497 0.950891 0.701420
O O3 0.763841 0.159126 0.073724
O O4 0.500000 0.880336 0.000000
O O5 0.500000 0.101540 0.500000
O O6 0.584802 0.350335 0.417825
O O7 0.131947 0.440074 0.222521
O O8 0.127492 0.024966 0.150308
O O9 0.568029 0.319675 0.824949
O O10 0.140870 0.623193 0.518478
O O11 0.282114 0.706217 0.149020
#
# Coordination Sequence:
#
# PCOD8045435 Si02
#       6
#     2   2   2   1   2   1
#     4  11  26  46  72 103 148 193 239 302 369 438
#     4  12  26  41  74 110 139 195 251 312 363 445
#     4  11  23  48  72 103 147 192 243 302 370 438
#     4  10  26  44  72 106 136 198 240 300 360 446
#     4  11  24  47  75  98 151 191 248 302 373 443
#     4  12  22  50  70 104 152 198 240 314 376 436
#
# _framework density 23.954592999999999
#
# number of rings (size 3 to 8) (size 9 to 14) (size 15 to 20)
#    0.000    0.800    4.000    3.000    2.800    5.600 
#    0.000    0.000    0.000    0.000    0.000    0.000 
#    0.000    0.000    0.000    0.000    0.000    0.000 
#
# Total GULP energy -123894.751252 kJ/mol
# GULP energy per Si atom -12389.475125 kJ/mol
# Density = 2.390007 g / cm^3
# Si number density = 23.954593 Si / 1000 Ang^3
#
#
#
# Elastic Constant Matrix: (Units=GPa)
#
#
# Indices 1 2 3 4 5 6 
#
# 1 119.5617 29.6821 29.0911 0.0000 1.7556 0.0000
# 2 29.6821 106.0293 27.8975 0.0000 4.5469 0.0000
# 3 29.0911 27.8975 50.5876 0.0000 4.1462 0.0000
# 4 0.0000 0.0000 0.0000 14.0223 0.0000 -0.7597
# 5 1.7556 4.5469 4.1462 0.0000 56.0454 0.0000
# 6 0.0000 0.0000 0.0000 -0.7597 0.0000 9.1948
#
#
#
# Elastic Compliance Matrix: (Units=1/GPa)
#
#
# Indices 1 2 3 4 5 6 
#
# 1 0.009924 -0.001498 -0.004895 0.000000 0.000173 0.000000
# 2 -0.001498 0.011269 -0.005315 0.000000 -0.000474 0.000000
# 3 -0.004895 -0.005315 0.025621 0.000000 -0.001311 0.000000
# 4 0.000000 0.000000 0.000000 0.071635 0.000000 0.005919
# 5 0.000173 -0.000474 -0.001311 0.000000 0.017973 0.000000
# 6 0.000000 0.000000 0.000000 0.005919 0.000000 0.109246
#
#
# Mechanical properties :
#
#
# Convention : Reuss Voigt Hill
#
# Bulk Modulus (GPa) = 42.73588 49.94668 46.34128
# Shear Modulus (GPa) = 18.05811 28.48636 23.27224
#
# Velocity S-wave (km/s) = 2.74861 3.45219 3.12029
# Velocity P-wave (km/s) = 5.28699 6.06515 5.68939
#
# Compressibility (1/GPa) = 0.02339954
#
# Stress axis : x y z
#
# Youngs Moduli (GPa) = 100.76328 88.73698 39.03037
#
# Poissons Ratio (x) = 0.13289 0.19107
# Poissons Ratio (y) = 0.15090 0.20743
# Poissons Ratio (z) = 0.49327 0.47160
#
# Static dielectric constant tensor:
#      x y z
#    x 4.972490 0.000000 0.103300 
#    y 0.000000 4.101090 0.000000 
#    z 0.103300 0.000000 4.250960 
# 
# 
# High freq. dielectric constant tensor:
#      x y z
#    x 1.977410 0.000000 0.006360 
#    y 0.000000 1.940500 0.000000 
#    z 0.006360 0.000000 1.935350 
# 
# From -- ./inp_files/4908.got.cif
#   From: 2010.03.12/outbox.cif.g09.slc.cpg/sg3_3_cif.got.tgz:4908.got - 2010.03.31 09:20:49.
