data_PCOD8045703
_publ_section_title
;
Structure prediction by ZEFSAII (Michael W. Deem and Ramdas Pophale) SiO2 
 PCOD8045703
Probable space group: P 21
;
_chemical_formula_sum "Si O2"
_cell_formula_units_Z 16
_cell_length_a 28.820439
_cell_length_b 5.114508
_cell_length_c 8.312812
_cell_angle_alpha 90.000000
_cell_angle_beta 37.672779
_cell_angle_gamma 90.000000
_cell_volume 748.860606
_symmetry_space_group_name_H-M "P 21"
_symmetry_group_IT_number 4
_symmetry_cell_setting 'monoclinic'
loop_
_space_group_symop_operation_xyz
x,y,z
-x,1/2+y,-z
loop_
_atom_site_type_symbol
_atom_site_label
_atom_site_fract_x
_atom_site_fract_y
_atom_site_fract_z
Si Si1 0.031458 0.698700 0.490529
Si Si2 0.976212 0.478390 0.976440
Si Si3 0.287951 0.340118 0.875094
Si Si4 0.190681 0.837614 0.516863
Si Si5 0.718004 0.834674 0.727094
Si Si6 0.196319 0.837629 0.119183
Si Si7 0.458144 0.334263 0.419595
Si Si8 0.547901 0.836720 0.180014
O O1 0.117845 0.796603 0.240874
O O2 0.019103 0.458645 0.400328
O O3 0.014409 0.580227 0.710620
O O4 0.891533 0.374297 0.178147
O O5 0.974574 0.727013 0.101730
O O6 0.289841 0.335691 0.061030
O O7 0.253001 0.609707 0.909673
O O8 0.235614 0.105215 0.953512
O O9 0.374003 0.322943 0.573829
O O10 0.228530 0.571641 0.476923
O O11 0.180857 0.836993 0.351949
O O12 0.244344 0.066935 0.433595
O O13 0.634348 0.849945 0.878797
O O14 0.504364 0.584995 0.230847
O O15 0.452633 0.335755 0.626449
O O16 0.503824 0.084843 0.231342
#
# Coordination Sequence:
#
# PCOD8045703 Si02
#       8
#     2   2   2   2   2   2   2   2
#     4  12  26  42  60  86 118 152 191 246 310 357
#     4  12  24  40  64  86 112 150 199 251 292 346
#     4   9  17  27  45  67  96 134 187 228 266 321
#     4  10  19  32  52  76 100 137 189 239 270 327
#     4   9  17  27  42  69 100 135 179 227 276 322
#     4  10  19  34  51  73 102 141 181 238 280 334
#     4   9  15  23  36  59  89 135 180 215 253 323
#     4   9  15  23  36  56  95 136 172 214 263 324
#
# _framework density 21.365793
#
# number of rings (size 3 to 8) (size 9 to 14) (size 15 to 20)
#    0.000    2.000    1.250    3.750    3.500    6.000 
#    0.000    0.000    0.000    0.000    0.000    0.000 
#    0.000    0.000    0.000   63.000    0.000   28.000 
#
# Total GULP energy -198398.876192 kJ/mol
# GULP energy per Si atom -12399.929762 kJ/mol
# Density = 2.131716 g / cm^3
# Si number density = 21.365793 Si / 1000 Ang^3
#
#
#
# Elastic Constant Matrix: (Units=GPa)
#
#
# Indices 1 2 3 4 5 6 
#
# 1 50.2985 39.6034 45.4354 0.0000 -29.7932 0.0000
# 2 39.6034 185.1267 55.1486 0.0000 -34.8004 0.0000
# 3 45.4354 55.1486 96.5963 0.0000 -53.0270 0.0000
# 4 0.0000 0.0000 0.0000 35.9417 0.0000 -17.3535
# 5 -29.7932 -34.8004 -53.0270 0.0000 38.0487 0.0000
# 6 0.0000 0.0000 0.0000 -17.3535 0.0000 27.9706
#
#
#
# Elastic Compliance Matrix: (Units=1/GPa)
#
#
# Indices 1 2 3 4 5 6 
#
# 1 0.039270 -0.002908 -0.005920 0.000000 0.019839 0.000000
# 2 -0.002908 0.006823 -0.001497 0.000000 0.001876 0.000000
# 3 -0.005920 -0.001497 0.045523 0.000000 0.057439 0.000000
# 4 0.000000 0.000000 0.000000 0.039722 0.000000 0.024644
# 5 0.019839 0.001876 0.057439 0.000000 0.123583 0.000000
# 6 0.000000 0.000000 0.000000 0.024644 0.000000 0.051041
#
#
# Mechanical properties :
#
#
# Convention : Reuss Voigt Hill
#
# Bulk Modulus (GPa) = 14.09155 68.04403 41.06779
# Shear Modulus (GPa) = 14.27482 33.18114 23.72798
#
# Velocity S-wave (km/s) = 2.58760 3.94509 3.33612
# Velocity P-wave (km/s) = 3.94173 7.25727 5.83974
#
# Compressibility (1/GPa) = 0.07096453
#
# Stress axis : x y z
#
# Youngs Moduli (GPa) = 25.46481 146.57279 21.96686
#
# Poissons Ratio (x) = 0.42621 0.13005
# Poissons Ratio (y) = 0.07405 0.03289
# Poissons Ratio (z) = 0.15076 0.21946
#
# Static dielectric constant tensor:
#      x y z
#    x 3.551550 0.000000 -0.500660 
#    y 0.000000 4.261230 0.000000 
#    z -0.500660 0.000000 3.698080 
# 
# 
# High freq. dielectric constant tensor:
#      x y z
#    x 1.795060 0.000000 -0.044020 
#    y 0.000000 1.860900 0.000000 
#    z -0.044020 0.000000 1.824140 
# 
# From -- ./inp_files/10174.got.cif
#   From: 2010.03.12/outbox.cif.g09.slc.cpg/sg4_6_cif.got.tgz:10174.got - 2010.03.31 09:31:35.
