data_PCOD8045980
_publ_section_title
;
Structure prediction by ZEFSAII (Michael W. Deem and Ramdas Pophale) SiO2 
 PCOD8045980
Probable space group: P 21
;
_chemical_formula_sum "Si O2"
_cell_formula_units_Z 16
_cell_length_a 8.742881
_cell_length_b 8.801132
_cell_length_c 11.090698
_cell_angle_alpha 90.000000
_cell_angle_beta 57.011812
_cell_angle_gamma 90.000000
_cell_volume 715.816186
_symmetry_space_group_name_H-M "P 21"
_symmetry_group_IT_number 4
_symmetry_cell_setting 'monoclinic'
loop_
_space_group_symop_operation_xyz
x,y,z
-x,1/2+y,-z
loop_
_atom_site_type_symbol
_atom_site_label
_atom_site_fract_x
_atom_site_fract_y
_atom_site_fract_z
Si Si1 0.207415 0.745250 0.541552
Si Si2 0.338607 0.900586 0.823287
Si Si3 0.407157 0.902237 0.262694
Si Si4 0.030902 0.782301 0.107509
Si Si5 0.895658 0.561270 0.764854
Si Si6 0.719500 0.711478 0.049630
Si Si7 0.481952 0.169680 0.402693
Si Si8 0.152355 0.047673 0.677404
O O1 0.313568 0.756616 0.369061
O O2 0.342707 0.689818 0.588252
O O3 0.043451 0.624592 0.606359
O O4 0.118159 0.914155 0.596193
O O5 0.515608 0.810069 0.695316
O O6 0.382423 0.048794 0.884219
O O7 0.218470 0.959089 0.765637
O O8 0.219260 0.779232 0.952099
O O9 0.565144 0.839877 0.107919
O O10 0.266963 0.990592 0.240312
O O11 0.494606 0.009889 0.327556
O O12 0.858213 0.758168 0.095324
O O13 0.026612 0.645678 0.208779
O O14 0.010953 0.942304 0.184310
O O15 0.822547 0.701986 0.877377
O O16 0.300217 0.169622 0.562141
#
# Coordination Sequence:
#
# PCOD8045980 Si02
#       8
#     2   2   2   2   2   2   2   2
#     4  10  21  41  62  87 121 161 204 247 297 366
#     4   9  19  34  57  90 117 151 202 253 292 343
#     4  11  25  41  61  93 126 159 199 254 311 356
#     4  10  20  38  64  90 118 159 206 246 297 365
#     4  11  25  41  61  93 126 159 199 254 311 356
#     4  10  21  41  62  87 121 161 204 247 297 366
#     4  10  20  38  64  90 118 159 206 246 297 365
#     4   9  19  34  57  90 117 151 202 253 292 343
#
# _framework density 22.352108000000001
#
# number of rings (size 3 to 8) (size 9 to 14) (size 15 to 20)
#    0.000    2.000    0.000    3.750    0.000   10.000 
#    0.000    2.500    0.000    0.000    0.000    0.000 
#    0.000    0.000    0.000    0.000    0.000    0.000 
#
# Total GULP energy -198300.167670 kJ/mol
# GULP energy per Si atom -12393.760479 kJ/mol
# Density = 2.230123 g / cm^3
# Si number density = 22.352108 Si / 1000 Ang^3
#
#
#
# Elastic Constant Matrix: (Units=GPa)
#
#
# Indices 1 2 3 4 5 6 
#
# 1 77.2168 33.9819 18.2192 0.0000 -2.5794 0.0000
# 2 33.9819 72.7305 37.5273 0.0000 -5.6073 0.0000
# 3 18.2192 37.5273 75.3969 0.0000 1.2571 0.0000
# 4 0.0000 0.0000 0.0000 63.8508 0.0000 -10.1051
# 5 -2.5794 -5.6073 1.2571 0.0000 12.4024 0.0000
# 6 0.0000 0.0000 0.0000 -10.1051 0.0000 26.8566
#
#
#
# Elastic Compliance Matrix: (Units=1/GPa)
#
#
# Indices 1 2 3 4 5 6 
#
# 1 0.016305 -0.007514 -0.000200 0.000000 0.000014 0.000000
# 2 -0.007514 0.023103 -0.009848 0.000000 0.009881 0.000000
# 3 -0.000200 -0.009848 0.018319 0.000000 -0.006351 0.000000
# 4 0.000000 0.000000 0.000000 0.016653 0.000000 0.006266
# 5 0.000014 0.009881 -0.006351 0.000000 0.085743 0.000000
# 6 0.000000 0.000000 0.000000 0.006266 0.000000 0.039592
#
#
# Mechanical properties :
#
#
# Convention : Reuss Voigt Hill
#
# Bulk Modulus (GPa) = 44.24251 44.97787 44.61019
# Shear Modulus (GPa) = 20.62914 29.66302 25.14608
#
# Velocity S-wave (km/s) = 3.04125 3.64686 3.35774
# Velocity P-wave (km/s) = 5.67174 6.15621 5.91894
#
# Compressibility (1/GPa) = 0.02260270
#
# Stress axis : x y z
#
# Youngs Moduli (GPa) = 61.33101 43.28389 54.58730
#
# Poissons Ratio (x) = 0.32522 0.01094
# Poissons Ratio (y) = 0.46082 0.53759
# Poissons Ratio (z) = 0.01230 0.42627
#
# Static dielectric constant tensor:
#      x y z
#    x 3.433860 0.000000 0.044070 
#    y 0.000000 4.409980 0.000000 
#    z 0.044070 0.000000 4.583950 
# 
# 
# High freq. dielectric constant tensor:
#      x y z
#    x 1.829090 0.000000 0.005060 
#    y 0.000000 1.883810 0.000000 
#    z 0.005060 0.000000 1.897930 
# 
# From -- ./inp_files/11028.got.cif
#   From: 2010.03.12/outbox.cif.g09.slc.cpg/sg4_6_cif.got.tgz:11028.got - 2010.03.31 09:31:35.
