data_PCOD8045952
_publ_section_title
;
Structure prediction by ZEFSAII (Michael W. Deem and Ramdas Pophale) SiO2 
 PCOD8045952
Probable space group: P 21
;
_chemical_formula_sum "Si O2"
_cell_formula_units_Z 12
_cell_length_a 8.812560
_cell_length_b 8.702298
_cell_length_c 9.444270
_cell_angle_alpha 90.000000
_cell_angle_beta 122.531644
_cell_angle_gamma 90.000000
_cell_volume 610.633639
_symmetry_space_group_name_H-M "P 21"
_symmetry_group_IT_number 4
_symmetry_cell_setting 'monoclinic'
loop_
_space_group_symop_operation_xyz
x,y,z
-x,1/2+y,-z
loop_
_atom_site_type_symbol
_atom_site_label
_atom_site_fract_x
_atom_site_fract_y
_atom_site_fract_z
Si Si1 0.714213 0.047830 0.687572
Si Si2 0.010562 0.163119 0.351390
Si Si3 0.043616 0.022794 0.665999
Si Si4 0.717972 0.019721 0.017278
Si Si5 0.617623 0.727774 0.139873
Si Si6 0.392865 0.266342 0.545714
O O1 0.585430 0.193711 0.611501
O O2 0.906900 0.085690 0.716546
O O3 0.612602 0.917146 0.550052
O O4 0.742802 0.997283 0.862985
O O5 0.944494 0.338943 0.326419
O O6 0.908168 0.070614 0.177743
O O7 0.968852 0.078676 0.477629
O O8 0.223618 0.156126 0.421654
O O9 0.237868 0.090914 0.798516
O O10 0.653993 0.855385 0.041288
O O11 0.575038 0.151281 0.984778
O O12 0.625603 0.808167 0.297547
#
# Coordination Sequence:
#
# PCOD8045952 Si02
#       6
#     2   2   2   2   2   2
#     4  10  22  37  57  84 111 142 185 234 277 319
#     4  10  20  38  58  81 112 148 188 226 271 337
#     4  10  21  38  59  82 111 151 188 222 274 336
#     4  11  22  37  58  85 113 143 186 236 277 321
#     4  10  22  39  58  81 112 152 186 222 278 338
#     4   9  21  39  56  79 111 148 185 220 275 339
#
# _framework density 19.651717999999999
#
# number of rings (size 3 to 8) (size 9 to 14) (size 15 to 20)
#    0.000    2.000    0.000    4.000    0.000   10.667 
#    0.000    3.333    0.000    0.000    0.000    0.000 
#    0.000    0.000    0.000    0.000    0.000    0.000 
#
# Total GULP energy -148826.452019 kJ/mol
# GULP energy per Si atom -12402.204335 kJ/mol
# Density = 1.960699 g / cm^3
# Si number density = 19.651718 Si / 1000 Ang^3
#
#
#
# Elastic Constant Matrix: (Units=GPa)
#
#
# Indices 1 2 3 4 5 6 
#
# 1 61.0426 -3.2941 9.3483 0.0000 -10.6134 0.0000
# 2 -3.2941 42.0020 1.2777 0.0000 -14.0731 0.0000
# 3 9.3483 1.2777 69.0166 0.0000 -3.2962 0.0000
# 4 0.0000 0.0000 0.0000 38.9600 0.0000 -1.4114
# 5 -10.6134 -14.0731 -3.2962 0.0000 27.2358 0.0000
# 6 0.0000 0.0000 0.0000 -1.4114 0.0000 23.7527
#
#
#
# Elastic Compliance Matrix: (Units=1/GPa)
#
#
# Indices 1 2 3 4 5 6 
#
# 1 0.018599 0.004675 -0.002157 0.000000 0.009402 0.000000
# 2 0.004675 0.029970 -0.000364 0.000000 0.017264 0.000000
# 3 -0.002157 -0.000364 0.014825 0.000000 0.000766 0.000000
# 4 0.000000 0.000000 0.000000 0.025723 0.000000 0.001529
# 5 0.009402 0.017264 0.000766 0.000000 0.049393 0.000000
# 6 0.000000 0.000000 0.000000 0.001529 0.000000 0.042191
#
#
# Mechanical properties :
#
#
# Convention : Reuss Voigt Hill
#
# Bulk Modulus (GPa) = 14.77037 20.74722 17.75880
# Shear Modulus (GPa) = 25.13056 28.97165 27.05111
#
# Velocity S-wave (km/s) = 3.57991 3.84377 3.71418
# Velocity P-wave (km/s) = 4.96186 5.50271 5.23927
#
# Compressibility (1/GPa) = 0.06770310
#
# Stress axis : x y z
#
# Youngs Moduli (GPa) = 53.76535 33.36627 67.45493
#
# Poissons Ratio (x) = -0.15597 0.14548
# Poissons Ratio (y) = -0.25133 0.02452
# Poissons Ratio (z) = 0.11596 0.01213
#
# Static dielectric constant tensor:
#      x y z
#    x 3.680520 0.000000 0.033890 
#    y 0.000000 3.429270 0.000000 
#    z 0.033890 0.000000 3.678090 
# 
# 
# High freq. dielectric constant tensor:
#      x y z
#    x 1.772540 0.000000 0.004890 
#    y 0.000000 1.762000 0.000000 
#    z 0.004890 0.000000 1.773890 
# 
# From -- ./inp_files/5200.got.cif
#   From: 2010.03.12/outbox.cif.g09.slc.cpg/sg4_3_cif.got.tgz:5200.got - 2010.03.31 09:31:35.
