data_PCOD8045946
_publ_section_title
;
Structure prediction by ZEFSAII (Michael W. Deem and Ramdas Pophale) SiO2 
 PCOD8045946
Probable space group: P 21
;
_chemical_formula_sum "Si O2"
_cell_formula_units_Z 16
_cell_length_a 17.265854
_cell_length_b 6.503806
_cell_length_c 11.349605
_cell_angle_alpha 90.000000
_cell_angle_beta 141.486156
_cell_angle_gamma 90.000000
_cell_volume 793.629580
_symmetry_space_group_name_H-M "P 21"
_symmetry_group_IT_number 4
_symmetry_cell_setting 'monoclinic'
loop_
_space_group_symop_operation_xyz
x,y,z
-x,1/2+y,-z
loop_
_atom_site_type_symbol
_atom_site_label
_atom_site_fract_x
_atom_site_fract_y
_atom_site_fract_z
Si Si1 0.589954 0.820600 0.813147
Si Si2 0.317144 0.650417 0.923328
Si Si3 0.010351 0.739640 0.178747
Si Si4 0.346427 0.048279 0.519927
Si Si5 0.266242 0.730214 0.605238
Si Si6 0.864226 0.395822 0.895447
Si Si7 0.469865 0.434429 0.749483
Si Si8 0.811639 0.045971 0.005634
O O1 0.562241 0.577979 0.782227
O O2 0.467514 0.930934 0.617694
O O3 0.628059 0.917650 0.988877
O O4 0.702503 0.874113 0.857707
O O5 0.243143 0.708106 0.717060
O O6 0.217644 0.682716 0.911840
O O7 0.437630 0.797174 0.063680
O O8 0.137418 0.665800 0.391187
O O9 0.031359 0.823912 0.072301
O O10 0.941819 0.921054 0.171105
O O11 0.925166 0.537574 0.068314
O O12 0.378451 0.289499 0.565204
O O13 0.302971 0.954256 0.595921
O O14 0.240918 0.022699 0.297524
O O15 0.380546 0.576406 0.719979
O O16 0.807597 0.194379 0.888826
#
# Coordination Sequence:
#
# PCOD8045946 Si02
#       8
#     2   2   2   2   2   2   2   2
#     4   8  20  40  59  95 129 163 207 256 329 385
#     4   9  22  39  61  95 130 169 203 267 328 388
#     4  11  24  41  65  88 123 170 224 265 319 391
#     4   9  21  39  62  99 126 160 217 263 319 392
#     4  10  23  39  64  99 125 169 217 264 326 385
#     4  11  23  42  66  88 121 172 216 273 323 377
#     4  10  20  37  69  93 133 163 210 265 323 393
#     4  10  23  43  60  91 131 168 216 263 325 391
#
# _framework density 20.160539
#
# number of rings (size 3 to 8) (size 9 to 14) (size 15 to 20)
#    0.750    1.500    1.250    0.000    8.750    1.000 
#    4.500    1.250    0.000    0.000    0.000    0.000 
#    0.000    0.000    0.000    0.000    0.000    0.000 
#
# Total GULP energy -198214.497489 kJ/mol
# GULP energy per Si atom -12388.406093 kJ/mol
# Density = 2.011465 g / cm^3
# Si number density = 20.160539 Si / 1000 Ang^3
#
#
#
# Elastic Constant Matrix: (Units=GPa)
#
#
# Indices 1 2 3 4 5 6 
#
# 1 104.8429 36.4206 44.1497 0.0000 6.5740 0.0000
# 2 36.4206 112.4297 43.8926 0.0000 -1.5901 0.0000
# 3 44.1497 43.8926 91.5258 0.0000 1.3871 0.0000
# 4 0.0000 0.0000 0.0000 26.1962 0.0000 10.6472
# 5 6.5740 -1.5901 1.3871 0.0000 18.0468 0.0000
# 6 0.0000 0.0000 0.0000 10.6472 0.0000 33.3279
#
#
#
# Elastic Compliance Matrix: (Units=1/GPa)
#
#
# Indices 1 2 3 4 5 6 
#
# 1 0.012689 -0.002227 -0.004986 0.000000 -0.004435 0.000000
# 2 -0.002227 0.011368 -0.004410 0.000000 0.002152 0.000000
# 3 -0.004986 -0.004410 0.015442 0.000000 0.000241 0.000000
# 4 0.000000 0.000000 0.000000 0.043870 0.000000 -0.014015
# 5 -0.004435 0.002152 0.000241 0.000000 0.057198 0.000000
# 6 0.000000 0.000000 0.000000 -0.014015 0.000000 0.034482
#
#
# Mechanical properties :
#
#
# Convention : Reuss Voigt Hill
#
# Bulk Modulus (GPa) = 61.52386 61.96935 61.74660
# Shear Modulus (GPa) = 24.54428 27.80320 26.17374
#
# Velocity S-wave (km/s) = 3.49297 3.71764 3.60705
# Velocity P-wave (km/s) = 6.84478 7.01658 6.93121
#
# Compressibility (1/GPa) = 0.01625386
#
# Stress axis : x y z
#
# Youngs Moduli (GPa) = 78.80646 87.96654 64.75753
#
# Poissons Ratio (x) = 0.19589 0.32287
# Poissons Ratio (y) = 0.17549 0.28559
# Poissons Ratio (z) = 0.39292 0.38794
#
# Static dielectric constant tensor:
#      x y z
#    x 3.597550 0.000000 0.234980 
#    y 0.000000 3.763140 0.000000 
#    z 0.234980 0.000000 3.422000 
# 
# 
# High freq. dielectric constant tensor:
#      x y z
#    x 1.777310 0.000000 0.024160 
#    y 0.000000 1.785760 0.000000 
#    z 0.024160 0.000000 1.771790 
# 
# From -- ./inp_files/12765.got.cif
#   From: 2010.03.12/outbox.cif.g09.slc.cpg/sg4_7_cif.got.tgz:12765.got - 2010.03.31 09:31:35.
