data_PCOD8045198
_publ_section_title
;
Structure prediction by ZEFSAII (Michael W. Deem and Ramdas Pophale) SiO2 
 PCOD8045198
Probable space group: P 2
;
_chemical_formula_sum "Si O2"
_cell_formula_units_Z 12
_cell_length_a 20.158034
_cell_length_b 5.218803
_cell_length_c 23.343408
_cell_angle_alpha 90.000000
_cell_angle_beta 168.919576
_cell_angle_gamma 90.000000
_cell_volume 471.961557
_symmetry_space_group_name_H-M "P 2"
_symmetry_group_IT_number 3
_symmetry_cell_setting 'monoclinic'
loop_
_space_group_symop_operation_xyz
x,y,z
-x,y,-z
loop_
_atom_site_type_symbol
_atom_site_label
_atom_site_fract_x
_atom_site_fract_y
_atom_site_fract_z
Si Si1 0.745558 0.533380 0.330403
Si Si2 0.698053 0.701131 0.548589
Si Si3 0.252803 0.058511 0.503253
Si Si4 0.755254 0.868424 0.170394
Si Si5 0.603064 0.201074 0.652022
Si Si6 0.745944 0.343227 0.996485
O O1 0.541743 0.335180 0.197227
O O2 0.000000 0.392478 0.500000
O O3 0.972928 0.700838 0.565197
O O4 0.466911 0.700917 0.061178
O O5 0.642407 0.779181 0.433604
O O6 0.470169 0.455764 0.372637
O O7 0.615531 0.946599 0.517844
O O8 0.109992 0.622880 0.900932
O O9 0.975862 0.066326 0.320295
O O10 0.599059 0.200750 0.816389
O O11 0.086374 0.201157 0.307919
O O12 0.500000 0.009307 0.000000
O O13 0.500000 0.271042 0.500000
O O14 0.000000 0.130779 0.000000
#
# Coordination Sequence:
#
# PCOD8045198 Si02
#       6
#     2   2   2   2   2   2
#     4  10  21  40  66  99 149 206 264 326 385 451
#     4  12  28  54  82 120 160 202 262 326 394 486
#     4  12  27  44  74 113 153 207 264 324 395 461
#     4  10  21  40  66  99 149 206 264 326 385 451
#     4  12  30  54  84 118 156 204 252 320 404 488
#     4  12  27  44  74 113 153 207 264 324 395 461
#
# _framework density 25.425799000000001
#
# number of rings (size 3 to 8) (size 9 to 14) (size 15 to 20)
#    0.000    0.667    3.333    3.000    2.333    4.000 
#    0.000    0.000    0.000    0.000    0.000    0.000 
#    0.000    0.000    0.000    0.000    0.000    0.000 
#
# Total GULP energy -148702.388750 kJ/mol
# GULP energy per Si atom -12391.865729 kJ/mol
# Density = 2.536793 g / cm^3
# Si number density = 25.425799 Si / 1000 Ang^3
#
#
#
# Elastic Constant Matrix: (Units=GPa)
#
#
# Indices 1 2 3 4 5 6 
#
# 1 132.7397 63.8230 87.8620 0.0000 11.9250 0.0000
# 2 63.8230 136.9319 60.6345 0.0000 2.4412 0.0000
# 3 87.8620 60.6345 158.3515 0.0000 -35.2257 0.0000
# 4 0.0000 0.0000 0.0000 39.9967 0.0000 -7.6241
# 5 11.9250 2.4412 -35.2257 0.0000 56.2154 0.0000
# 6 0.0000 0.0000 0.0000 -7.6241 0.0000 31.6850
#
#
#
# Elastic Compliance Matrix: (Units=1/GPa)
#
#
# Indices 1 2 3 4 5 6 
#
# 1 0.016695 -0.003050 -0.010288 0.000000 -0.009856 0.000000
# 2 -0.003050 0.009776 -0.002326 0.000000 -0.001235 0.000000
# 3 -0.010288 -0.002326 0.015596 0.000000 0.012056 0.000000
# 4 0.000000 0.000000 0.000000 0.026204 0.000000 0.006305
# 5 -0.009856 -0.001235 0.012056 0.000000 0.027488 0.000000
# 6 0.000000 0.000000 0.000000 0.006305 0.000000 0.033078
#
#
# Mechanical properties :
#
#
# Convention : Reuss Voigt Hill
#
# Bulk Modulus (GPa) = 93.11253 94.74025 93.92639
# Shear Modulus (GPa) = 30.53537 39.95967 35.24752
#
# Velocity S-wave (km/s) = 3.46925 3.96867 3.72733
# Velocity P-wave (km/s) = 7.26281 7.63824 7.45289
#
# Compressibility (1/GPa) = 0.01073969
#
# Stress axis : x y z
#
# Youngs Moduli (GPa) = 59.89739 102.28620 64.11994
#
# Poissons Ratio (x) = 0.31200 0.65966
# Poissons Ratio (y) = 0.18270 0.14913
# Poissons Ratio (z) = 0.61622 0.23789
#
# Static dielectric constant tensor:
#      x y z
#    x 5.210910 0.000000 0.039920 
#    y 0.000000 4.409560 0.000000 
#    z 0.039920 0.000000 5.183840 
# 
# 
# High freq. dielectric constant tensor:
#      x y z
#    x 2.037240 0.000000 0.006190 
#    y 0.000000 1.998130 0.000000 
#    z 0.006190 0.000000 2.029850 
# 
# From -- ./inp_files/16383.got.cif
#   From: 2010.03.12/outbox.cif.g09.slc.cpg/sg3_9_cif.got.tgz:16383.got - 2010.03.31 09:20:49.
