data_PCOD8045850
_publ_section_title
;
Structure prediction by ZEFSAII (Michael W. Deem and Ramdas Pophale) SiO2 
 PCOD8045850
Probable space group: P 21
;
_chemical_formula_sum "Si O2"
_cell_formula_units_Z 12
_cell_length_a 7.725104
_cell_length_b 6.397496
_cell_length_c 15.351835
_cell_angle_alpha 90.000000
_cell_angle_beta 48.278457
_cell_angle_gamma 90.000000
_cell_volume 566.290536
_symmetry_space_group_name_H-M "P 21"
_symmetry_group_IT_number 4
_symmetry_cell_setting 'monoclinic'
loop_
_space_group_symop_operation_xyz
x,y,z
-x,1/2+y,-z
loop_
_atom_site_type_symbol
_atom_site_label
_atom_site_fract_x
_atom_site_fract_y
_atom_site_fract_z
Si Si1 0.976838 0.878530 0.635705
Si Si2 0.122315 0.469450 0.147804
Si Si3 0.688734 0.465173 0.186387
Si Si4 0.450918 0.223141 0.933702
Si Si5 0.723109 0.198202 0.606073
Si Si6 0.445643 0.077543 0.228950
O O1 0.044246 0.935696 0.712093
O O2 0.741435 0.752920 0.729236
O O3 0.175813 0.737274 0.524515
O O4 0.923125 0.087752 0.597519
O O5 0.305596 0.653301 0.106222
O O6 0.946399 0.532169 0.129175
O O7 0.261380 0.258686 0.073089
O O8 0.638450 0.560136 0.107961
O O9 0.504537 0.553655 0.319265
O O10 0.667146 0.211832 0.189564
O O11 0.484991 0.451613 0.880176
O O12 0.655122 0.423963 0.664949
#
# Coordination Sequence:
#
# PCOD8045850 Si02
#       6
#     2   2   2   2   2   2
#     4  11  20  40  68  97 128 177 225 273 333 401
#     4  12  25  44  69 100 133 175 236 276 332 418
#     4  10  25  45  63 100 137 173 229 281 343 396
#     4  11  25  44  67  97 135 177 222 281 347 399
#     4  10  20  40  69  93 134 178 218 279 341 389
#     4  10  19  43  66  91 131 178 214 274 342 391
#
# _framework density 21.190538
#
# number of rings (size 3 to 8) (size 9 to 14) (size 15 to 20)
#    0.000    1.333    6.667    1.000    2.333    0.000 
#   12.000    0.000    0.000    0.000    0.000    0.000 
#    0.000    0.000    0.000    0.000    0.000    0.000 
#
# Total GULP energy -148744.914000 kJ/mol
# GULP energy per Si atom -12395.409500 kJ/mol
# Density = 2.114231 g / cm^3
# Si number density = 21.190538 Si / 1000 Ang^3
#
#
#
# Elastic Constant Matrix: (Units=GPa)
#
#
# Indices 1 2 3 4 5 6 
#
# 1 118.2212 47.2666 35.6015 0.0000 -16.6044 0.0000
# 2 47.2666 115.5602 37.5864 0.0000 3.5155 0.0000
# 3 35.6015 37.5864 120.5201 0.0000 11.9258 0.0000
# 4 0.0000 0.0000 0.0000 43.1271 0.0000 0.7870
# 5 -16.6044 3.5155 11.9258 0.0000 23.8267 0.0000
# 6 0.0000 0.0000 0.0000 0.7870 0.0000 19.0384
#
#
#
# Elastic Compliance Matrix: (Units=1/GPa)
#
#
# Indices 1 2 3 4 5 6 
#
# 1 0.012929 -0.004480 -0.003555 0.000000 0.011450 0.000000
# 2 -0.004480 0.011183 -0.001780 0.000000 -0.003881 0.000000
# 3 -0.003555 -0.001780 0.010649 0.000000 -0.007545 0.000000
# 4 0.000000 0.000000 0.000000 0.023205 0.000000 -0.000959
# 5 0.011450 -0.003881 -0.007545 0.000000 0.054298 0.000000
# 6 0.000000 0.000000 0.000000 -0.000959 0.000000 0.052565
#
#
# Mechanical properties :
#
#
# Convention : Reuss Voigt Hill
#
# Bulk Modulus (GPa) = 66.09168 66.13451 66.11310
# Shear Modulus (GPa) = 26.38481 32.78824 29.58652
#
# Velocity S-wave (km/s) = 3.53246 3.93785 3.74065
# Velocity P-wave (km/s) = 6.92059 7.20782 7.06567
#
# Compressibility (1/GPa) = 0.01513050
#
# Stress axis : x y z
#
# Youngs Moduli (GPa) = 77.34735 89.42091 93.90340
#
# Poissons Ratio (x) = 0.40062 0.33382
# Poissons Ratio (y) = 0.34653 0.16716
# Poissons Ratio (z) = 0.27496 0.15918
#
# Static dielectric constant tensor:
#      x y z
#    x 3.565290 0.000000 0.072630 
#    y 0.000000 3.895910 0.000000 
#    z 0.072630 0.000000 4.005530 
# 
# 
# High freq. dielectric constant tensor:
#      x y z
#    x 1.799270 0.000000 0.006290 
#    y 0.000000 1.833800 0.000000 
#    z 0.006290 0.000000 1.842320 
# 
# From -- ./inp_files/10638.got.cif
#   From: 2010.03.12/outbox.cif.g09.slc.cpg/sg4_6_cif.got.tgz:10638.got - 2010.03.31 09:31:35.
