data_PCOD8045396
_publ_section_title
;
Structure prediction by ZEFSAII (Michael W. Deem and Ramdas Pophale) SiO2 
 PCOD8045396
Probable space group: P 2
;
_chemical_formula_sum "Si O2"
_cell_formula_units_Z 10
_cell_length_a 12.774743
_cell_length_b 5.934724
_cell_length_c 6.287538
_cell_angle_alpha 90.000000
_cell_angle_beta 65.754603
_cell_angle_gamma 90.000000
_cell_volume 434.640854
_symmetry_space_group_name_H-M "P 2"
_symmetry_group_IT_number 3
_symmetry_cell_setting 'monoclinic'
loop_
_space_group_symop_operation_xyz
x,y,z
-x,y,-z
loop_
_atom_site_type_symbol
_atom_site_label
_atom_site_fract_x
_atom_site_fract_y
_atom_site_fract_z
Si Si1 0.402015 0.678990 0.423197
Si Si2 0.305674 0.353454 0.161053
Si Si3 0.211206 0.691938 0.899425
Si Si4 0.092599 0.079675 0.265359
Si Si5 0.000000 0.400662 0.000000
Si Si6 0.500000 0.020984 0.000000
O O1 0.500000 0.589883 0.500000
O O2 0.356437 0.464755 0.330706
O O3 0.295963 0.783342 0.645850
O O4 0.452351 0.871300 0.231112
O O5 0.188236 0.221942 0.313565
O O6 0.285411 0.542389 0.999954
O O7 0.397870 0.175493 0.992949
O O8 0.111786 0.552211 0.866341
O O9 0.154777 0.897829 0.069392
O O10 0.000000 0.962343 0.500000
O O11 0.016480 0.249749 0.192565
#
# Coordination Sequence:
#
# PCOD8045396 Si02
#       6
#     2   2   2   2   1   1
#     4  12  25  44  68  97 131 173 222 274 329 391
#     4  11  25  45  67  97 134 176 219 269 332 391
#     4  11  25  45  69  99 135 174 220 271 326 391
#     4  11  24  44  69  99 135 175 219 269 326 389
#     4  10  24  42  68 102 134 176 218 264 326 392
#     4  12  26  44  68  98 130 172 224 276 330 388
#
# _framework density 23.007501999999999
#
# number of rings (size 3 to 8) (size 9 to 14) (size 15 to 20)
#    0.000    0.800    0.000    7.200    0.000   15.200 
#    0.000    2.000    0.000    0.000    0.000    0.000 
#    0.000    0.000    0.000    0.000    0.000    0.000 
#
# Total GULP energy -124038.594921 kJ/mol
# GULP energy per Si atom -12403.859492 kJ/mol
# Density = 2.295514 g / cm^3
# Si number density = 23.007502 Si / 1000 Ang^3
#
#
#
# Elastic Constant Matrix: (Units=GPa)
#
#
# Indices 1 2 3 4 5 6 
#
# 1 181.5210 78.1154 84.8569 0.0000 4.9848 0.0000
# 2 78.1154 135.1159 81.0695 0.0000 -6.0300 0.0000
# 3 84.8569 81.0695 178.7317 0.0000 -39.4097 0.0000
# 4 0.0000 0.0000 0.0000 28.2242 0.0000 -19.1754
# 5 4.9848 -6.0300 -39.4097 0.0000 42.0742 0.0000
# 6 0.0000 0.0000 0.0000 -19.1754 0.0000 5.7394
#
#
#
# Elastic Compliance Matrix: (Units=1/GPa)
#
#
# Indices 1 2 3 4 5 6 
#
# 1 0.008767 -0.002907 -0.003988 0.000000 -0.005191 0.000000
# 2 -0.002907 0.011586 -0.004327 0.000000 -0.002048 0.000000
# 3 -0.003988 -0.004327 0.011870 0.000000 0.010971 0.000000
# 4 0.000000 0.000000 0.000000 -0.027901 0.000000 -0.093217
# 5 -0.005191 -0.002048 0.010971 0.000000 0.034365 0.000000
# 6 0.000000 0.000000 0.000000 -0.093217 0.000000 -0.137206
#
#
# Mechanical properties :
#
#
# Convention : Reuss Voigt Hill
#
# Bulk Modulus (GPa) = 102.25817 109.27245 105.76531
# Shear Modulus (GPa) = -68.66813 31.96268 -18.35272
#
# Velocity S-wave (km/s) = -5.46907 3.73128 -2.82739
# Velocity P-wave (km/s) = 2.15894 8.13392 5.95070
#
# Compressibility (1/GPa) = 0.00977917
#
# Stress axis : x y z
#
# Youngs Moduli (GPa) = 114.06264 86.30799 84.24605
#
# Poissons Ratio (x) = 0.25092 0.33600
# Poissons Ratio (y) = 0.33161 0.36450
# Poissons Ratio (z) = 0.45492 0.37342
#
# Static dielectric constant tensor:
#      x y z
#    x 4.674280 0.000000 -0.128060 
#    y 0.000000 4.144370 0.000000 
#    z -0.128060 0.000000 4.019660 
# 
# 
# High freq. dielectric constant tensor:
#      x y z
#    x 1.940950 0.000000 -0.009880 
#    y 0.000000 1.908000 0.000000 
#    z -0.009880 0.000000 1.904330 
# 
# From -- ./inp_files/1922.got.cif
#   From: 2010.03.12/outbox.cif.g09.slc.cpg/sg3_1_cif.got.tgz:1922.got - 2010.03.31 09:20:49.
