data_PCOD8045098
_publ_section_title
;
Structure prediction by ZEFSAII (Michael W. Deem and Ramdas Pophale) SiO2 
 PCOD8045098
Probable space group: P 2
;
_chemical_formula_sum "Si O2"
_cell_formula_units_Z 11
_cell_length_a 8.523481
_cell_length_b 7.632222
_cell_length_c 12.869977
_cell_angle_alpha 90.000000
_cell_angle_beta 144.027508
_cell_angle_gamma 90.000000
_cell_volume 491.787309
_symmetry_space_group_name_H-M "P 2"
_symmetry_group_IT_number 3
_symmetry_cell_setting 'monoclinic'
loop_
_space_group_symop_operation_xyz
x,y,z
-x,y,-z
loop_
_atom_site_type_symbol
_atom_site_label
_atom_site_fract_x
_atom_site_fract_y
_atom_site_fract_z
Si Si1 0.718049 0.049990 0.698843
Si Si2 0.000000 0.903955 0.500000
Si Si3 0.801893 0.979733 0.182666
Si Si4 0.553355 0.747454 0.752204
Si Si5 0.748967 0.610890 0.077097
Si Si6 0.183833 0.426399 0.197687
O O1 0.500000 0.981560 0.500000
O O2 0.649992 0.248905 0.695378
O O3 0.708823 0.918538 0.791501
O O4 0.011342 0.060491 0.805774
O O5 0.101224 0.029982 0.648580
O O6 0.239144 0.780886 0.588470
O O7 0.500000 0.044546 0.000000
O O8 0.828741 0.768412 0.196656
O O9 0.674702 0.706042 0.929356
O O10 0.603798 0.582296 0.703776
O O11 0.500000 0.511356 0.000000
O O12 0.990901 0.475191 0.191621
O O13 0.000000 0.397757 0.000000
#
# Coordination Sequence:
#
# PCOD8045098 Si02
#       6
#     2   1   2   2   2   2
#     4  12  26  43  68 101 136 180 225 279 339 404
#     4  12  22  40  72 100 132 176 230 278 344 398
#     4  11  23  40  70 102 132 180 223 277 342 403
#     4  11  23  43  67  98 132 175 227 281 332 401
#     4  10  20  41  69  97 129 175 225 271 340 400
#     4  10  25  41  67  99 132 175 225 279 334 402
#
# _framework density 22.367391999999999
#
# number of rings (size 3 to 8) (size 9 to 14) (size 15 to 20)
#    0.000    1.091    7.273    0.000    2.545    2.909 
#    0.000    2.727    0.000    0.000    0.000    0.000 
#    0.000    0.000    0.000    0.000    0.000    0.000 
#
# Total GULP energy -136398.904059 kJ/mol
# GULP energy per Si atom -12399.900369 kJ/mol
# Density = 2.231648 g / cm^3
# Si number density = 22.367392 Si / 1000 Ang^3
#
#
#
# Elastic Constant Matrix: (Units=GPa)
#
#
# Indices 1 2 3 4 5 6 
#
# 1 165.6309 51.7851 34.4578 0.0000 10.5709 0.0000
# 2 51.7851 112.1792 11.6361 0.0000 0.8941 0.0000
# 3 34.4578 11.6361 91.4941 0.0000 1.4079 0.0000
# 4 0.0000 0.0000 0.0000 18.1152 0.0000 -1.1021
# 5 10.5709 0.8941 1.4079 0.0000 35.7551 0.0000
# 6 0.0000 0.0000 0.0000 -1.1021 0.0000 13.4800
#
#
#
# Elastic Compliance Matrix: (Units=1/GPa)
#
#
# Indices 1 2 3 4 5 6 
#
# 1 0.007710 -0.003288 -0.002453 0.000000 -0.002101 0.000000
# 2 -0.003288 0.010437 -0.000100 0.000000 0.000715 0.000000
# 3 -0.002453 -0.000100 0.011862 0.000000 0.000261 0.000000
# 4 0.000000 0.000000 0.000000 0.055478 0.000000 0.004536
# 5 -0.002101 0.000715 0.000261 0.000000 0.028561 0.000000
# 6 0.000000 0.000000 0.000000 0.004536 0.000000 0.074555
#
#
# Mechanical properties :
#
#
# Convention : Reuss Voigt Hill
#
# Bulk Modulus (GPa) = 54.56529 62.78469 58.67499
# Shear Modulus (GPa) = 24.22552 31.56508 27.89530
#
# Velocity S-wave (km/s) = 3.29458 3.76068 3.53532
# Velocity P-wave (km/s) = 6.23861 6.85475 6.55393
#
# Compressibility (1/GPa) = 0.01832667
#
# Stress axis : x y z
#
# Youngs Moduli (GPa) = 129.70302 95.81495 84.30081
#
# Poissons Ratio (x) = 0.31503 0.20680
# Poissons Ratio (y) = 0.42645 0.00844
# Poissons Ratio (z) = 0.31818 0.00959
#
# Static dielectric constant tensor:
#      x y z
#    x 4.511100 0.000000 -0.040440 
#    y 0.000000 3.730500 0.000000 
#    z -0.040440 0.000000 3.855200 
# 
# 
# High freq. dielectric constant tensor:
#      x y z
#    x 1.903290 0.000000 -0.000530 
#    y 0.000000 1.847610 0.000000 
#    z -0.000530 0.000000 1.874250 
# 
# From -- ./inp_files/10387.got.cif
#   From: 2010.03.12/outbox.cif.g09.slc.cpg/sg3_6_cif.got.tgz:10387.got - 2010.03.31 09:20:49.
