data_PCOD8045455
_publ_section_title
;
Structure prediction by ZEFSAII (Michael W. Deem and Ramdas Pophale) SiO2 
 PCOD8045455
Probable space group: P 2
;
_chemical_formula_sum "Si O2"
_cell_formula_units_Z 16
_cell_length_a 12.638605
_cell_length_b 7.719206
_cell_length_c 12.638683
_cell_angle_alpha 90.000000
_cell_angle_beta 40.128100
_cell_angle_gamma 90.000000
_cell_volume 794.686138
_symmetry_space_group_name_H-M "P 2"
_symmetry_group_IT_number 3
_symmetry_cell_setting 'monoclinic'
loop_
_space_group_symop_operation_xyz
x,y,z
-x,y,-z
loop_
_atom_site_type_symbol
_atom_site_label
_atom_site_fract_x
_atom_site_fract_y
_atom_site_fract_z
Si Si1 0.302934 0.120500 0.936962
Si Si2 0.182839 0.253627 0.817172
Si Si3 0.204720 0.763413 0.567233
Si Si4 0.817526 0.642520 0.182484
Si Si5 0.432738 0.763406 0.795289
Si Si6 0.506350 0.435692 0.870972
Si Si7 0.063072 0.120504 0.697059
Si Si8 0.870945 0.435683 0.506376
O O1 0.297366 0.156935 0.814777
O O2 0.401397 0.269575 0.920460
O O3 0.397874 0.941002 0.884887
O O4 0.123165 0.109840 0.123191
O O5 0.251178 0.448181 0.748817
O O6 0.185238 0.156874 0.702657
O O7 0.000000 0.264065 0.000000
O O8 0.185195 0.745369 0.706899
O O9 0.393972 0.772792 0.393958
O O10 0.116329 0.604871 0.576557
O O11 0.115148 0.941033 0.602091
O O12 0.706903 0.745416 0.185228
O O13 0.000000 0.641521 0.000000
O O14 0.423374 0.604816 0.883680
O O15 0.691041 0.409335 0.691069
O O16 0.500000 0.462729 0.000000
O O17 0.079620 0.269623 0.598600
O O18 0.000000 0.462599 0.500000
#
# Coordination Sequence:
#
# PCOD8045455 Si02
#       8
#     2   2   2   2   2   2   2   2
#     4  11  22  40  66  95 127 165 207 252 308 372
#     4   9  19  35  60  93 125 160 201 246 302 369
#     4  11  24  41  62  94 130 164 205 255 313 372
#     4  11  20  37  64  93 127 164 207 252 308 375
#     4  11  24  41  62  94 130 164 205 255 313 372
#     4  11  25  44  65  89 122 163 211 262 312 367
#     4  11  22  40  66  95 127 165 207 252 308 372
#     4  11  25  44  65  89 122 163 211 262 312 367
#
# _framework density 20.133735000000001
#
# number of rings (size 3 to 8) (size 9 to 14) (size 15 to 20)
#    0.000    1.250    2.500    3.375    0.000    5.000 
#    0.000    4.375    0.000    0.000    0.000    0.000 
#    0.000    0.000    0.000    0.000    0.000    0.000 
#
# Total GULP energy -198487.778604 kJ/mol
# GULP energy per Si atom -12405.486163 kJ/mol
# Density = 2.008791 g / cm^3
# Si number density = 20.133735 Si / 1000 Ang^3
#
#
#
# Elastic Constant Matrix: (Units=GPa)
#
#
# Indices 1 2 3 4 5 6 
#
# 1 122.4155 54.6802 45.3072 0.0000 9.8857 0.0000
# 2 54.6802 172.8061 52.7920 0.0000 0.8842 0.0000
# 3 45.3072 52.7920 83.4106 0.0000 6.5560 0.0000
# 4 0.0000 0.0000 0.0000 33.8582 0.0000 -8.7726
# 5 9.8857 0.8842 6.5560 0.0000 28.2514 0.0000
# 6 0.0000 0.0000 0.0000 -8.7726 0.0000 12.9230
#
#
#
# Elastic Compliance Matrix: (Units=1/GPa)
#
#
# Indices 1 2 3 4 5 6 
#
# 1 0.010963 -0.002110 -0.004404 0.000000 -0.002748 0.000000
# 2 -0.002110 0.007600 -0.003772 0.000000 0.001376 0.000000
# 3 -0.004404 -0.003772 0.016947 0.000000 -0.002274 0.000000
# 4 0.000000 0.000000 0.000000 0.035838 0.000000 0.024328
# 5 -0.002748 0.001376 -0.002274 0.000000 0.036843 0.000000
# 6 0.000000 0.000000 0.000000 0.024328 0.000000 0.093896
#
#
# Mechanical properties :
#
#
# Convention : Reuss Voigt Hill
#
# Bulk Modulus (GPa) = 66.93986 76.02125 71.48056
# Shear Modulus (GPa) = 21.96474 30.06338 26.01406
#
# Velocity S-wave (km/s) = 3.30652 3.86837 3.59843
# Velocity P-wave (km/s) = 6.92078 7.60214 7.26945
#
# Compressibility (1/GPa) = 0.01493878
#
# Stress axis : x y z
#
# Youngs Moduli (GPa) = 91.21599 131.58360 59.00703
#
# Poissons Ratio (x) = 0.27759 0.25985
# Poissons Ratio (y) = 0.19243 0.22259
# Poissons Ratio (z) = 0.40169 0.49637
#
# Static dielectric constant tensor:
#      x y z
#    x 3.682490 0.000000 0.027420 
#    y 0.000000 3.944050 0.000000 
#    z 0.027420 0.000000 3.617410 
# 
# 
# High freq. dielectric constant tensor:
#      x y z
#    x 1.784290 0.000000 -0.000940 
#    y 0.000000 1.806890 0.000000 
#    z -0.000940 0.000000 1.786550 
# 
# From -- ./inp_files/11687.got.cif
#   From: 2010.03.12/outbox.cif.g09.slc.cpg/sg3_6_cif.got.tgz:11687.got - 2010.03.31 09:20:49.
