data_PCOD8045162
_publ_section_title
;
Structure prediction by ZEFSAII (Michael W. Deem and Ramdas Pophale) SiO2 
 PCOD8045162
Probable space group: P 2
;
_chemical_formula_sum "Si O2"
_cell_formula_units_Z 16
_cell_length_a 7.929195
_cell_length_b 6.427592
_cell_length_c 20.900436
_cell_angle_alpha 90.000000
_cell_angle_beta 45.415719
_cell_angle_gamma 90.000000
_cell_volume 758.658084
_symmetry_space_group_name_H-M "P 2"
_symmetry_group_IT_number 3
_symmetry_cell_setting 'monoclinic'
loop_
_space_group_symop_operation_xyz
x,y,z
-x,y,-z
loop_
_atom_site_type_symbol
_atom_site_label
_atom_site_fract_x
_atom_site_fract_y
_atom_site_fract_z
Si Si1 0.709541 0.684180 0.326112
Si Si2 0.097891 0.845571 0.310564
Si Si3 0.384933 0.233126 0.261124
Si Si4 0.420774 0.557552 0.144406
Si Si5 0.018265 0.379387 0.180012
Si Si6 0.228746 0.574330 0.398728
Si Si7 0.904026 0.646259 0.960252
Si Si8 0.833953 0.976115 0.179624
O O1 0.423070 0.660629 0.399128
O O2 0.771897 0.796373 0.244356
O O3 0.824042 0.799467 0.358825
O O4 0.833340 0.458809 0.283773
O O5 0.266606 0.749694 0.211281
O O6 0.153099 0.742506 0.364853
O O7 0.156050 0.094374 0.299580
O O8 0.486313 0.403400 0.184777
O O9 0.321133 0.360326 0.342294
O O10 0.594019 0.070597 0.216032
O O11 0.282354 0.414139 0.132176
O O12 0.623767 0.656041 0.046222
O O13 0.991921 0.488732 0.118910
O O14 0.986329 0.136330 0.179714
O O15 0.000000 0.514773 0.500000
O O16 0.006050 0.877780 0.919421
O O17 0.000000 0.553786 0.000000
#
# Coordination Sequence:
#
# PCOD8045162 Si02
#       8
#     2   2   2   2   2   2   2   2
#     4  10  21  41  66  92 129 169 212 265 325 398
#     4  10  22  41  67  94 126 173 219 259 331 395
#     4  11  21  40  68  94 129 170 220 270 326 403
#     4  10  22  39  60  87 127 166 216 270 324 382
#     4  10  21  39  60  86 121 170 211 266 326 382
#     4  11  24  42  68  97 132 168 213 275 338 395
#     4  11  23  35  54  86 125 162 217 268 315 378
#     4  11  21  37  64  90 123 169 218 261 325 384
#
# _framework density 21.089872
#
# number of rings (size 3 to 8) (size 9 to 14) (size 15 to 20)
#    0.000    1.500    2.500    2.625    3.500    3.500 
#    0.000    5.000    0.000    0.000    0.000    0.000 
#    0.000    0.000    0.000    0.000    0.000    0.000 
#
# Total GULP energy -198247.435232 kJ/mol
# GULP energy per Si atom -12390.464702 kJ/mol
# Density = 2.104187 g / cm^3
# Si number density = 21.089872 Si / 1000 Ang^3
#
#
#
# Elastic Constant Matrix: (Units=GPa)
#
#
# Indices 1 2 3 4 5 6 
#
# 1 117.6360 10.8616 28.5572 0.0000 -26.8520 0.0000
# 2 10.8616 71.4100 30.5020 0.0000 -10.2604 0.0000
# 3 28.5572 30.5020 85.8076 0.0000 -19.7690 0.0000
# 4 0.0000 0.0000 0.0000 11.2716 0.0000 -6.9265
# 5 -26.8520 -10.2604 -19.7690 0.0000 26.4436 0.0000
# 6 0.0000 0.0000 0.0000 -6.9265 0.0000 36.4755
#
#
#
# Elastic Compliance Matrix: (Units=1/GPa)
#
#
# Indices 1 2 3 4 5 6 
#
# 1 0.011202 0.000426 -0.001475 0.000000 0.010438 0.000000
# 2 0.000426 0.016658 -0.005405 0.000000 0.002855 0.000000
# 3 -0.001475 -0.005405 0.015993 0.000000 0.008361 0.000000
# 4 0.000000 0.000000 0.000000 0.100439 0.000000 0.019073
# 5 0.010438 0.002855 0.008361 0.000000 0.055774 0.000000
# 6 0.000000 0.000000 0.000000 0.019073 0.000000 0.031037
#
#
# Mechanical properties :
#
#
# Convention : Reuss Voigt Hill
#
# Bulk Modulus (GPa) = 32.31662 46.07725 39.19693
# Shear Modulus (GPa) = 19.65980 28.50031 24.08005
#
# Velocity S-wave (km/s) = 3.05649 3.68009 3.38269
# Velocity P-wave (km/s) = 5.27378 6.32083 5.82090
#
# Compressibility (1/GPa) = 0.03094383
#
# Stress axis : x y z
#
# Youngs Moduli (GPa) = 89.26941 60.03151 62.52926
#
# Poissons Ratio (x) = -0.02556 0.09221
# Poissons Ratio (y) = -0.03801 0.33799
# Poissons Ratio (z) = 0.13165 0.32449
#
# Static dielectric constant tensor:
#      x y z
#    x 4.507280 0.000000 -0.398380 
#    y 0.000000 3.873270 0.000000 
#    z -0.398380 0.000000 3.984700 
# 
# 
# High freq. dielectric constant tensor:
#      x y z
#    x 1.842930 0.000000 -0.004200 
#    y 0.000000 1.823670 0.000000 
#    z -0.004200 0.000000 1.799950 
# 
# From -- ./inp_files/8900.got.cif
#   From: 2010.03.12/outbox.cif.g09.slc.cpg/sg3_5_cif.got.tgz:8900.got - 2010.03.31 09:20:49.
