data_PCOD8045157
_publ_section_title
;
Structure prediction by ZEFSAII (Michael W. Deem and Ramdas Pophale) SiO2 
 PCOD8045157
Probable space group: P 2
;
_chemical_formula_sum "Si O2"
_cell_formula_units_Z 16
_cell_length_a 18.554763
_cell_length_b 9.330116
_cell_length_c 8.478610
_cell_angle_alpha 90.000000
_cell_angle_beta 148.567675
_cell_angle_gamma 90.000000
_cell_volume 765.445047
_symmetry_space_group_name_H-M "P 2"
_symmetry_group_IT_number 3
_symmetry_cell_setting 'monoclinic'
loop_
_space_group_symop_operation_xyz
x,y,z
-x,y,-z
loop_
_atom_site_type_symbol
_atom_site_label
_atom_site_fract_x
_atom_site_fract_y
_atom_site_fract_z
Si Si1 0.182741 0.460160 0.458789
Si Si2 0.607155 0.478502 0.555884
Si Si3 0.536553 0.168994 0.390033
Si Si4 0.278530 0.161589 0.703623
Si Si5 0.634670 0.696334 0.338309
Si Si6 0.245535 0.987465 0.329593
Si Si7 0.007675 0.096844 0.693140
Si Si8 0.100675 0.407582 0.954392
O O1 0.272491 0.334342 0.706348
O O2 0.272563 0.603435 0.609381
O O3 0.046868 0.492589 0.314924
O O4 0.142939 0.393722 0.215619
O O5 0.500000 0.501219 0.500000
O O6 0.589239 0.326119 0.432251
O O7 0.578000 0.604583 0.378591
O O8 0.774127 0.484870 0.910224
O O9 0.500000 0.198376 0.500000
O O10 0.649430 0.042426 0.608241
O O11 0.413215 0.112655 0.049865
O O12 0.147255 0.090039 0.537823
O O13 0.280895 0.102007 0.531741
O O14 0.730358 0.825314 0.574222
O O15 0.500000 0.758423 0.000000
O O16 0.092634 0.992799 0.969452
O O17 0.076984 0.253379 0.831400
O O18 0.000000 0.040880 0.500000
#
# Coordination Sequence:
#
# PCOD8045157 Si02
#       8
#     2   2   2   2   2   2   2   2
#     4   9  18  36  64  90 126 157 214 257 322 361
#     4  10  21  38  64  90 129 162 214 255 324 378
#     4  11  22  37  63  97 127 161 210 263 321 376
#     4  11  21  37  64  93 123 162 207 268 311 377
#     4  11  23  40  61  92 127 171 216 263 311 376
#     4  12  23  41  61  91 126 170 216 257 314 378
#     4  11  22  39  63  93 128 159 205 265 328 378
#     4   9  17  36  61  93 121 161 199 261 317 383
#
# _framework density 20.902871999999999
#
# number of rings (size 3 to 8) (size 9 to 14) (size 15 to 20)
#    0.000    1.500    2.500    3.750    1.750    0.500 
#    9.000    1.250    0.000    3.000    0.000    0.000 
#    0.000    0.000    0.000    0.000    0.000    0.000 
#
# Total GULP energy -198297.885912 kJ/mol
# GULP energy per Si atom -12393.617870 kJ/mol
# Density = 2.085530 g / cm^3
# Si number density = 20.902872 Si / 1000 Ang^3
#
#
#
# Elastic Constant Matrix: (Units=GPa)
#
#
# Indices 1 2 3 4 5 6 
#
# 1 95.5895 32.6137 29.6534 0.0000 26.5047 0.0000
# 2 32.6137 96.1020 27.0879 0.0000 9.0372 0.0000
# 3 29.6534 27.0879 82.4140 0.0000 0.3474 0.0000
# 4 0.0000 0.0000 0.0000 19.3183 0.0000 5.1493
# 5 26.5047 9.0372 0.3474 0.0000 34.8728 0.0000
# 6 0.0000 0.0000 0.0000 5.1493 0.0000 9.3170
#
#
#
# Elastic Compliance Matrix: (Units=1/GPa)
#
#
# Indices 1 2 3 4 5 6 
#
# 1 0.016154 -0.003066 -0.004756 0.000000 -0.011436 0.000000
# 2 -0.003066 0.012358 -0.002955 0.000000 -0.000843 0.000000
# 3 -0.004756 -0.002955 0.014799 0.000000 0.004233 0.000000
# 4 0.000000 0.000000 0.000000 0.060708 0.000000 -0.033551
# 5 -0.011436 -0.000843 0.004233 0.000000 0.037543 0.000000
# 6 0.000000 0.000000 0.000000 -0.033551 0.000000 0.125874
#
#
# Mechanical properties :
#
#
# Convention : Reuss Voigt Hill
#
# Bulk Modulus (GPa) = 45.96497 50.31284 48.13890
# Shear Modulus (GPa) = 16.87804 25.01830 20.94817
#
# Velocity S-wave (km/s) = 2.84465 3.46335 3.16914
# Velocity P-wave (km/s) = 5.72948 6.33365 6.03913
#
# Compressibility (1/GPa) = 0.02175570
#
# Stress axis : x y z
#
# Youngs Moduli (GPa) = 61.90483 80.91692 67.57336
#
# Poissons Ratio (x) = 0.24809 0.32140
# Poissons Ratio (y) = 0.18980 0.19969
# Poissons Ratio (z) = 0.29444 0.23913
#
# Static dielectric constant tensor:
#      x y z
#    x 4.236740 0.000000 0.288430 
#    y 0.000000 3.402070 0.000000 
#    z 0.288430 0.000000 3.881540 
# 
# 
# High freq. dielectric constant tensor:
#      x y z
#    x 1.822550 0.000000 0.022350 
#    y 0.000000 1.782950 0.000000 
#    z 0.022350 0.000000 1.822850 
# 
# From -- ./inp_files/9484.got.cif
#   From: 2010.03.12/outbox.cif.g09.slc.cpg/sg3_5_cif.got.tgz:9484.got - 2010.03.31 09:20:49.
