data_PCOD8045173
_publ_section_title
;
Structure prediction by ZEFSAII (Michael W. Deem and Ramdas Pophale) SiO2 
 PCOD8045173
Probable space group: P 2
;
_chemical_formula_sum "Si O2"
_cell_formula_units_Z 16
_cell_length_a 9.328054
_cell_length_b 18.576306
_cell_length_c 8.036544
_cell_angle_alpha 90.000000
_cell_angle_beta 147.729196
_cell_angle_gamma 90.000000
_cell_volume 743.527773
_symmetry_space_group_name_H-M "P 2"
_symmetry_group_IT_number 3
_symmetry_cell_setting 'monoclinic'
loop_
_space_group_symop_operation_xyz
x,y,z
-x,y,-z
loop_
_atom_site_type_symbol
_atom_site_label
_atom_site_fract_x
_atom_site_fract_y
_atom_site_fract_z
Si Si1 0.746673 0.244150 0.135797
Si Si2 0.104863 0.377261 0.918322
Si Si3 0.254117 0.082560 0.867457
Si Si4 0.236884 0.844155 0.849573
Si Si5 0.904450 0.685584 0.223120
Si Si6 0.746504 0.964237 0.863685
Si Si7 0.397597 0.609633 0.584273
Si Si8 0.605354 0.453931 0.289256
O O1 0.678434 0.163710 0.004233
O O2 0.000000 0.238663 0.500000
O O3 0.803677 0.296687 0.038442
O O4 0.500000 0.276280 0.000000
O O5 0.870200 0.404593 0.565213
O O6 0.000000 0.376261 0.000000
O O7 0.362973 0.428984 0.170156
O O8 0.000000 0.079105 0.500000
O O9 0.500000 0.051039 0.000000
O O10 0.204544 0.036594 0.983885
O O11 0.000000 0.876284 0.500000
O O12 0.133704 0.770942 0.833236
O O13 0.500000 0.827459 0.000000
O O14 0.311639 0.899143 0.067826
O O15 0.134815 0.660452 0.320667
O O16 0.000000 0.663756 0.500000
O O17 0.625985 0.645818 0.919292
O O18 0.500000 0.976075 0.500000
O O19 0.000000 0.945552 0.000000
O O20 0.500000 0.597365 0.500000
O O21 0.310873 0.534368 0.580231
O O22 0.500000 0.447899 0.000000
#
# Coordination Sequence:
#
# PCOD8045173 Si02
#       8
#     2   2   2   2   2   2   2   2
#     4  10  21  39  64  90 121 163 212 253 300 368
#     4  12  24  40  62  93 127 160 202 260 318 367
#     4  10  21  41  66  90 122 169 213 251 299 369
#     4  11  23  43  67  90 123 169 212 252 300 370
#     4  11  23  42  65  91 120 161 211 254 302 369
#     4  12  25  40  63  98 133 163 203 260 313 363
#     4  12  25  42  63  92 126 160 200 258 319 370
#     4  12  25  43  65  88 121 167 212 254 302 372
#
# _framework density 21.519037000000001
#
# number of rings (size 3 to 8) (size 9 to 14) (size 15 to 20)
#    0.000    0.750    0.000    9.375    0.000    2.000 
#    0.000    1.250    0.000    0.000    0.000    0.000 
#    0.000    0.000    0.000    0.000    0.000    0.000 
#
# Total GULP energy -198515.558593 kJ/mol
# GULP energy per Si atom -12407.222412 kJ/mol
# Density = 2.147006 g / cm^3
# Si number density = 21.519037 Si / 1000 Ang^3
#
#
#
# Elastic Constant Matrix: (Units=GPa)
#
#
# Indices 1 2 3 4 5 6 
#
# 1 85.1433 53.4500 28.3898 0.0000 8.9796 0.0000
# 2 53.4500 126.4766 35.2153 0.0000 -4.3848 0.0000
# 3 28.3898 35.2153 111.5459 0.0000 11.9829 0.0000
# 4 0.0000 0.0000 0.0000 34.0248 0.0000 5.2135
# 5 8.9796 -4.3848 11.9829 0.0000 45.2890 0.0000
# 6 0.0000 0.0000 0.0000 5.2135 0.0000 27.7551
#
#
#
# Elastic Compliance Matrix: (Units=1/GPa)
#
#
# Indices 1 2 3 4 5 6 
#
# 1 0.016989 -0.006803 -0.001794 0.000000 -0.003552 0.000000
# 2 -0.006803 0.011508 -0.002230 0.000000 0.003053 0.000000
# 3 -0.001794 -0.002230 0.010406 0.000000 -0.002613 0.000000
# 4 0.000000 0.000000 0.000000 0.030261 0.000000 -0.005684
# 5 -0.003552 0.003053 -0.002613 0.000000 0.023772 0.000000
# 6 0.000000 0.000000 0.000000 -0.005684 0.000000 0.037097
#
#
# Mechanical properties :
#
#
# Convention : Reuss Voigt Hill
#
# Bulk Modulus (GPa) = 57.97513 61.91956 59.94734
# Shear Modulus (GPa) = 31.75864 35.15450 33.45657
#
# Velocity S-wave (km/s) = 3.84583 4.04622 3.94730
# Velocity P-wave (km/s) = 6.83523 7.11801 6.97805
#
# Compressibility (1/GPa) = 0.01724878
#
# Stress axis : x y z
#
# Youngs Moduli (GPa) = 58.86304 86.89392 96.09550
#
# Poissons Ratio (x) = 0.59114 0.17244
# Poissons Ratio (y) = 0.40045 0.21427
# Poissons Ratio (z) = 0.10563 0.19375
#
# Static dielectric constant tensor:
#      x y z
#    x 3.832340 0.000000 0.146380 
#    y 0.000000 4.090200 0.000000 
#    z 0.146380 0.000000 4.101770 
# 
# 
# High freq. dielectric constant tensor:
#      x y z
#    x 1.845600 0.000000 0.012580 
#    y 0.000000 1.854420 0.000000 
#    z 0.012580 0.000000 1.860710 
# 
# From -- ./inp_files/6258.got.cif
#   From: 2010.03.12/outbox.cif.g09.slc.cpg/sg3_4_cif.got.tgz:6258.got - 2010.03.31 09:20:49.
