data_PCOD8045558
_publ_section_title
;
Structure prediction by ZEFSAII (Michael W. Deem and Ramdas Pophale) SiO2 
 PCOD8045558
Probable space group: P 2
;
_chemical_formula_sum "Si O2"
_cell_formula_units_Z 14
_cell_length_a 15.732857
_cell_length_b 5.210205
_cell_length_c 21.096108
_cell_angle_alpha 90.000000
_cell_angle_beta 19.673204
_cell_angle_gamma 90.000000
_cell_volume 582.169847
_symmetry_space_group_name_H-M "P 2"
_symmetry_group_IT_number 3
_symmetry_cell_setting 'monoclinic'
loop_
_space_group_symop_operation_xyz
x,y,z
-x,y,-z
loop_
_atom_site_type_symbol
_atom_site_label
_atom_site_fract_x
_atom_site_fract_y
_atom_site_fract_z
Si Si1 0.956829 0.507620 0.398982
Si Si2 0.142715 0.275688 0.837814
Si Si3 0.842258 0.000831 0.552139
Si Si4 0.500000 0.658092 0.000000
Si Si5 0.372105 0.851934 0.958985
Si Si6 0.365220 0.559819 0.495051
Si Si7 0.921073 0.339511 0.868111
Si Si8 0.500000 0.943750 0.500000
O O1 0.965590 0.733447 0.444272
O O2 0.773652 0.621889 0.473264
O O3 0.249652 0.476658 0.172290
O O4 0.845223 0.233116 0.499203
O O5 0.338043 0.496995 0.723372
O O6 0.925641 0.367569 0.941488
O O7 0.303846 0.076238 0.684777
O O8 0.000000 0.162646 0.000000
O O9 0.560523 0.929505 0.770294
O O10 0.000000 0.112414 0.500000
O O11 0.494194 0.842702 0.066010
O O12 0.248949 0.574099 0.035833
O O13 0.170038 0.076118 0.098530
O O14 0.327730 0.782168 0.572824
O O15 0.208723 0.331080 0.638767
#
# Coordination Sequence:
#
# PCOD8045558 Si02
#       8
#     2   2   2   1   2   2   2   1
#     4  12  30  47  80 115 157 208 263 326 393 477
#     4  12  29  47  79 118 157 206 273 330 402 481
#     4  12  28  51  75 110 164 205 258 327 399 463
#     4  12  28  50  80 118 150 206 280 314 394 482
#     4  12  29  47  80 112 155 205 264 324 395 474
#     4  12  27  49  77 111 159 207 267 322 407 468
#     4  12  26  51  77 112 155 210 259 329 396 472
#     4  12  24  54  80 108 162 212 264 336 400 482
#
# _framework density 24.047965999999999
#
# number of rings (size 3 to 8) (size 9 to 14) (size 15 to 20)
#    0.000    0.000    5.714    2.143   10.000    1.714 
#    0.000    0.000    0.000    0.000    0.000    0.000 
#    0.000    0.000    0.000    0.000    0.000    0.000 
#
# Total GULP energy -173514.344912 kJ/mol
# GULP energy per Si atom -12393.881779 kJ/mol
# Density = 2.399323 g / cm^3
# Si number density = 24.047966 Si / 1000 Ang^3
#
#
#
# Elastic Constant Matrix: (Units=GPa)
#
#
# Indices 1 2 3 4 5 6 
#
# 1 153.5019 37.3189 55.6372 0.0000 -2.6615 0.0000
# 2 37.3189 94.8601 46.9972 0.0000 3.8113 0.0000
# 3 55.6372 46.9972 122.3987 0.0000 17.7877 0.0000
# 4 0.0000 0.0000 0.0000 36.0333 0.0000 -7.7633
# 5 -2.6615 3.8113 17.7877 0.0000 46.9540 0.0000
# 6 0.0000 0.0000 0.0000 -7.7633 0.0000 22.5523
#
#
#
# Elastic Compliance Matrix: (Units=1/GPa)
#
#
# Indices 1 2 3 4 5 6 
#
# 1 0.008158 -0.001621 -0.003357 0.000000 0.001866 0.000000
# 2 -0.001621 0.013375 -0.004474 0.000000 0.000517 0.000000
# 3 -0.003357 -0.004474 0.012052 0.000000 -0.004393 0.000000
# 4 0.000000 0.000000 0.000000 0.029975 0.000000 0.010319
# 5 0.001866 0.000517 -0.004393 0.000000 0.023025 0.000000
# 6 0.000000 0.000000 0.000000 0.010319 0.000000 0.047893
#
#
# Mechanical properties :
#
#
# Convention : Reuss Voigt Hill
#
# Bulk Modulus (GPa) = 68.11370 72.29636 70.20503
# Shear Modulus (GPa) = 31.59019 36.49510 34.04264
#
# Velocity S-wave (km/s) = 3.62834 3.89986 3.76655
# Velocity P-wave (km/s) = 6.77781 7.09980 6.94067
#
# Compressibility (1/GPa) = 0.01468133
#
# Stress axis : x y z
#
# Youngs Moduli (GPa) = 122.58278 74.76398 82.97286
#
# Poissons Ratio (x) = 0.12121 0.27852
# Poissons Ratio (y) = 0.19873 0.37122
# Poissons Ratio (z) = 0.41149 0.33449
#
# Static dielectric constant tensor:
#      x y z
#    x 5.459440 0.000000 -0.521500 
#    y 0.000000 4.062440 0.000000 
#    z -0.521500 0.000000 4.698770 
# 
# 
# High freq. dielectric constant tensor:
#      x y z
#    x 1.973350 0.000000 -0.007580 
#    y 0.000000 1.942800 0.000000 
#    z -0.007580 0.000000 1.964020 
# 
# From -- ./inp_files/16028.got.cif
#   From: 2010.03.12/outbox.cif.g09.slc.cpg/sg3_9_cif.got.tgz:16028.got - 2010.03.31 09:20:49.
