data_PCOD8045655
_publ_section_title
;
Structure prediction by ZEFSAII (Michael W. Deem and Ramdas Pophale) SiO2 
 PCOD8045655
Probable space group: P 21
;
_chemical_formula_sum "Si O2"
_cell_formula_units_Z 16
_cell_length_a 9.762718
_cell_length_b 5.062282
_cell_length_c 16.996936
_cell_angle_alpha 90.000000
_cell_angle_beta 118.093555
_cell_angle_gamma 90.000000
_cell_volume 741.045456
_symmetry_space_group_name_H-M "P 21"
_symmetry_group_IT_number 4
_symmetry_cell_setting 'monoclinic'
loop_
_space_group_symop_operation_xyz
x,y,z
-x,1/2+y,-z
loop_
_atom_site_type_symbol
_atom_site_label
_atom_site_fract_x
_atom_site_fract_y
_atom_site_fract_z
Si Si1 0.942386 0.829420 0.212208
Si Si2 0.351600 0.435969 0.253278
Si Si3 0.597599 0.919286 0.159209
Si Si4 0.600654 0.825840 0.505676
Si Si5 0.056688 0.344790 0.966392
Si Si6 0.538105 0.943750 0.321677
Si Si7 0.399238 0.409463 0.089212
Si Si8 0.105458 0.337417 0.304892
O O1 0.758642 0.870424 0.160258
O O2 0.009979 0.822526 0.140865
O O3 0.976207 0.566893 0.272623
O O4 0.021719 0.058048 0.285059
O O5 0.393875 0.740551 0.279223
O O6 0.340127 0.356334 0.160571
O O7 0.183625 0.380229 0.241702
O O8 0.477390 0.237179 0.326300
O O9 0.626153 0.933874 0.261571
O O10 0.478194 0.692390 0.101542
O O11 0.525177 0.185075 0.102424
O O12 0.525118 0.540736 0.500095
O O13 0.643058 0.858116 0.424280
O O14 0.765112 0.860607 0.592745
O O15 0.239939 0.390124 0.998004
O O16 0.977324 0.580382 0.993611
#
# Coordination Sequence:
#
# PCOD8045655 Si02
#       8
#     2   2   2   2   2   2   2   2
#     4  12  26  42  60  88 129 168 203 255 301 375
#     4  10  18  33  58  87 117 149 196 252 310 358
#     4  10  23  41  62  87 122 168 217 238 295 359
#     4  12  21  37  60  96 124 153 204 259 310 368
#     4  12  25  43  65  97 129 155 202 258 323 365
#     4  10  19  36  58  87 120 151 197 257 292 359
#     4  10  21  38  64  89 116 165 207 254 295 356
#     4  12  23  38  61  91 127 163 202 251 328 358
#
# _framework density 21.59112
#
# number of rings (size 3 to 8) (size 9 to 14) (size 15 to 20)
#    0.000    1.000    2.500    5.250    0.000    3.000 
#    0.000    1.250    0.000    0.000    0.000    0.000 
#    0.000    0.000    0.000    0.000    0.000    0.000 
#
# Total GULP energy -198369.123004 kJ/mol
# GULP energy per Si atom -12398.070188 kJ/mol
# Density = 2.154198 g / cm^3
# Si number density = 21.591120 Si / 1000 Ang^3
#
#
#
# Elastic Constant Matrix: (Units=GPa)
#
#
# Indices 1 2 3 4 5 6 
#
# 1 61.6718 -1.9179 16.6103 0.0000 3.4126 0.0000
# 2 -1.9179 91.1920 26.7510 0.0000 -5.2646 0.0000
# 3 16.6103 26.7510 102.0369 0.0000 10.2003 0.0000
# 4 0.0000 0.0000 0.0000 21.3218 0.0000 10.7578
# 5 3.4126 -5.2646 10.2003 0.0000 25.9287 0.0000
# 6 0.0000 0.0000 0.0000 10.7578 0.0000 29.0874
#
#
#
# Elastic Compliance Matrix: (Units=1/GPa)
#
#
# Indices 1 2 3 4 5 6 
#
# 1 0.017110 0.001197 -0.003017 0.000000 -0.000822 0.000000
# 2 0.001197 0.012331 -0.003812 0.000000 0.003846 0.000000
# 3 -0.003017 -0.003812 0.011792 0.000000 -0.005016 0.000000
# 4 0.000000 0.000000 0.000000 0.057660 0.000000 -0.021325
# 5 -0.000822 0.003846 -0.005016 0.000000 0.041430 0.000000
# 6 0.000000 0.000000 0.000000 -0.021325 0.000000 0.042266
#
#
# Mechanical properties :
#
#
# Convention : Reuss Voigt Hill
#
# Bulk Modulus (GPa) = 33.36654 37.53192 35.44923
# Shear Modulus (GPa) = 24.52864 29.49808 27.01336
#
# Velocity S-wave (km/s) = 3.37419 3.70024 3.54097
# Velocity P-wave (km/s) = 5.53784 5.97298 5.75952
#
# Compressibility (1/GPa) = 0.02997015
#
# Stress axis : x y z
#
# Youngs Moduli (GPa) = 58.44469 81.09358 84.80007
#
# Poissons Ratio (x) = -0.09711 0.25585
# Poissons Ratio (y) = -0.06998 0.32329
# Poissons Ratio (z) = 0.17633 0.30916
#
# Static dielectric constant tensor:
#      x y z
#    x 3.683250 0.000000 -0.123840 
#    y 0.000000 4.190170 0.000000 
#    z -0.123840 0.000000 4.102700 
# 
# 
# High freq. dielectric constant tensor:
#      x y z
#    x 1.823410 0.000000 -0.005360 
#    y 0.000000 1.867670 0.000000 
#    z -0.005360 0.000000 1.852040 
# 
# From -- ./inp_files/8824.got.cif
#   From: 2010.03.12/outbox.cif.g09.slc.cpg/sg4_5_cif.got.tgz:8824.got - 2010.03.31 09:31:35.
