data_PCOD8045388
_publ_section_title
;
Structure prediction by ZEFSAII (Michael W. Deem and Ramdas Pophale) SiO2 
 PCOD8045388
Probable space group: P 2
;
_chemical_formula_sum "Si O2"
_cell_formula_units_Z 13
_cell_length_a 9.848086
_cell_length_b 5.866598
_cell_length_c 11.863989
_cell_angle_alpha 90.000000
_cell_angle_beta 46.476727
_cell_angle_gamma 90.000000
_cell_volume 497.008291
_symmetry_space_group_name_H-M "P 2"
_symmetry_group_IT_number 3
_symmetry_cell_setting 'monoclinic'
loop_
_space_group_symop_operation_xyz
x,y,z
-x,y,-z
loop_
_atom_site_type_symbol
_atom_site_label
_atom_site_fract_x
_atom_site_fract_y
_atom_site_fract_z
Si Si1 0.846358 0.065290 0.264540
Si Si2 0.183633 0.726597 0.034245
Si Si3 0.755763 0.436127 0.502776
Si Si4 0.000000 0.356313 0.000000
Si Si5 0.000000 0.750567 0.500000
Si Si6 0.500000 0.853590 0.000000
Si Si7 0.675358 0.066075 0.700721
Si Si8 0.449957 0.789996 0.669296
O O1 0.832417 0.245450 0.374027
O O2 0.668942 0.886978 0.370752
O O3 0.836764 0.201108 0.149954
O O4 0.043329 0.930296 0.150495
O O5 0.328704 0.692857 0.055898
O O6 0.293929 0.762389 0.854542
O O7 0.069439 0.497599 0.070163
O O8 0.560497 0.554985 0.575425
O O9 0.920423 0.614739 0.436684
O O10 0.721734 0.327953 0.647644
O O11 0.151349 0.914920 0.356630
O O12 0.526443 0.033614 0.883881
O O13 0.602695 0.971594 0.622219
#
# Coordination Sequence:
#
# PCOD8045388 Si02
#       8
#     2   2   2   1   1   1   2   2
#     4  12  26  48  80 118 156 216 276 344 411 490
#     4  11  24  48  77 114 161 200 275 335 397 494
#     4  11  27  46  81 112 159 219 267 335 427 468
#     4  12  24  46  84 108 158 214 274 330 412 482
#     4  10  24  48  72 110 160 204 268 334 398 508
#     4  10  26  46  80 114 156 210 258 344 392 478
#     4  10  24  47  74 105 160 202 268 331 394 486
#     4  10  23  51  68 112 158 203 269 340 386 495
#
# _framework density 26.156506
#
# number of rings (size 3 to 8) (size 9 to 14) (size 15 to 20)
#    0.000    1.231    3.077    0.462    8.615    1.846 
#    5.538    7.692    0.000    0.000    0.000    0.000 
#    0.000    0.000    0.000    0.000    0.000    0.000 
#
# Total GULP energy -161090.449195 kJ/mol
# GULP energy per Si atom -12391.573015 kJ/mol
# Density = 2.609697 g / cm^3
# Si number density = 26.156506 Si / 1000 Ang^3
#
#
#
# Elastic Constant Matrix: (Units=GPa)
#
#
# Indices 1 2 3 4 5 6 
#
# 1 158.9309 55.4296 44.5506 0.0000 -12.5545 0.0000
# 2 55.4296 125.4842 52.2477 0.0000 -11.4160 0.0000
# 3 44.5506 52.2477 86.1076 0.0000 -10.6756 0.0000
# 4 0.0000 0.0000 0.0000 46.2708 0.0000 4.8027
# 5 -12.5545 -11.4160 -10.6756 0.0000 43.7400 0.0000
# 6 0.0000 0.0000 0.0000 4.8027 0.0000 27.3876
#
#
#
# Elastic Compliance Matrix: (Units=1/GPa)
#
#
# Indices 1 2 3 4 5 6 
#
# 1 0.007902 -0.002338 -0.002541 0.000000 0.001038 0.000000
# 2 -0.002338 0.011421 -0.005603 0.000000 0.000942 0.000000
# 3 -0.002541 -0.005603 0.016557 0.000000 0.001849 0.000000
# 4 0.000000 0.000000 0.000000 0.022013 0.000000 -0.003860
# 5 0.001038 0.000942 0.001849 0.000000 0.023857 0.000000
# 6 0.000000 0.000000 0.000000 -0.003860 0.000000 0.037190
#
#
# Mechanical properties :
#
#
# Convention : Reuss Voigt Hill
#
# Bulk Modulus (GPa) = 67.04612 74.99763 71.02187
# Shear Modulus (GPa) = 34.51242 38.03266 36.27254
#
# Velocity S-wave (km/s) = 3.63638 3.81733 3.72795
# Velocity P-wave (km/s) = 6.58174 6.94004 6.76326
#
# Compressibility (1/GPa) = 0.01491511
#
# Stress axis : x y z
#
# Youngs Moduli (GPa) = 126.55531 87.56087 60.39676
#
# Poissons Ratio (x) = 0.20472 0.15346
# Poissons Ratio (y) = 0.29589 0.33842
# Poissons Ratio (z) = 0.32156 0.49063
#
# Static dielectric constant tensor:
#      x y z
#    x 4.741540 0.000000 -0.171080 
#    y 0.000000 4.834250 0.000000 
#    z -0.171080 0.000000 4.924470 
# 
# 
# High freq. dielectric constant tensor:
#      x y z
#    x 2.046370 0.000000 -0.001770 
#    y 0.000000 2.039160 0.000000 
#    z -0.001770 0.000000 2.069050 
# 
# From -- ./inp_files/13652.got.cif
#   From: 2010.03.12/outbox.cif.g09.slc.cpg/sg3_7_cif.got.tgz:13652.got - 2010.03.31 09:20:49.
