data_PCOD8045467
_publ_section_title
;
Structure prediction by ZEFSAII (Michael W. Deem and Ramdas Pophale) SiO2 
 PCOD8045467
Probable space group: P 2
;
_chemical_formula_sum "Si O2"
_cell_formula_units_Z 16
_cell_length_a 18.749443
_cell_length_b 8.290008
_cell_length_c 5.147739
_cell_angle_alpha 90.000000
_cell_angle_beta 73.934557
_cell_angle_gamma 90.000000
_cell_volume 768.880647
_symmetry_space_group_name_H-M "P 2"
_symmetry_group_IT_number 3
_symmetry_cell_setting 'monoclinic'
loop_
_space_group_symop_operation_xyz
x,y,z
-x,y,-z
loop_
_atom_site_type_symbol
_atom_site_label
_atom_site_fract_x
_atom_site_fract_y
_atom_site_fract_z
Si Si1 0.662201 0.632310 0.347805
Si Si2 0.083758 0.012595 0.418644
Si Si3 0.337799 0.007834 0.652191
Si Si4 0.584645 0.507251 0.925285
Si Si5 0.584645 0.132892 0.925288
Si Si6 0.830242 0.012108 0.168942
Si Si7 0.169758 0.628033 0.831058
Si Si8 0.916242 0.627544 0.581357
O O1 0.659642 0.820072 0.279300
O O2 0.631049 0.607202 0.668014
O O3 0.746018 0.564855 0.255042
O O4 0.614505 0.536429 0.184606
O O5 0.126196 0.080943 0.626648
O O6 0.000000 0.079934 0.500000
O O7 0.082754 0.820070 0.419890
O O8 0.127695 0.079102 0.125585
O O9 0.368950 0.032940 0.331981
O O10 0.253981 0.075287 0.744958
O O11 0.385496 0.103715 0.815387
O O12 0.590526 0.320071 0.847573
O O13 0.500000 0.566979 0.000000
O O14 0.500000 0.073163 0.000000
O O15 0.830792 0.820070 0.174717
O O16 0.126196 0.559196 0.626647
O O17 0.127695 0.561038 0.125585
O O18 0.000000 0.560205 0.500000
#
# Coordination Sequence:
#
# PCOD8045467 Si02
#       8
#     2   2   2   2   2   2   2   2
#     4  11  22  37  59  85 114 147 184 230 280 331
#     4   9  15  24  40  64 100 143 176 206 258 323
#     4  11  22  37  59  85 114 147 184 230 280 331
#     4  11  24  41  59  81 112 147 184 230 280 331
#     4  11  24  41  59  81 112 147 184 230 280 331
#     4   9  17  28  43  69 104 137 172 218 268 313
#     4   9  17  28  43  69 104 137 172 218 268 313
#     4   9  15  24  40  64 100 143 176 206 258 323
#
# _framework density 20.809470999999998
#
# number of rings (size 3 to 8) (size 9 to 14) (size 15 to 20)
#    0.000    2.000    0.000    4.500    0.000   12.000 
#    0.000    0.000    0.000    0.000    0.000    0.000 
#    0.000   70.000    0.000    0.000    0.000    0.000 
#
# Total GULP energy -198463.455627 kJ/mol
# GULP energy per Si atom -12403.965977 kJ/mol
# Density = 2.076211 g / cm^3
# Si number density = 20.809471 Si / 1000 Ang^3
#
#
#
# Elastic Constant Matrix: (Units=GPa)
#
#
# Indices 1 2 3 4 5 6 
#
# 1 175.5121 20.5963 64.5521 0.0000 -4.9980 0.0000
# 2 20.5963 22.2237 11.8581 0.0000 -6.0375 0.0000
# 3 64.5521 11.8581 154.2443 0.0000 -4.8557 0.0000
# 4 0.0000 0.0000 0.0000 14.3173 0.0000 10.3983
# 5 -4.9980 -6.0375 -4.8557 0.0000 50.9777 0.0000
# 6 0.0000 0.0000 0.0000 10.3983 0.0000 -3.1209
#
#
#
# Elastic Compliance Matrix: (Units=1/GPa)
#
#
# Indices 1 2 3 4 5 6 
#
# 1 0.007299 -0.005401 -0.002645 0.000000 -0.000176 0.000000
# 2 -0.005401 0.052351 -0.001590 0.000000 0.005519 0.000000
# 3 -0.002645 -0.001590 0.007722 0.000000 0.000288 0.000000
# 4 0.000000 0.000000 0.000000 0.020424 0.000000 0.068048
# 5 -0.000176 0.005519 0.000288 0.000000 0.020280 0.000000
# 6 0.000000 0.000000 0.000000 0.068048 0.000000 -0.093695
#
#
# Mechanical properties :
#
#
# Convention : Reuss Voigt Hill
#
# Bulk Modulus (GPa) = 20.79090 60.66590 40.72840
# Shear Modulus (GPa) = 100.62945 29.43305 65.03125
#
# Velocity S-wave (km/s) = 6.96150 3.76494 5.59631
# Velocity P-wave (km/s) = 8.63883 6.93657 7.83407
#
# Compressibility (1/GPa) = 0.04809797
#
# Stress axis : x y z
#
# Youngs Moduli (GPa) = 136.99994 19.10193 129.50785
#
# Poissons Ratio (x) = 0.10317 0.34256
# Poissons Ratio (y) = 0.73997 0.20598
# Poissons Ratio (z) = 0.36238 0.03038
#
# Static dielectric constant tensor:
#      x y z
#    x 3.996920 0.000000 -0.066430 
#    y 0.000000 3.128080 0.000000 
#    z -0.066430 0.000000 3.849270 
# 
# 
# High freq. dielectric constant tensor:
#      x y z
#    x 1.834150 0.000000 -0.000930 
#    y 0.000000 1.762740 0.000000 
#    z -0.000930 0.000000 1.830750 
# 
# From -- ./inp_files/3696.got.cif
#   From: 2010.03.12/outbox.cif.g09.slc.cpg/sg3_2_cif.got.tgz:3696.got - 2010.03.31 09:20:49.
