data_PCOD8045514
_publ_section_title
;
Structure prediction by ZEFSAII (Michael W. Deem and Ramdas Pophale) SiO2 
 PCOD8045514
Probable space group: P 2
;
_chemical_formula_sum "Si O2"
_cell_formula_units_Z 15
_cell_length_a 8.249279
_cell_length_b 12.433821
_cell_length_c 8.173347
_cell_angle_alpha 90.000000
_cell_angle_beta 50.656095
_cell_angle_gamma 90.000000
_cell_volume 648.334647
_symmetry_space_group_name_H-M "P 2"
_symmetry_group_IT_number 3
_symmetry_cell_setting 'monoclinic'
loop_
_space_group_symop_operation_xyz
x,y,z
-x,y,-z
loop_
_atom_site_type_symbol
_atom_site_label
_atom_site_fract_x
_atom_site_fract_y
_atom_site_fract_z
Si Si1 0.806638 0.880190 0.725094
Si Si2 0.817109 0.676107 0.905077
Si Si3 0.778894 0.436076 0.544551
Si Si4 0.440770 0.013211 0.362065
Si Si5 0.267359 0.632017 0.666537
Si Si6 0.500000 0.507179 0.000000
Si Si7 0.863819 0.059696 0.943082
Si Si8 0.881002 0.204635 0.408552
O O1 0.719186 0.789878 0.907832
O O2 0.000000 0.831543 0.500000
O O3 0.628121 0.915601 0.711259
O O4 0.886660 0.984260 0.770542
O O5 0.067860 0.691954 0.712209
O O6 0.772389 0.636320 0.115870
O O7 0.708331 0.581278 0.873755
O O8 0.736779 0.516435 0.420305
O O9 0.777314 0.321005 0.453805
O O10 0.000000 0.455381 0.500000
O O11 0.572896 0.436361 0.797179
O O12 0.500000 0.961625 0.500000
O O13 0.279019 0.107032 0.499164
O O14 0.628024 0.073407 0.150855
O O15 0.500000 0.684618 0.500000
O O16 0.950988 0.178770 0.842638
O O17 0.000000 0.005432 0.000000
O O18 0.000000 0.202853 0.500000
#
# Coordination Sequence:
#
# PCOD8045514 Si02
#       8
#     2   2   2   2   2   1   2   2
#     4  12  26  48  74 106 152 198 251 317 386 456
#     4  11  28  45  74 108 143 200 253 313 390 450
#     4  11  25  46  77 107 151 200 251 317 394 450
#     4  12  24  48  74 107 151 191 250 316 377 458
#     4  11  24  52  72 106 149 190 253 326 378 463
#     4  12  24  48  72 110 148 192 266 318 378 466
#     4  12  24  46  71 104 149 195 252 310 364 462
#     4  11  24  47  70 109 149 199 246 310 382 450
#
# _framework density 23.136202000000001
#
# number of rings (size 3 to 8) (size 9 to 14) (size 15 to 20)
#    0.000    0.533    6.667    0.400    5.600    2.667 
#    2.400    0.000    0.000    0.000    0.000    0.000 
#    0.000    0.000    0.000    0.000    0.000    0.000 
#
# Total GULP energy -185825.783014 kJ/mol
# GULP energy per Si atom -12388.385534 kJ/mol
# Density = 2.308354 g / cm^3
# Si number density = 23.136202 Si / 1000 Ang^3
#
#
#
# Elastic Constant Matrix: (Units=GPa)
#
#
# Indices 1 2 3 4 5 6 
#
# 1 115.4273 39.8547 46.9873 0.0000 2.8143 0.0000
# 2 39.8547 111.1303 63.7776 0.0000 15.9506 0.0000
# 3 46.9873 63.7776 140.9306 0.0000 -4.0828 0.0000
# 4 0.0000 0.0000 0.0000 -87.9350 0.0000 -89.2635
# 5 2.8143 15.9506 -4.0828 0.0000 52.3910 0.0000
# 6 0.0000 0.0000 0.0000 -89.2635 0.0000 -52.9786
#
#
#
# Elastic Compliance Matrix: (Units=1/GPa)
#
#
# Indices 1 2 3 4 5 6 
#
# 1 0.010465 -0.002358 -0.002423 0.000000 -0.000033 0.000000
# 2 -0.002358 0.013653 -0.005522 0.000000 -0.004460 0.000000
# 3 -0.002423 -0.005522 0.010479 0.000000 0.002628 0.000000
# 4 0.000000 0.000000 0.000000 0.016009 0.000000 -0.026974
# 5 -0.000033 -0.004460 0.002628 0.000000 0.020652 0.000000
# 6 0.000000 0.000000 0.000000 -0.026974 0.000000 0.026572
#
#
# Mechanical properties :
#
#
# Convention : Reuss Voigt Hill
#
# Bulk Modulus (GPa) = 71.47253 74.30306 72.88779
# Shear Modulus (GPa) = 40.61804 -3.24662 18.68571
#
# Velocity S-wave (km/s) = 4.19454 -1.18588 2.84498
# Velocity P-wave (km/s) = 7.37686 5.50546 6.50877
#
# Compressibility (1/GPa) = 0.01399139
#
# Stress axis : x y z
#
# Youngs Moduli (GPa) = 95.55976 73.24321 95.43288
#
# Poissons Ratio (x) = 0.17268 0.23124
# Poissons Ratio (y) = 0.22529 0.52697
# Poissons Ratio (z) = 0.23154 0.40444
#
# Static dielectric constant tensor:
#      x y z
#    x 4.578770 0.000000 -0.142310 
#    y 0.000000 4.167260 0.000000 
#    z -0.142310 0.000000 4.806380 
# 
# 
# High freq. dielectric constant tensor:
#      x y z
#    x 1.930140 0.000000 -0.001960 
#    y 0.000000 1.888120 0.000000 
#    z -0.001960 0.000000 1.930060 
# 
# From -- ./inp_files/5958.got.cif
#   From: 2010.03.12/outbox.cif.g09.slc.cpg/sg3_3_cif.got.tgz:5958.got - 2010.03.31 09:20:49.
