data_PCOD8045008
_publ_section_title
;
Structure prediction by ZEFSAII (Michael W. Deem and Ramdas Pophale) SiO2 
 PCOD8045008
Probable space group: P 2
;
_chemical_formula_sum "Si O2"
_cell_formula_units_Z 14
_cell_length_a 10.765016
_cell_length_b 13.741745
_cell_length_c 11.726590
_cell_angle_alpha 90.000000
_cell_angle_beta 154.823518
_cell_angle_gamma 90.000000
_cell_volume 737.961679
_symmetry_space_group_name_H-M "P 2"
_symmetry_group_IT_number 3
_symmetry_cell_setting 'monoclinic'
loop_
_space_group_symop_operation_xyz
x,y,z
-x,y,-z
loop_
_atom_site_type_symbol
_atom_site_label
_atom_site_fract_x
_atom_site_fract_y
_atom_site_fract_z
Si Si1 0.163845 0.659570 0.749741
Si Si2 0.753998 0.378905 0.389603
Si Si3 0.831283 0.872983 0.247787
Si Si4 0.705861 0.068713 0.060570
Si Si5 0.148602 0.478616 0.887353
Si Si6 0.301482 0.174493 0.563196
Si Si7 0.500000 0.265834 0.500000
Si Si8 0.000000 0.405502 0.000000
O O1 0.044090 0.767295 0.688055
O O2 0.000000 0.622878 0.500000
O O3 0.500000 0.659836 0.000000
O O4 0.096870 0.587275 0.798205
O O5 0.471770 0.442211 0.121483
O O6 0.652049 0.267650 0.316414
O O7 0.000000 0.395691 0.500000
O O8 0.896215 0.408926 0.628017
O O9 0.000000 0.910856 0.500000
O O10 0.845626 0.959520 0.165730
O O11 0.500000 0.850955 0.000000
O O12 0.964327 0.145230 0.290673
O O13 0.500000 0.072635 0.000000
O O14 0.517559 0.091327 0.791214
O O15 0.104435 0.476836 0.986183
O O16 0.374919 0.194989 0.493085
O O17 0.739506 0.334625 0.752976
#
# Coordination Sequence:
#
# PCOD8045008 Si02
#       8
#     2   2   2   2   2   2   1   1
#     4  10  20  35  57  86 115 143 181 226 286 339
#     4  12  23  36  54  83 116 145 179 233 293 331
#     4   9  18  34  56  83 116 147 175 221 280 349
#     4  11  21  36  58  88 115 142 182 231 290 336
#     4  12  22  37  57  81 112 152 189 232 270 333
#     4  12  23  38  57  79 113 151 192 233 267 334
#     4  12  24  44  56  74 108 158 206 226 264 324
#     4  12  22  42  58  74 110 156 204 226 264 324
#
# _framework density 18.971174000000001
#
# number of rings (size 3 to 8) (size 9 to 14) (size 15 to 20)
#    0.000    0.857    2.857    7.286    0.000    0.000 
#    0.000    0.000    0.000    1.714    0.000    0.000 
#    0.000    0.000    0.000    0.000    0.000    0.000 
#
# Total GULP energy -173605.975826 kJ/mol
# GULP energy per Si atom -12400.426845 kJ/mol
# Density = 1.892799 g / cm^3
# Si number density = 18.971174 Si / 1000 Ang^3
#
#
#
# Elastic Constant Matrix: (Units=GPa)
#
#
# Indices 1 2 3 4 5 6 
#
# 1 84.2584 59.1234 24.8449 0.0000 -12.3156 0.0000
# 2 59.1234 119.0670 38.0240 0.0000 -11.5275 0.0000
# 3 24.8449 38.0240 125.4275 0.0000 -4.9734 0.0000
# 4 0.0000 0.0000 0.0000 35.0371 0.0000 -9.8100
# 5 -12.3156 -11.5275 -4.9734 0.0000 27.4409 0.0000
# 6 0.0000 0.0000 0.0000 -9.8100 0.0000 17.9766
#
#
#
# Elastic Compliance Matrix: (Units=1/GPa)
#
#
# Indices 1 2 3 4 5 6 
#
# 1 0.018879 -0.008621 -0.000940 0.000000 0.004681 0.000000
# 2 -0.008621 0.013566 -0.002349 0.000000 0.001404 0.000000
# 3 -0.000940 -0.002349 0.008879 0.000000 0.000200 0.000000
# 4 0.000000 0.000000 0.000000 0.033689 0.000000 0.018384
# 5 0.004681 0.001404 0.000200 0.000000 0.039169 0.000000
# 6 0.000000 0.000000 0.000000 0.018384 0.000000 0.065660
#
#
# Mechanical properties :
#
#
# Convention : Reuss Voigt Hill
#
# Bulk Modulus (GPa) = 57.13472 63.63751 60.38612
# Shear Modulus (GPa) = 23.86669 29.87494 26.87081
#
# Velocity S-wave (km/s) = 3.55075 3.97262 3.76759
# Velocity P-wave (km/s) = 6.85510 7.39320 7.12923
#
# Compressibility (1/GPa) = 0.01750249
#
# Stress axis : x y z
#
# Youngs Moduli (GPa) = 52.96887 73.71625 112.62370
#
# Poissons Ratio (x) = 0.63550 0.10592
# Poissons Ratio (y) = 0.45664 0.26457
# Poissons Ratio (z) = 0.04982 0.17317
#
# Static dielectric constant tensor:
#      x y z
#    x 3.260730 0.000000 -0.038260 
#    y 0.000000 3.860920 0.000000 
#    z -0.038260 0.000000 3.697430 
# 
# 
# High freq. dielectric constant tensor:
#      x y z
#    x 1.698200 0.000000 0.001170 
#    y 0.000000 1.740340 0.000000 
#    z 0.001170 0.000000 1.766650 
# 
# From -- ./inp_files/11952.got.cif
#   From: 2010.03.12/outbox.cif.g09.slc.cpg/sg3_6_cif.got.tgz:11952.got - 2010.03.31 09:20:49.
