data_PCOD8045268
_publ_section_title
;
Structure prediction by ZEFSAII (Michael W. Deem and Ramdas Pophale) SiO2 
 PCOD8045268
Probable space group: P 2
;
_chemical_formula_sum "Si O2"
_cell_formula_units_Z 13
_cell_length_a 6.878807
_cell_length_b 13.683038
_cell_length_c 5.416056
_cell_angle_alpha 90.000000
_cell_angle_beta 103.077085
_cell_angle_gamma 90.000000
_cell_volume 496.555078
_symmetry_space_group_name_H-M "P 2"
_symmetry_group_IT_number 3
_symmetry_cell_setting 'monoclinic'
loop_
_space_group_symop_operation_xyz
x,y,z
-x,y,-z
loop_
_atom_site_type_symbol
_atom_site_label
_atom_site_fract_x
_atom_site_fract_y
_atom_site_fract_z
Si Si1 0.778811 0.133230 0.954890
Si Si2 0.714381 0.910568 0.940330
Si Si3 0.270263 0.442129 0.458080
Si Si4 0.770994 0.214194 0.457059
Si Si5 0.174624 0.733364 0.740741
Si Si6 0.500000 0.798893 0.500000
Si Si7 0.263365 0.535028 0.953326
O O1 0.666335 0.163913 0.667722
O O2 0.807183 0.017100 0.971869
O O3 0.668773 0.176597 0.169560
O O4 0.000000 0.180634 0.000000
O O5 0.678372 0.867246 0.657170
O O6 0.500000 0.915704 0.000000
O O7 0.859929 0.837393 0.133344
O O8 0.500000 0.471368 0.500000
O O9 0.245944 0.328077 0.499792
O O10 0.170526 0.491995 0.670648
O O11 0.173556 0.479758 0.170456
O O12 0.000000 0.179312 0.500000
O O13 0.392248 0.730650 0.669924
O O14 0.192429 0.647920 0.950643
O O15 0.000000 0.712097 0.500000
O O16 0.500000 0.520790 0.000000
#
# Coordination Sequence:
#
# PCOD8045268 Si02
#       7
#     2   2   2   2   2   1   2
#     4  10  23  39  66  93 132 177 226 278 347 409
#     4  10  24  42  64  98 136 181 229 287 347 409
#     4  10  22  40  68  93 130 175 225 278 346 405
#     4  10  22  41  62  95 132 174 219 288 346 407
#     4  11  26  43  69 102 137 186 238 284 355 423
#     4  10  24  44  68  94 146 188 226 300 342 414
#     4  10  22  42  68  97 133 178 222 287 344 409
#
# _framework density 26.180378000000001
#
# number of rings (size 3 to 8) (size 9 to 14) (size 15 to 20)
#    0.000    1.846    0.000    2.308   11.846    2.462 
#    0.000    1.538    0.000    0.000    0.000    0.000 
#    0.000    0.000    0.000    0.000    0.000    0.000 
#
# Total GULP energy -161175.996667 kJ/mol
# GULP energy per Si atom -12398.153590 kJ/mol
# Density = 2.612079 g / cm^3
# Si number density = 26.180378 Si / 1000 Ang^3
#
#
#
# Elastic Constant Matrix: (Units=GPa)
#
#
# Indices 1 2 3 4 5 6 
#
# 1 39.9151 -3.0556 38.9172 0.0000 -15.7832 0.0000
# 2 -3.0556 190.4141 92.4375 0.0000 -13.4493 0.0000
# 3 38.9172 92.4375 239.2092 0.0000 -19.6232 0.0000
# 4 0.0000 0.0000 0.0000 55.5062 0.0000 -13.0663
# 5 -15.7832 -13.4493 -19.6232 0.0000 39.9494 0.0000
# 6 0.0000 0.0000 0.0000 -13.0663 0.0000 26.7918
#
#
#
# Elastic Compliance Matrix: (Units=1/GPa)
#
#
# Indices 1 2 3 4 5 6 
#
# 1 0.037254 0.004850 -0.006871 0.000000 0.012976 0.000000
# 2 0.004850 0.007133 -0.003325 0.000000 0.002684 0.000000
# 3 -0.006871 -0.003325 0.006532 0.000000 -0.000625 0.000000
# 4 0.000000 0.000000 0.000000 0.020353 0.000000 0.009926
# 5 0.012976 0.002684 -0.000625 0.000000 0.030755 0.000000
# 6 0.000000 0.000000 0.000000 0.009926 0.000000 0.042166
#
#
# Mechanical properties :
#
#
# Convention : Reuss Voigt Hill
#
# Bulk Modulus (GPa) = 24.85880 80.68184 52.77032
# Shear Modulus (GPa) = 29.70988 47.19876 38.45432
#
# Velocity S-wave (km/s) = 3.37236 4.25058 3.83668
# Velocity P-wave (km/s) = 4.96785 7.41448 6.31086
#
# Compressibility (1/GPa) = 0.04022720
#
# Stress axis : x y z
#
# Youngs Moduli (GPa) = 26.84257 140.18480 153.09403
#
# Poissons Ratio (x) = -0.67985 1.05183
# Poissons Ratio (y) = -0.13018 0.50910
# Poissons Ratio (z) = 0.18442 0.46617
#
# Static dielectric constant tensor:
#      x y z
#    x 4.554820 0.000000 -0.094510 
#    y 0.000000 4.520520 0.000000 
#    z -0.094510 0.000000 5.524790 
# 
# 
# High freq. dielectric constant tensor:
#      x y z
#    x 2.057570 0.000000 -0.005520 
#    y 0.000000 2.034400 0.000000 
#    z -0.005520 0.000000 2.069350 
# 
# From -- ./inp_files/1314.got.cif
#   From: 2010.03.12/outbox.cif.g09.slc.cpg/sg3_1_cif.got.tgz:1314.got - 2010.03.31 09:20:49.
