data_PCOD8045449
_publ_section_title
;
Structure prediction by ZEFSAII (Michael W. Deem and Ramdas Pophale) SiO2 
 PCOD8045449
Probable space group: P 2
;
_chemical_formula_sum "Si O2"
_cell_formula_units_Z 10
_cell_length_a 8.034756
_cell_length_b 5.083758
_cell_length_c 15.987835
_cell_angle_alpha 90.000000
_cell_angle_beta 141.429082
_cell_angle_gamma 90.000000
_cell_volume 407.166201
_symmetry_space_group_name_H-M "P 2"
_symmetry_group_IT_number 3
_symmetry_cell_setting 'monoclinic'
loop_
_space_group_symop_operation_xyz
x,y,z
-x,y,-z
loop_
_atom_site_type_symbol
_atom_site_label
_atom_site_fract_x
_atom_site_fract_y
_atom_site_fract_z
Si Si1 0.236206 0.690550 0.792704
Si Si2 0.874381 0.198788 0.146141
Si Si3 0.709297 0.959808 0.912236
Si Si4 0.686329 0.688244 0.492604
Si Si5 0.531561 0.195784 0.673633
O O1 0.241589 0.475453 0.867825
O O2 0.519775 0.707651 0.855538
O O3 0.994611 0.635002 0.634547
O O4 0.203298 0.976069 0.819580
O O5 0.191999 0.203251 0.267571
O O6 0.739842 0.148242 0.004058
O O7 0.577201 0.139361 0.788926
O O8 0.000000 0.845823 0.000000
O O9 0.500000 0.649303 0.500000
O O10 0.606255 0.478498 0.390027
O O11 0.655770 0.976888 0.442039
#
# Coordination Sequence:
#
# PCOD8045449 Si02
#       5
#     2   2   2   2   2
#     4  12  25  44  75 109 142 194 243 297 357 435
#     4  11  23  45  74 106 144 189 246 294 356 438
#     4  10  27  49  73 108 152 192 244 304 369 426
#     4  12  22  42  77 110 148 184 247 298 364 440
#     4  11  23  45  73 109 148 192 231 309 370 424
#
# _framework density 24.559999000000001
#
# number of rings (size 3 to 8) (size 9 to 14) (size 15 to 20)
#    0.000    0.800    4.000    2.400    0.000    7.200 
#    0.000   13.000    0.000    0.000    0.000    0.000 
#    0.000    0.000    0.000    0.000    0.000    0.000 
#
# Total GULP energy -124062.384537 kJ/mol
# GULP energy per Si atom -12406.238454 kJ/mol
# Density = 2.450410 g / cm^3
# Si number density = 24.559999 Si / 1000 Ang^3
#
#
#
# Elastic Constant Matrix: (Units=GPa)
#
#
# Indices 1 2 3 4 5 6 
#
# 1 87.5680 22.3205 60.2737 0.0000 27.6301 0.0000
# 2 22.3205 84.7779 20.3649 0.0000 13.3327 0.0000
# 3 60.2737 20.3649 143.7757 0.0000 9.8187 0.0000
# 4 0.0000 0.0000 0.0000 25.6719 0.0000 -13.9581
# 5 27.6301 13.3327 9.8187 0.0000 37.8586 0.0000
# 6 0.0000 0.0000 0.0000 -13.9581 0.0000 5.4826
#
#
#
# Elastic Compliance Matrix: (Units=1/GPa)
#
#
# Indices 1 2 3 4 5 6 
#
# 1 0.021306 -0.001701 -0.007808 0.000000 -0.012926 0.000000
# 2 -0.001701 0.012947 -0.000910 0.000000 -0.003082 0.000000
# 3 -0.007808 -0.000910 0.010126 0.000000 0.003393 0.000000
# 4 0.000000 0.000000 0.000000 -0.101378 0.000000 -0.258098
# 5 -0.012926 -0.003082 0.003393 0.000000 0.036053 0.000000
# 6 0.000000 0.000000 0.000000 -0.258098 0.000000 -0.474696
#
#
# Mechanical properties :
#
#
# Convention : Reuss Voigt Hill
#
# Bulk Modulus (GPa) = 42.48178 58.00442 50.24310
# Shear Modulus (GPa) = -10.70764 28.01346 8.65291
#
# Velocity S-wave (km/s) = -2.09028 3.38096 1.87905
# Velocity P-wave (km/s) = 3.39250 6.23778 5.02090
#
# Compressibility (1/GPa) = 0.02353950
#
# Stress axis : x y z
#
# Youngs Moduli (GPa) = 46.93463 77.23960 98.75664
#
# Poissons Ratio (x) = 0.13139 0.77113
# Poissons Ratio (y) = 0.07984 0.08989
# Poissons Ratio (z) = 0.36648 0.07030
#
# Static dielectric constant tensor:
#      x y z
#    x 5.162310 0.000000 0.733380 
#    y 0.000000 4.234480 0.000000 
#    z 0.733380 0.000000 5.199360 
# 
# 
# High freq. dielectric constant tensor:
#      x y z
#    x 1.978410 0.000000 0.007190 
#    y 0.000000 1.972830 0.000000 
#    z 0.007190 0.000000 1.998660 
# 
# From -- ./inp_files/13409.got.cif
#   From: 2010.03.12/outbox.cif.g09.slc.cpg/sg3_7_cif.got.tgz:13409.got - 2010.03.31 09:20:49.
