data_PCOD8045266
_publ_section_title
;
Structure prediction by ZEFSAII (Michael W. Deem and Ramdas Pophale) SiO2 
 PCOD8045266
Probable space group: P 2
;
_chemical_formula_sum "Si O2"
_cell_formula_units_Z 14
_cell_length_a 5.945195
_cell_length_b 6.857424
_cell_length_c 16.632063
_cell_angle_alpha 90.000000
_cell_angle_beta 73.140933
_cell_angle_gamma 90.000000
_cell_volume 648.925299
_symmetry_space_group_name_H-M "P 2"
_symmetry_group_IT_number 3
_symmetry_cell_setting 'monoclinic'
loop_
_space_group_symop_operation_xyz
x,y,z
-x,y,-z
loop_
_atom_site_type_symbol
_atom_site_label
_atom_site_fract_x
_atom_site_fract_y
_atom_site_fract_z
Si Si1 0.037229 0.887960 0.794857
Si Si2 0.500000 0.228719 0.500000
Si Si3 0.946558 0.232552 0.917077
Si Si4 0.687265 0.563524 0.144380
Si Si5 0.422143 0.891091 0.625421
Si Si6 0.500000 0.474588 0.000000
Si Si7 0.269407 0.656802 0.288558
Si Si8 0.138496 0.566200 0.564089
O O1 0.161571 0.748778 0.846164
O O2 0.221840 0.955793 0.708493
O O3 0.814535 0.788305 0.776627
O O4 0.927443 0.066366 0.853486
O O5 0.270564 0.364128 0.531818
O O6 0.519738 0.088735 0.575314
O O7 0.700379 0.342541 0.939908
O O8 0.158077 0.371427 0.868901
O O9 0.000000 0.147504 0.000000
O O10 0.477889 0.524631 0.230569
O O11 0.600143 0.606423 0.062244
O O12 0.638611 0.789142 0.647744
O O13 0.317278 0.738362 0.570952
O O14 0.051175 0.528519 0.344531
O O15 0.000000 0.637680 0.500000
#
# Coordination Sequence:
#
# PCOD8045266 Si02
#       8
#     2   1   2   2   2   1   2   2
#     4  10  23  41  64  91 124 166 208 253 307 365
#     4  12  24  40  66  94 124 164 206 252 308 368
#     4  10  23  41  61  92 129 162 205 256 306 367
#     4  10  22  42  64  91 126 164 206 257 309 363
#     4  10  24  44  62  91 129 161 204 256 306 368
#     4  10  22  40  64  92 128 164 202 256 310 366
#     4  10  22  43  66  89 125 166 205 255 307 363
#     4  11  24  42  65  93 125 162 204 255 309 366
#
# _framework density 21.574131000000001
#
# number of rings (size 3 to 8) (size 9 to 14) (size 15 to 20)
#    0.000    1.714    0.000    3.000    0.000   16.000 
#    0.000    4.286    0.000    0.000    0.000    0.000 
#    0.000    0.000    0.000    0.000    0.000    0.000 
#
# Total GULP energy -173620.871210 kJ/mol
# GULP energy per Si atom -12401.490801 kJ/mol
# Density = 2.152503 g / cm^3
# Si number density = 21.574131 Si / 1000 Ang^3
#
#
#
# Elastic Constant Matrix: (Units=GPa)
#
#
# Indices 1 2 3 4 5 6 
#
# 1 137.4737 57.7861 69.6428 0.0000 6.4221 0.0000
# 2 57.7861 104.4441 83.0846 0.0000 0.2460 0.0000
# 3 69.6428 83.0846 140.7759 0.0000 4.2548 0.0000
# 4 0.0000 0.0000 0.0000 56.0071 0.0000 -3.9846
# 5 6.4221 0.2460 4.2548 0.0000 49.6292 0.0000
# 6 0.0000 0.0000 0.0000 -3.9846 0.0000 10.5322
#
#
#
# Elastic Compliance Matrix: (Units=1/GPa)
#
#
# Indices 1 2 3 4 5 6 
#
# 1 0.010257 -0.003131 -0.003195 0.000000 -0.001038 0.000000
# 2 -0.003131 0.019037 -0.009721 0.000000 0.001144 0.000000
# 3 -0.003195 -0.009721 0.014445 0.000000 -0.000777 0.000000
# 4 0.000000 0.000000 0.000000 0.018349 0.000000 0.006942
# 5 -0.001038 0.001144 -0.000777 0.000000 0.020345 0.000000
# 6 0.000000 0.000000 0.000000 0.006942 0.000000 0.097573
#
#
# Mechanical properties :
#
#
# Convention : Reuss Voigt Hill
#
# Bulk Modulus (GPa) = 85.87472 89.30229 87.58850
# Shear Modulus (GPa) = 23.15004 34.71239 28.93121
#
# Velocity S-wave (km/s) = 3.27929 4.01556 3.66596
# Velocity P-wave (km/s) = 7.36405 7.93617 7.65546
#
# Compressibility (1/GPa) = 0.01164487
#
# Stress axis : x y z
#
# Youngs Moduli (GPa) = 97.49162 52.52844 69.22777
#
# Poissons Ratio (x) = 0.16446 0.22119
# Poissons Ratio (y) = 0.30524 0.67299
# Poissons Ratio (z) = 0.31150 0.51065
#
# Static dielectric constant tensor:
#      x y z
#    x 4.095340 0.000000 -0.069690 
#    y 0.000000 3.516110 0.000000 
#    z -0.069690 0.000000 3.913630 
# 
# 
# High freq. dielectric constant tensor:
#      x y z
#    x 1.864330 0.000000 -0.004900 
#    y 0.000000 1.815940 0.000000 
#    z -0.004900 0.000000 1.872090 
# 
# From -- ./inp_files/14586.got.cif
#   From: 2010.03.12/outbox.cif.g09.slc.cpg/sg3_8_cif.got.tgz:14586.got - 2010.03.31 09:20:49.
