data_PCOD8045758
_publ_section_title
;
Structure prediction by ZEFSAII (Michael W. Deem and Ramdas Pophale) SiO2 
 PCOD8045758
Probable space group: P 21
;
_chemical_formula_sum "Si O2"
_cell_formula_units_Z 10
_cell_length_a 18.340590
_cell_length_b 5.336338
_cell_length_c 13.366449
_cell_angle_alpha 90.000000
_cell_angle_beta 18.539373
_cell_angle_gamma 90.000000
_cell_volume 415.948972
_symmetry_space_group_name_H-M "P 21"
_symmetry_group_IT_number 4
_symmetry_cell_setting 'monoclinic'
loop_
_space_group_symop_operation_xyz
x,y,z
-x,1/2+y,-z
loop_
_atom_site_type_symbol
_atom_site_label
_atom_site_fract_x
_atom_site_fract_y
_atom_site_fract_z
Si Si1 0.531653 0.468420 0.195086
Si Si2 0.596443 0.968359 0.040827
Si Si3 0.384254 0.452344 0.608984
Si Si4 0.809237 0.969876 0.548130
Si Si5 0.930389 0.469767 0.314423
O O1 0.687159 0.720653 0.981612
O O2 0.394459 0.467498 0.476388
O O3 0.362765 0.472405 0.320685
O O4 0.688716 0.217954 0.977858
O O5 0.319666 0.972027 0.411153
O O6 0.663250 0.965128 0.838641
O O7 0.516164 0.686910 0.485000
O O8 0.117539 0.466797 0.983705
O O9 0.965830 0.720472 0.336106
O O10 0.962337 0.222140 0.342726
#
# Coordination Sequence:
#
# PCOD8045758 Si02
#       5
#     2   2   2   2   2
#     4  10  20  35  59  85 115 148 185 230 288 334
#     4  10  19  35  64  94 115 134 172 243 308 345
#     4  12  26  42  56  76 116 164 202 228 256 322
#     4  10  19  35  64  94 115 134 172 243 308 345
#     4  10  20  35  59  85 115 148 185 230 288 334
#
# _framework density 24.041409000000002
#
# number of rings (size 3 to 8) (size 9 to 14) (size 15 to 20)
#    0.000    1.600    0.000    8.400    0.000    6.400 
#    0.000    0.000    0.000   40.800    0.000    0.000 
#    0.000    0.000    0.000    0.000    0.000    0.000 
#
# Total GULP energy -123939.984741 kJ/mol
# GULP energy per Si atom -12393.998474 kJ/mol
# Density = 2.398669 g / cm^3
# Si number density = 24.041409 Si / 1000 Ang^3
#
#
#
# Elastic Constant Matrix: (Units=GPa)
#
#
# Indices 1 2 3 4 5 6 
#
# 1 60.6096 15.8198 39.2458 0.0000 37.2702 0.0000
# 2 15.8198 270.6459 24.9066 0.0000 33.6594 0.0000
# 3 39.2458 24.9066 64.3246 0.0000 46.5995 0.0000
# 4 0.0000 0.0000 0.0000 32.5732 0.0000 23.1258
# 5 37.2702 33.6594 46.5995 0.0000 47.7541 0.0000
# 6 0.0000 0.0000 0.0000 23.1258 0.0000 10.5519
#
#
#
# Elastic Compliance Matrix: (Units=1/GPa)
#
#
# Indices 1 2 3 4 5 6 
#
# 1 0.032539 0.001234 -0.004446 0.000000 -0.021927 0.000000
# 2 0.001234 0.004152 0.001560 0.000000 -0.005412 0.000000
# 3 -0.004446 0.001560 0.054381 0.000000 -0.050696 0.000000
# 4 0.000000 0.000000 0.000000 -0.055220 0.000000 0.121020
# 5 -0.021927 -0.005412 -0.050696 0.000000 0.091339 0.000000
# 6 0.000000 0.000000 0.000000 0.121020 0.000000 -0.170460
#
#
# Mechanical properties :
#
#
# Convention : Reuss Voigt Hill
#
# Bulk Modulus (GPa) = 11.39346 61.72494 36.55920
# Shear Modulus (GPa) = -466.90140 39.21638 -213.84251
#
# Velocity S-wave (km/s) = -13.95094 4.04320 -9.44143
# Velocity P-wave (km/s) = 15.96107 6.89396 10.17912
#
# Compressibility (1/GPa) = 0.08776964
#
# Stress axis : x y z
#
# Youngs Moduli (GPa) = 30.73234 240.83199 18.38881
#
# Poissons Ratio (x) = -0.29722 0.08175
# Poissons Ratio (y) = -0.03793 -0.02869
# Poissons Ratio (z) = 0.13663 -0.37577
#
# Static dielectric constant tensor:
#      x y z
#    x 3.781020 0.000000 0.294190 
#    y 0.000000 9.148940 0.000000 
#    z 0.294190 0.000000 4.097840 
# 
# 
# High freq. dielectric constant tensor:
#      x y z
#    x 1.928950 0.000000 0.023280 
#    y 0.000000 2.005980 0.000000 
#    z 0.023280 0.000000 1.939990 
# 
# From -- ./inp_files/5111.got.cif
#   From: 2010.03.12/outbox.cif.g09.slc.cpg/sg4_3_cif.got.tgz:5111.got - 2010.03.31 09:31:35.
