data_PCOD8045562
_publ_section_title
;
Structure prediction by ZEFSAII (Michael W. Deem and Ramdas Pophale) SiO2 
 PCOD8045562
Probable space group: P 2
;
_chemical_formula_sum "Si O2"
_cell_formula_units_Z 10
_cell_length_a 6.728312
_cell_length_b 6.510281
_cell_length_c 10.329624
_cell_angle_alpha 90.000000
_cell_angle_beta 110.928509
_cell_angle_gamma 90.000000
_cell_volume 422.619695
_symmetry_space_group_name_H-M "P 2"
_symmetry_group_IT_number 3
_symmetry_cell_setting 'monoclinic'
loop_
_space_group_symop_operation_xyz
x,y,z
-x,y,-z
loop_
_atom_site_type_symbol
_atom_site_label
_atom_site_fract_x
_atom_site_fract_y
_atom_site_fract_z
Si Si1 0.500000 0.632571 0.500000
Si Si2 0.289560 0.352927 0.028967
Si Si3 0.048901 0.042263 0.796098
Si Si4 0.000000 0.717676 0.000000
Si Si5 0.364392 0.250715 0.329758
Si Si6 0.753928 0.975169 0.413111
O O1 0.354868 0.486690 0.374504
O O2 0.658909 0.763202 0.446592
O O3 0.884442 0.231464 0.096495
O O4 0.341458 0.227583 0.170358
O O5 0.500000 0.386158 0.000000
O O6 0.208820 0.578590 0.044532
O O7 0.835336 0.112553 0.664749
O O8 0.240753 0.978524 0.743704
O O9 0.985020 0.848284 0.866261
O O10 0.597861 0.160023 0.425528
O O11 0.000000 0.005917 0.500000
#
# Coordination Sequence:
#
# PCOD8045562 Si02
#       6
#     1   2   2   1   2   2
#     4  12  30  48  74 110 146 200 262 300 362 444
#     4  12  26  46  76 115 147 195 240 314 375 441
#     4  12  26  49  78 110 154 194 244 308 379 442
#     4  12  26  44  74 118 152 188 252 298 376 450
#     4  12  26  51  75 106 157 189 248 313 371 436
#     4  12  29  49  75 106 147 206 251 307 366 435
#
# _framework density 23.661936000000001
#
# number of rings (size 3 to 8) (size 9 to 14) (size 15 to 20)
#    0.000    0.000    6.000    3.000    8.400    3.200 
#    0.000    0.000    0.000    0.000    0.000    0.000 
#    0.000    0.000    0.000    0.000    0.000    0.000 
#
# Total GULP energy -124022.896953 kJ/mol
# GULP energy per Si atom -12402.289695 kJ/mol
# Density = 2.360808 g / cm^3
# Si number density = 23.661936 Si / 1000 Ang^3
#
#
#
# Elastic Constant Matrix: (Units=GPa)
#
#
# Indices 1 2 3 4 5 6 
#
# 1 184.4440 88.5625 57.2949 0.0000 -10.5721 0.0000
# 2 88.5625 162.5476 49.0601 0.0000 -6.7640 0.0000
# 3 57.2949 49.0601 91.0119 0.0000 2.7514 0.0000
# 4 0.0000 0.0000 0.0000 29.5005 0.0000 14.9987
# 5 -10.5721 -6.7640 2.7514 0.0000 51.2858 0.0000
# 6 0.0000 0.0000 0.0000 14.9987 0.0000 17.9729
#
#
#
# Elastic Compliance Matrix: (Units=1/GPa)
#
#
# Indices 1 2 3 4 5 6 
#
# 1 0.008170 -0.003376 -0.003366 0.000000 0.001419 0.000000
# 2 -0.003376 0.008815 -0.002645 0.000000 0.000609 0.000000
# 3 -0.003366 -0.002645 0.014588 0.000000 -0.001825 0.000000
# 4 0.000000 0.000000 0.000000 0.058879 0.000000 -0.049136
# 5 0.001419 0.000609 -0.001825 0.000000 0.019969 0.000000
# 6 0.000000 0.000000 0.000000 -0.049136 0.000000 0.096644
#
#
# Mechanical properties :
#
#
# Convention : Reuss Voigt Hill
#
# Bulk Modulus (GPa) = 78.13575 91.98205 85.05890
# Shear Modulus (GPa) = 21.72916 35.95758 28.84337
#
# Velocity S-wave (km/s) = 3.03366 3.90248 3.49517
# Velocity P-wave (km/s) = 6.73530 7.69829 7.23284
#
# Compressibility (1/GPa) = 0.01279824
#
# Stress axis : x y z
#
# Youngs Moduli (GPa) = 122.40171 113.44155 68.55183
#
# Poissons Ratio (x) = 0.38300 0.23075
# Poissons Ratio (y) = 0.41326 0.18130
# Poissons Ratio (z) = 0.41202 0.30003
#
# Static dielectric constant tensor:
#      x y z
#    x 4.735610 0.000000 -0.442510 
#    y 0.000000 4.053540 0.000000 
#    z -0.442510 0.000000 4.701350 
# 
# 
# High freq. dielectric constant tensor:
#      x y z
#    x 1.961010 0.000000 -0.017100 
#    y 0.000000 1.927090 0.000000 
#    z -0.017100 0.000000 1.969920 
# 
# From -- ./inp_files/1930.got.cif
#   From: 2010.03.12/outbox.cif.g09.slc.cpg/sg3_1_cif.got.tgz:1930.got - 2010.03.31 09:20:49.
