data_PCOD8045697
_publ_section_title
;
Structure prediction by ZEFSAII (Michael W. Deem and Ramdas Pophale) SiO2 
 PCOD8045697
Probable space group: P 21
;
_chemical_formula_sum "Si O2"
_cell_formula_units_Z 14
_cell_length_a 11.501820
_cell_length_b 9.046928
_cell_length_c 8.715368
_cell_angle_alpha 90.000000
_cell_angle_beta 48.902578
_cell_angle_gamma 90.000000
_cell_volume 683.424067
_symmetry_space_group_name_H-M "P 21"
_symmetry_group_IT_number 4
_symmetry_cell_setting 'monoclinic'
loop_
_space_group_symop_operation_xyz
x,y,z
-x,1/2+y,-z
loop_
_atom_site_type_symbol
_atom_site_label
_atom_site_fract_x
_atom_site_fract_y
_atom_site_fract_z
Si Si1 0.831848 0.606970 0.907245
Si Si2 0.665032 0.486449 0.339196
Si Si3 0.949294 0.340256 0.619248
Si Si4 0.953140 0.374445 0.268889
Si Si5 0.488008 0.724680 0.691317
Si Si6 0.288508 0.310244 0.239372
Si Si7 0.219084 0.574668 0.096152
O O1 0.896640 0.450495 0.797128
O O2 0.723648 0.675551 0.869631
O O3 0.978314 0.710859 0.817929
O O4 0.725097 0.584161 0.146817
O O5 0.805768 0.398072 0.292473
O O6 0.589990 0.599202 0.523700
O O7 0.540447 0.363702 0.396061
O O8 0.907154 0.398822 0.486626
O O9 0.861869 0.186896 0.717144
O O10 0.132831 0.317625 0.475259
O O11 0.087760 0.491213 0.110832
O O12 0.567849 0.785749 0.775176
O O13 0.325854 0.655059 0.880554
O O14 0.314455 0.460402 0.119729
#
# Coordination Sequence:
#
# PCOD8045697 Si02
#       7
#     2   2   2   2   2   2   2
#     4  10  22  42  70  95 124 173 234 271 328 386
#     4  12  28  43  63  99 141 181 216 274 345 408
#     4  10  18  42  70  98 118 168 234 274 322 378
#     4  10  23  42  69  94 129 171 218 289 321 404
#     4  12  28  43  63  99 141 181 216 274 345 408
#     4  10  23  42  69  94 129 171 218 289 321 404
#     4  10  22  42  70  95 124 173 234 271 328 386
#
# _framework density 20.485085000000002
#
# number of rings (size 3 to 8) (size 9 to 14) (size 15 to 20)
#    0.000    1.714    1.429    5.143    8.000    4.571 
#    0.000    0.000    0.000    0.000    0.000    0.000 
#    0.000    0.000    0.000    0.000    0.000    0.000 
#
# Total GULP energy -173644.754045 kJ/mol
# GULP energy per Si atom -12403.196717 kJ/mol
# Density = 2.043846 g / cm^3
# Si number density = 20.485085 Si / 1000 Ang^3
#
#
#
# Elastic Constant Matrix: (Units=GPa)
#
#
# Indices 1 2 3 4 5 6 
#
# 1 115.3582 32.6505 -0.1067 0.0000 -8.0487 0.0000
# 2 32.6505 100.6895 15.6263 0.0000 -0.9751 0.0000
# 3 -0.1067 15.6263 60.1639 0.0000 2.4488 0.0000
# 4 0.0000 0.0000 0.0000 34.2173 0.0000 -1.4228
# 5 -8.0487 -0.9751 2.4488 0.0000 14.9717 0.0000
# 6 0.0000 0.0000 0.0000 -1.4228 0.0000 27.2215
#
#
#
# Elastic Compliance Matrix: (Units=1/GPa)
#
#
# Indices 1 2 3 4 5 6 
#
# 1 0.009948 -0.003281 0.000665 0.000000 0.005026 0.000000
# 2 -0.003281 0.011449 -0.002958 0.000000 -0.000534 0.000000
# 3 0.000665 -0.002958 0.017500 0.000000 -0.002697 0.000000
# 4 0.000000 0.000000 0.000000 0.029289 0.000000 0.001531
# 5 0.005026 -0.000534 -0.002697 0.000000 0.069901 0.000000
# 6 0.000000 0.000000 0.000000 0.001531 0.000000 0.036816
#
#
# Mechanical properties :
#
#
# Convention : Reuss Voigt Hill
#
# Bulk Modulus (GPa) = 36.03380 41.39467 38.71424
# Shear Modulus (GPa) = 25.60164 30.48487 28.04326
#
# Velocity S-wave (km/s) = 3.53904 3.86184 3.70396
# Velocity P-wave (km/s) = 5.85903 6.33531 6.10182
#
# Compressibility (1/GPa) = 0.02775172
#
# Stress axis : x y z
#
# Youngs Moduli (GPa) = 100.51846 87.34281 57.14135
#
# Poissons Ratio (x) = 0.28653 -0.03801
# Poissons Ratio (y) = 0.32975 0.16901
# Poissons Ratio (z) = -0.06686 0.25834
#
# Static dielectric constant tensor:
#      x y z
#    x 3.524830 0.000000 -0.013530 
#    y 0.000000 3.866290 0.000000 
#    z -0.013530 0.000000 3.662950 
# 
# 
# High freq. dielectric constant tensor:
#      x y z
#    x 1.787350 0.000000 0.000940 
#    y 0.000000 1.820110 0.000000 
#    z 0.000940 0.000000 1.802460 
# 
# From -- ./inp_files/7601.got.cif
#   From: 2010.03.12/outbox.cif.g09.slc.cpg/sg4_4_cif.got.tgz:7601.got - 2010.03.31 09:31:35.
