data_PCOD8045478
_publ_section_title
;
Structure prediction by ZEFSAII (Michael W. Deem and Ramdas Pophale) SiO2 
 PCOD8045478
Probable space group: P 2
;
_chemical_formula_sum "Si O2"
_cell_formula_units_Z 14
_cell_length_a 9.357046
_cell_length_b 7.842950
_cell_length_c 12.575302
_cell_angle_alpha 90.000000
_cell_angle_beta 141.100425
_cell_angle_gamma 90.000000
_cell_volume 579.517743
_symmetry_space_group_name_H-M "P 2"
_symmetry_group_IT_number 3
_symmetry_cell_setting 'monoclinic'
loop_
_space_group_symop_operation_xyz
x,y,z
-x,y,-z
loop_
_atom_site_type_symbol
_atom_site_label
_atom_site_fract_x
_atom_site_fract_y
_atom_site_fract_z
Si Si1 0.145847 0.010690 0.884523
Si Si2 0.292552 0.368068 0.951968
Si Si3 0.065011 0.469643 0.424614
Si Si4 0.399610 0.474240 0.242384
Si Si5 0.612048 0.837023 0.800148
Si Si6 0.836436 0.832286 0.324572
Si Si7 0.679877 0.145121 0.688991
O O1 0.314345 0.170719 0.999339
O O2 0.888044 0.069023 0.744566
O O3 0.210458 0.937054 0.807923
O O4 0.181415 0.876122 0.999864
O O5 0.055066 0.386066 0.748522
O O6 0.500000 0.427988 0.000000
O O7 0.325413 0.480145 0.075861
O O8 0.336232 0.447288 0.574042
O O9 0.000000 0.380814 0.500000
O O10 0.978935 0.663852 0.376500
O O11 0.333439 0.667992 0.239724
O O12 0.254039 0.321139 0.211392
O O13 0.396171 0.791733 0.749205
O O14 0.571992 0.001147 0.702991
O O15 0.000000 0.938330 0.500000
O O16 0.500000 0.204454 0.500000
#
# Coordination Sequence:
#
# PCOD8045478 Si02
#       7
#     2   2   2   2   2   2   2
#     4  12  27  47  71 111 154 197 254 311 381 463
#     4  12  23  42  75 111 151 192 245 317 382 447
#     4  11  22  43  72 113 153 189 252 315 388 451
#     4  12  26  49  79 109 152 201 254 317 380 460
#     4  12  24  48  79 109 149 198 253 317 385 449
#     4  11  22  44  75 112 150 187 254 320 379 453
#     4  12  29  53  72 107 155 202 259 311 380 471
#
# _framework density 24.158014999999999
#
# number of rings (size 3 to 8) (size 9 to 14) (size 15 to 20)
#    0.000    0.286    5.714    4.286    0.000    1.143 
#    7.714    0.000    0.000    0.000    0.000    0.000 
#    0.000    0.000    0.000    0.000    0.000    0.000 
#
# Total GULP energy -173528.727465 kJ/mol
# GULP energy per Si atom -12394.909105 kJ/mol
# Density = 2.410303 g / cm^3
# Si number density = 24.158015 Si / 1000 Ang^3
#
#
#
# Elastic Constant Matrix: (Units=GPa)
#
#
# Indices 1 2 3 4 5 6 
#
# 1 47.5838 22.0082 -0.1081 0.0000 -12.4749 0.0000
# 2 22.0082 135.6061 19.6830 0.0000 -17.0002 0.0000
# 3 -0.1081 19.6830 129.7489 0.0000 -17.8162 0.0000
# 4 0.0000 0.0000 0.0000 30.9920 0.0000 2.4675
# 5 -12.4749 -17.0002 -17.8162 0.0000 34.5988 0.0000
# 6 0.0000 0.0000 0.0000 2.4675 0.0000 16.1333
#
#
#
# Elastic Compliance Matrix: (Units=1/GPa)
#
#
# Indices 1 2 3 4 5 6 
#
# 1 0.024641 -0.003214 0.001626 0.000000 0.008142 0.000000
# 2 -0.003214 0.008339 -0.000930 0.000000 0.002460 0.000000
# 3 0.001626 -0.000930 0.008466 0.000000 0.004489 0.000000
# 4 0.000000 0.000000 0.000000 0.032664 0.000000 -0.004996
# 5 0.008142 0.002460 0.004489 0.000000 0.035359 0.000000
# 6 0.000000 0.000000 0.000000 -0.004996 0.000000 0.062747
#
#
# Mechanical properties :
#
#
# Convention : Reuss Voigt Hill
#
# Bulk Modulus (GPa) = 27.46525 44.01166 35.73846
# Shear Modulus (GPa) = 26.40070 34.43520 30.41795
#
# Velocity S-wave (km/s) = 3.30939 3.77956 3.55226
# Velocity P-wave (km/s) = 5.09867 6.10775 5.62588
#
# Compressibility (1/GPa) = 0.03640965
#
# Stress axis : x y z
#
# Youngs Moduli (GPa) = 40.58345 119.91398 118.11939
#
# Poissons Ratio (x) = 0.38544 -0.19209
# Poissons Ratio (y) = 0.13045 0.10985
# Poissons Ratio (z) = -0.06600 0.11152
#
# Static dielectric constant tensor:
#      x y z
#    x 4.320720 0.000000 -0.201980 
#    y 0.000000 4.503560 0.000000 
#    z -0.201980 0.000000 4.599270 
# 
# 
# High freq. dielectric constant tensor:
#      x y z
#    x 1.947650 0.000000 -0.006390 
#    y 0.000000 1.963580 0.000000 
#    z -0.006390 0.000000 1.973540 
# 
# From -- ./inp_files/10868.got.cif
#   From: 2010.03.12/outbox.cif.g09.slc.cpg/sg3_6_cif.got.tgz:10868.got - 2010.03.31 09:20:49.
