data_PCOD8045525
_publ_section_title
;
Structure prediction by ZEFSAII (Michael W. Deem and Ramdas Pophale) SiO2 
 PCOD8045525
Probable space group: P 2
;
_chemical_formula_sum "Si O2"
_cell_formula_units_Z 12
_cell_length_a 14.337409
_cell_length_b 6.731773
_cell_length_c 5.591258
_cell_angle_alpha 90.000000
_cell_angle_beta 76.056802
_cell_angle_gamma 90.000000
_cell_volume 523.746231
_symmetry_space_group_name_H-M "P 2"
_symmetry_group_IT_number 3
_symmetry_cell_setting 'monoclinic'
loop_
_space_group_symop_operation_xyz
x,y,z
-x,y,-z
loop_
_atom_site_type_symbol
_atom_site_label
_atom_site_fract_x
_atom_site_fract_y
_atom_site_fract_z
Si Si1 0.000000 0.468511 0.500000
Si Si2 0.500000 0.926581 0.500000
Si Si3 0.808782 0.927163 0.067624
Si Si4 0.185721 0.262379 0.276583
Si Si5 0.689081 0.546688 0.059171
Si Si6 0.500000 0.687721 0.000000
Si Si7 0.000000 0.703216 0.000000
Si Si8 0.677369 0.213702 0.416502
O O1 0.906837 0.330614 0.516273
O O2 0.013956 0.584274 0.240608
O O3 0.493221 0.805174 0.752014
O O4 0.590660 0.065211 0.467560
O O5 0.722680 0.768588 0.103828
O O6 0.906611 0.836172 0.108511
O O7 0.772627 0.105456 0.255667
O O8 0.832560 0.037992 0.803110
O O9 0.289353 0.266331 0.340191
O O10 0.211587 0.436429 0.073101
O O11 0.648789 0.420416 0.307545
O O12 0.598966 0.560059 0.929207
#
# Coordination Sequence:
#
# PCOD8045525 Si02
#       8
#     1   1   2   2   2   1   1   2
#     4  12  28  48  74 114 146 192 244 300 364 434
#     4  12  28  48  74 114 146 192 244 300 364 434
#     4  11  25  49  72 107 144 194 240 299 364 430
#     4  11  27  45  76 104 149 189 244 302 361 432
#     4  11  25  49  72 107 144 194 240 299 364 430
#     4  12  28  46  80 106 150 194 244 296 366 436
#     4  12  28  46  80 106 150 194 244 296 366 436
#     4  11  27  45  76 104 149 189 244 302 361 432
#
# _framework density 22.911857999999999
#
# number of rings (size 3 to 8) (size 9 to 14) (size 15 to 20)
#    0.000    0.667    3.333    2.000   14.000    2.667 
#    0.000    0.000    0.000    0.000    0.000    0.000 
#    0.000    0.000    0.000    0.000    0.000    0.000 
#
# Total GULP energy -148662.229485 kJ/mol
# GULP energy per Si atom -12388.519124 kJ/mol
# Density = 2.285971 g / cm^3
# Si number density = 22.911858 Si / 1000 Ang^3
#
#
#
# Elastic Constant Matrix: (Units=GPa)
#
#
# Indices 1 2 3 4 5 6 
#
# 1 146.5168 43.8705 24.6563 0.0000 -0.8877 0.0000
# 2 43.8705 111.5704 29.4797 0.0000 -1.0186 0.0000
# 3 24.6563 29.4797 90.7710 0.0000 9.1638 0.0000
# 4 0.0000 0.0000 0.0000 -8.4331 0.0000 8.4448
# 5 -0.8877 -1.0186 9.1638 0.0000 38.3315 0.0000
# 6 0.0000 0.0000 0.0000 8.4448 0.0000 50.4119
#
#
#
# Elastic Compliance Matrix: (Units=1/GPa)
#
#
# Indices 1 2 3 4 5 6 
#
# 1 0.007868 -0.002750 -0.001286 0.000000 0.000417 0.000000
# 2 -0.002750 0.010807 -0.002854 0.000000 0.000906 0.000000
# 3 -0.001286 -0.002854 0.012608 0.000000 -0.003120 0.000000
# 4 0.000000 0.000000 0.000000 -0.101546 0.000000 0.017011
# 5 0.000417 0.000906 -0.003120 0.000000 0.026868 0.000000
# 6 0.000000 0.000000 0.000000 0.017011 0.000000 0.016987
#
#
# Mechanical properties :
#
#
# Convention : Reuss Voigt Hill
#
# Bulk Modulus (GPa) = 57.13677 60.54124 58.83901
# Shear Modulus (GPa) = -735.83967 32.78549 -351.52709
#
# Velocity S-wave (km/s) = -17.94041 3.78688 -12.39996
# Velocity P-wave (km/s) = 20.10355 6.75289 13.38938
#
# Compressibility (1/GPa) = 0.01750186
#
# Stress axis : x y z
#
# Youngs Moduli (GPa) = 127.10513 92.53536 79.31498
#
# Poissons Ratio (x) = 0.25447 0.10200
# Poissons Ratio (y) = 0.34954 0.22638
# Poissons Ratio (z) = 0.16346 0.26411
#
# Static dielectric constant tensor:
#      x y z
#    x 4.208730 0.000000 -0.073160 
#    y 0.000000 4.170360 0.000000 
#    z -0.073160 0.000000 4.211050 
# 
# 
# High freq. dielectric constant tensor:
#      x y z
#    x 1.925290 0.000000 -0.006630 
#    y 0.000000 1.915180 0.000000 
#    z -0.006630 0.000000 1.897780 
# 
# From -- ./inp_files/2839.got.cif
#   From: 2010.03.12/outbox.cif.g09.slc.cpg/sg3_2_cif.got.tgz:2839.got - 2010.03.31 09:20:49.
