data_PCOD8045815
_publ_section_title
;
Structure prediction by ZEFSAII (Michael W. Deem and Ramdas Pophale) SiO2 
 PCOD8045815
Probable space group: P 21
;
_chemical_formula_sum "Si O2"
_cell_formula_units_Z 14
_cell_length_a 14.523389
_cell_length_b 6.583295
_cell_length_c 8.728426
_cell_angle_alpha 90.000000
_cell_angle_beta 49.764499
_cell_angle_gamma 90.000000
_cell_volume 637.084549
_symmetry_space_group_name_H-M "P 21"
_symmetry_group_IT_number 4
_symmetry_cell_setting 'monoclinic'
loop_
_space_group_symop_operation_xyz
x,y,z
-x,1/2+y,-z
loop_
_atom_site_type_symbol
_atom_site_label
_atom_site_fract_x
_atom_site_fract_y
_atom_site_fract_z
Si Si1 0.426928 0.344780 0.719901
Si Si2 0.987509 0.031486 0.304284
Si Si3 0.661336 0.250115 0.053046
Si Si4 0.153319 0.876731 0.389985
Si Si5 0.209919 0.221071 0.551020
Si Si6 0.438287 0.478854 0.362179
Si Si7 0.780934 0.547957 0.130933
O O1 0.392727 0.527982 0.866506
O O2 0.461245 0.415233 0.513377
O O3 0.544987 0.224638 0.660143
O O4 0.310118 0.203480 0.850050
O O5 0.901913 0.225100 0.424818
O O6 0.914988 0.842659 0.310527
O O7 0.046241 0.960678 0.399711
O O8 0.086045 0.097979 0.073731
O O9 0.545762 0.389380 0.143923
O O10 0.738322 0.323404 0.120701
O O11 0.747422 0.253561 0.813181
O O12 0.216715 0.071581 0.399232
O O13 0.312832 0.394883 0.432816
O O14 0.222412 0.074192 0.683852
#
# Coordination Sequence:
#
# PCOD8045815 Si02
#       7
#     2   2   2   2   2   2   2
#     4  10  19  38  71 101 135 169 222 275 344 404
#     4  11  24  44  67  95 135 183 227 279 340 399
#     4  10  22  42  71  98 133 180 218 271 349 410
#     4  11  25  44  69  94 135 190 224 276 345 412
#     4  11  25  44  67 103 137 172 236 281 337 398
#     4  10  21  40  66 103 137 171 219 284 333 400
#     4   9  24  40  67 104 130 173 224 284 334 395
#
# _framework density 21.975104999999999
#
# number of rings (size 3 to 8) (size 9 to 14) (size 15 to 20)
#    0.000    1.714    2.857    0.000    4.000    4.571 
#    5.143    0.000    0.000    0.000    0.000    0.000 
#    0.000    0.000    0.000    0.000    0.000    0.000 
#
# Total GULP energy -173586.670435 kJ/mol
# GULP energy per Si atom -12399.047888 kJ/mol
# Density = 2.192509 g / cm^3
# Si number density = 21.975105 Si / 1000 Ang^3
#
#
#
# Elastic Constant Matrix: (Units=GPa)
#
#
# Indices 1 2 3 4 5 6 
#
# 1 83.7041 37.0872 35.6240 0.0000 -0.6907 0.0000
# 2 37.0872 125.2046 37.4555 0.0000 -5.7530 0.0000
# 3 35.6240 37.4555 92.8215 0.0000 -28.4139 0.0000
# 4 0.0000 0.0000 0.0000 39.1572 0.0000 -7.9867
# 5 -0.6907 -5.7530 -28.4139 0.0000 22.0587 0.0000
# 6 0.0000 0.0000 0.0000 -7.9867 0.0000 29.0511
#
#
#
# Elastic Compliance Matrix: (Units=1/GPa)
#
#
# Indices 1 2 3 4 5 6 
#
# 1 0.016921 -0.002884 -0.008913 0.000000 -0.011703 0.000000
# 2 -0.002884 0.009781 -0.003445 0.000000 -0.001977 0.000000
# 3 -0.008913 -0.003445 0.025135 0.000000 0.031198 0.000000
# 4 0.000000 0.000000 0.000000 0.027055 0.000000 0.007438
# 5 -0.011703 -0.001977 0.031198 0.000000 0.084638 0.000000
# 6 0.000000 0.000000 0.000000 0.007438 0.000000 0.036467
#
#
# Mechanical properties :
#
#
# Convention : Reuss Voigt Hill
#
# Bulk Modulus (GPa) = 46.83292 58.00706 52.41999
# Shear Modulus (GPa) = 21.04384 30.82432 25.93408
#
# Velocity S-wave (km/s) = 3.09790 3.74932 3.43907
# Velocity P-wave (km/s) = 5.84415 6.72289 6.29886
#
# Compressibility (1/GPa) = 0.02135250
#
# Stress axis : x y z
#
# Youngs Moduli (GPa) = 59.09701 102.23950 39.78561
#
# Poissons Ratio (x) = 0.29482 0.35462
# Poissons Ratio (y) = 0.17042 0.13708
# Poissons Ratio (z) = 0.52674 0.35226
#
# Static dielectric constant tensor:
#      x y z
#    x 3.886480 0.000000 -0.212460 
#    y 0.000000 4.119540 0.000000 
#    z -0.212460 0.000000 3.902190 
# 
# 
# High freq. dielectric constant tensor:
#      x y z
#    x 1.852920 0.000000 -0.018150 
#    y 0.000000 1.869190 0.000000 
#    z -0.018150 0.000000 1.865310 
# 
# From -- ./inp_files/8751.got.cif
#   From: 2010.03.12/outbox.cif.g09.slc.cpg/sg4_5_cif.got.tgz:8751.got - 2010.03.31 09:31:35.
