data_PCOD8045712
_publ_section_title
;
Structure prediction by ZEFSAII (Michael W. Deem and Ramdas Pophale) SiO2 
 PCOD8045712
Probable space group: P 21
;
_chemical_formula_sum "Si O2"
_cell_formula_units_Z 12
_cell_length_a 14.547642
_cell_length_b 7.703170
_cell_length_c 13.620815
_cell_angle_alpha 90.000000
_cell_angle_beta 159.436712
_cell_angle_gamma 90.000000
_cell_volume 536.131564
_symmetry_space_group_name_H-M "P 21"
_symmetry_group_IT_number 4
_symmetry_cell_setting 'monoclinic'
loop_
_space_group_symop_operation_xyz
x,y,z
-x,1/2+y,-z
loop_
_atom_site_type_symbol
_atom_site_label
_atom_site_fract_x
_atom_site_fract_y
_atom_site_fract_z
Si Si1 0.453889 0.410980 0.164021
Si Si2 0.042967 0.007811 0.653788
Si Si3 0.257563 0.599686 0.339000
Si Si4 0.956902 0.415507 0.567266
Si Si5 0.257545 0.325831 0.175871
Si Si6 0.545992 0.013167 0.256554
O O1 0.733466 0.496365 0.416181
O O2 0.367452 0.427424 0.190763
O O3 0.499915 0.211966 0.180395
O O4 0.231634 0.501870 0.874507
O O5 0.999886 0.211716 0.625869
O O6 0.768169 0.921749 0.411662
O O7 0.117389 0.961208 0.617684
O O8 0.266421 0.927536 0.949795
O O9 0.168938 0.463038 0.168671
O O10 0.500014 0.712886 0.540040
O O11 0.367427 0.497484 0.543671
O O12 0.000010 0.712668 0.109440
#
# Coordination Sequence:
#
# PCOD8045712 Si02
#       6
#     2   2   2   2   2   2
#     4   9  18  34  55  75 105 147 183 217 276 349
#     4  10  19  33  53  77 104 140 183 226 272 329
#     4  11  22  39  62  88 116 153 196 241 290 348
#     4  10  19  33  53  77 104 140 183 226 272 329
#     4  11  22  39  62  88 116 153 196 241 290 348
#     4   9  18  34  55  75 105 147 183 217 276 349
#
# _framework density 22.382566000000001
#
# number of rings (size 3 to 8) (size 9 to 14) (size 15 to 20)
#    0.000    2.000    0.000    7.000    0.000    0.000 
#    0.000    5.000    0.000    0.000    0.000    0.000 
#    0.000    0.000    0.000    0.000    0.000    0.000 
#
# Total GULP energy -148688.199686 kJ/mol
# GULP energy per Si atom -12390.683307 kJ/mol
# Density = 2.233162 g / cm^3
# Si number density = 22.382566 Si / 1000 Ang^3
#
#
#
# Elastic Constant Matrix: (Units=GPa)
#
#
# Indices 1 2 3 4 5 6 
#
# 1 160.6767 21.6250 78.3820 0.0000 1.9793 0.0000
# 2 21.6250 16.6166 18.8998 0.0000 -0.7758 0.0000
# 3 78.3820 18.8998 181.3954 0.0000 4.3189 0.0000
# 4 0.0000 0.0000 0.0000 15.5673 0.0000 -3.9117
# 5 1.9793 -0.7758 4.3189 0.0000 44.9501 0.0000
# 6 0.0000 0.0000 0.0000 -3.9117 0.0000 28.8003
#
#
#
# Elastic Compliance Matrix: (Units=1/GPa)
#
#
# Indices 1 2 3 4 5 6 
#
# 1 0.008741 -0.008051 -0.002932 0.000000 -0.000242 0.000000
# 2 -0.008051 0.075844 -0.004473 0.000000 0.002093 0.000000
# 3 -0.002932 -0.004473 0.007261 0.000000 -0.000646 0.000000
# 4 0.000000 0.000000 0.000000 0.066507 0.000000 0.009033
# 5 -0.000242 0.002093 -0.000646 0.000000 0.022356 0.000000
# 6 0.000000 0.000000 0.000000 0.009033 0.000000 0.035949
#
#
# Mechanical properties :
#
#
# Convention : Reuss Voigt Hill
#
# Bulk Modulus (GPa) = 16.41152 66.27801 41.34477
# Shear Modulus (GPa) = 18.66494 33.84900 26.25697
#
# Velocity S-wave (km/s) = 2.89087 3.89304 3.42877
# Velocity P-wave (km/s) = 4.30012 7.06282 5.84699
#
# Compressibility (1/GPa) = 0.06093279
#
# Stress axis : x y z
#
# Youngs Moduli (GPa) = 114.40737 13.18492 137.71647
#
# Poissons Ratio (x) = 0.10616 0.40382
# Poissons Ratio (y) = 0.92113 0.61602
# Poissons Ratio (z) = 0.33547 0.05898
#
# Static dielectric constant tensor:
#      x y z
#    x 3.860440 0.000000 0.281560 
#    y 0.000000 3.422140 0.000000 
#    z 0.281560 0.000000 4.821190 
# 
# 
# High freq. dielectric constant tensor:
#      x y z
#    x 1.881470 0.000000 0.010000 
#    y 0.000000 1.820740 0.000000 
#    z 0.010000 0.000000 1.915630 
# 
# From -- ./inp_files/2594.got.cif
#   From: 2010.03.12/outbox.cif.g09.slc.cpg/sg4_2_cif.got.tgz:2594.got - 2010.03.31 09:31:35.
