data_PCOD8045255
_publ_section_title
;
Structure prediction by ZEFSAII (Michael W. Deem and Ramdas Pophale) SiO2 
 PCOD8045255
Probable space group: P 2
;
_chemical_formula_sum "Si O2"
_cell_formula_units_Z 14
_cell_length_a 15.656913
_cell_length_b 5.239585
_cell_length_c 11.320478
_cell_angle_alpha 90.000000
_cell_angle_beta 137.506239
_cell_angle_gamma 90.000000
_cell_volume 627.335010
_symmetry_space_group_name_H-M "P 2"
_symmetry_group_IT_number 3
_symmetry_cell_setting 'monoclinic'
loop_
_space_group_symop_operation_xyz
x,y,z
-x,y,-z
loop_
_atom_site_type_symbol
_atom_site_label
_atom_site_fract_x
_atom_site_fract_y
_atom_site_fract_z
Si Si1 0.920038 0.013580 0.218499
Si Si2 0.798124 0.962671 0.531273
Si Si3 0.667813 0.043462 0.860459
Si Si4 0.659526 0.477171 0.454028
Si Si5 0.000000 0.387072 0.500000
Si Si6 0.414820 0.540768 0.092168
Si Si7 0.500000 0.274007 0.500000
Si Si8 0.780232 0.723573 0.274474
O O1 0.940856 0.242280 0.329808
O O2 0.855084 0.795907 0.231601
O O3 0.821064 0.067746 0.011087
O O4 0.052144 0.939061 0.294767
O O5 0.743006 0.730183 0.552196
O O6 0.761546 0.943437 0.353901
O O7 0.744600 0.227790 0.524565
O O8 0.628910 0.257938 0.915833
O O9 0.604999 0.097293 0.669966
O O10 0.624096 0.762780 0.855424
O O11 0.568200 0.525432 0.246744
O O12 0.570898 0.452262 0.478270
O O13 0.119353 0.532571 0.561836
O O14 0.354897 0.604849 0.902550
#
# Coordination Sequence:
#
# PCOD8045255 Si02
#       8
#     2   2   2   2   1   2   1   2
#     4  11  22  37  63 102 135 175 207 249 317 399
#     4  12  24  40  64 101 136 168 210 263 322 389
#     4  10  22  39  73  95 119 164 228 271 309 389
#     4  11  26  43  67  91 125 172 223 278 323 373
#     4  12  16  36  62  94 140 178 206 230 314 382
#     4  10  22  41  62  98 126 168 223 257 313 388
#     4  10  24  52  72  86 118 174 228 282 338 364
#     4  11  22  36  64  95 140 178 204 249 315 395
#
# _framework density 22.316625999999999
#
# number of rings (size 3 to 8) (size 9 to 14) (size 15 to 20)
#    0.000    1.143    4.286    2.571    0.000    5.714 
#    0.000    6.429    0.000    5.143    0.000    0.000 
#    0.000    0.000    0.000    0.000    0.000    0.000 
#
# Total GULP energy -173481.770067 kJ/mol
# GULP energy per Si atom -12391.555005 kJ/mol
# Density = 2.226583 g / cm^3
# Si number density = 22.316626 Si / 1000 Ang^3
#
#
#
# Elastic Constant Matrix: (Units=GPa)
#
#
# Indices 1 2 3 4 5 6 
#
# 1 84.1785 25.2553 26.5333 0.0000 5.1172 0.0000
# 2 25.2553 87.9874 18.5819 0.0000 11.9725 0.0000
# 3 26.5333 18.5819 151.9481 0.0000 1.4435 0.0000
# 4 0.0000 0.0000 0.0000 22.1324 0.0000 3.1618
# 5 5.1172 11.9725 1.4435 0.0000 24.8051 0.0000
# 6 0.0000 0.0000 0.0000 3.1618 0.0000 26.4995
#
#
#
# Elastic Compliance Matrix: (Units=1/GPa)
#
#
# Indices 1 2 3 4 5 6 
#
# 1 0.013560 -0.003334 -0.001950 0.000000 -0.001075 0.000000
# 2 -0.003334 0.013304 -0.000991 0.000000 -0.005676 0.000000
# 3 -0.001950 -0.000991 0.007038 0.000000 0.000471 0.000000
# 4 0.000000 0.000000 0.000000 0.045966 0.000000 -0.005484
# 5 -0.001075 -0.005676 0.000471 0.000000 0.043248 0.000000
# 6 0.000000 0.000000 0.000000 -0.005484 0.000000 0.038391
#
#
# Mechanical properties :
#
#
# Convention : Reuss Voigt Hill
#
# Bulk Modulus (GPa) = 46.83316 51.65054 49.24185
# Shear Modulus (GPa) = 27.59775 31.60363 29.60069
#
# Velocity S-wave (km/s) = 3.52041 3.76726 3.64592
# Velocity P-wave (km/s) = 6.12827 6.48981 6.31163
#
# Compressibility (1/GPa) = 0.02135239
#
# Stress axis : x y z
#
# Youngs Moduli (GPa) = 73.74772 75.16638 142.07817
#
# Poissons Ratio (x) = 0.25061 0.27703
# Poissons Ratio (y) = 0.24588 0.14077
# Poissons Ratio (z) = 0.14380 0.07448
#
# Static dielectric constant tensor:
#      x y z
#    x 4.025310 0.000000 0.511700 
#    y 0.000000 4.042430 0.000000 
#    z 0.511700 0.000000 4.662830 
# 
# 
# High freq. dielectric constant tensor:
#      x y z
#    x 1.847830 0.000000 0.026100 
#    y 0.000000 1.887710 0.000000 
#    z 0.026100 0.000000 1.890710 
# 
# From -- ./inp_files/8101.got.cif
#   From: 2010.03.12/outbox.cif.g09.slc.cpg/sg3_5_cif.got.tgz:8101.got - 2010.03.31 09:20:49.
