data_PCOD8045862
_publ_section_title
;
Structure prediction by ZEFSAII (Michael W. Deem and Ramdas Pophale) SiO2 
 PCOD8045862
Probable space group: P 21
;
_chemical_formula_sum "Si O2"
_cell_formula_units_Z 16
_cell_length_a 6.191635
_cell_length_b 8.723896
_cell_length_c 15.754912
_cell_angle_alpha 90.000000
_cell_angle_beta 113.519930
_cell_angle_gamma 90.000000
_cell_volume 780.304079
_symmetry_space_group_name_H-M "P 21"
_symmetry_group_IT_number 4
_symmetry_cell_setting 'monoclinic'
loop_
_space_group_symop_operation_xyz
x,y,z
-x,1/2+y,-z
loop_
_atom_site_type_symbol
_atom_site_label
_atom_site_fract_x
_atom_site_fract_y
_atom_site_fract_z
Si Si1 0.736780 0.971440 0.628540
Si Si2 0.423269 0.882298 0.938434
Si Si3 0.800317 0.139912 0.982706
Si Si4 0.243031 0.985017 0.470260
Si Si5 0.721744 0.707904 0.859436
Si Si6 0.384737 0.147764 0.338736
Si Si7 0.067569 0.521808 0.168763
Si Si8 0.876094 0.165213 0.497697
O O1 0.776613 0.792380 0.656622
O O2 0.831932 0.071646 0.723553
O O3 0.462003 0.997961 0.568399
O O4 0.873328 0.027292 0.566095
O O5 0.328374 0.798450 0.009345
O O6 0.503044 0.741842 0.888978
O O7 0.213609 0.989146 0.868449
O O8 0.646814 0.992963 0.989083
O O9 0.059113 0.119227 0.064475
O O10 0.854213 0.147119 0.889907
O O11 0.309336 0.999896 0.381555
O O12 0.094135 0.134086 0.471489
O O13 0.095619 0.828445 0.451822
O O14 0.636273 0.610361 0.764499
O O15 0.801558 0.870250 0.838565
O O16 0.653838 0.180243 0.401924
#
# Coordination Sequence:
#
# PCOD8045862 Si02
#       8
#     2   2   2   2   2   2   2   2
#     4   9  19  36  56  77 103 140 183 228 268 319
#     4  10  20  36  59  82 110 148 188 228 281 336
#     4  10  20  36  56  83 113 145 186 234 278 332
#     4  10  20  35  53  80 111 142 178 224 275 324
#     4   9  19  35  56  81 108 144 187 229 278 333
#     4   9  19  36  56  77 104 139 183 229 268 318
#     4   9  19  35  57  81 108 143 188 232 275 331
#     4  10  20  33  55  79 107 143 179 220 273 329
#
# _framework density 20.504826000000001
#
# number of rings (size 3 to 8) (size 9 to 14) (size 15 to 20)
#    0.000    2.500    0.000    1.500    0.000    8.000 
#    0.000    7.500    0.000    3.000    0.000    0.000 
#    0.000    0.000    0.000    0.000    0.000    0.000 
#
# Total GULP energy -198261.633135 kJ/mol
# GULP energy per Si atom -12391.352071 kJ/mol
# Density = 2.045816 g / cm^3
# Si number density = 20.504826 Si / 1000 Ang^3
#
#
#
# Elastic Constant Matrix: (Units=GPa)
#
#
# Indices 1 2 3 4 5 6 
#
# 1 90.6857 19.7762 22.2318 0.0000 -6.3306 0.0000
# 2 19.7762 41.3059 9.4417 0.0000 3.9618 0.0000
# 3 22.2318 9.4417 104.6775 0.0000 -2.8570 0.0000
# 4 0.0000 0.0000 0.0000 24.7845 0.0000 -0.6961
# 5 -6.3306 3.9618 -2.8570 0.0000 11.8511 0.0000
# 6 0.0000 0.0000 0.0000 -0.6961 0.0000 38.8833
#
#
#
# Elastic Compliance Matrix: (Units=1/GPa)
#
#
# Indices 1 2 3 4 5 6 
#
# 1 0.013682 -0.006964 -0.002028 0.000000 0.009148 0.000000
# 2 -0.006964 0.029224 -0.001535 0.000000 -0.013860 0.000000
# 3 -0.002028 -0.001535 0.010174 0.000000 0.001883 0.000000
# 4 0.000000 0.000000 0.000000 0.040368 0.000000 0.000723
# 5 0.009148 -0.013860 0.001883 0.000000 0.094354 0.000000
# 6 0.000000 0.000000 0.000000 0.000723 0.000000 0.025731
#
#
# Mechanical properties :
#
#
# Convention : Reuss Voigt Hill
#
# Bulk Modulus (GPa) = 31.22575 37.72982 34.47778
# Shear Modulus (GPa) = 20.38636 27.45175 23.91905
#
# Velocity S-wave (km/s) = 3.15655 3.66292 3.41912
# Velocity P-wave (km/s) = 5.34290 6.02742 5.69545
#
# Compressibility (1/GPa) = 0.03202485
#
# Stress axis : x y z
#
# Youngs Moduli (GPa) = 73.09122 34.21826 98.29271
#
# Poissons Ratio (x) = 0.23830 0.19933
# Poissons Ratio (y) = 0.50902 0.15089
# Poissons Ratio (z) = 0.14822 0.05253
#
# Static dielectric constant tensor:
#      x y z
#    x 3.821110 0.000000 -0.140980 
#    y 0.000000 3.553160 0.000000 
#    z -0.140980 0.000000 4.032750 
# 
# 
# High freq. dielectric constant tensor:
#      x y z
#    x 1.806660 0.000000 -0.006290 
#    y 0.000000 1.777100 0.000000 
#    z -0.006290 0.000000 1.794460 
# 
# From -- ./inp_files/3451.got.cif
#   From: 2010.03.12/outbox.cif.g09.slc.cpg/sg4_2_cif.got.tgz:3451.got - 2010.03.31 09:31:35.
