data_PCOD8045353
_publ_section_title
;
Structure prediction by ZEFSAII (Michael W. Deem and Ramdas Pophale) SiO2 
 PCOD8045353
Probable space group: P 2
;
_chemical_formula_sum "Si O2"
_cell_formula_units_Z 12
_cell_length_a 11.085815
_cell_length_b 8.899998
_cell_length_c 8.158940
_cell_angle_alpha 90.000000
_cell_angle_beta 42.829096
_cell_angle_gamma 90.000000
_cell_volume 547.244322
_symmetry_space_group_name_H-M "P 2"
_symmetry_group_IT_number 3
_symmetry_cell_setting 'monoclinic'
loop_
_space_group_symop_operation_xyz
x,y,z
-x,y,-z
loop_
_atom_site_type_symbol
_atom_site_label
_atom_site_fract_x
_atom_site_fract_y
_atom_site_fract_z
Si Si1 0.860540 0.696530 0.356234
Si Si2 0.284018 0.044332 0.857904
Si Si3 0.749938 0.691096 0.106080
Si Si4 0.559281 0.508147 0.760330
Si Si5 0.065456 0.016966 0.611960
Si Si6 0.369949 0.185721 0.422221
O O1 0.786488 0.640521 0.255163
O O2 0.734877 0.611584 0.611069
O O3 0.843932 0.876336 0.386153
O O4 0.068744 0.659576 0.176020
O O5 0.303532 0.865338 0.835128
O O6 0.300168 0.126671 0.667294
O O7 0.443786 0.107477 0.810963
O O8 0.095159 0.087491 0.123373
O O9 0.592595 0.598829 0.182622
O O10 0.606273 0.364215 0.603694
O O11 0.500000 0.457979 0.000000
O O12 0.000000 0.964003 0.500000
O O13 0.218587 0.142147 0.441176
#
# Coordination Sequence:
#
# PCOD8045353 Si02
#       6
#     2   2   2   2   2   2
#     4  10  23  45  71 100 134 180 240 288 340 408
#     4  10  23  44  75  96 131 181 245 290 334 407
#     4  10  22  46  74 101 128 181 242 291 334 411
#     4  12  29  43  67 102 151 184 226 283 360 417
#     4  11  24  43  73 103 137 180 236 297 350 396
#     4  11  25  45  66  98 141 188 229 281 346 423
#
# _framework density 21.928048
#
# number of rings (size 3 to 8) (size 9 to 14) (size 15 to 20)
#    0.000    1.333    1.667    2.000   14.000    1.333 
#    3.000    0.000    0.000    0.000    0.000    0.000 
#    0.000    0.000    0.000    0.000    0.000    0.000 
#
# Total GULP energy -148791.096152 kJ/mol
# GULP energy per Si atom -12399.258013 kJ/mol
# Density = 2.187814 g / cm^3
# Si number density = 21.928048 Si / 1000 Ang^3
#
#
#
# Elastic Constant Matrix: (Units=GPa)
#
#
# Indices 1 2 3 4 5 6 
#
# 1 109.5738 62.0680 48.3564 0.0000 -18.8535 0.0000
# 2 62.0680 124.9355 74.1346 0.0000 -24.5997 0.0000
# 3 48.3564 74.1346 123.4788 0.0000 -25.5037 0.0000
# 4 0.0000 0.0000 0.0000 24.0248 0.0000 2.0133
# 5 -18.8535 -24.5997 -25.5037 0.0000 40.0298 0.0000
# 6 0.0000 0.0000 0.0000 2.0133 0.0000 19.4790
#
#
#
# Elastic Compliance Matrix: (Units=1/GPa)
#
#
# Indices 1 2 3 4 5 6 
#
# 1 0.013104 -0.005156 -0.001631 0.000000 0.001965 0.000000
# 2 -0.005156 0.014858 -0.006353 0.000000 0.002655 0.000000
# 3 -0.001631 -0.006353 0.013342 0.000000 0.003828 0.000000
# 4 0.000000 0.000000 0.000000 0.041987 0.000000 -0.004340
# 5 0.001965 0.002655 0.003828 0.000000 0.029977 0.000000
# 6 0.000000 0.000000 0.000000 -0.004340 0.000000 0.051786
#
#
# Mechanical properties :
#
#
# Convention : Reuss Voigt Hill
#
# Bulk Modulus (GPa) = 66.55354 80.78957 73.67156
# Shear Modulus (GPa) = 25.46565 28.26866 26.86716
#
# Velocity S-wave (km/s) = 3.41152 3.59438 3.50414
# Velocity P-wave (km/s) = 6.77752 7.35861 7.07403
#
# Compressibility (1/GPa) = 0.01502550
#
# Stress axis : x y z
#
# Youngs Moduli (GPa) = 76.30983 67.30327 74.95031
#
# Poissons Ratio (x) = 0.34701 0.12222
# Poissons Ratio (y) = 0.39344 0.47617
# Poissons Ratio (z) = 0.12444 0.42759
#
# Static dielectric constant tensor:
#      x y z
#    x 3.988950 0.000000 -0.346640 
#    y 0.000000 3.741290 0.000000 
#    z -0.346640 0.000000 4.207820 
# 
# 
# High freq. dielectric constant tensor:
#      x y z
#    x 1.864680 0.000000 -0.020190 
#    y 0.000000 1.849550 0.000000 
#    z -0.020190 0.000000 1.870610 
# 
# From -- ./inp_files/7274.got.cif
#   From: 2010.03.12/outbox.cif.g09.slc.cpg/sg3_4_cif.got.tgz:7274.got - 2010.03.31 09:20:49.
