data_PCOD8045279
_publ_section_title
;
Structure prediction by ZEFSAII (Michael W. Deem and Ramdas Pophale) SiO2 
 PCOD8045279
Probable space group: P 2
;
_chemical_formula_sum "Si O2"
_cell_formula_units_Z 14
_cell_length_a 7.063488
_cell_length_b 5.956888
_cell_length_c 16.728242
_cell_angle_alpha 90.000000
_cell_angle_beta 68.462152
_cell_angle_gamma 90.000000
_cell_volume 654.717177
_symmetry_space_group_name_H-M "P 2"
_symmetry_group_IT_number 3
_symmetry_cell_setting 'monoclinic'
loop_
_space_group_symop_operation_xyz
x,y,z
-x,y,-z
loop_
_atom_site_type_symbol
_atom_site_label
_atom_site_fract_x
_atom_site_fract_y
_atom_site_fract_z
Si Si1 0.530298 0.478190 0.349558
Si Si2 0.741264 0.186953 0.712259
Si Si3 0.120806 0.252278 0.060770
Si Si4 0.024268 0.499686 0.766307
Si Si5 0.500000 0.160402 0.500000
Si Si6 0.276620 0.874842 0.144453
Si Si7 0.779683 0.870513 0.558663
Si Si8 0.500000 0.562911 0.000000
O O1 0.439355 0.347580 0.288185
O O2 0.573999 0.312529 0.415800
O O3 0.375282 0.672533 0.397697
O O4 0.747788 0.575677 0.290403
O O5 0.931403 0.333699 0.713684
O O6 0.642664 0.042906 0.799769
O O7 0.815910 0.030675 0.628700
O O8 0.979709 0.375517 0.147729
O O9 0.308960 0.409838 0.008579
O O10 0.195034 0.012727 0.081377
O O11 0.000000 0.199046 0.000000
O O12 0.902004 0.731084 0.787672
O O13 0.689977 0.008625 0.497930
O O14 0.456414 0.713722 0.085363
O O15 0.000000 0.770308 0.500000
#
# Coordination Sequence:
#
# PCOD8045279 Si02
#       8
#     2   2   2   2   1   2   2   1
#     4  11  24  41  65  92 123 163 207 254 305 364
#     4  10  23  42  63  90 124 162 203 255 309 361
#     4  10  23  41  62  90 125 162 202 251 306 363
#     4  10  23  42  61  89 125 160 203 253 304 364
#     4  10  24  42  62  90 124 162 204 256 308 362
#     4  10  22  41  65  90 124 163 203 253 305 363
#     4  11  24  41  64  92 123 163 206 252 308 365
#     4  10  22  42  64  90 124 162 204 254 304 362
#
# _framework density 21.383279999999999
#
# number of rings (size 3 to 8) (size 9 to 14) (size 15 to 20)
#    0.000    1.714    0.000    2.571    0.000   19.429 
#    0.000    2.857    0.000    0.000    0.000    0.000 
#    0.000    0.000    0.000    0.000    0.000    0.000 
#
# Total GULP energy -173647.405365 kJ/mol
# GULP energy per Si atom -12403.386097 kJ/mol
# Density = 2.133461 g / cm^3
# Si number density = 21.383280 Si / 1000 Ang^3
#
#
#
# Elastic Constant Matrix: (Units=GPa)
#
#
# Indices 1 2 3 4 5 6 
#
# 1 131.5807 69.0755 93.1651 0.0000 -12.7633 0.0000
# 2 69.0755 137.5319 62.6174 0.0000 -4.1409 0.0000
# 3 93.1651 62.6174 116.1293 0.0000 5.4351 0.0000
# 4 0.0000 0.0000 0.0000 12.0670 0.0000 -16.7786
# 5 -12.7633 -4.1409 5.4351 0.0000 56.1533 0.0000
# 6 0.0000 0.0000 0.0000 -16.7786 0.0000 9.5575
#
#
#
# Elastic Compliance Matrix: (Units=1/GPa)
#
#
# Indices 1 2 3 4 5 6 
#
# 1 0.020454 -0.003315 -0.014895 0.000000 0.005846 0.000000
# 2 -0.003315 0.010258 -0.002885 0.000000 0.000282 0.000000
# 3 -0.014895 -0.002885 0.022386 0.000000 -0.005765 0.000000
# 4 0.000000 0.000000 0.000000 -0.057509 0.000000 -0.100959
# 5 0.005846 0.000282 -0.005765 0.000000 0.019716 0.000000
# 6 0.000000 0.000000 0.000000 -0.100959 0.000000 -0.072609
#
#
# Mechanical properties :
#
#
# Convention : Reuss Voigt Hill
#
# Bulk Modulus (GPa) = 91.67876 92.77309 92.22593
# Shear Modulus (GPa) = -435.63980 26.24781 -204.69599
#
# Velocity S-wave (km/s) = -14.28886 3.50736 -9.79464
# Velocity P-wave (km/s) = 15.14138 7.73835 9.20270
#
# Compressibility (1/GPa) = 0.01090765
#
# Stress axis : x y z
#
# Youngs Moduli (GPa) = 48.89054 97.48487 44.67072
#
# Poissons Ratio (x) = 0.32319 0.66538
# Poissons Ratio (y) = 0.16209 0.12886
# Poissons Ratio (z) = 0.72823 0.28121
#
# Static dielectric constant tensor:
#      x y z
#    x 3.706160 0.000000 0.104430 
#    y 0.000000 4.027710 0.000000 
#    z 0.104430 0.000000 4.082700 
# 
# 
# High freq. dielectric constant tensor:
#      x y z
#    x 1.829580 0.000000 0.006450 
#    y 0.000000 1.851850 0.000000 
#    z 0.006450 0.000000 1.849390 
# 
# From -- ./inp_files/14576.got.cif
#   From: 2010.03.12/outbox.cif.g09.slc.cpg/sg3_8_cif.got.tgz:14576.got - 2010.03.31 09:20:49.
