data_PCOD8045602
_publ_section_title
;
Structure prediction by ZEFSAII (Michael W. Deem and Ramdas Pophale) SiO2 
 PCOD8045602
Probable space group: P 21
;
_chemical_formula_sum "Si O2"
_cell_formula_units_Z 14
_cell_length_a 8.204584
_cell_length_b 5.314268
_cell_length_c 25.336081
_cell_angle_alpha 90.000000
_cell_angle_beta 143.656417
_cell_angle_gamma 90.000000
_cell_volume 654.666616
_symmetry_space_group_name_H-M "P 21"
_symmetry_group_IT_number 4
_symmetry_cell_setting 'monoclinic'
loop_
_space_group_symop_operation_xyz
x,y,z
-x,1/2+y,-z
loop_
_atom_site_type_symbol
_atom_site_label
_atom_site_fract_x
_atom_site_fract_y
_atom_site_fract_z
Si Si1 0.364760 0.390720 0.250070
Si Si2 0.189338 0.890799 0.179621
Si Si3 0.903092 0.389030 0.718972
Si Si4 0.062541 0.864791 0.547663
Si Si5 0.872568 0.388805 0.204030
Si Si6 0.413458 0.416146 0.006740
Si Si7 0.437538 0.414397 0.515133
O O1 0.363719 0.638400 0.212291
O O2 0.618022 0.397090 0.356046
O O3 0.079846 0.388250 0.208249
O O4 0.369853 0.140687 0.214610
O O5 0.131825 0.888453 0.227350
O O6 0.914264 0.893380 0.072817
O O7 0.609609 0.390287 0.613961
O O8 0.075026 0.638458 0.747296
O O9 0.070489 0.137513 0.745804
O O10 0.882484 0.886441 0.553780
O O11 0.020381 0.587179 0.513408
O O12 0.559201 0.387829 0.101526
O O13 0.517781 0.193099 0.996526
O O14 0.480437 0.692096 0.502966
#
# Coordination Sequence:
#
# PCOD8045602 Si02
#       7
#     2   2   2   2   2   2   2
#     4  10  18  29  46  72 106 141 182 225 287 337
#     4  10  18  29  47  78 115 147 179 237 293 356
#     4  10  18  32  49  70 102 148 188 226 288 344
#     4  12  23  40  64  89 115 156 209 257 309 372
#     4  10  17  28  48  77 113 145 181 234 293 354
#     4  12  16  27  43  76 120 152 178 222 309 360
#     4  12  26  43  61  86 123 161 207 261 307 357
#
# _framework density 21.384929
#
# number of rings (size 3 to 8) (size 9 to 14) (size 15 to 20)
#    0.000    1.143    5.714    6.000    0.000    0.000 
#    0.000    0.000    0.000    0.000    0.000    0.000 
#    0.000   38.857    0.000    0.000    0.000    0.000 
#
# Total GULP energy -173529.867180 kJ/mol
# GULP energy per Si atom -12394.990513 kJ/mol
# Density = 2.133626 g / cm^3
# Si number density = 21.384929 Si / 1000 Ang^3
#
#
#
# Elastic Constant Matrix: (Units=GPa)
#
#
# Indices 1 2 3 4 5 6 
#
# 1 29.5038 -0.4689 -0.8227 0.0000 2.4994 0.0000
# 2 -0.4689 195.0326 33.2238 0.0000 4.1633 0.0000
# 3 -0.8227 33.2238 137.9735 0.0000 11.2913 0.0000
# 4 0.0000 0.0000 0.0000 43.7837 0.0000 -1.3633
# 5 2.4994 4.1633 11.2913 0.0000 8.9270 0.0000
# 6 0.0000 0.0000 0.0000 -1.3633 0.0000 16.8040
#
#
#
# Elastic Compliance Matrix: (Units=1/GPa)
#
#
# Indices 1 2 3 4 5 6 
#
# 1 0.034876 0.000137 0.001092 0.000000 -0.011210 0.000000
# 2 0.000137 0.005355 -0.001206 0.000000 -0.001010 0.000000
# 3 0.001092 -0.001206 0.008392 0.000000 -0.010359 0.000000
# 4 0.000000 0.000000 0.000000 0.022897 0.000000 0.001858
# 5 -0.011210 -0.001010 -0.010359 0.000000 0.128732 0.000000
# 6 0.000000 0.000000 0.000000 0.001858 0.000000 0.059660
#
#
# Mechanical properties :
#
#
# Convention : Reuss Voigt Hill
#
# Bulk Modulus (GPa) = 20.54638 47.37491 33.96064
# Shear Modulus (GPa) = 18.11006 35.94143 27.02575
#
# Velocity S-wave (km/s) = 2.91324 4.10407 3.55882
# Velocity P-wave (km/s) = 4.57654 6.68277 5.72731
#
# Compressibility (1/GPa) = 0.04867038
#
# Stress axis : x y z
#
# Youngs Moduli (GPa) = 28.67283 186.75285 119.15593
#
# Poissons Ratio (x) = -0.02560 -0.13016
# Poissons Ratio (y) = -0.00393 0.14369
# Poissons Ratio (z) = -0.03132 0.22520
#
# Static dielectric constant tensor:
#      x y z
#    x 3.010710 0.000000 0.178020 
#    y 0.000000 6.786460 0.000000 
#    z 0.178020 0.000000 4.081220 
# 
# 
# High freq. dielectric constant tensor:
#      x y z
#    x 1.741990 0.000000 0.013670 
#    y 0.000000 1.887760 0.000000 
#    z 0.013670 0.000000 1.854410 
# 
# From -- ./inp_files/8582.got.cif
#   From: 2010.03.12/outbox.cif.g09.slc.cpg/sg4_5_cif.got.tgz:8582.got - 2010.03.31 09:31:35.
