data_PCOD8045643
_publ_section_title
;
Structure prediction by ZEFSAII (Michael W. Deem and Ramdas Pophale) SiO2 
 PCOD8045643
Probable space group: P 21
;
_chemical_formula_sum "Si O2"
_cell_formula_units_Z 16
_cell_length_a 19.891477
_cell_length_b 5.264154
_cell_length_c 6.835799
_cell_angle_alpha 90.000000
_cell_angle_beta 61.907660
_cell_angle_gamma 90.000000
_cell_volume 631.461604
_symmetry_space_group_name_H-M "P 21"
_symmetry_group_IT_number 4
_symmetry_cell_setting 'monoclinic'
loop_
_space_group_symop_operation_xyz
x,y,z
-x,1/2+y,-z
loop_
_atom_site_type_symbol
_atom_site_label
_atom_site_fract_x
_atom_site_fract_y
_atom_site_fract_z
Si Si1 0.889856 0.808810 0.338445
Si Si2 0.269407 0.737300 0.995533
Si Si3 0.273133 0.289984 0.581141
Si Si4 0.890288 0.038166 0.734965
Si Si5 0.328667 0.239830 0.949514
Si Si6 0.503592 0.728861 0.370895
Si Si7 0.658475 0.287669 0.526903
Si Si8 0.028889 0.797938 0.702410
O O1 0.818110 0.808563 0.291827
O O2 0.860069 0.855169 0.601571
O O3 0.927787 0.535214 0.261710
O O4 0.950065 0.040061 0.203816
O O5 0.180866 0.679352 0.065756
O O6 0.304267 0.508143 0.080436
O O7 0.318420 0.792762 0.733902
O O8 0.280946 0.000005 0.101260
O O9 0.303183 0.292974 0.760389
O O10 0.306882 0.535726 0.421827
O O11 0.305132 0.040457 0.424870
O O12 0.938542 0.867667 0.824639
O O13 0.945934 0.253102 0.560667
O O14 0.418508 0.191703 0.856062
O O15 0.483193 0.462929 0.500798
O O16 0.433123 0.795637 0.324996
#
# Coordination Sequence:
#
# PCOD8045643 Si02
#       8
#     2   2   2   2   2   2   2   2
#     4  10  20  33  53  78  99 135 172 228 257 310
#     4  10  20  30  51  76 111 131 165 218 279 302
#     4  10  18  32  49  74 111 129 175 210 257 314
#     4  10  21  35  56  78 103 128 180 229 269 308
#     4  10  20  32  49  82 109 141 167 214 263 317
#     4  12  16  31  51  76 113 135 179 214 247 315
#     4  10  19  32  50  80 106 143 165 217 256 316
#     4  10  20  35  53  78  96 128 183 220 270 300
#
# _framework density 25.338042999999999
#
# number of rings (size 3 to 8) (size 9 to 14) (size 15 to 20)
#    0.750    1.000    6.250    0.750    1.750    0.000 
#    0.000    0.000    0.000   12.000    0.000    5.250 
#    0.000    0.000    0.000    0.000    0.000    0.000 
#
# Total GULP energy -198222.206739 kJ/mol
# GULP energy per Si atom -12388.887921 kJ/mol
# Density = 2.528037 g / cm^3
# Si number density = 25.338043 Si / 1000 Ang^3
#
#
#
# Elastic Constant Matrix: (Units=GPa)
#
#
# Indices 1 2 3 4 5 6 
#
# 1 110.7623 28.1956 34.3903 0.0000 -45.2708 0.0000
# 2 28.1956 222.8124 -4.4432 0.0000 -22.6024 0.0000
# 3 34.3903 -4.4432 31.8764 0.0000 -22.3518 0.0000
# 4 0.0000 0.0000 0.0000 0.8377 0.0000 -26.4695
# 5 -45.2708 -22.6024 -22.3518 0.0000 41.8555 0.0000
# 6 0.0000 0.0000 0.0000 -26.4695 0.0000 35.7243
#
#
#
# Elastic Compliance Matrix: (Units=1/GPa)
#
#
# Indices 1 2 3 4 5 6 
#
# 1 0.017919 -0.001111 -0.010099 0.000000 0.013388 0.000000
# 2 -0.001111 0.005147 0.004831 0.000000 0.004158 0.000000
# 3 -0.010099 0.004831 0.059325 0.000000 0.023367 0.000000
# 4 0.000000 0.000000 0.000000 -0.053264 0.000000 -0.039465
# 5 0.013388 0.004158 0.023367 0.000000 0.053095 0.000000
# 6 0.000000 0.000000 0.000000 -0.039465 0.000000 -0.001249
#
#
# Mechanical properties :
#
#
# Convention : Reuss Voigt Hill
#
# Bulk Modulus (GPa) = 14.36094 53.52626 33.94360
# Shear Modulus (GPa) = 42.75641 36.17073 39.46357
#
# Velocity S-wave (km/s) = 4.11230 3.78236 3.95078
# Velocity P-wave (km/s) = 5.31301 6.34395 5.85123
#
# Compressibility (1/GPa) = 0.06963332
#
# Stress axis : x y z
#
# Youngs Moduli (GPa) = 55.80800 194.29629 16.85628
#
# Poissons Ratio (x) = 0.21583 0.17023
# Poissons Ratio (y) = 0.06199 -0.08144
# Poissons Ratio (z) = 0.56361 -0.93872
#
# Static dielectric constant tensor:
#      x y z
#    x 4.253900 0.000000 -0.320140 
#    y 0.000000 6.751350 0.000000 
#    z -0.320140 0.000000 3.939750 
# 
# 
# High freq. dielectric constant tensor:
#      x y z
#    x 2.001160 0.000000 -0.023550 
#    y 0.000000 2.041570 0.000000 
#    z -0.023550 0.000000 1.967180 
# 
# From -- ./inp_files/9854.got.cif
#   From: 2010.03.12/outbox.cif.g09.slc.cpg/sg4_5_cif.got.tgz:9854.got - 2010.03.31 09:31:35.
