data_PCOD8045858
_publ_section_title
;
Structure prediction by ZEFSAII (Michael W. Deem and Ramdas Pophale) SiO2 
 PCOD8045858
Probable space group: P 21
;
_chemical_formula_sum "Si O2"
_cell_formula_units_Z 16
_cell_length_a 15.502121
_cell_length_b 5.075829
_cell_length_c 15.382362
_cell_angle_alpha 90.000000
_cell_angle_beta 140.291097
_cell_angle_gamma 90.000000
_cell_volume 773.295408
_symmetry_space_group_name_H-M "P 21"
_symmetry_group_IT_number 4
_symmetry_cell_setting 'monoclinic'
loop_
_space_group_symop_operation_xyz
x,y,z
-x,1/2+y,-z
loop_
_atom_site_type_symbol
_atom_site_label
_atom_site_fract_x
_atom_site_fract_y
_atom_site_fract_z
Si Si1 0.917052 0.046070 0.218322
Si Si2 0.937447 0.831607 0.054978
Si Si3 0.974313 0.303159 0.534871
Si Si4 0.120787 0.328562 0.172443
Si Si5 0.648706 0.308060 0.053277
Si Si6 0.296728 0.707688 0.580177
Si Si7 0.779690 0.704179 0.578127
Si Si8 0.505643 0.306596 0.118621
O O1 0.806052 0.263593 0.155969
O O2 0.059093 0.198920 0.315516
O O3 0.869972 0.878943 0.096779
O O4 0.929602 0.840228 0.307098
O O5 0.036303 0.583002 0.136418
O O6 0.023799 0.082976 0.099410
O O7 0.828898 0.827989 0.890087
O O8 0.824384 0.228341 0.445916
O O9 0.960712 0.575862 0.472326
O O10 0.241005 0.279527 0.335658
O O11 0.621810 0.278849 0.135439
O O12 0.612933 0.598185 0.991951
O O13 0.557479 0.096957 0.930918
O O14 0.296323 0.417901 0.539117
O O15 0.434077 0.751514 0.739537
O O16 0.284248 0.920946 0.492957
#
# Coordination Sequence:
#
# PCOD8045858 Si02
#       8
#     2   2   2   2   2   2   2   2
#     4  10  21  35  52  80 106 133 172 210 261 304
#     4   9  18  29  50  72 108 139 160 201 244 314
#     4  11  22  32  48  74 105 137 164 209 264 309
#     4   9  16  31  47  76 108 137 161 189 255 315
#     4  10  22  36  54  70 100 137 178 224 249 290
#     4  11  21  35  52  73 102 135 175 210 247 308
#     4  10  20  32  54  80 107 131 159 209 260 315
#     4  10  22  38  51  71  96 141 185 214 252 287
#
# _framework density 20.690670999999998
#
# number of rings (size 3 to 8) (size 9 to 14) (size 15 to 20)
#    0.000    2.000    0.000    5.250    0.000    9.000 
#    0.000    0.000    0.000    0.000    0.000    3.500 
#    0.000    0.000    0.000    0.000    0.000    0.000 
#
# Total GULP energy -198328.410228 kJ/mol
# GULP energy per Si atom -12395.525639 kJ/mol
# Density = 2.064358 g / cm^3
# Si number density = 20.690671 Si / 1000 Ang^3
#
#
#
# Elastic Constant Matrix: (Units=GPa)
#
#
# Indices 1 2 3 4 5 6 
#
# 1 45.1918 8.2855 20.2894 0.0000 -26.5513 0.0000
# 2 8.2855 90.0709 2.7328 0.0000 -10.8871 0.0000
# 3 20.2894 2.7328 78.5216 0.0000 -29.7030 0.0000
# 4 0.0000 0.0000 0.0000 28.0663 0.0000 -9.5335
# 5 -26.5513 -10.8871 -29.7030 0.0000 36.9099 0.0000
# 6 0.0000 0.0000 0.0000 -9.5335 0.0000 20.6362
#
#
#
# Elastic Compliance Matrix: (Units=1/GPa)
#
#
# Indices 1 2 3 4 5 6 
#
# 1 0.038359 -0.000149 0.000740 0.000000 0.028146 0.000000
# 2 -0.000149 0.011602 0.001278 0.000000 0.004343 0.000000
# 3 0.000740 0.001278 0.018465 0.000000 0.015769 0.000000
# 4 0.000000 0.000000 0.000000 0.042262 0.000000 0.019524
# 5 0.028146 0.004343 0.015769 0.000000 0.061311 0.000000
# 6 0.000000 0.000000 0.000000 0.019524 0.000000 0.057478
#
#
# Mechanical properties :
#
#
# Convention : Reuss Voigt Hill
#
# Bulk Modulus (GPa) = 13.85733 30.71107 22.28420
# Shear Modulus (GPa) = 20.01655 29.28758 24.65206
#
# Velocity S-wave (km/s) = 3.11371 3.76639 3.45549
# Velocity P-wave (km/s) = 4.43157 5.81287 5.16857
#
# Compressibility (1/GPa) = 0.07216399
#
# Stress axis : x y z
#
# Youngs Moduli (GPa) = 26.06942 86.18985 54.15797
#
# Poissons Ratio (x) = 0.01284 -0.04010
# Poissons Ratio (y) = 0.00388 -0.06920
# Poissons Ratio (z) = -0.01930 -0.11012
#
# Static dielectric constant tensor:
#      x y z
#    x 3.828110 0.000000 -0.777550 
#    y 0.000000 3.820430 0.000000 
#    z -0.777550 0.000000 3.969350 
# 
# 
# High freq. dielectric constant tensor:
#      x y z
#    x 1.764570 0.000000 -0.043800 
#    y 0.000000 1.829030 0.000000 
#    z -0.043800 0.000000 1.804980 
# 
# From -- ./inp_files/14137.got.cif
#   From: 2010.03.12/outbox.cif.g09.slc.cpg/sg4_8_cif.got.tgz:14137.got - 2010.03.31 09:31:35.
