data_PCOD8045944
_publ_section_title
;
Structure prediction by ZEFSAII (Michael W. Deem and Ramdas Pophale) SiO2 
 PCOD8045944
Probable space group: P 21
;
_chemical_formula_sum "Si O2"
_cell_formula_units_Z 14
_cell_length_a 7.841251
_cell_length_b 10.608284
_cell_length_c 11.100398
_cell_angle_alpha 90.000000
_cell_angle_beta 44.581098
_cell_angle_gamma 90.000000
_cell_volume 648.120108
_symmetry_space_group_name_H-M "P 21"
_symmetry_group_IT_number 4
_symmetry_cell_setting 'monoclinic'
loop_
_space_group_symop_operation_xyz
x,y,z
-x,1/2+y,-z
loop_
_atom_site_type_symbol
_atom_site_label
_atom_site_fract_x
_atom_site_fract_y
_atom_site_fract_z
Si Si1 0.920889 0.198520 0.714047
Si Si2 0.265367 0.790931 0.949390
Si Si3 0.332761 0.104670 0.352158
Si Si4 0.620343 0.316897 0.671077
Si Si5 0.308822 0.438532 0.163316
Si Si6 0.993784 0.710114 0.668223
Si Si7 0.140755 0.307479 0.025769
O O1 0.802059 0.308705 0.693959
O O2 0.198288 0.169758 0.534730
O O3 0.748594 0.079287 0.769791
O O4 0.908250 0.230322 0.861261
O O5 0.430262 0.683174 0.805481
O O6 0.418194 0.903048 0.934070
O O7 0.090300 0.851054 0.936088
O O8 0.140644 0.098297 0.336325
O O9 0.408151 0.963580 0.351551
O O10 0.723727 0.229577 0.509283
O O11 0.355810 0.257508 0.832194
O O12 0.261299 0.422669 0.042201
O O13 0.129071 0.340471 0.320354
O O14 0.948992 0.698120 0.834611
#
# Coordination Sequence:
#
# PCOD8045944 Si02
#       7
#     2   2   2   2   2   2   2
#     4  11  21  40  65  93 123 164 211 254 312 367
#     4  11  23  39  64  91 119 168 209 253 311 370
#     4  10  20  37  66  88 124 165 208 258 307 366
#     4  11  19  37  64  89 122 167 202 251 318 363
#     4   9  19  43  59  87 124 154 202 263 298 360
#     4   8  19  37  61  85 121 157 202 256 303 357
#     4  10  21  39  59  91 123 155 206 251 307 367
#
# _framework density 21.600933999999999
#
# number of rings (size 3 to 8) (size 9 to 14) (size 15 to 20)
#    0.857    1.143    2.857    0.857    0.000    1.143 
#    5.143    0.000    6.286    0.000    0.000    0.000 
#    0.000    0.000    0.000    0.000    0.000    0.000 
#
# Total GULP energy -173445.963287 kJ/mol
# GULP energy per Si atom -12388.997378 kJ/mol
# Density = 2.155177 g / cm^3
# Si number density = 21.600934 Si / 1000 Ang^3
#
#
#
# Elastic Constant Matrix: (Units=GPa)
#
#
# Indices 1 2 3 4 5 6 
#
# 1 116.1701 12.2733 42.6746 0.0000 -4.7557 0.0000
# 2 12.2733 41.5823 9.2336 0.0000 1.0484 0.0000
# 3 42.6746 9.2336 170.9157 0.0000 -5.1210 0.0000
# 4 0.0000 0.0000 0.0000 16.4777 0.0000 -0.1688
# 5 -4.7557 1.0484 -5.1210 0.0000 15.0967 0.0000
# 6 0.0000 0.0000 0.0000 -0.1688 0.0000 8.4223
#
#
#
# Elastic Compliance Matrix: (Units=1/GPa)
#
#
# Indices 1 2 3 4 5 6 
#
# 1 0.009792 -0.002456 -0.002237 0.000000 0.002496 0.000000
# 2 -0.002456 0.025027 -0.000822 0.000000 -0.002791 0.000000
# 3 -0.002237 -0.000822 0.006501 0.000000 0.001557 0.000000
# 4 0.000000 0.000000 0.000000 0.060701 0.000000 0.001216
# 5 0.002496 -0.002791 0.001557 0.000000 0.067748 0.000000
# 6 0.000000 0.000000 0.000000 0.001216 0.000000 0.118756
#
#
# Mechanical properties :
#
#
# Convention : Reuss Voigt Hill
#
# Bulk Modulus (GPa) = 33.01745 50.78124 41.89934
# Shear Modulus (GPa) = 16.14721 25.63179 20.88950
#
# Velocity S-wave (km/s) = 2.73705 3.44845 3.11314
# Velocity P-wave (km/s) = 5.03061 6.27819 5.68870
#
# Compressibility (1/GPa) = 0.03028702
#
# Stress axis : x y z
#
# Youngs Moduli (GPa) = 102.12829 39.95740 153.83329
#
# Poissons Ratio (x) = 0.09814 0.34417
# Poissons Ratio (y) = 0.25085 0.12651
# Poissons Ratio (z) = 0.22849 0.03286
#
# Static dielectric constant tensor:
#      x y z
#    x 3.414640 0.000000 -0.006460 
#    y 0.000000 3.406120 0.000000 
#    z -0.006460 0.000000 4.244640 
# 
# 
# High freq. dielectric constant tensor:
#      x y z
#    x 1.805950 0.000000 -0.002470 
#    y 0.000000 1.812190 0.000000 
#    z -0.002470 0.000000 1.874380 
# 
# From -- ./inp_files/11226.got.cif
#   From: 2010.03.12/outbox.cif.g09.slc.cpg/sg4_6_cif.got.tgz:11226.got - 2010.03.31 09:31:35.
