data_PCOD8045155
_publ_section_title
;
Structure prediction by ZEFSAII (Michael W. Deem and Ramdas Pophale) SiO2 
 PCOD8045155
Probable space group: P 2
;
_chemical_formula_sum "Si O2"
_cell_formula_units_Z 15
_cell_length_a 9.969644
_cell_length_b 14.074893
_cell_length_c 10.305718
_cell_angle_alpha 90.000000
_cell_angle_beta 28.491704
_cell_angle_gamma 90.000000
_cell_volume 689.842701
_symmetry_space_group_name_H-M "P 2"
_symmetry_group_IT_number 3
_symmetry_cell_setting 'monoclinic'
loop_
_space_group_symop_operation_xyz
x,y,z
-x,y,-z
loop_
_atom_site_type_symbol
_atom_site_label
_atom_site_fract_x
_atom_site_fract_y
_atom_site_fract_z
Si Si1 0.602293 0.152490 0.558093
Si Si2 0.419229 0.939466 0.417201
Si Si3 0.107376 0.270430 0.054643
Si Si4 0.188882 0.661124 0.727425
Si Si5 0.125231 0.833032 0.137344
Si Si6 0.779672 0.559971 0.551692
Si Si7 0.000000 0.733802 0.500000
Si Si8 0.292945 0.437635 0.070861
O O1 0.500000 0.146939 0.500000
O O2 0.918252 0.192370 0.289298
O O3 0.557696 0.047527 0.654234
O O4 0.418881 0.228075 0.792724
O O5 0.500000 0.927842 0.500000
O O6 0.090407 0.919888 0.681698
O O7 0.590081 0.869014 0.175373
O O8 0.119320 0.366117 0.128389
O O9 0.000000 0.292859 0.000000
O O10 0.500000 0.698227 0.500000
O O11 0.216845 0.574961 0.604582
O O12 0.007052 0.749183 0.833008
O O13 0.000000 0.615149 0.000000
O O14 0.164659 0.798223 0.253371
O O15 0.489804 0.506481 0.820689
O O16 0.771133 0.664081 0.626873
O O17 0.068244 0.502314 0.341042
O O18 0.500000 0.386449 0.000000
#
# Coordination Sequence:
#
# PCOD8045155 Si02
#       8
#     2   2   2   2   2   2   1   2
#     4   9  19  37  62  90 126 160 196 247 314 398
#     4  11  21  37  63  96 124 160 206 257 321 379
#     4  10  21  38  62  93 125 161 203 257 324 381
#     4  11  22  38  57  87 126 162 205 264 330 369
#     4  11  23  36  62  87 125 166 212 267 300 373
#     4  11  24  41  62  85 121 169 215 262 305 388
#     4  10  24  44  60  86 120 176 226 248 312 370
#     4  12  23  40  65  91 122 162 220 266 310 380
#
# _framework density 21.744085999999999
#
# number of rings (size 3 to 8) (size 9 to 14) (size 15 to 20)
#    0.000    1.333    1.333    4.800    0.000    8.533 
#    0.000    0.000    5.867    0.000    0.000    0.000 
#    0.000    0.000    0.000    0.000    0.000    0.000 
#
# Total GULP energy -185945.290516 kJ/mol
# GULP energy per Si atom -12396.352701 kJ/mol
# Density = 2.169460 g / cm^3
# Si number density = 21.744086 Si / 1000 Ang^3
#
#
#
# Elastic Constant Matrix: (Units=GPa)
#
#
# Indices 1 2 3 4 5 6 
#
# 1 84.4587 37.1768 34.1901 0.0000 18.3105 0.0000
# 2 37.1768 100.0275 36.9487 0.0000 13.4071 0.0000
# 3 34.1901 36.9487 125.3871 0.0000 14.9444 0.0000
# 4 0.0000 0.0000 0.0000 23.1562 0.0000 13.3623
# 5 18.3105 13.4071 14.9444 0.0000 32.8639 0.0000
# 6 0.0000 0.0000 0.0000 13.3623 0.0000 9.0032
#
#
#
# Elastic Compliance Matrix: (Units=1/GPa)
#
#
# Indices 1 2 3 4 5 6 
#
# 1 0.015996 -0.004248 -0.002384 0.000000 -0.006096 0.000000
# 2 -0.004248 0.012684 -0.002374 0.000000 -0.001729 0.000000
# 3 -0.002384 -0.002374 0.009570 0.000000 -0.002055 0.000000
# 4 0.000000 0.000000 0.000000 0.300818 0.000000 -0.446467
# 5 -0.006096 -0.001729 -0.002055 0.000000 0.035465 0.000000
# 6 0.000000 0.000000 0.000000 -0.446467 0.000000 0.773705
#
#
# Mechanical properties :
#
#
# Convention : Reuss Voigt Hill
#
# Bulk Modulus (GPa) = 49.40546 58.50050 53.95298
# Shear Modulus (GPa) = 4.26259 26.44185 15.35222
#
# Velocity S-wave (km/s) = 1.40164 3.49097 2.66003
# Velocity P-wave (km/s) = 5.03886 6.57356 5.85670
#
# Compressibility (1/GPa) = 0.02024068
#
# Stress axis : x y z
#
# Youngs Moduli (GPa) = 62.51430 78.83662 104.49727
#
# Poissons Ratio (x) = 0.33488 0.24908
# Poissons Ratio (y) = 0.26555 0.24803
# Poissons Ratio (z) = 0.14901 0.18712
#
# Static dielectric constant tensor:
#      x y z
#    x 4.008010 0.000000 0.043580 
#    y 0.000000 3.872980 0.000000 
#    z 0.043580 0.000000 3.681680 
# 
# 
# High freq. dielectric constant tensor:
#      x y z
#    x 1.841130 0.000000 0.007410 
#    y 0.000000 1.844880 0.000000 
#    z 0.007410 0.000000 1.871750 
# 
# From -- ./inp_files/11925.got.cif
#   From: 2010.03.12/outbox.cif.g09.slc.cpg/sg3_6_cif.got.tgz:11925.got - 2010.03.31 09:20:49.
