data_PCOD8045459
_publ_section_title
;
Structure prediction by ZEFSAII (Michael W. Deem and Ramdas Pophale) SiO2 
 PCOD8045459
Probable space group: P 2
;
_chemical_formula_sum "Si O2"
_cell_formula_units_Z 10
_cell_length_a 9.348026
_cell_length_b 11.061442
_cell_length_c 8.167352
_cell_angle_alpha 90.000000
_cell_angle_beta 32.796587
_cell_angle_gamma 90.000000
_cell_volume 457.444283
_symmetry_space_group_name_H-M "P 2"
_symmetry_group_IT_number 3
_symmetry_cell_setting 'monoclinic'
loop_
_space_group_symop_operation_xyz
x,y,z
-x,y,-z
loop_
_atom_site_type_symbol
_atom_site_label
_atom_site_fract_x
_atom_site_fract_y
_atom_site_fract_z
Si Si1 0.596392 0.461770 0.089203
Si Si2 0.551103 0.974394 0.261905
Si Si3 0.912861 0.581082 0.266557
Si Si4 0.270815 0.235874 0.840548
Si Si5 0.950178 0.859591 0.234801
O O1 0.350232 0.506775 0.435676
O O2 0.738767 0.339420 0.014016
O O3 0.500000 0.439228 0.000000
O O4 0.836420 0.557753 0.856718
O O5 0.500000 0.937014 0.500000
O O6 0.647409 0.111598 0.148864
O O7 0.261463 0.945217 0.465843
O O8 0.760542 0.886328 0.967301
O O9 0.849787 0.722541 0.340631
O O10 0.000000 0.541855 0.000000
O O11 0.500000 0.276739 0.500000
O O12 0.000000 0.221228 0.000000
O O13 0.000000 0.903263 0.000000
#
# Coordination Sequence:
#
# PCOD8045459 Si02
#       5
#     2   2   2   2   2
#     4  12  25  40  58  84 122 160 197 244 297 345
#     4   9  16  29  51  84 115 140 177 235 293 336
#     4  11  22  39  63  89 116 153 200 244 288 349
#     4  11  21  36  60  86 114 150 196 242 285 345
#     4   9  17  30  53  85 114 139 179 237 290 335
#
# _framework density 21.860585
#
# number of rings (size 3 to 8) (size 9 to 14) (size 15 to 20)
#    0.000    1.600    0.000    8.400    0.000    3.200 
#    0.000    0.000    0.000    7.200    0.000    0.000 
#    0.000    0.000    0.000    0.000    0.000    0.000 
#
# Total GULP energy -123915.195254 kJ/mol
# GULP energy per Si atom -12391.519525 kJ/mol
# Density = 2.181083 g / cm^3
# Si number density = 21.860585 Si / 1000 Ang^3
#
#
#
# Elastic Constant Matrix: (Units=GPa)
#
#
# Indices 1 2 3 4 5 6 
#
# 1 63.7373 37.0663 27.8080 0.0000 -17.0868 0.0000
# 2 37.0663 123.5867 65.6895 0.0000 -12.1513 0.0000
# 3 27.8080 65.6895 149.2282 0.0000 -43.0988 0.0000
# 4 0.0000 0.0000 0.0000 34.5199 0.0000 -15.0869
# 5 -17.0868 -12.1513 -43.0988 0.0000 33.1221 0.0000
# 6 0.0000 0.0000 0.0000 -15.0869 0.0000 13.4070
#
#
#
# Elastic Compliance Matrix: (Units=1/GPa)
#
#
# Indices 1 2 3 4 5 6 
#
# 1 0.021636 -0.006511 0.002192 0.000000 0.011625 0.000000
# 2 -0.006511 0.012780 -0.006453 0.000000 -0.007068 0.000000
# 3 0.002192 -0.006453 0.014060 0.000000 0.017058 0.000000
# 4 0.000000 0.000000 0.000000 0.057004 0.000000 0.064147
# 5 0.011625 -0.007068 0.017058 0.000000 0.055792 0.000000
# 6 0.000000 0.000000 0.000000 0.064147 0.000000 0.146772
#
#
# Mechanical properties :
#
#
# Convention : Reuss Voigt Hill
#
# Bulk Modulus (GPa) = 37.13318 66.40888 51.77103
# Shear Modulus (GPa) = 14.76815 29.94234 22.35524
#
# Velocity S-wave (km/s) = 2.60197 3.70495 3.20132
# Velocity P-wave (km/s) = 5.10395 6.98187 6.11542
#
# Compressibility (1/GPa) = 0.02693009
#
# Stress axis : x y z
#
# Youngs Moduli (GPa) = 46.21904 78.24985 71.12288
#
# Poissons Ratio (x) = 0.50950 -0.15588
# Poissons Ratio (y) = 0.30094 0.45899
# Poissons Ratio (z) = -0.10130 0.50498
#
# Static dielectric constant tensor:
#      x y z
#    x 3.545280 0.000000 -0.471840 
#    y 0.000000 3.812280 0.000000 
#    z -0.471840 0.000000 4.363750 
# 
# 
# High freq. dielectric constant tensor:
#      x y z
#    x 1.805760 0.000000 -0.037800 
#    y 0.000000 1.866120 0.000000 
#    z -0.037800 0.000000 1.880460 
# 
# From -- ./inp_files/5694.got.cif
#   From: 2010.03.12/outbox.cif.g09.slc.cpg/sg3_3_cif.got.tgz:5694.got - 2010.03.31 09:20:49.
