data_PCOD8045258
_publ_section_title
;
Structure prediction by ZEFSAII (Michael W. Deem and Ramdas Pophale) SiO2 
 PCOD8045258
Probable space group: P 2
;
_chemical_formula_sum "Si O2"
_cell_formula_units_Z 13
_cell_length_a 8.638724
_cell_length_b 6.614859
_cell_length_c 17.933209
_cell_angle_alpha 90.000000
_cell_angle_beta 35.422315
_cell_angle_gamma 90.000000
_cell_volume 593.957711
_symmetry_space_group_name_H-M "P 2"
_symmetry_group_IT_number 3
_symmetry_cell_setting 'monoclinic'
loop_
_space_group_symop_operation_xyz
x,y,z
-x,y,-z
loop_
_atom_site_type_symbol
_atom_site_label
_atom_site_fract_x
_atom_site_fract_y
_atom_site_fract_z
Si Si1 0.249064 0.493380 0.545527
Si Si2 0.638604 0.428070 0.187864
Si Si3 0.098098 0.666561 0.196983
Si Si4 0.727157 0.164294 0.579639
Si Si5 0.810593 0.337170 0.960497
Si Si6 0.500000 0.992594 0.000000
Si Si7 0.426448 0.769774 0.680915
O O1 0.500000 0.464117 0.500000
O O2 0.210515 0.275413 0.522657
O O3 0.318872 0.662750 0.457059
O O4 0.977855 0.559286 0.694814
O O5 0.366005 0.326591 0.322179
O O6 0.642908 0.661797 0.213103
O O7 0.883671 0.309728 0.132797
O O8 0.647562 0.423657 0.095173
O O9 0.217606 0.496703 0.095257
O O10 0.828973 0.764646 0.271627
O O11 0.310542 0.847558 0.124613
O O12 0.000000 0.060545 0.500000
O O13 0.494009 0.002033 0.665288
O O14 0.683322 0.125415 0.983645
#
# Coordination Sequence:
#
# PCOD8045258 Si02
#       7
#     2   2   2   2   2   1   2
#     4   9  21  41  63  85 117 161 201 243 298 359
#     4   9  21  43  63  82 118 162 203 243 296 360
#     4  10  22  40  61  89 124 160 203 250 299 359
#     4  11  23  37  61  93 120 151 197 253 304 355
#     4  10  22  41  63  87 119 162 204 250 300 354
#     4  12  24  36  60  96 126 158 202 250 304 360
#     4   9  20  40  64  87 115 158 203 245 298 359
#
# _framework density 21.887080999999998
#
# number of rings (size 3 to 8) (size 9 to 14) (size 15 to 20)
#    0.000    2.154    0.000    2.308    0.000   10.462 
#    0.000    3.077    0.000    0.000    0.000    0.000 
#    0.000    0.000    0.000    0.000    0.000    0.000 
#
# Total GULP energy -161185.304594 kJ/mol
# GULP energy per Si atom -12398.869584 kJ/mol
# Density = 2.183726 g / cm^3
# Si number density = 21.887081 Si / 1000 Ang^3
#
#
#
# Elastic Constant Matrix: (Units=GPa)
#
#
# Indices 1 2 3 4 5 6 
#
# 1 31.5085 36.9141 48.5072 0.0000 4.2090 0.0000
# 2 36.9141 127.0077 64.7776 0.0000 -1.2542 0.0000
# 3 48.5072 64.7776 140.1054 0.0000 18.0243 0.0000
# 4 0.0000 0.0000 0.0000 36.2818 0.0000 -4.1222
# 5 4.2090 -1.2542 18.0243 0.0000 37.0592 0.0000
# 6 0.0000 0.0000 0.0000 -4.1222 0.0000 25.1870
#
#
#
# Elastic Compliance Matrix: (Units=1/GPa)
#
#
# Indices 1 2 3 4 5 6 
#
# 1 0.079736 -0.011761 -0.022350 0.000000 0.001416 0.000000
# 2 -0.011761 0.012327 -0.001976 0.000000 0.002714 0.000000
# 3 -0.022350 -0.001976 0.016504 0.000000 -0.005555 0.000000
# 4 0.000000 0.000000 0.000000 0.028084 0.000000 0.004596
# 5 0.001416 0.002714 -0.005555 0.000000 0.029617 0.000000
# 6 0.000000 0.000000 0.000000 0.004596 0.000000 0.040455
#
#
# Mechanical properties :
#
#
# Convention : Reuss Voigt Hill
#
# Bulk Modulus (GPa) = 27.47990 66.55770 47.01880
# Shear Modulus (GPa) = 17.18036 29.60045 23.39041
#
# Velocity S-wave (km/s) = 2.80474 3.68151 3.27262
# Velocity P-wave (km/s) = 4.80326 6.96757 5.98408
#
# Compressibility (1/GPa) = 0.03639024
#
# Stress axis : x y z
#
# Youngs Moduli (GPa) = 12.54138 81.12424 60.59085
#
# Poissons Ratio (x) = 0.95414 1.35423
# Poissons Ratio (y) = 0.14750 0.11975
# Poissons Ratio (z) = 0.28031 0.16033
#
# Static dielectric constant tensor:
#      x y z
#    x 3.716840 0.000000 0.010240 
#    y 0.000000 3.723360 0.000000 
#    z 0.010240 0.000000 4.183430 
# 
# 
# High freq. dielectric constant tensor:
#      x y z
#    x 1.850760 0.000000 -0.007950 
#    y 0.000000 1.850150 0.000000 
#    z -0.007950 0.000000 1.872050 
# 
# From -- ./inp_files/8972.got.cif
#   From: 2010.03.12/outbox.cif.g09.slc.cpg/sg3_5_cif.got.tgz:8972.got - 2010.03.31 09:20:49.
