data_PCOD8045650
_publ_section_title
;
Structure prediction by ZEFSAII (Michael W. Deem and Ramdas Pophale) SiO2 
 PCOD8045650
Probable space group: P 21
;
_chemical_formula_sum "Si O2"
_cell_formula_units_Z 10
_cell_length_a 22.235250
_cell_length_b 5.073285
_cell_length_c 13.151084
_cell_angle_alpha 90.000000
_cell_angle_beta 18.356147
_cell_angle_gamma 90.000000
_cell_volume 467.193495
_symmetry_space_group_name_H-M "P 21"
_symmetry_group_IT_number 4
_symmetry_cell_setting 'monoclinic'
loop_
_space_group_symop_operation_xyz
x,y,z
-x,1/2+y,-z
loop_
_atom_site_type_symbol
_atom_site_label
_atom_site_fract_x
_atom_site_fract_y
_atom_site_fract_z
Si Si1 0.545588 0.179370 0.363169
Si Si2 0.965584 0.100665 0.618731
Si Si3 0.848956 0.106174 0.345817
Si Si4 0.772348 0.867345 0.268310
Si Si5 0.908810 0.594053 0.364516
O O1 0.501710 0.386830 0.522677
O O2 0.418370 0.236567 0.467746
O O3 0.761947 0.208545 0.980875
O O4 0.058001 0.318033 0.396661
O O5 0.104304 0.066188 0.493143
O O6 0.778889 0.371496 0.516073
O O7 0.723324 0.037820 0.448062
O O8 0.832854 0.877866 0.455091
O O9 0.071034 0.141939 0.952102
O O10 0.868558 0.051421 0.026481
#
# Coordination Sequence:
#
# PCOD8045650 Si02
#       5
#     2   2   2   2   2
#     4  12  24  40  65  97 127 163 215 270 307 361
#     4  12  25  43  61  91 133 177 204 250 326 386
#     4  10  18  32  57  96 117 153 197 267 316 347
#     4  10  20  33  62  93 126 148 207 266 312 355
#     4  10  19  36  57  85 121 161 201 249 301 373
#
# _framework density 21.404406000000002
#
# number of rings (size 3 to 8) (size 9 to 14) (size 15 to 20)
#    1.200    0.000    4.000    3.600    0.000    0.000 
#    0.000    0.000    0.000    4.800    0.000    2.800 
#    0.000    0.000    0.000    0.000    0.000    0.000 
#
# Total GULP energy -123980.019665 kJ/mol
# GULP energy per Si atom -12398.001966 kJ/mol
# Density = 2.135569 g / cm^3
# Si number density = 21.404406 Si / 1000 Ang^3
#
#
#
# Elastic Constant Matrix: (Units=GPa)
#
#
# Indices 1 2 3 4 5 6 
#
# 1 143.9183 29.0855 7.7377 0.0000 14.2039 0.0000
# 2 29.0855 109.9613 -0.4319 0.0000 10.7154 0.0000
# 3 7.7377 -0.4319 34.0378 0.0000 -0.8848 0.0000
# 4 0.0000 0.0000 0.0000 24.5682 0.0000 10.3244
# 5 14.2039 10.7154 -0.8848 0.0000 29.6960 0.0000
# 6 0.0000 0.0000 0.0000 10.3244 0.0000 42.0191
#
#
#
# Elastic Compliance Matrix: (Units=1/GPa)
#
#
# Indices 1 2 3 4 5 6 
#
# 1 0.007708 -0.001743 -0.001855 0.000000 -0.003113 0.000000
# 2 -0.001743 0.009820 0.000451 0.000000 -0.002696 0.000000
# 3 -0.001855 0.000451 0.029848 0.000000 0.001614 0.000000
# 4 0.000000 0.000000 0.000000 0.045390 0.000000 -0.011153
# 5 -0.003113 -0.002696 0.001614 0.000000 0.036185 0.000000
# 6 0.000000 0.000000 0.000000 -0.011153 0.000000 0.026539
#
#
# Mechanical properties :
#
#
# Convention : Reuss Voigt Hill
#
# Bulk Modulus (GPa) = 24.34198 40.07779 32.20989
# Shear Modulus (GPa) = 28.49377 36.02508 32.25943
#
# Velocity S-wave (km/s) = 3.65253 4.10697 3.88640
# Velocity P-wave (km/s) = 5.40232 6.42296 5.93462
#
# Compressibility (1/GPa) = 0.04108129
#
# Stress axis : x y z
#
# Youngs Moduli (GPa) = 129.74297 101.83754 33.50255
#
# Poissons Ratio (x) = 0.17746 0.06215
# Poissons Ratio (y) = 0.22609 -0.01510
# Poissons Ratio (z) = 0.24070 -0.04589
#
# Static dielectric constant tensor:
#      x y z
#    x 3.861910 0.000000 0.070370 
#    y 0.000000 3.850200 0.000000 
#    z 0.070370 0.000000 3.239830 
# 
# 
# High freq. dielectric constant tensor:
#      x y z
#    x 1.855850 0.000000 0.009720 
#    y 0.000000 1.851960 0.000000 
#    z 0.009720 0.000000 1.773190 
# 
# From -- ./inp_files/10687.got.cif
#   From: 2010.03.12/outbox.cif.g09.slc.cpg/sg4_6_cif.got.tgz:10687.got - 2010.03.31 09:31:35.
