data_PCOD8045069
_publ_section_title
;
Structure prediction by ZEFSAII (Michael W. Deem and Ramdas Pophale) SiO2 
 PCOD8045069
Probable space group: P 2
;
_chemical_formula_sum "Si O2"
_cell_formula_units_Z 14
_cell_length_a 6.095713
_cell_length_b 6.519041
_cell_length_c 16.337395
_cell_angle_alpha 90.000000
_cell_angle_beta 80.793929
_cell_angle_gamma 90.000000
_cell_volume 640.856339
_symmetry_space_group_name_H-M "P 2"
_symmetry_group_IT_number 3
_symmetry_cell_setting 'monoclinic'
loop_
_space_group_symop_operation_xyz
x,y,z
-x,y,-z
loop_
_atom_site_type_symbol
_atom_site_label
_atom_site_fract_x
_atom_site_fract_y
_atom_site_fract_z
Si Si1 0.655246 0.599570 0.065004
Si Si2 0.596275 0.012202 0.280508
Si Si3 0.950959 0.926296 0.129239
Si Si4 0.304286 0.684557 0.213374
Si Si5 0.343750 0.409627 0.353172
Si Si6 0.000000 0.255653 0.000000
Si Si7 0.000000 0.495229 0.500000
Si Si8 0.344492 0.732891 0.580531
O O1 0.818960 0.789306 0.071349
O O2 0.498856 0.564969 0.152957
O O3 0.500000 0.668275 0.000000
O O4 0.787210 0.392006 0.036059
O O5 0.476424 0.218359 0.312336
O O6 0.789955 0.040822 0.202755
O O7 0.400047 0.875963 0.256293
O O8 0.713017 0.914979 0.353586
O O9 0.115332 0.767394 0.164058
O O10 0.069700 0.111419 0.072909
O O11 0.213938 0.519913 0.285145
O O12 0.529783 0.555977 0.378505
O O13 0.168193 0.354531 0.436300
O O14 0.880413 0.644463 0.443156
O O15 0.500000 0.824219 0.500000
#
# Coordination Sequence:
#
# PCOD8045069 Si02
#       8
#     2   2   2   2   2   1   1   2
#     4  11  24  42  63  88 124 163 200 255 309 363
#     4  10  22  39  62  90 124 161 203 255 307 362
#     4  11  24  42  64  92 123 161 208 254 306 369
#     4  10  22  41  63  89 122 161 206 253 304 362
#     4  10  21  39  60  90 125 161 204 254 308 361
#     4  12  24  38  62  94 122 158 206 252 308 370
#     4  10  20  38  64  88 124 166 204 254 308 364
#     4   9  20  38  59  87 122 161 205 251 302 361
#
# _framework density 21.845772
#
# number of rings (size 3 to 8) (size 9 to 14) (size 15 to 20)
#    0.000    1.714    0.000    3.857    0.000    8.000 
#    0.000    7.143    0.000    0.000    0.000    0.000 
#    0.000    0.000    0.000    0.000    0.000    0.000 
#
# Total GULP energy -173584.975956 kJ/mol
# GULP energy per Si atom -12398.926854 kJ/mol
# Density = 2.179605 g / cm^3
# Si number density = 21.845772 Si / 1000 Ang^3
#
#
#
# Elastic Constant Matrix: (Units=GPa)
#
#
# Indices 1 2 3 4 5 6 
#
# 1 103.6981 51.4637 51.3347 0.0000 7.8726 0.0000
# 2 51.4637 113.6264 88.5580 0.0000 -14.3609 0.0000
# 3 51.3347 88.5580 141.9227 0.0000 -5.4655 0.0000
# 4 0.0000 0.0000 0.0000 31.9501 0.0000 -14.1228
# 5 7.8726 -14.3609 -5.4655 0.0000 48.2453 0.0000
# 6 0.0000 0.0000 0.0000 -14.1228 0.0000 22.6633
#
#
#
# Elastic Compliance Matrix: (Units=1/GPa)
#
#
# Indices 1 2 3 4 5 6 
#
# 1 0.013387 -0.005194 -0.001753 0.000000 -0.003929 0.000000
# 2 -0.005194 0.019914 -0.010331 0.000000 0.005605 0.000000
# 3 -0.001753 -0.010331 0.014081 0.000000 -0.001194 0.000000
# 4 0.000000 0.000000 0.000000 0.043198 0.000000 0.026919
# 5 -0.003929 0.005605 -0.001194 0.000000 0.022902 0.000000
# 6 0.000000 0.000000 0.000000 0.026919 0.000000 0.060899
#
#
# Mechanical properties :
#
#
# Convention : Reuss Voigt Hill
#
# Bulk Modulus (GPa) = 77.96905 82.44001 80.20453
# Shear Modulus (GPa) = 23.45111 31.76446 27.60779
#
# Velocity S-wave (km/s) = 3.27996 3.81731 3.55880
# Velocity P-wave (km/s) = 7.07901 7.56627 7.32669
#
# Compressibility (1/GPa) = 0.01282560
#
# Stress axis : x y z
#
# Youngs Moduli (GPa) = 74.70003 50.21718 71.01967
#
# Poissons Ratio (x) = 0.26082 0.12447
# Poissons Ratio (y) = 0.38798 0.73372
# Poissons Ratio (z) = 0.13092 0.51881
#
# Static dielectric constant tensor:
#      x y z
#    x 3.885700 0.000000 -0.002290 
#    y 0.000000 3.685080 0.000000 
#    z -0.002290 0.000000 4.521010 
# 
# 
# High freq. dielectric constant tensor:
#      x y z
#    x 1.852070 0.000000 -0.001660 
#    y 0.000000 1.841730 0.000000 
#    z -0.001660 0.000000 1.890730 
# 
# From -- ./inp_files/3503.got.cif
#   From: 2010.03.12/outbox.cif.g09.slc.cpg/sg3_2_cif.got.tgz:3503.got - 2010.03.31 09:20:49.
