data_PCOD8045803
_publ_section_title
;
Structure prediction by ZEFSAII (Michael W. Deem and Ramdas Pophale) SiO2 
 PCOD8045803
Probable space group: P 21
;
_chemical_formula_sum "Si O2"
_cell_formula_units_Z 16
_cell_length_a 8.448640
_cell_length_b 12.159837
_cell_length_c 10.010725
_cell_angle_alpha 90.000000
_cell_angle_beta 123.754647
_cell_angle_gamma 90.000000
_cell_volume 855.072489
_symmetry_space_group_name_H-M "P 21"
_symmetry_group_IT_number 4
_symmetry_cell_setting 'monoclinic'
loop_
_space_group_symop_operation_xyz
x,y,z
-x,1/2+y,-z
loop_
_atom_site_type_symbol
_atom_site_label
_atom_site_fract_x
_atom_site_fract_y
_atom_site_fract_z
Si Si1 0.770734 0.319010 0.935246
Si Si2 0.453015 0.160326 0.851230
Si Si3 0.786380 0.850017 0.165926
Si Si4 0.391285 0.110582 0.333408
Si Si5 0.794500 0.407214 0.666500
Si Si6 0.213214 0.328275 0.146045
Si Si7 0.491851 0.505797 0.360392
Si Si8 0.485626 0.013371 0.108867
O O1 0.666958 0.207839 0.934668
O O2 0.739666 0.324328 0.760550
O O3 0.678126 0.421507 0.968133
O O4 0.991889 0.318482 0.078122
O O5 0.296165 0.257871 0.771382
O O6 0.416127 0.068443 0.722092
O O7 0.421557 0.109104 0.980787
O O8 0.682584 0.964291 0.147845
O O9 0.005840 0.871573 0.302476
O O10 0.754434 0.815749 0.996986
O O11 0.323995 0.234386 0.279554
O O12 0.528243 0.095377 0.528272
O O13 0.205128 0.031081 0.267946
O O14 0.515365 0.066965 0.267643
O O15 0.637426 0.407747 0.474366
O O16 0.292262 0.447334 0.230567
#
# Coordination Sequence:
#
# PCOD8045803 Si02
#       8
#     2   2   2   2   2   2   2   2
#     4   9  22  36  62  88 114 160 205 238 285 372
#     4  11  21  36  63  90 118 154 200 250 302 342
#     4  10  20  37  63  85 119 159 198 252 287 358
#     4   9  21  37  61  83 122 156 193 241 300 360
#     4   8  20  40  57  86 118 156 194 240 295 353
#     4  11  20  38  62  90 114 160 208 240 292 358
#     4  10  23  38  61  88 124 152 193 255 298 358
#     4  10  19  38  57  88 121 151 197 248 299 345
#
# _framework density 18.711863999999998
#
# number of rings (size 3 to 8) (size 9 to 14) (size 15 to 20)
#    0.750    1.500    2.500    0.000    3.500    1.000 
#    0.000    3.750    0.000    0.000    0.000    0.000 
#    0.000    0.000    0.000    0.000    0.000    0.000 
#
# Total GULP energy -198286.217819 kJ/mol
# GULP energy per Si atom -12392.888614 kJ/mol
# Density = 1.866927 g / cm^3
# Si number density = 18.711864 Si / 1000 Ang^3
#
#
#
# Elastic Constant Matrix: (Units=GPa)
#
#
# Indices 1 2 3 4 5 6 
#
# 1 106.3470 32.7407 37.2676 0.0000 5.5876 0.0000
# 2 32.7407 64.5560 25.1542 0.0000 2.3983 0.0000
# 3 37.2676 25.1542 83.8246 0.0000 0.0158 0.0000
# 4 0.0000 0.0000 0.0000 28.9107 0.0000 -6.6725
# 5 5.5876 2.3983 0.0158 0.0000 25.4861 0.0000
# 6 0.0000 0.0000 0.0000 -6.6725 0.0000 27.4682
#
#
#
# Elastic Compliance Matrix: (Units=1/GPa)
#
#
# Indices 1 2 3 4 5 6 
#
# 1 0.012382 -0.004586 -0.004128 0.000000 -0.002280 0.000000
# 2 -0.004586 0.019310 -0.003755 0.000000 -0.000809 0.000000
# 3 -0.004128 -0.003755 0.014892 0.000000 0.001249 0.000000
# 4 0.000000 0.000000 0.000000 0.036644 0.000000 0.008901
# 5 -0.002280 -0.000809 0.001249 0.000000 0.039812 0.000000
# 6 0.000000 0.000000 0.000000 0.008901 0.000000 0.038568
#
#
# Mechanical properties :
#
#
# Convention : Reuss Voigt Hill
#
# Bulk Modulus (GPa) = 46.20296 49.45028 47.82662
# Shear Modulus (GPa) = 25.80499 27.01067 26.40783
#
# Velocity S-wave (km/s) = 3.71761 3.80347 3.76079
# Velocity P-wave (km/s) = 6.57061 6.76558 6.66881
#
# Compressibility (1/GPa) = 0.02164364
#
# Stress axis : x y z
#
# Youngs Moduli (GPa) = 80.76516 51.78723 67.15191
#
# Poissons Ratio (x) = 0.23751 0.27720
# Poissons Ratio (y) = 0.37042 0.25218
# Poissons Ratio (z) = 0.33340 0.19448
#
# Static dielectric constant tensor:
#      x y z
#    x 3.392110 0.000000 -0.115900 
#    y 0.000000 3.404210 0.000000 
#    z -0.115900 0.000000 3.191560 
# 
# 
# High freq. dielectric constant tensor:
#      x y z
#    x 1.724640 0.000000 -0.012780 
#    y 0.000000 1.729580 0.000000 
#    z -0.012780 0.000000 1.702840 
# 
# From -- ./inp_files/6152.got.cif
#   From: 2010.03.12/outbox.cif.g09.slc.cpg/sg4_4_cif.got.tgz:6152.got - 2010.03.31 09:31:35.
