data_PCOD8045169
_publ_section_title
;
Structure prediction by ZEFSAII (Michael W. Deem and Ramdas Pophale) SiO2 
 PCOD8045169
Probable space group: P 2
;
_chemical_formula_sum "Si O2"
_cell_formula_units_Z 16
_cell_length_a 8.223895
_cell_length_b 18.170641
_cell_length_c 9.197733
_cell_angle_alpha 90.000000
_cell_angle_beta 146.915149
_cell_angle_gamma 90.000000
_cell_volume 750.284792
_symmetry_space_group_name_H-M "P 2"
_symmetry_group_IT_number 3
_symmetry_cell_setting 'monoclinic'
loop_
_space_group_symop_operation_xyz
x,y,z
-x,y,-z
loop_
_atom_site_type_symbol
_atom_site_label
_atom_site_fract_x
_atom_site_fract_y
_atom_site_fract_z
Si Si1 0.333456 0.283620 0.727370
Si Si2 0.833701 0.517785 0.022841
Si Si3 0.719835 0.674725 0.034062
Si Si4 0.333780 0.175384 0.227185
Si Si5 0.337738 0.894805 0.729698
Si Si6 0.665380 0.423657 0.476114
Si Si7 0.344580 0.753444 0.532627
Si Si8 0.334320 0.004360 0.227447
O O1 0.522495 0.218744 0.797721
O O2 0.304219 0.353363 0.601335
O O3 0.000000 0.253133 0.500000
O O4 0.500000 0.306641 0.000000
O O5 0.008762 0.454571 0.241694
O O6 0.808245 0.589129 0.105470
O O7 0.509414 0.487365 0.740255
O O8 0.000000 0.541018 0.000000
O O9 0.545768 0.689371 0.753601
O O10 0.500000 0.694688 0.000000
O O11 0.009490 0.725724 0.260329
O O12 0.500000 0.192646 0.500000
O O13 0.342568 0.089905 0.191444
O O14 0.000000 0.203849 0.000000
O O15 0.342042 0.823959 0.632026
O O16 0.516012 0.961914 0.792730
O O17 0.000000 0.921323 0.500000
O O18 0.500000 0.873158 0.000000
O O19 0.500000 0.399804 0.500000
O O20 0.500000 0.776956 0.500000
O O21 0.500000 0.987156 0.500000
O O22 0.000000 0.975950 0.000000
#
# Coordination Sequence:
#
# PCOD8045169 Si02
#       8
#     2   2   2   2   2   2   2   2
#     4  12  25  39  61  94 130 162 204 262 315 364
#     4  10  21  39  63  90 118 158 208 254 304 371
#     4  12  25  42  65  94 126 159 201 260 320 369
#     4  10  22  42  67  92 125 169 212 251 299 369
#     4  12  25  41  64  94 130 164 202 257 315 366
#     4  10  22  40  62  86 120 164 209 251 302 371
#     4  12  25  43  65  89 123 167 212 254 300 369
#     4  10  22  42  67  95 126 165 212 253 299 367
#
# _framework density 21.325237000000001
#
# number of rings (size 3 to 8) (size 9 to 14) (size 15 to 20)
#    0.000    1.000    0.000    7.125    0.000    6.000 
#    0.000    0.000    0.000    0.000    0.000    0.000 
#    0.000    0.000    0.000    0.000    0.000    0.000 
#
# Total GULP energy -198525.204934 kJ/mol
# GULP energy per Si atom -12407.825308 kJ/mol
# Density = 2.127670 g / cm^3
# Si number density = 21.325237 Si / 1000 Ang^3
#
#
#
# Elastic Constant Matrix: (Units=GPa)
#
#
# Indices 1 2 3 4 5 6 
#
# 1 149.6093 67.6348 70.6271 0.0000 10.5959 0.0000
# 2 67.6348 86.7611 29.9879 0.0000 0.7244 0.0000
# 3 70.6271 29.9879 142.8512 0.0000 14.6733 0.0000
# 4 0.0000 0.0000 0.0000 27.3482 0.0000 11.7112
# 5 10.5959 0.7244 14.6733 0.0000 36.6555 0.0000
# 6 0.0000 0.0000 0.0000 11.7112 0.0000 18.4175
#
#
#
# Elastic Compliance Matrix: (Units=1/GPa)
#
#
# Indices 1 2 3 4 5 6 
#
# 1 0.012602 -0.008322 -0.004303 0.000000 -0.001756 0.000000
# 2 -0.008322 0.017948 0.000142 0.000000 0.001994 0.000000
# 3 -0.004303 0.000142 0.009355 0.000000 -0.002504 0.000000
# 4 0.000000 0.000000 0.000000 0.050248 0.000000 -0.031951
# 5 -0.001756 0.001994 -0.002504 0.000000 0.028751 0.000000
# 6 0.000000 0.000000 0.000000 -0.031951 0.000000 0.074613
#
#
# Mechanical properties :
#
#
# Convention : Reuss Voigt Hill
#
# Bulk Modulus (GPa) = 66.94131 79.52457 73.23294
# Shear Modulus (GPa) = 22.37504 30.54904 26.46204
#
# Velocity S-wave (km/s) = 3.24269 3.78898 3.52643
# Velocity P-wave (km/s) = 6.74380 7.51759 7.14118
#
# Compressibility (1/GPa) = 0.01493846
#
# Stress axis : x y z
#
# Youngs Moduli (GPa) = 79.35220 55.71791 106.89202
#
# Poissons Ratio (x) = 0.46368 0.45998
# Poissons Ratio (y) = 0.66036 -0.01518
# Poissons Ratio (z) = 0.34147 -0.00791
#
# Static dielectric constant tensor:
#      x y z
#    x 3.919170 0.000000 0.009030 
#    y 0.000000 3.712950 0.000000 
#    z 0.009030 0.000000 4.074580 
# 
# 
# High freq. dielectric constant tensor:
#      x y z
#    x 1.843330 0.000000 0.004280 
#    y 0.000000 1.838180 0.000000 
#    z 0.004280 0.000000 1.857800 
# 
# From -- ./inp_files/6274.got.cif
#   From: 2010.03.12/outbox.cif.g09.slc.cpg/sg3_4_cif.got.tgz:6274.got - 2010.03.31 09:20:49.
