data_PCOD8045604
_publ_section_title
;
Structure prediction by ZEFSAII (Michael W. Deem and Ramdas Pophale) SiO2 
 PCOD8045604
Probable space group: P 21
;
_chemical_formula_sum "Si O2"
_cell_formula_units_Z 12
_cell_length_a 10.785702
_cell_length_b 5.078959
_cell_length_c 14.174272
_cell_angle_alpha 90.000000
_cell_angle_beta 128.820867
_cell_angle_gamma 90.000000
_cell_volume 604.954206
_symmetry_space_group_name_H-M "P 21"
_symmetry_group_IT_number 4
_symmetry_cell_setting 'monoclinic'
loop_
_space_group_symop_operation_xyz
x,y,z
-x,1/2+y,-z
loop_
_atom_site_type_symbol
_atom_site_label
_atom_site_fract_x
_atom_site_fract_y
_atom_site_fract_z
Si Si1 0.662929 0.068100 0.501296
Si Si2 0.431174 0.994628 0.851254
Si Si3 0.346879 0.058147 0.612263
Si Si4 0.648023 0.827003 0.683362
Si Si5 0.362555 0.995836 0.027410
Si Si6 0.896024 0.642905 0.951368
O O1 0.739750 0.334069 0.493650
O O2 0.469329 0.102670 0.417515
O O3 0.708166 0.840369 0.449395
O O4 0.728169 0.994071 0.636126
O O5 0.782656 0.686802 0.807903
O O6 0.308791 0.033591 0.705593
O O7 0.331519 0.021650 0.900369
O O8 0.507068 0.706633 0.876910
O O9 0.539837 0.020355 0.696258
O O10 0.427606 0.708385 0.084210
O O11 0.197251 0.044130 0.001012
O O12 0.018704 0.415126 0.980998
#
# Coordination Sequence:
#
# PCOD8045604 Si02
#       6
#     2   2   2   2   2   2
#     4  10  19  29  54  77 107 135 168 247 275 316
#     4  10  18  32  58  77 107 140 173 257 269 316
#     4  10  17  29  50  81 103 129 166 226 298 308
#     4  10  20  33  52  76 113 137 187 215 281 324
#     4  10  20  35  51  78 106 147 196 211 280 317
#     4  12  26  36  53  77 120 166 178 210 261 351
#
# _framework density 19.836210000000001
#
# number of rings (size 3 to 8) (size 9 to 14) (size 15 to 20)
#    1.000    0.667    3.333    3.000    2.333    0.000 
#    0.000    0.000    0.000    0.000    0.000    4.667 
#    0.000    0.000    0.000    0.000    0.000    0.000 
#
# Total GULP energy -148746.889888 kJ/mol
# GULP energy per Si atom -12395.574157 kJ/mol
# Density = 1.979106 g / cm^3
# Si number density = 19.836210 Si / 1000 Ang^3
#
#
#
# Elastic Constant Matrix: (Units=GPa)
#
#
# Indices 1 2 3 4 5 6 
#
# 1 40.8522 4.2008 27.5657 0.0000 -10.8461 0.0000
# 2 4.2008 91.6419 14.8544 0.0000 -2.8679 0.0000
# 3 27.5657 14.8544 84.6779 0.0000 -25.0398 0.0000
# 4 0.0000 0.0000 0.0000 31.0806 0.0000 -4.5320
# 5 -10.8461 -2.8679 -25.0398 0.0000 30.3072 0.0000
# 6 0.0000 0.0000 0.0000 -4.5320 0.0000 22.2286
#
#
#
# Elastic Compliance Matrix: (Units=1/GPa)
#
#
# Indices 1 2 3 4 5 6 
#
# 1 0.031687 0.000162 -0.009244 0.000000 0.003717 0.000000
# 2 0.000162 0.011245 -0.002241 0.000000 -0.000730 0.000000
# 3 -0.009244 -0.002241 0.018752 0.000000 0.011973 0.000000
# 4 0.000000 0.000000 0.000000 0.033160 0.000000 0.006761
# 5 0.003717 -0.000730 0.011973 0.000000 0.044149 0.000000
# 6 0.000000 0.000000 0.000000 0.006761 0.000000 0.046366
#
#
# Mechanical properties :
#
#
# Convention : Reuss Voigt Hill
#
# Bulk Modulus (GPa) = 25.61631 34.49042 30.05337
# Shear Modulus (GPa) = 22.62263 28.09335 25.35799
#
# Velocity S-wave (km/s) = 3.38075 3.76741 3.57931
# Velocity P-wave (km/s) = 5.30860 6.02909 5.68028
#
# Compressibility (1/GPa) = 0.03903762
#
# Stress axis : x y z
#
# Youngs Moduli (GPa) = 31.55911 88.92802 53.32644
#
# Poissons Ratio (x) = -0.01443 0.49297
# Poissons Ratio (y) = -0.00512 0.11951
# Poissons Ratio (z) = 0.29174 0.19930
#
# Static dielectric constant tensor:
#      x y z
#    x 3.133790 0.000000 -0.398230 
#    y 0.000000 3.721220 0.000000 
#    z -0.398230 0.000000 3.523390 
# 
# 
# High freq. dielectric constant tensor:
#      x y z
#    x 1.707910 0.000000 -0.044490 
#    y 0.000000 1.793900 0.000000 
#    z -0.044490 0.000000 1.770260 
# 
# From -- ./inp_files/13470.got.cif
#   From: 2010.03.12/outbox.cif.g09.slc.cpg/sg4_7_cif.got.tgz:13470.got - 2010.03.31 09:31:35.
