data_PCOD8045119
_publ_section_title
;
Structure prediction by ZEFSAII (Michael W. Deem and Ramdas Pophale) SiO2 
 PCOD8045119
Probable space group: P 2
;
_chemical_formula_sum "Si O2"
_cell_formula_units_Z 16
_cell_length_a 15.973874
_cell_length_b 4.953726
_cell_length_c 16.420567
_cell_angle_alpha 90.000000
_cell_angle_beta 143.232737
_cell_angle_gamma 90.000000
_cell_volume 777.754299
_symmetry_space_group_name_H-M "P 2"
_symmetry_group_IT_number 3
_symmetry_cell_setting 'monoclinic'
loop_
_space_group_symop_operation_xyz
x,y,z
-x,y,-z
loop_
_atom_site_type_symbol
_atom_site_label
_atom_site_fract_x
_atom_site_fract_y
_atom_site_fract_z
Si Si1 0.945886 0.236350 0.368680
Si Si2 0.190051 0.928255 0.318680
Si Si3 0.288995 0.700967 0.979332
Si Si4 0.012286 0.746153 0.319360
Si Si5 0.927089 0.070113 0.019956
Si Si6 0.355007 0.199282 0.930279
Si Si7 0.660284 0.433135 0.636456
Si Si8 0.757267 0.565153 0.885671
O O1 0.012890 0.443598 0.355450
O O2 0.775674 0.225376 0.234366
O O3 0.000000 0.314195 0.500000
O O4 0.001400 0.942166 0.388378
O O5 0.300377 0.729268 0.363455
O O6 0.156922 0.827389 0.385227
O O7 0.250483 0.227096 0.349741
O O8 0.034528 0.926283 0.162882
O O9 0.332134 0.696799 0.109203
O O10 0.124463 0.777702 0.845028
O O11 0.327773 0.407066 0.980301
O O12 0.373223 0.912335 0.989456
O O13 0.845218 0.320925 0.997452
O O14 0.000000 0.215954 0.000000
O O15 0.838366 0.822938 0.912742
O O16 0.500000 0.266677 0.000000
O O17 0.500000 0.366633 0.500000
O O18 0.680372 0.420332 0.750101
#
# Coordination Sequence:
#
# PCOD8045119 Si02
#       8
#     2   2   2   2   2   2   2   2
#     4  10  21  39  61  90 123 153 194 247 309 366
#     4  12  23  39  63  88 119 154 206 257 303 354
#     4  10  21  35  60  90 118 145 191 255 303 348
#     4  10  21  36  62  92 117 147 193 258 308 345
#     4  12  21  34  60  95 115 144 193 264 315 338
#     4  10  21  39  60  87 119 157 194 239 306 371
#     4  12  26  42  57  80 127 177 205 237 293 369
#     4  12  22  37  59  89 122 151 201 255 308 351
#
# _framework density 20.572050000000001
#
# number of rings (size 3 to 8) (size 9 to 14) (size 15 to 20)
#    0.000    1.000    3.750    3.750    3.500    0.000 
#    0.000    3.750    0.000    0.000    0.000    0.000 
#    0.000    0.000    0.000    0.000    0.000    0.000 
#
# Total GULP energy -198264.206311 kJ/mol
# GULP energy per Si atom -12391.512894 kJ/mol
# Density = 2.052523 g / cm^3
# Si number density = 20.572050 Si / 1000 Ang^3
#
#
#
# Elastic Constant Matrix: (Units=GPa)
#
#
# Indices 1 2 3 4 5 6 
#
# 1 102.1162 8.1574 51.8149 0.0000 -5.4710 0.0000
# 2 8.1574 86.3055 17.8286 0.0000 -0.0026 0.0000
# 3 51.8149 17.8286 72.7096 0.0000 -3.2365 0.0000
# 4 0.0000 0.0000 0.0000 19.8357 0.0000 -2.5846
# 5 -5.4710 -0.0026 -3.2365 0.0000 20.6201 0.0000
# 6 0.0000 0.0000 0.0000 -2.5846 0.0000 23.1716
#
#
#
# Elastic Compliance Matrix: (Units=1/GPa)
#
#
# Indices 1 2 3 4 5 6 
#
# 1 0.015513 0.000838 -0.011155 0.000000 0.002365 0.000000
# 2 0.000838 0.012255 -0.003618 0.000000 -0.000344 0.000000
# 3 -0.011155 -0.003618 0.022616 0.000000 0.000590 0.000000
# 4 0.000000 0.000000 0.000000 0.051158 0.000000 0.005706
# 5 0.002365 -0.000344 0.000590 0.000000 0.049216 0.000000
# 6 0.000000 0.000000 0.000000 0.005706 0.000000 0.043793
#
#
# Mechanical properties :
#
#
# Convention : Reuss Voigt Hill
#
# Bulk Modulus (GPa) = 44.41532 46.30368 45.35950
# Shear Modulus (GPa) = 21.74632 24.94753 23.34692
#
# Velocity S-wave (km/s) = 3.25481 3.48615 3.37246
# Velocity P-wave (km/s) = 5.98013 6.22585 6.10423
#
# Compressibility (1/GPa) = 0.02251475
#
# Stress axis : x y z
#
# Youngs Moduli (GPa) = 64.46315 81.60063 44.21642
#
# Poissons Ratio (x) = -0.06840 0.49324
# Poissons Ratio (y) = -0.05403 0.15996
# Poissons Ratio (z) = 0.71909 0.29520
#
# Static dielectric constant tensor:
#      x y z
#    x 3.632440 0.000000 -0.106100 
#    y 0.000000 3.794290 0.000000 
#    z -0.106100 0.000000 3.576970 
# 
# 
# High freq. dielectric constant tensor:
#      x y z
#    x 1.805480 0.000000 -0.014730 
#    y 0.000000 1.828710 0.000000 
#    z -0.014730 0.000000 1.759820 
# 
# From -- ./inp_files/13944.got.cif
#   From: 2010.03.12/outbox.cif.g09.slc.cpg/sg3_7_cif.got.tgz:13944.got - 2010.03.31 09:20:49.
