data_PCOD8045773
_publ_section_title
;
Structure prediction by ZEFSAII (Michael W. Deem and Ramdas Pophale) SiO2 
 PCOD8045773
Probable space group: P 21
;
_chemical_formula_sum "Si O2"
_cell_formula_units_Z 16
_cell_length_a 21.160205
_cell_length_b 8.629991
_cell_length_c 9.218754
_cell_angle_alpha 90.000000
_cell_angle_beta 150.618113
_cell_angle_gamma 90.000000
_cell_volume 825.952448
_symmetry_space_group_name_H-M "P 21"
_symmetry_group_IT_number 4
_symmetry_cell_setting 'monoclinic'
loop_
_space_group_symop_operation_xyz
x,y,z
-x,1/2+y,-z
loop_
_atom_site_type_symbol
_atom_site_label
_atom_site_fract_x
_atom_site_fract_y
_atom_site_fract_z
Si Si1 0.489438 0.039770 0.129696
Si Si2 0.976272 0.672307 0.106256
Si Si3 0.750032 0.535770 0.825556
Si Si4 0.010579 0.039750 0.171947
Si Si5 0.749973 0.200559 0.324289
Si Si6 0.750009 0.218967 0.656902
Si Si7 0.250014 0.013451 0.833115
Si Si8 0.476223 0.172331 0.798760
O O1 0.623672 0.118988 0.440886
O O2 0.511261 0.856588 0.163880
O O3 0.380871 0.087631 0.029756
O O4 0.432801 0.099342 0.863683
O O5 0.118584 0.601556 0.431317
O O6 0.876507 0.628322 0.030346
O O7 0.932804 0.599286 0.867571
O O8 0.988768 0.856564 0.118903
O O9 0.750031 0.364902 0.761579
O O10 0.623583 0.628348 0.524440
O O11 0.749991 0.534612 0.996762
O O12 0.119163 0.087633 0.506304
O O13 0.876354 0.118978 0.946213
O O14 0.749989 0.271902 0.488710
O O15 0.749978 0.332688 0.204105
O O16 0.618521 0.101571 0.042892
#
# Coordination Sequence:
#
# PCOD8045773 Si02
#       8
#     2   2   2   2   2   2   2   2
#     4  10  20  38  62  86 111 143 191 244 288 329
#     4  10  19  36  61  87 110 144 189 238 285 336
#     4  12  23  35  54  83 120 157 187 220 280 350
#     4  10  20  38  62  86 111 143 191 244 288 329
#     4   8  18  37  59  79 105 139 187 240 281 318
#     4  10  21  38  61  86 109 146 194 240 282 332
#     4  10  22  36  54  82 118 152 184 230 285 342
#     4  10  19  36  61  87 110 144 189 238 285 336
#
# _framework density 19.371576000000001
#
# number of rings (size 3 to 8) (size 9 to 14) (size 15 to 20)
#    0.000    2.000    0.000    6.000    0.000    4.000 
#    0.000    3.750    0.000    9.000    0.000    0.000 
#    0.000    0.000    0.000    0.000    0.000    0.000 
#
# Total GULP energy -198341.772321 kJ/mol
# GULP energy per Si atom -12396.360770 kJ/mol
# Density = 1.932749 g / cm^3
# Si number density = 19.371576 Si / 1000 Ang^3
#
#
#
# Elastic Constant Matrix: (Units=GPa)
#
#
# Indices 1 2 3 4 5 6 
#
# 1 149.7536 45.9043 111.6256 0.0000 -6.0254 0.0000
# 2 45.9043 88.5243 46.1519 0.0000 0.2624 0.0000
# 3 111.6256 46.1519 159.1633 0.0000 14.7410 0.0000
# 4 0.0000 0.0000 0.0000 23.0673 0.0000 0.4258
# 5 -6.0254 0.2624 14.7410 0.0000 34.4094 0.0000
# 6 0.0000 0.0000 0.0000 0.4258 0.0000 22.6142
#
#
#
# Elastic Compliance Matrix: (Units=1/GPa)
#
#
# Indices 1 2 3 4 5 6 
#
# 1 0.016240 -0.002512 -0.011377 0.000000 0.007737 0.000000
# 2 -0.002512 0.013784 -0.002275 0.000000 0.000429 0.000000
# 3 -0.011377 -0.002275 0.015729 0.000000 -0.008713 0.000000
# 4 0.000000 0.000000 0.000000 0.043366 0.000000 -0.000817
# 5 0.007737 0.000429 -0.008713 0.000000 0.034146 0.000000
# 6 0.000000 0.000000 0.000000 -0.000817 0.000000 0.044235
#
#
# Mechanical properties :
#
#
# Convention : Reuss Voigt Hill
#
# Bulk Modulus (GPa) = 74.49716 89.42276 81.95996
# Shear Modulus (GPa) = 24.47340 28.93546 26.70443
#
# Velocity S-wave (km/s) = 3.55824 3.86904 3.71689
# Velocity P-wave (km/s) = 7.44459 8.13765 7.79882
#
# Compressibility (1/GPa) = 0.01342333
#
# Stress axis : x y z
#
# Youngs Moduli (GPa) = 61.57713 72.54938 63.57814
#
# Poissons Ratio (x) = 0.18228 0.72336
# Poissons Ratio (y) = 0.15471 0.14461
# Poissons Ratio (z) = 0.70059 0.16501
#
# Static dielectric constant tensor:
#      x y z
#    x 3.601890 0.000000 0.523910 
#    y 0.000000 3.336200 0.000000 
#    z 0.523910 0.000000 4.181480 
# 
# 
# High freq. dielectric constant tensor:
#      x y z
#    x 1.746630 0.000000 0.023770 
#    y 0.000000 1.736080 0.000000 
#    z 0.023770 0.000000 1.772910 
# 
# From -- ./inp_files/7560.got.cif
#   From: 2010.03.12/outbox.cif.g09.slc.cpg/sg4_4_cif.got.tgz:7560.got - 2010.03.31 09:31:35.
