data_PCOD8045181
_publ_section_title
;
Structure prediction by ZEFSAII (Michael W. Deem and Ramdas Pophale) SiO2 
 PCOD8045181
Probable space group: P 2
;
_chemical_formula_sum "Si O2"
_cell_formula_units_Z 10
_cell_length_a 11.105053
_cell_length_b 5.099758
_cell_length_c 21.455902
_cell_angle_alpha 90.000000
_cell_angle_beta 22.547871
_cell_angle_gamma 90.000000
_cell_volume 465.941742
_symmetry_space_group_name_H-M "P 2"
_symmetry_group_IT_number 3
_symmetry_cell_setting 'monoclinic'
loop_
_space_group_symop_operation_xyz
x,y,z
-x,y,-z
loop_
_atom_site_type_symbol
_atom_site_label
_atom_site_fract_x
_atom_site_fract_y
_atom_site_fract_z
Si Si1 0.278274 0.750000 0.727900
Si Si2 0.580766 0.596464 0.031014
Si Si3 0.665875 0.090133 0.787904
Si Si4 0.379897 0.245016 0.432066
Si Si5 0.662404 0.043738 0.181334
O O1 0.519752 0.526374 0.589646
O O2 0.935876 0.692872 0.866164
O O3 0.409388 0.020130 0.635066
O O4 0.276747 0.784280 0.804559
O O5 0.500000 0.508737 0.000000
O O6 0.543501 0.338192 0.091361
O O7 0.356215 0.840703 0.155875
O O8 0.545263 0.978511 0.779633
O O9 0.018044 0.192353 0.616630
O O10 0.464147 0.249749 0.317781
O O11 0.000000 0.161796 0.000000
#
# Coordination Sequence:
#
# PCOD8045181 Si02
#       5
#     2   2   2   2   2
#     4  10  22  42  64  94 134 169 219 261 331 391
#     4  12  26  46  69  94 131 182 234 269 315 395
#     4  12  24  43  68 100 134 171 222 277 335 382
#     4  10  23  40  65 102 135 163 213 271 345 390
#     4  10  21  39  67  98 130 173 204 269 326 410
#
# _framework density 21.461911000000001
#
# number of rings (size 3 to 8) (size 9 to 14) (size 15 to 20)
#    1.200    0.000    2.000    4.800    2.800    0.800 
#    3.600    6.000    0.000    0.000    0.000    0.000 
#    0.000    0.000    0.000    0.000    0.000    0.000 
#
# Total GULP energy -123936.293234 kJ/mol
# GULP energy per Si atom -12393.629323 kJ/mol
# Density = 2.141306 g / cm^3
# Si number density = 21.461911 Si / 1000 Ang^3
#
#
#
# Elastic Constant Matrix: (Units=GPa)
#
#
# Indices 1 2 3 4 5 6 
#
# 1 84.2613 22.4479 22.9426 0.0000 -23.8417 0.0000
# 2 22.4479 109.3450 4.9771 0.0000 -6.7448 0.0000
# 3 22.9426 4.9771 82.4513 0.0000 -23.5282 0.0000
# 4 0.0000 0.0000 0.0000 37.0701 0.0000 -3.5994
# 5 -23.8417 -6.7448 -23.5282 0.0000 20.1357 0.0000
# 6 0.0000 0.0000 0.0000 -3.5994 0.0000 18.1251
#
#
#
# Elastic Compliance Matrix: (Units=1/GPa)
#
#
# Indices 1 2 3 4 5 6 
#
# 1 0.018620 -0.002473 0.001535 0.000000 0.023012 0.000000
# 2 -0.002473 0.009680 0.000290 0.000000 0.000654 0.000000
# 3 0.001535 0.000290 0.018348 0.000000 0.023354 0.000000
# 4 0.000000 0.000000 0.000000 0.027506 0.000000 0.005462
# 5 0.023012 0.000654 0.023354 0.000000 0.104418 0.000000
# 6 0.000000 0.000000 0.000000 0.005462 0.000000 0.056257
#
#
# Mechanical properties :
#
#
# Convention : Reuss Voigt Hill
#
# Bulk Modulus (GPa) = 22.04942 41.86588 31.95765
# Shear Modulus (GPa) = 19.90106 30.11219 25.00662
#
# Velocity S-wave (km/s) = 3.04842 3.74980 3.41715
# Velocity P-wave (km/s) = 4.76304 6.18849 5.52195
#
# Compressibility (1/GPa) = 0.04535267
#
# Stress axis : x y z
#
# Youngs Moduli (GPa) = 53.70549 103.30415 54.50184
#
# Poissons Ratio (x) = 0.25547 -0.08365
# Poissons Ratio (y) = 0.13281 -0.01582
# Poissons Ratio (z) = -0.08243 -0.02999
#
# Static dielectric constant tensor:
#      x y z
#    x 3.580270 0.000000 0.056710 
#    y 0.000000 3.919380 0.000000 
#    z 0.056710 0.000000 3.806130 
# 
# 
# High freq. dielectric constant tensor:
#      x y z
#    x 1.816710 0.000000 -0.007370 
#    y 0.000000 1.844440 0.000000 
#    z -0.007370 0.000000 1.849740 
# 
# From -- ./inp_files/9514.got.cif
#   From: 2010.03.12/outbox.cif.g09.slc.cpg/sg3_5_cif.got.tgz:9514.got - 2010.03.31 09:20:49.
