data_PCOD8045203
_publ_section_title
;
Structure prediction by ZEFSAII (Michael W. Deem and Ramdas Pophale) SiO2 
 PCOD8045203
Probable space group: P 2
;
_chemical_formula_sum "Si O2"
_cell_formula_units_Z 16
_cell_length_a 9.238984
_cell_length_b 9.405758
_cell_length_c 11.219473
_cell_angle_alpha 90.000000
_cell_angle_beta 57.406173
_cell_angle_gamma 90.000000
_cell_volume 821.420929
_symmetry_space_group_name_H-M "P 2"
_symmetry_group_IT_number 3
_symmetry_cell_setting 'monoclinic'
loop_
_space_group_symop_operation_xyz
x,y,z
-x,y,-z
loop_
_atom_site_type_symbol
_atom_site_label
_atom_site_fract_x
_atom_site_fract_y
_atom_site_fract_z
Si Si1 0.305756 0.126960 0.095741
Si Si2 0.989192 0.613091 0.363363
Si Si3 0.611253 0.756955 0.144864
Si Si4 0.717229 0.796527 0.840507
Si Si5 0.314009 0.246392 0.636841
Si Si6 0.023299 0.299208 0.350891
Si Si7 0.334905 0.573911 0.647896
Si Si8 0.197995 0.046549 0.900704
O O1 0.191211 0.211451 0.240542
O O2 0.303381 0.963609 0.135024
O O3 0.500000 0.185200 0.000000
O O4 0.225227 0.148184 0.001734
O O5 0.060778 0.459724 0.289078
O O6 0.807543 0.631504 0.379998
O O7 0.000000 0.616007 0.500000
O O8 0.092433 0.750281 0.274856
O O9 0.405285 0.752829 0.216259
O O10 0.670255 0.647295 0.220161
O O11 0.677922 0.911281 0.153901
O O12 0.680977 0.717612 0.982336
O O13 0.500000 0.200597 0.500000
O O14 0.159110 0.238135 0.611823
O O15 0.327716 0.406605 0.680177
O O16 0.253413 0.137317 0.763424
O O17 0.000000 0.293661 0.500000
O O18 0.500000 0.616680 0.500000
O O19 0.000000 0.996730 0.000000
#
# Coordination Sequence:
#
# PCOD8045203 Si02
#       8
#     2   2   2   2   2   2   2   2
#     4  11  22  42  61  89 123 160 198 248 299 354
#     4  10  22  40  62  87 120 157 197 248 296 352
#     4  10  22  39  60  87 118 156 197 242 295 355
#     4  10  21  41  59  85 122 153 197 246 292 350
#     4  10  23  41  62  90 122 157 199 251 298 354
#     4  10  23  41  62  90 121 157 203 245 299 360
#     4  10  22  40  62  88 119 156 200 245 297 356
#     4  11  22  40  63  87 125 157 196 250 299 354
#
# _framework density 19.478444
#
# number of rings (size 3 to 8) (size 9 to 14) (size 15 to 20)
#    0.000    1.750    3.750    0.750    5.250    3.000 
#    2.250    0.000    0.000    0.000    0.000    0.000 
#    0.000    0.000    0.000    0.000    0.000    0.000 
#
# Total GULP energy -198254.081789 kJ/mol
# GULP energy per Si atom -12390.880112 kJ/mol
# Density = 1.943411 g / cm^3
# Si number density = 19.478444 Si / 1000 Ang^3
#
#
#
# Elastic Constant Matrix: (Units=GPa)
#
#
# Indices 1 2 3 4 5 6 
#
# 1 148.8787 42.1784 59.0686 0.0000 -1.6508 0.0000
# 2 42.1784 59.0372 48.0877 0.0000 -2.7147 0.0000
# 3 59.0686 48.0877 90.6343 0.0000 -8.9834 0.0000
# 4 0.0000 0.0000 0.0000 54.3009 0.0000 -26.1057
# 5 -1.6508 -2.7147 -8.9834 0.0000 45.7904 0.0000
# 6 0.0000 0.0000 0.0000 -26.1057 0.0000 44.9128
#
#
#
# Elastic Compliance Matrix: (Units=1/GPa)
#
#
# Indices 1 2 3 4 5 6 
#
# 1 0.009381 -0.002988 -0.004602 0.000000 -0.000742 0.000000
# 2 -0.002988 0.030865 -0.014541 0.000000 -0.001131 0.000000
# 3 -0.004602 -0.014541 0.022075 0.000000 0.003303 0.000000
# 4 0.000000 0.000000 0.000000 0.025558 0.000000 0.014856
# 5 -0.000742 -0.001131 0.003303 0.000000 0.022393 0.000000
# 6 0.000000 0.000000 0.000000 0.014856 0.000000 0.030900
#
#
# Mechanical properties :
#
#
# Convention : Reuss Voigt Hill
#
# Bulk Modulus (GPa) = 55.37249 66.35773 60.86511
# Shear Modulus (GPa) = 26.11599 38.94852 32.53226
#
# Velocity S-wave (km/s) = 3.66562 4.47651 4.09120
# Velocity P-wave (km/s) = 6.81212 7.80128 7.32342
#
# Compressibility (1/GPa) = 0.01805951
#
# Stress axis : x y z
#
# Youngs Moduli (GPa) = 106.59809 32.39910 45.29992
#
# Poissons Ratio (x) = 0.09680 0.20848
# Poissons Ratio (y) = 0.31847 0.65871
# Poissons Ratio (z) = 0.49059 0.47112
#
# Static dielectric constant tensor:
#      x y z
#    x 3.905570 0.000000 -0.045170 
#    y 0.000000 3.489210 0.000000 
#    z -0.045170 0.000000 3.477360 
# 
# 
# High freq. dielectric constant tensor:
#      x y z
#    x 1.782990 0.000000 0.002850 
#    y 0.000000 1.747210 0.000000 
#    z 0.002850 0.000000 1.756270 
# 
# From -- ./inp_files/10731.got.cif
#   From: 2010.03.12/outbox.cif.g09.slc.cpg/sg3_6_cif.got.tgz:10731.got - 2010.03.31 09:20:49.
