data_PCOD8045373
_publ_section_title
;
Structure prediction by ZEFSAII (Michael W. Deem and Ramdas Pophale) SiO2 
 PCOD8045373
Probable space group: P 2
;
_chemical_formula_sum "Si O2"
_cell_formula_units_Z 11
_cell_length_a 7.186938
_cell_length_b 7.961585
_cell_length_c 12.933193
_cell_angle_alpha 90.000000
_cell_angle_beta 136.319388
_cell_angle_gamma 90.000000
_cell_volume 511.092483
_symmetry_space_group_name_H-M "P 2"
_symmetry_group_IT_number 3
_symmetry_cell_setting 'monoclinic'
loop_
_space_group_symop_operation_xyz
x,y,z
-x,y,-z
loop_
_atom_site_type_symbol
_atom_site_label
_atom_site_fract_x
_atom_site_fract_y
_atom_site_fract_z
Si Si1 0.975100 0.905490 0.662668
Si Si2 0.500000 0.656859 0.500000
Si Si3 0.473812 0.427441 0.289271
Si Si4 0.490861 0.683051 0.878131
Si Si5 0.000000 0.253068 0.000000
Si Si6 0.232314 0.985067 0.959959
Si Si7 0.000000 0.186974 0.500000
O O1 0.728076 0.780480 0.549564
O O2 0.231146 0.790830 0.744428
O O3 0.977663 0.066930 0.589966
O O4 0.975248 0.976728 0.780222
O O5 0.438163 0.537402 0.377941
O O6 0.505843 0.529994 0.197245
O O7 0.175675 0.349108 0.156208
O O8 0.729107 0.301093 0.395307
O O9 0.500000 0.613647 0.000000
O O10 0.745516 0.810086 0.966690
O O11 0.780177 0.140290 0.969271
O O12 0.500000 0.004072 0.000000
#
# Coordination Sequence:
#
# PCOD8045373 Si02
#       7
#     2   1   2   2   1   2   1
#     4  10  23  43  72  94 132 191 235 276 346 440
#     4  12  28  42  68 104 148 182 230 290 354 434
#     4  12  28  43  69 108 147 178 229 304 365 406
#     4   9  21  45  73  96 131 189 236 283 347 434
#     4  12  28  40  72 106 140 184 238 300 346 422
#     4   9  22  44  70  99 134 182 240 287 345 431
#     4  12  26  46  72  98 146 188 232 290 364 424
#
# _framework density 21.522521999999999
#
# number of rings (size 3 to 8) (size 9 to 14) (size 15 to 20)
#    0.000    1.818    0.000    4.364   12.727    2.182 
#    0.000    0.000    0.000    0.000    0.000    0.000 
#    0.000    0.000    0.000    0.000    0.000    0.000 
#
# Total GULP energy -136273.839321 kJ/mol
# GULP energy per Si atom -12388.530847 kJ/mol
# Density = 2.147354 g / cm^3
# Si number density = 21.522522 Si / 1000 Ang^3
#
#
#
# Elastic Constant Matrix: (Units=GPa)
#
#
# Indices 1 2 3 4 5 6 
#
# 1 62.6671 50.8685 33.9705 0.0000 -5.4711 0.0000
# 2 50.8685 116.5073 53.7322 0.0000 -11.8809 0.0000
# 3 33.9705 53.7322 119.1822 0.0000 -3.0758 0.0000
# 4 0.0000 0.0000 0.0000 51.9719 0.0000 -8.5560
# 5 -5.4711 -11.8809 -3.0758 0.0000 31.3593 0.0000
# 6 0.0000 0.0000 0.0000 -8.5560 0.0000 40.7918
#
#
#
# Elastic Compliance Matrix: (Units=1/GPa)
#
#
# Indices 1 2 3 4 5 6 
#
# 1 0.025460 -0.009756 -0.002847 0.000000 0.000467 0.000000
# 2 -0.009756 0.015004 -0.003891 0.000000 0.003601 0.000000
# 3 -0.002847 -0.003891 0.010933 0.000000 -0.000898 0.000000
# 4 0.000000 0.000000 0.000000 0.019929 0.000000 0.004180
# 5 0.000467 0.003601 -0.000898 0.000000 0.033246 0.000000
# 6 0.000000 0.000000 0.000000 0.004180 0.000000 0.025392
#
#
# Mechanical properties :
#
#
# Convention : Reuss Voigt Hill
#
# Bulk Modulus (GPa) = 54.31605 63.94433 59.13019
# Shear Modulus (GPa) = 29.57045 35.47696 32.52371
#
# Velocity S-wave (km/s) = 3.71068 4.06441 3.89157
# Velocity P-wave (km/s) = 6.60685 7.19728 6.90838
#
# Compressibility (1/GPa) = 0.01841076
#
# Stress axis : x y z
#
# Youngs Moduli (GPa) = 39.27708 66.64742 91.46730
#
# Poissons Ratio (x) = 0.65020 0.26037
# Poissons Ratio (y) = 0.38318 0.35589
# Poissons Ratio (z) = 0.11180 0.25932
#
# Static dielectric constant tensor:
#      x y z
#    x 3.501100 0.000000 -0.294370 
#    y 0.000000 4.198090 0.000000 
#    z -0.294370 0.000000 4.065790 
# 
# 
# High freq. dielectric constant tensor:
#      x y z
#    x 1.833980 0.000000 -0.004080 
#    y 0.000000 1.856590 0.000000 
#    z -0.004080 0.000000 1.867620 
# 
# From -- ./inp_files/13236.got.cif
#   From: 2010.03.12/outbox.cif.g09.slc.cpg/sg3_7_cif.got.tgz:13236.got - 2010.03.31 09:20:49.
