data_PCOD8045867
_publ_section_title
;
Structure prediction by ZEFSAII (Michael W. Deem and Ramdas Pophale) SiO2 
 PCOD8045867
Probable space group: P 21
;
_chemical_formula_sum "Si O2"
_cell_formula_units_Z 16
_cell_length_a 13.809916
_cell_length_b 8.305413
_cell_length_c 11.524676
_cell_angle_alpha 90.000000
_cell_angle_beta 148.320090
_cell_angle_gamma 90.000000
_cell_volume 694.198431
_symmetry_space_group_name_H-M "P 21"
_symmetry_group_IT_number 4
_symmetry_cell_setting 'monoclinic'
loop_
_space_group_symop_operation_xyz
x,y,z
-x,1/2+y,-z
loop_
_atom_site_type_symbol
_atom_site_label
_atom_site_fract_x
_atom_site_fract_y
_atom_site_fract_z
Si Si1 0.226617 0.885630 0.407448
Si Si2 0.856771 0.249948 0.175891
Si Si3 0.622601 0.447599 0.099688
Si Si4 0.183245 0.413381 0.976510
Si Si5 0.533227 0.337668 0.706115
Si Si6 0.488184 0.525652 0.454900
Si Si7 0.477425 0.233177 0.139424
Si Si8 0.743961 0.690923 0.414017
O O1 0.343954 0.901529 0.408451
O O2 0.328323 0.763699 0.598496
O O3 0.011047 0.838944 0.176220
O O4 0.233935 0.065694 0.460911
O O5 0.770914 0.315121 0.208825
O O6 0.071337 0.299216 0.400684
O O7 0.838964 0.056370 0.141609
O O8 0.750465 0.333015 0.959007
O O9 0.471233 0.351258 0.020069
O O10 0.715764 0.594196 0.266021
O O11 0.528978 0.543107 0.896141
O O12 0.293647 0.474491 0.200906
O O13 0.298416 0.272283 0.033257
O O14 0.479766 0.507459 0.588078
O O15 0.429139 0.302716 0.723689
O O16 0.473443 0.206935 0.546918
#
# Coordination Sequence:
#
# PCOD8045867 Si02
#       8
#     2   2   2   2   2   2   2   2
#     4   8  17  35  56  79 109 147 188 238 294 347
#     4  10  21  38  58  81 114 155 199 247 297 349
#     4  11  21  37  60  84 116 160 199 244 301 352
#     4   9  18  37  59  81 113 152 195 245 297 351
#     4  10  20  38  59  85 118 152 191 242 296 352
#     4   9  19  34  58  83 111 151 191 235 293 352
#     4  10  20  34  53  81 114 149 194 243 292 350
#     4   9  20  37  55  80 115 150 193 242 288 343
#
# _framework density 23.048165000000001
#
# number of rings (size 3 to 8) (size 9 to 14) (size 15 to 20)
#    0.000    2.500    0.000    3.750    0.000    6.000 
#    0.000    7.500    0.000    0.000    0.000    0.000 
#    0.000    0.000    0.000    0.000    0.000    0.000 
#
# Total GULP energy -198260.598903 kJ/mol
# GULP energy per Si atom -12391.287431 kJ/mol
# Density = 2.299571 g / cm^3
# Si number density = 23.048165 Si / 1000 Ang^3
#
#
#
# Elastic Constant Matrix: (Units=GPa)
#
#
# Indices 1 2 3 4 5 6 
#
# 1 75.2260 15.9638 34.1190 0.0000 18.8187 0.0000
# 2 15.9638 60.8286 28.2889 0.0000 11.3796 0.0000
# 3 34.1190 28.2889 84.2681 0.0000 41.6682 0.0000
# 4 0.0000 0.0000 0.0000 29.3107 0.0000 -7.5995
# 5 18.8187 11.3796 41.6682 0.0000 37.2562 0.0000
# 6 0.0000 0.0000 0.0000 -7.5995 0.0000 37.0132
#
#
#
# Elastic Compliance Matrix: (Units=1/GPa)
#
#
# Indices 1 2 3 4 5 6 
#
# 1 0.016467 -0.001557 -0.005071 0.000000 -0.002170 0.000000
# 2 -0.001557 0.019785 -0.007634 0.000000 0.003281 0.000000
# 3 -0.005071 -0.007634 0.031464 0.000000 -0.030296 0.000000
# 4 0.000000 0.000000 0.000000 0.036036 0.000000 0.007399
# 5 -0.002170 0.003281 -0.030296 0.000000 0.060819 0.000000
# 6 0.000000 0.000000 0.000000 0.007399 0.000000 0.028537
#
#
# Mechanical properties :
#
#
# Convention : Reuss Voigt Hill
#
# Bulk Modulus (GPa) = 25.51648 41.89624 33.70636
# Shear Modulus (GPa) = 21.30434 30.17941 25.74187
#
# Velocity S-wave (km/s) = 3.04359 3.62250 3.34559
# Velocity P-wave (km/s) = 4.84213 5.97610 5.43875
#
# Compressibility (1/GPa) = 0.03919035
#
# Stress axis : x y z
#
# Youngs Moduli (GPa) = 60.72858 50.54437 31.78281
#
# Poissons Ratio (x) = 0.07870 0.16118
# Poissons Ratio (y) = 0.09456 0.24262
# Poissons Ratio (z) = 0.30798 0.38585
#
# Static dielectric constant tensor:
#      x y z
#    x 4.693780 0.000000 0.221550 
#    y 0.000000 3.971820 0.000000 
#    z 0.221550 0.000000 4.150900 
# 
# 
# High freq. dielectric constant tensor:
#      x y z
#    x 1.904200 0.000000 -0.006120 
#    y 0.000000 1.902280 0.000000 
#    z -0.006120 0.000000 1.903510 
# 
# From -- ./inp_files/12619.got.cif
#   From: 2010.03.12/outbox.cif.g09.slc.cpg/sg4_7_cif.got.tgz:12619.got - 2010.03.31 09:31:35.
