data_PCOD8045265
_publ_section_title
;
Structure prediction by ZEFSAII (Michael W. Deem and Ramdas Pophale) SiO2 
 PCOD8045265
Probable space group: P 2
;
_chemical_formula_sum "Si O2"
_cell_formula_units_Z 16
_cell_length_a 8.133312
_cell_length_b 17.731078
_cell_length_c 9.276345
_cell_angle_alpha 90.000000
_cell_angle_beta 32.081592
_cell_angle_gamma 90.000000
_cell_volume 710.521697
_symmetry_space_group_name_H-M "P 2"
_symmetry_group_IT_number 3
_symmetry_cell_setting 'monoclinic'
loop_
_space_group_symop_operation_xyz
x,y,z
-x,y,-z
loop_
_atom_site_type_symbol
_atom_site_label
_atom_site_fract_x
_atom_site_fract_y
_atom_site_fract_z
Si Si1 0.353987 0.633860 0.451736
Si Si2 0.157901 0.864783 0.226432
Si Si3 0.292096 0.340933 0.023824
Si Si4 0.342335 0.261048 0.469797
Si Si5 0.248566 0.098651 0.435262
Si Si6 0.110978 0.015236 0.076476
Si Si7 0.139684 0.722940 0.054341
Si Si8 0.361478 0.495813 0.244250
O O1 0.500000 0.630138 0.500000
O O2 0.999540 0.656709 0.741076
O O3 0.379269 0.551344 0.365468
O O4 0.504270 0.698439 0.235704
O O5 0.000000 0.872116 0.500000
O O6 0.038569 0.800006 0.208304
O O7 0.500000 0.837916 0.000000
O O8 0.150355 0.942243 0.145606
O O9 0.364362 0.295584 0.827433
O O10 0.391606 0.427451 0.921296
O O11 0.500000 0.308734 0.000000
O O12 0.927841 0.325015 0.323278
O O13 0.500000 0.234857 0.500000
O O14 0.232241 0.188460 0.462765
O O15 0.581917 0.066113 0.144837
O O16 0.000000 0.073189 0.500000
O O17 0.163427 0.064394 0.653252
O O18 0.000000 0.991362 0.000000
O O19 0.000000 0.727706 0.000000
O O20 0.000000 0.467664 0.500000
O O21 0.500000 0.537998 0.000000
#
# Coordination Sequence:
#
# PCOD8045265 Si02
#       8
#     2   2   2   2   2   2   2   2
#     4  10  22  40  64  91 127 168 215 268 326 388
#     4  12  25  41  64  95 131 169 216 270 323 384
#     4  11  23  43  65  91 128 171 213 262 326 391
#     4  12  25  43  66  97 129 165 215 269 322 386
#     4  12  25  44  69  96 129 170 214 266 323 386
#     4  12  25  44  67  95 131 172 215 266 323 385
#     4  10  22  41  62  90 126 171 216 264 324 388
#     4  11  23  40  64  93 127 168 216 269 326 392
#
# _framework density 22.518664000000001
#
# number of rings (size 3 to 8) (size 9 to 14) (size 15 to 20)
#    0.000    0.750    0.000    9.000    0.000    3.500 
#    0.000    8.750    0.000    0.000    0.000    0.000 
#    0.000    0.000    0.000    0.000    0.000    0.000 
#
# Total GULP energy -198268.737545 kJ/mol
# GULP energy per Si atom -12391.796097 kJ/mol
# Density = 2.246741 g / cm^3
# Si number density = 22.518664 Si / 1000 Ang^3
#
#
#
# Elastic Constant Matrix: (Units=GPa)
#
#
# Indices 1 2 3 4 5 6 
#
# 1 59.1572 22.2682 22.1635 0.0000 10.8196 0.0000
# 2 22.2682 131.4288 44.7505 0.0000 14.4234 0.0000
# 3 22.1635 44.7505 105.7631 0.0000 17.1820 0.0000
# 4 0.0000 0.0000 0.0000 27.2759 0.0000 15.5539
# 5 10.8196 14.4234 17.1820 0.0000 39.7201 0.0000
# 6 0.0000 0.0000 0.0000 15.5539 0.0000 42.5088
#
#
#
# Elastic Compliance Matrix: (Units=1/GPa)
#
#
# Indices 1 2 3 4 5 6 
#
# 1 0.019263 -0.001992 -0.002645 0.000000 -0.003380 0.000000
# 2 -0.001992 0.009206 -0.003251 0.000000 -0.001394 0.000000
# 3 -0.002645 -0.003251 0.011913 0.000000 -0.003252 0.000000
# 4 0.000000 0.000000 0.000000 0.046329 0.000000 -0.016952
# 5 -0.003380 -0.001394 -0.003252 0.000000 0.028010 0.000000
# 6 0.000000 0.000000 0.000000 -0.016952 0.000000 0.029727
#
#
# Mechanical properties :
#
#
# Convention : Reuss Voigt Hill
#
# Bulk Modulus (GPa) = 40.64071 52.74595 46.69333
# Shear Modulus (GPa) = 29.68634 35.71209 32.69921
#
# Velocity S-wave (km/s) = 3.63478 3.98664 3.81477
# Velocity P-wave (km/s) = 5.97513 6.68320 6.33906
#
# Compressibility (1/GPa) = 0.02460587
#
# Stress axis : x y z
#
# Youngs Moduli (GPa) = 51.91278 108.62133 83.93897
#
# Poissons Ratio (x) = 0.21642 0.22199
# Poissons Ratio (y) = 0.10343 0.27292
# Poissons Ratio (z) = 0.13729 0.35317
#
# Static dielectric constant tensor:
#      x y z
#    x 3.928400 0.000000 0.131250 
#    y 0.000000 3.964760 0.000000 
#    z 0.131250 0.000000 4.592540 
# 
# 
# High freq. dielectric constant tensor:
#      x y z
#    x 1.882250 0.000000 0.012550 
#    y 0.000000 1.887720 0.000000 
#    z 0.012550 0.000000 1.915710 
# 
# From -- ./inp_files/6209.got.cif
#   From: 2010.03.12/outbox.cif.g09.slc.cpg/sg3_4_cif.got.tgz:6209.got - 2010.03.31 09:20:49.
