data_PCOD8045685
_publ_section_title
;
Structure prediction by ZEFSAII (Michael W. Deem and Ramdas Pophale) SiO2 
 PCOD8045685
Probable space group: P 21
;
_chemical_formula_sum "Si O2"
_cell_formula_units_Z 16
_cell_length_a 13.244765
_cell_length_b 8.991143
_cell_length_c 15.299732
_cell_angle_alpha 90.000000
_cell_angle_beta 149.958841
_cell_angle_gamma 90.000000
_cell_volume 912.121950
_symmetry_space_group_name_H-M "P 21"
_symmetry_group_IT_number 4
_symmetry_cell_setting 'monoclinic'
loop_
_space_group_symop_operation_xyz
x,y,z
-x,1/2+y,-z
loop_
_atom_site_type_symbol
_atom_site_label
_atom_site_fract_x
_atom_site_fract_y
_atom_site_fract_z
Si Si1 0.080291 0.571710 0.499679
Si Si2 0.573669 0.854115 0.807268
Si Si3 0.075338 0.525612 0.307066
Si Si4 0.128676 0.873888 0.000722
Si Si5 0.918738 0.029479 0.999417
Si Si6 0.459673 0.525716 0.690872
Si Si7 0.043833 0.354050 0.809711
Si Si8 0.122899 0.906995 0.499059
O O1 0.316633 0.520626 0.671003
O O2 0.966202 0.523577 0.500249
O O3 0.973079 0.520353 0.327917
O O4 0.071969 0.748058 0.499512
O O5 0.549819 0.691100 0.747617
O O6 0.362125 0.931666 0.670225
O O7 0.692700 0.959020 0.826858
O O8 0.711329 0.842280 0.998573
O O9 0.089678 0.706663 0.000501
O O10 0.316116 0.494568 0.498782
O O11 0.973613 0.402394 0.169965
O O12 0.051639 0.691023 0.250161
O O13 0.367885 0.902429 0.172424
O O14 0.036448 0.990113 0.999826
O O15 0.036898 0.958895 0.171493
O O16 0.982252 0.431565 0.673235
#
# Coordination Sequence:
#
# PCOD8045685 Si02
#       8
#     2   2   2   2   2   2   2   2
#     4   8  20  34  55  86 103 152 185 222 282 322
#     4   9  18  38  57  83 110 148 190 225 284 325
#     4   9  19  37  60  82 109 151 185 229 284 325
#     4  12  20  42  55  80 123 136 191 236 274 344
#     4  10  24  36  59  86 105 156 181 236 280 332
#     4   9  19  37  60  82 109 151 185 229 284 325
#     4   9  18  38  57  83 110 148 190 225 284 325
#     4  10  18  38  57  78 123 142 189 234 276 334
#
# _framework density 17.541513999999999
#
# number of rings (size 3 to 8) (size 9 to 14) (size 15 to 20)
#    1.500    1.000    2.500    1.500    0.000    2.000 
#    6.750    0.000    0.000    0.000    0.000    0.000 
#    0.000    0.000    0.000    0.000    0.000    0.000 
#
# Total GULP energy -198213.587156 kJ/mol
# GULP energy per Si atom -12388.349197 kJ/mol
# Density = 1.750159 g / cm^3
# Si number density = 17.541514 Si / 1000 Ang^3
#
#
#
# Elastic Constant Matrix: (Units=GPa)
#
#
# Indices 1 2 3 4 5 6 
#
# 1 49.5123 0.8494 22.9681 0.0000 -0.1636 0.0000
# 2 0.8494 46.9388 13.8240 0.0000 -0.2174 0.0000
# 3 22.9681 13.8240 127.1130 0.0000 -0.7118 0.0000
# 4 0.0000 0.0000 0.0000 21.8125 0.0000 0.2677
# 5 -0.1636 -0.2174 -0.7118 0.0000 20.3984 0.0000
# 6 0.0000 0.0000 0.0000 0.2677 0.0000 36.7410
#
#
#
# Elastic Compliance Matrix: (Units=1/GPa)
#
#
# Indices 1 2 3 4 5 6 
#
# 1 0.022074 0.000801 -0.004075 0.000000 0.000043 0.000000
# 2 0.000801 0.022039 -0.002541 0.000000 0.000153 0.000000
# 3 -0.004075 -0.002541 0.008881 0.000000 0.000250 0.000000
# 4 0.000000 0.000000 0.000000 0.045849 0.000000 -0.000334
# 5 0.000043 0.000153 0.000250 0.000000 0.049034 0.000000
# 6 0.000000 0.000000 0.000000 -0.000334 0.000000 0.027220
#
#
# Mechanical properties :
#
#
# Convention : Reuss Voigt Hill
#
# Bulk Modulus (GPa) = 24.17582 33.20526 28.69054
# Shear Modulus (GPa) = 24.93574 28.18521 26.56048
#
# Velocity S-wave (km/s) = 3.77440 4.01280 3.89543
# Velocity P-wave (km/s) = 5.72772 6.35930 6.05176
#
# Compressibility (1/GPa) = 0.04136365
#
# Stress axis : x y z
#
# Youngs Moduli (GPa) = 45.30233 45.37449 112.59848
#
# Poissons Ratio (x) = -0.03635 0.45889
# Poissons Ratio (y) = -0.03629 0.28608
# Poissons Ratio (z) = 0.18463 0.11528
#
# Static dielectric constant tensor:
#      x y z
#    x 3.017010 0.000000 -0.005730 
#    y 0.000000 3.034640 0.000000 
#    z -0.005730 0.000000 3.383080 
# 
# 
# High freq. dielectric constant tensor:
#      x y z
#    x 1.658140 0.000000 -0.000300 
#    y 0.000000 1.672340 0.000000 
#    z -0.000300 0.000000 1.675810 
# 
# From -- ./inp_files/11389.got.cif
#   From: 2010.03.12/outbox.cif.g09.slc.cpg/sg4_6_cif.got.tgz:11389.got - 2010.03.31 09:31:35.
