data_PCOD8045622
_publ_section_title
;
Structure prediction by ZEFSAII (Michael W. Deem and Ramdas Pophale) SiO2 
 PCOD8045622
Probable space group: P 21
;
_chemical_formula_sum "Si O2"
_cell_formula_units_Z 16
_cell_length_a 8.420238
_cell_length_b 12.013917
_cell_length_c 12.078006
_cell_angle_alpha 90.000000
_cell_angle_beta 39.924657
_cell_angle_gamma 90.000000
_cell_volume 784.133889
_symmetry_space_group_name_H-M "P 21"
_symmetry_group_IT_number 4
_symmetry_cell_setting 'monoclinic'
loop_
_space_group_symop_operation_xyz
x,y,z
-x,1/2+y,-z
loop_
_atom_site_type_symbol
_atom_site_label
_atom_site_fract_x
_atom_site_fract_y
_atom_site_fract_z
Si Si1 0.189997 0.153810 0.700735
Si Si2 0.615624 0.726911 0.633251
Si Si3 0.112516 0.442002 0.426391
Si Si4 0.280117 0.565547 0.541819
Si Si5 0.209856 0.788506 0.687100
Si Si6 0.821487 0.968664 0.865083
Si Si7 0.666009 0.883070 0.319960
Si Si8 0.437180 0.993206 0.241394
O O1 0.217720 0.184405 0.557128
O O2 0.425125 0.081341 0.612275
O O3 0.175361 0.269056 0.778576
O O4 0.948209 0.079831 0.847775
O O5 0.752179 0.826778 0.621293
O O6 0.347159 0.766155 0.730838
O O7 0.589941 0.625937 0.732657
O O8 0.204003 0.541758 0.456495
O O9 0.181516 0.475742 0.265226
O O10 0.818862 0.428406 0.601838
O O11 0.137462 0.672996 0.665358
O O12 0.201559 0.460498 0.659449
O O13 0.390463 0.855167 0.508812
O O14 0.962270 0.859294 0.834925
O O15 0.542873 0.966490 0.062342
O O16 0.643282 0.948648 0.217433
#
# Coordination Sequence:
#
# PCOD8045622 Si02
#       8
#     2   2   2   2   2   2   2   2
#     4  10  19  40  68  94 116 168 220 269 316 371
#     4  10  20  41  71  88 125 174 218 274 319 371
#     4  12  23  41  63  94 134 173 203 269 328 397
#     4  10  18  36  72  89 115 168 217 255 322 373
#     4  10  19  39  71  92 118 168 221 270 314 372
#     4  12  25  41  61  98 137 169 208 265 329 388
#     4  10  17  40  66  92 113 161 223 255 312 367
#     4  12  25  42  64  97 132 171 216 263 328 397
#
# _framework density 20.404678000000001
#
# number of rings (size 3 to 8) (size 9 to 14) (size 15 to 20)
#    0.000    1.500    8.750    0.000    1.750    1.000 
#    2.250    2.500    0.000    0.000    0.000    0.000 
#    0.000    0.000    0.000    0.000    0.000    0.000 
#
# Total GULP energy -198386.156433 kJ/mol
# GULP energy per Si atom -12399.134777 kJ/mol
# Density = 2.035824 g / cm^3
# Si number density = 20.404678 Si / 1000 Ang^3
#
#
#
# Elastic Constant Matrix: (Units=GPa)
#
#
# Indices 1 2 3 4 5 6 
#
# 1 97.8608 55.6656 40.1324 0.0000 11.5344 0.0000
# 2 55.6656 148.6584 37.7692 0.0000 1.1244 0.0000
# 3 40.1324 37.7692 95.9954 0.0000 9.8202 0.0000
# 4 0.0000 0.0000 0.0000 17.6130 0.0000 4.1893
# 5 11.5344 1.1244 9.8202 0.0000 9.8557 0.0000
# 6 0.0000 0.0000 0.0000 4.1893 0.0000 34.0168
#
#
#
# Elastic Compliance Matrix: (Units=1/GPa)
#
#
# Indices 1 2 3 4 5 6 
#
# 1 0.016268 -0.005161 -0.003211 0.000000 -0.015252 0.000000
# 2 -0.005161 0.009159 -0.002179 0.000000 0.007166 0.000000
# 3 -0.003211 -0.002179 0.013592 0.000000 -0.009537 0.000000
# 4 0.000000 0.000000 0.000000 0.058490 0.000000 -0.007203
# 5 -0.015252 0.007166 -0.009537 0.000000 0.127999 0.000000
# 6 0.000000 0.000000 0.000000 -0.007203 0.000000 0.030284
#
#
# Mechanical properties :
#
#
# Convention : Reuss Voigt Hill
#
# Bulk Modulus (GPa) = 55.80705 67.73878 61.77292
# Shear Modulus (GPa) = 17.67622 26.22693 21.95158
#
# Velocity S-wave (km/s) = 2.94646 3.58905 3.28351
# Velocity P-wave (km/s) = 6.24380 7.10245 6.68692
#
# Compressibility (1/GPa) = 0.01791888
#
# Stress axis : x y z
#
# Youngs Moduli (GPa) = 61.46882 109.18591 73.57051
#
# Poissons Ratio (x) = 0.56348 0.23620
# Poissons Ratio (y) = 0.31722 0.16031
# Poissons Ratio (z) = 0.19735 0.23792
#
# Static dielectric constant tensor:
#      x y z
#    x 3.673780 0.000000 0.076590 
#    y 0.000000 4.082910 0.000000 
#    z 0.076590 0.000000 3.247950 
# 
# 
# High freq. dielectric constant tensor:
#      x y z
#    x 1.791920 0.000000 0.010010 
#    y 0.000000 1.817660 0.000000 
#    z 0.010010 0.000000 1.753990 
# 
# From -- ./inp_files/8475.got.cif
#   From: 2010.03.12/outbox.cif.g09.slc.cpg/sg4_5_cif.got.tgz:8475.got - 2010.03.31 09:31:35.
