data_PCOD8045321
_publ_section_title
;
Structure prediction by ZEFSAII (Michael W. Deem and Ramdas Pophale) SiO2 
 PCOD8045321
Probable space group: P 2
;
_chemical_formula_sum "Si O2"
_cell_formula_units_Z 16
_cell_length_a 18.412995
_cell_length_b 8.493007
_cell_length_c 8.638876
_cell_angle_alpha 90.000000
_cell_angle_beta 33.612639
_cell_angle_gamma 90.000000
_cell_volume 747.859198
_symmetry_space_group_name_H-M "P 2"
_symmetry_group_IT_number 3
_symmetry_cell_setting 'monoclinic'
loop_
_space_group_symop_operation_xyz
x,y,z
-x,y,-z
loop_
_atom_site_type_symbol
_atom_site_label
_atom_site_fract_x
_atom_site_fract_y
_atom_site_fract_z
Si Si1 0.368636 0.243040 0.792798
Si Si2 0.073135 0.775041 0.211188
Si Si3 0.145864 0.592228 0.577974
Si Si4 0.629483 0.149580 0.867721
Si Si5 0.154315 0.486161 0.228431
Si Si6 0.639489 0.832161 0.714220
Si Si7 0.264146 0.027347 0.739316
Si Si8 0.854922 0.270286 0.269974
O O1 0.500000 0.331567 0.500000
O O2 0.349655 0.078573 0.734598
O O3 0.402253 0.202734 0.906466
O O4 0.239917 0.349327 0.001482
O O5 0.176235 0.640772 0.082762
O O6 0.000000 0.828049 0.500000
O O7 0.980774 0.696956 0.242723
O O8 0.140518 0.925199 0.015137
O O9 0.201438 0.517054 0.320428
O O10 0.249926 0.703256 0.475327
O O11 0.123298 0.459229 0.750816
O O12 0.767697 0.226404 0.573030
O O13 0.655435 0.962813 0.819208
O O14 0.500000 0.198408 0.000000
O O15 0.000000 0.438469 0.500000
O O16 0.647467 0.925738 0.536086
O O17 0.500000 0.749551 0.000000
O O18 0.219870 0.195868 0.744349
O O19 0.000000 0.193355 0.000000
#
# Coordination Sequence:
#
# PCOD8045321 Si02
#       8
#     2   2   2   2   2   2   2   2
#     4  12  24  43  70  99 136 177 222 281 343 401
#     4   9  23  44  66  97 138 169 228 279 336 402
#     4  10  22  43  68  94 132 185 214 284 332 400
#     4  10  23  46  67  95 137 175 225 276 332 412
#     4   9  22  45  65  97 135 178 221 277 342 398
#     4  10  23  44  64  95 134 175 228 273 328 400
#     4  11  27  41  66 104 130 180 219 281 336 400
#     4  11  25  40  66 103 133 174 224 273 333 393
#
# _framework density 21.394400000000001
#
# number of rings (size 3 to 8) (size 9 to 14) (size 15 to 20)
#    0.000    2.000    1.250    2.250   12.250    1.000 
#    4.500    0.000    0.000    0.000    0.000    0.000 
#    0.000    0.000    0.000    0.000    0.000    0.000 
#
# Total GULP energy -198221.568849 kJ/mol
# GULP energy per Si atom -12388.848053 kJ/mol
# Density = 2.134571 g / cm^3
# Si number density = 21.394400 Si / 1000 Ang^3
#
#
#
# Elastic Constant Matrix: (Units=GPa)
#
#
# Indices 1 2 3 4 5 6 
#
# 1 107.3372 52.7535 48.2773 0.0000 6.3754 0.0000
# 2 52.7535 97.3547 53.7629 0.0000 1.3007 0.0000
# 3 48.2773 53.7629 127.6794 0.0000 -1.7182 0.0000
# 4 0.0000 0.0000 0.0000 27.2070 0.0000 1.6755
# 5 6.3754 1.3007 -1.7182 0.0000 30.2522 0.0000
# 6 0.0000 0.0000 0.0000 1.6755 0.0000 22.3857
#
#
#
# Elastic Compliance Matrix: (Units=1/GPa)
#
#
# Indices 1 2 3 4 5 6 
#
# 1 0.013558 -0.005809 -0.002718 0.000000 -0.002762 0.000000
# 2 -0.005809 0.015897 -0.004494 0.000000 0.000285 0.000000
# 3 -0.002718 -0.004494 0.010770 0.000000 0.001378 0.000000
# 4 0.000000 0.000000 0.000000 0.036925 0.000000 -0.002764
# 5 -0.002762 0.000285 0.001378 0.000000 0.033703 0.000000
# 6 0.000000 0.000000 0.000000 -0.002764 0.000000 0.044878
#
#
# Mechanical properties :
#
#
# Convention : Reuss Voigt Hill
#
# Bulk Modulus (GPa) = 70.49677 71.32874 70.91275
# Shear Modulus (GPa) = 26.80957 27.80750 27.30853
#
# Velocity S-wave (km/s) = 3.54377 3.60912 3.57660
# Velocity P-wave (km/s) = 7.05457 7.12601 7.09038
#
# Compressibility (1/GPa) = 0.01418505
#
# Stress axis : x y z
#
# Youngs Moduli (GPa) = 73.75921 62.90453 92.84742
#
# Poissons Ratio (x) = 0.36540 0.25231
# Poissons Ratio (y) = 0.42846 0.41723
# Poissons Ratio (z) = 0.20044 0.28267
#
# Static dielectric constant tensor:
#      x y z
#    x 3.806020 0.000000 0.011220 
#    y 0.000000 3.795470 0.000000 
#    z 0.011220 0.000000 4.053420 
# 
# 
# High freq. dielectric constant tensor:
#      x y z
#    x 1.832830 0.000000 0.006610 
#    y 0.000000 1.827020 0.000000 
#    z 0.006610 0.000000 1.852310 
# 
# From -- ./inp_files/9422.got.cif
#   From: 2010.03.12/outbox.cif.g09.slc.cpg/sg3_5_cif.got.tgz:9422.got - 2010.03.31 09:20:49.
