data_PCOD8045741
_publ_section_title
;
Structure prediction by ZEFSAII (Michael W. Deem and Ramdas Pophale) SiO2 
 PCOD8045741
Probable space group: P 21
;
_chemical_formula_sum "Si O2"
_cell_formula_units_Z 12
_cell_length_a 8.574197
_cell_length_b 8.595209
_cell_length_c 14.204686
_cell_angle_alpha 90.000000
_cell_angle_beta 145.920357
_cell_angle_gamma 90.000000
_cell_volume 586.592959
_symmetry_space_group_name_H-M "P 21"
_symmetry_group_IT_number 4
_symmetry_cell_setting 'monoclinic'
loop_
_space_group_symop_operation_xyz
x,y,z
-x,1/2+y,-z
loop_
_atom_site_type_symbol
_atom_site_label
_atom_site_fract_x
_atom_site_fract_y
_atom_site_fract_z
Si Si1 0.246850 0.229180 0.560046
Si Si2 0.691542 0.768269 0.012145
Si Si3 0.750877 0.731183 0.647715
Si Si4 0.751213 0.433356 0.103396
Si Si5 0.691524 0.396295 0.679426
Si Si6 0.753181 0.435047 0.313282
O O1 0.148193 0.173687 0.406124
O O2 0.528298 0.333132 0.690346
O O3 0.999984 0.332066 0.482753
O O4 0.317307 0.082069 0.658578
O O5 0.691588 0.581448 0.008411
O O6 0.528228 0.828671 0.024541
O O7 0.528304 0.831172 0.837946
O O8 0.999905 0.832442 0.167300
O O9 0.691081 0.583128 0.683019
O O10 0.999836 0.832290 0.818583
O O11 0.471496 0.835881 0.496179
O O12 0.851978 0.490701 0.258119
#
# Coordination Sequence:
#
# PCOD8045741 Si02
#       6
#     2   2   2   2   2   2
#     4   9  21  39  57  83 121 158 194 230 295 354
#     4  10  19  34  60  87 116 148 199 247 285 335
#     4   9  19  35  60  87 116 151 198 238 292 342
#     4   9  19  35  60  87 116 151 198 238 292 342
#     4  10  19  34  60  87 116 148 199 247 285 335
#     4   9  21  39  57  83 121 158 194 230 295 354
#
# _framework density 20.457115999999999
#
# number of rings (size 3 to 8) (size 9 to 14) (size 15 to 20)
#    2.000    0.667    0.000    2.000    0.000    1.333 
#    0.000    1.667    0.000    0.000    0.000    0.000 
#    0.000    0.000    0.000    0.000    0.000    0.000 
#
# Total GULP energy -148688.314870 kJ/mol
# GULP energy per Si atom -12390.692906 kJ/mol
# Density = 2.041055 g / cm^3
# Si number density = 20.457116 Si / 1000 Ang^3
#
#
#
# Elastic Constant Matrix: (Units=GPa)
#
#
# Indices 1 2 3 4 5 6 
#
# 1 32.7156 47.7764 36.0897 0.0000 9.5205 0.0000
# 2 47.7764 184.4549 80.0254 0.0000 17.0592 0.0000
# 3 36.0897 80.0254 144.7350 0.0000 50.2634 0.0000
# 4 0.0000 0.0000 0.0000 48.5181 0.0000 2.8191
# 5 9.5205 17.0592 50.2634 0.0000 28.9869 0.0000
# 6 0.0000 0.0000 0.0000 2.8191 0.0000 43.2704
#
#
#
# Elastic Compliance Matrix: (Units=1/GPa)
#
#
# Indices 1 2 3 4 5 6 
#
# 1 0.055179 -0.010601 -0.009477 0.000000 0.004550 0.000000
# 2 -0.010601 0.009716 -0.004907 0.000000 0.006273 0.000000
# 3 -0.009477 -0.004907 0.024890 0.000000 -0.037159 0.000000
# 4 0.000000 0.000000 0.000000 0.020689 0.000000 -0.001348
# 5 0.004550 0.006273 -0.037159 0.000000 0.093746 0.000000
# 6 0.000000 0.000000 0.000000 -0.001348 0.000000 0.023198
#
#
# Mechanical properties :
#
#
# Convention : Reuss Voigt Hill
#
# Bulk Modulus (GPa) = 25.11708 76.63206 50.87457
# Shear Modulus (GPa) = 17.20223 37.35600 27.27912
#
# Velocity S-wave (km/s) = 2.90296 4.27788 3.65564
# Velocity P-wave (km/s) = 4.85189 7.87030 6.53767
#
# Compressibility (1/GPa) = 0.03981355
#
# Stress axis : x y z
#
# Youngs Moduli (GPa) = 18.12295 102.92283 40.17687
#
# Poissons Ratio (x) = 1.09109 0.38077
# Poissons Ratio (y) = 0.19212 0.19715
# Poissons Ratio (z) = 0.17176 0.50505
#
# Static dielectric constant tensor:
#      x y z
#    x 3.165160 0.000000 0.227930 
#    y 0.000000 3.711130 0.000000 
#    z 0.227930 0.000000 3.590260 
# 
# 
# High freq. dielectric constant tensor:
#      x y z
#    x 1.747330 0.000000 0.027260 
#    y 0.000000 1.800570 0.000000 
#    z 0.027260 0.000000 1.798150 
# 
# From -- ./inp_files/14942.got.cif
#   From: 2010.03.12/outbox.cif.g09.slc.cpg/sg4_8_cif.got.tgz:14942.got - 2010.03.31 09:31:35.
