data_PCOD8045961
_publ_section_title
;
Structure prediction by ZEFSAII (Michael W. Deem and Ramdas Pophale) SiO2 
 PCOD8045961
Probable space group: P 21
;
_chemical_formula_sum "Si O2"
_cell_formula_units_Z 10
_cell_length_a 7.011661
_cell_length_b 12.001450
_cell_length_c 7.645219
_cell_angle_alpha 90.000000
_cell_angle_beta 53.701887
_cell_angle_gamma 90.000000
_cell_volume 518.503228
_symmetry_space_group_name_H-M "P 21"
_symmetry_group_IT_number 4
_symmetry_cell_setting 'monoclinic'
loop_
_space_group_symop_operation_xyz
x,y,z
-x,1/2+y,-z
loop_
_atom_site_type_symbol
_atom_site_label
_atom_site_fract_x
_atom_site_fract_y
_atom_site_fract_z
Si Si1 0.578315 0.783560 0.882983
Si Si2 0.864037 0.576914 0.648773
Si Si3 0.057716 0.463962 0.229128
Si Si4 0.659986 0.134442 0.739101
Si Si5 0.268142 0.973206 0.919000
O O1 0.656344 0.668665 0.745651
O O2 0.818997 0.845371 0.806714
O O3 0.427198 0.753334 0.139936
O O4 0.413787 0.857152 0.845726
O O5 0.117869 0.643043 0.513550
O O6 0.858925 0.492079 0.485767
O O7 0.842261 0.502710 0.833440
O O8 0.262632 0.558285 0.133693
O O9 0.945028 0.462061 0.099755
O O10 0.442442 0.071953 0.761153
#
# Coordination Sequence:
#
# PCOD8045961 Si02
#       5
#     2   2   2   2   2
#     4  10  20  38  60  87 116 151 192 240 279 339
#     4   9  21  41  58  81 121 150 188 239 284 340
#     4   9  21  40  58  86 114 153 192 233 286 341
#     4   8  20  39  57  81 117 149 188 235 282 333
#     4  10  20  40  59  83 118 151 190 241 281 335
#
# _framework density 19.286283999999998
#
# number of rings (size 3 to 8) (size 9 to 14) (size 15 to 20)
#    1.200    1.600    0.000    0.000    2.800    3.200 
#   14.400    0.000    0.000    0.000    0.000    0.000 
#    0.000    0.000    0.000    0.000    0.000    0.000 
#
# Total GULP energy -123888.468051 kJ/mol
# GULP energy per Si atom -12388.846805 kJ/mol
# Density = 1.924239 g / cm^3
# Si number density = 19.286284 Si / 1000 Ang^3
#
#
#
# Elastic Constant Matrix: (Units=GPa)
#
#
# Indices 1 2 3 4 5 6 
#
# 1 97.8627 37.5675 10.7457 0.0000 4.1497 0.0000
# 2 37.5675 73.6473 32.8595 0.0000 3.6046 0.0000
# 3 10.7457 32.8595 101.2434 0.0000 -0.5497 0.0000
# 4 0.0000 0.0000 0.0000 42.6007 0.0000 -7.6712
# 5 4.1497 3.6046 -0.5497 0.0000 24.2828 0.0000
# 6 0.0000 0.0000 0.0000 -7.6712 0.0000 13.7222
#
#
#
# Elastic Compliance Matrix: (Units=1/GPa)
#
#
# Indices 1 2 3 4 5 6 
#
# 1 0.012806 -0.006860 0.000861 0.000000 -0.001151 0.000000
# 2 -0.006860 0.019703 -0.005677 0.000000 -0.001881 0.000000
# 3 0.000861 -0.005677 0.011633 0.000000 0.000959 0.000000
# 4 0.000000 0.000000 0.000000 0.026101 0.000000 0.014592
# 5 -0.001151 -0.001881 0.000959 0.000000 0.041679 0.000000
# 6 0.000000 0.000000 0.000000 0.014592 0.000000 0.081032
#
#
# Mechanical properties :
#
#
# Convention : Reuss Voigt Hill
#
# Bulk Modulus (GPa) = 48.09937 48.34433 48.22185
# Shear Modulus (GPa) = 22.39780 28.89318 25.64549
#
# Velocity S-wave (km/s) = 3.41153 3.87476 3.65050
# Velocity P-wave (km/s) = 6.36489 6.71859 6.54413
#
# Compressibility (1/GPa) = 0.02079029
#
# Stress axis : x y z
#
# Youngs Moduli (GPa) = 78.08733 50.75487 85.95919
#
# Poissons Ratio (x) = 0.34820 -0.07402
# Poissons Ratio (y) = 0.53571 0.48797
# Poissons Ratio (z) = -0.06724 0.28812
#
# Static dielectric constant tensor:
#      x y z
#    x 3.084820 0.000000 -0.241450 
#    y 0.000000 3.445600 0.000000 
#    z -0.241450 0.000000 3.482020 
# 
# 
# High freq. dielectric constant tensor:
#      x y z
#    x 1.716220 0.000000 -0.024250 
#    y 0.000000 1.750910 0.000000 
#    z -0.024250 0.000000 1.751190 
# 
# From -- ./inp_files/316.got.cif
#   From: 2010.03.12/outbox.cif.g09.slc.cpg/sg4_1_cif.got.tgz:316.got - 2010.03.31 09:31:35.
