data_PCOD8045710
_publ_section_title
;
Structure prediction by ZEFSAII (Michael W. Deem and Ramdas Pophale) SiO2 
 PCOD8045710
Probable space group: P 21
;
_chemical_formula_sum "Si O2"
_cell_formula_units_Z 12
_cell_length_a 9.216493
_cell_length_b 14.569247
_cell_length_c 9.216417
_cell_angle_alpha 90.000000
_cell_angle_beta 31.187526
_cell_angle_gamma 90.000000
_cell_volume 640.857045
_symmetry_space_group_name_H-M "P 21"
_symmetry_group_IT_number 4
_symmetry_cell_setting 'monoclinic'
loop_
_space_group_symop_operation_xyz
x,y,z
-x,1/2+y,-z
loop_
_atom_site_type_symbol
_atom_site_label
_atom_site_fract_x
_atom_site_fract_y
_atom_site_fract_z
Si Si1 0.291086 0.730590 0.664551
Si Si2 0.036014 0.817143 0.629884
Si Si3 0.583902 0.929073 0.177396
Si Si4 0.129904 0.247904 0.536003
Si Si5 0.835447 0.834459 0.208912
Si Si6 0.322587 0.635975 0.916104
O O1 0.126428 0.728411 0.651431
O O2 0.616618 0.752321 0.356092
O O3 0.271222 0.640680 0.784329
O O4 0.143905 0.812728 0.883381
O O5 0.014818 0.782520 0.485179
O O6 0.743822 0.859312 0.933327
O O7 0.262118 0.898401 0.453043
O O8 0.715667 0.924366 0.228772
O O9 0.603407 0.032526 0.103418
O O10 0.151440 0.336638 0.626423
O O11 0.433358 0.205742 0.243801
O O12 0.953071 0.166644 0.762108
#
# Coordination Sequence:
#
# PCOD8045710 Si02
#       6
#     2   2   2   2   2   2
#     4   8  16  30  49  69  92 126 162 189 233 297
#     4  10  19  33  53  74 100 134 165 199 249 305
#     4  10  19  33  51  73  99 130 168 210 245 284
#     4  10  19  33  53  74 100 134 165 199 249 305
#     4   8  16  30  49  69  92 126 162 189 233 297
#     4  10  19  33  51  73  99 130 168 210 245 284
#
# _framework density 18.724926
#
# number of rings (size 3 to 8) (size 9 to 14) (size 15 to 20)
#    0.000    2.667    0.000    2.000    0.000    0.000 
#    0.000    3.333    0.000    0.000    0.000    0.000 
#    0.000    0.000    0.000    0.000    0.000    0.000 
#
# Total GULP energy -148667.732260 kJ/mol
# GULP energy per Si atom -12388.977688 kJ/mol
# Density = 1.868231 g / cm^3
# Si number density = 18.724926 Si / 1000 Ang^3
#
#
#
# Elastic Constant Matrix: (Units=GPa)
#
#
# Indices 1 2 3 4 5 6 
#
# 1 128.5745 25.3687 12.1799 0.0000 20.2901 0.0000
# 2 25.3687 48.8039 3.6158 0.0000 6.2817 0.0000
# 3 12.1799 3.6158 70.0033 0.0000 -3.3847 0.0000
# 4 0.0000 0.0000 0.0000 18.5127 0.0000 -1.0554
# 5 20.2901 6.2817 -3.3847 0.0000 29.8840 0.0000
# 6 0.0000 0.0000 0.0000 -1.0554 0.0000 14.8570
#
#
#
# Elastic Compliance Matrix: (Units=1/GPa)
#
#
# Indices 1 2 3 4 5 6 
#
# 1 0.009695 -0.004149 -0.001758 0.000000 -0.005910 0.000000
# 2 -0.004149 0.022955 -0.000564 0.000000 -0.002072 0.000000
# 3 -0.001758 -0.000564 0.014764 0.000000 0.002985 0.000000
# 4 0.000000 0.000000 0.000000 0.054236 0.000000 0.003853
# 5 -0.005910 -0.002072 0.002985 0.000000 0.038249 0.000000
# 6 0.000000 0.000000 0.000000 0.003853 0.000000 0.067582
#
#
# Mechanical properties :
#
#
# Convention : Reuss Voigt Hill
#
# Bulk Modulus (GPa) = 29.00843 36.63448 32.82145
# Shear Modulus (GPa) = 21.55957 26.39859 23.97908
#
# Velocity S-wave (km/s) = 3.39689 3.75882 3.58242
# Velocity P-wave (km/s) = 5.55973 6.20043 5.88880
#
# Compressibility (1/GPa) = 0.03447273
#
# Stress axis : x y z
#
# Youngs Moduli (GPa) = 103.14208 43.56302 67.73042
#
# Poissons Ratio (x) = 0.18073 0.11909
# Poissons Ratio (y) = 0.42791 0.03820
# Poissons Ratio (z) = 0.18136 0.02457
#
# Static dielectric constant tensor:
#      x y z
#    x 3.519270 0.000000 -0.009820 
#    y 0.000000 2.971830 0.000000 
#    z -0.009820 0.000000 3.553200 
# 
# 
# High freq. dielectric constant tensor:
#      x y z
#    x 1.724370 0.000000 -0.007810 
#    y 0.000000 1.668760 0.000000 
#    z -0.007810 0.000000 1.751410 
# 
# From -- ./inp_files/1071.got.cif
#   From: 2010.03.12/outbox.cif.g09.slc.cpg/sg4_1_cif.got.tgz:1071.got - 2010.03.31 09:31:35.
