data_PCOD8045244
_publ_section_title
;
Structure prediction by ZEFSAII (Michael W. Deem and Ramdas Pophale) SiO2 
 PCOD8045244
Probable space group: P 2
;
_chemical_formula_sum "Si O2"
_cell_formula_units_Z 16
_cell_length_a 9.289465
_cell_length_b 6.739778
_cell_length_c 21.145656
_cell_angle_alpha 90.000000
_cell_angle_beta 38.403874
_cell_angle_gamma 90.000000
_cell_volume 822.412004
_symmetry_space_group_name_H-M "P 2"
_symmetry_group_IT_number 3
_symmetry_cell_setting 'monoclinic'
loop_
_space_group_symop_operation_xyz
x,y,z
-x,y,-z
loop_
_atom_site_type_symbol
_atom_site_label
_atom_site_fract_x
_atom_site_fract_y
_atom_site_fract_z
Si Si1 0.681190 0.870400 0.206751
Si Si2 0.094522 0.326799 0.252464
Si Si3 0.544019 0.632915 0.913833
Si Si4 0.011517 0.596743 0.395396
Si Si5 0.964699 0.539885 0.944400
Si Si6 0.792387 0.264310 0.238406
Si Si7 0.376365 0.545414 0.372759
Si Si8 0.709967 0.933770 0.756533
O O1 0.534710 0.734336 0.304534
O O2 0.523596 0.954156 0.204230
O O3 0.893954 0.745944 0.105118
O O4 0.786567 0.046199 0.211810
O O5 0.293865 0.438867 0.144429
O O6 0.977746 0.474052 0.343010
O O7 0.897542 0.251395 0.272469
O O8 0.203324 0.148881 0.254707
O O9 0.663013 0.813865 0.836773
O O10 0.500000 0.703341 0.000000
O O11 0.305163 0.581165 0.963572
O O12 0.210409 0.496042 0.370465
O O13 0.090942 0.821344 0.352318
O O14 0.768492 0.600718 0.515132
O O15 0.041226 0.398252 0.861704
O O16 0.000000 0.433303 0.000000
O O17 0.533255 0.352415 0.331092
#
# Coordination Sequence:
#
# PCOD8045244 Si02
#       8
#     2   2   2   2   2   2   2   2
#     4  10  22  38  60  89 116 150 196 245 286 338
#     4  11  24  38  58  89 121 156 191 234 294 352
#     4  11  23  41  58  83 120 159 195 239 290 345
#     4   9  20  41  65  86 113 153 193 240 294 345
#     4  11  23  41  60  85 116 155 201 243 286 337
#     4  11  24  38  58  89 122 152 192 242 288 347
#     4   9  20  41  65  86 114 150 195 244 289 341
#     4  10  22  38  60  87 118 152 195 240 287 348
#
# _framework density 19.454965999999999
#
# number of rings (size 3 to 8) (size 9 to 14) (size 15 to 20)
#    0.000    1.750    2.500    0.750    5.250    4.500 
#    0.000    2.500    0.000    0.000    0.000    0.000 
#    0.000    0.000    0.000    0.000    0.000    0.000 
#
# Total GULP energy -198452.897979 kJ/mol
# GULP energy per Si atom -12403.306124 kJ/mol
# Density = 1.941069 g / cm^3
# Si number density = 19.454966 Si / 1000 Ang^3
#
#
#
# Elastic Constant Matrix: (Units=GPa)
#
#
# Indices 1 2 3 4 5 6 
#
# 1 102.7134 25.3032 14.3238 0.0000 10.9325 0.0000
# 2 25.3032 72.0658 9.5411 0.0000 1.0400 0.0000
# 3 14.3238 9.5411 92.5972 0.0000 6.6362 0.0000
# 4 0.0000 0.0000 0.0000 10.4630 0.0000 3.7643
# 5 10.9325 1.0400 6.6362 0.0000 31.0637 0.0000
# 6 0.0000 0.0000 0.0000 3.7643 0.0000 29.1227
#
#
#
# Elastic Compliance Matrix: (Units=1/GPa)
#
#
# Indices 1 2 3 4 5 6 
#
# 1 0.011188 -0.003732 -0.001090 0.000000 -0.003580 0.000000
# 2 -0.003732 0.015314 -0.001074 0.000000 0.001030 0.000000
# 3 -0.001090 -0.001074 0.011220 0.000000 -0.001978 0.000000
# 4 0.000000 0.000000 0.000000 0.100236 0.000000 -0.012956
# 5 -0.003580 0.001030 -0.001978 0.000000 0.033840 0.000000
# 6 0.000000 0.000000 0.000000 -0.012956 0.000000 0.036012
#
#
# Mechanical properties :
#
#
# Convention : Reuss Voigt Hill
#
# Bulk Modulus (GPa) = 38.56542 40.63474 39.60008
# Shear Modulus (GPa) = 21.90613 28.67712 25.29163
#
# Velocity S-wave (km/s) = 3.35922 3.84347 3.60947
# Velocity P-wave (km/s) = 5.90862 6.37403 6.14573
#
# Compressibility (1/GPa) = 0.02592997
#
# Stress axis : x y z
#
# Youngs Moduli (GPa) = 89.37932 65.29935 89.12304
#
# Poissons Ratio (x) = 0.24372 0.09711
# Poissons Ratio (y) = 0.33360 0.09576
# Poissons Ratio (z) = 0.09738 0.07016
#
# Static dielectric constant tensor:
#      x y z
#    x 3.676400 0.000000 0.003290 
#    y 0.000000 3.391590 0.000000 
#    z 0.003290 0.000000 3.641700 
# 
# 
# High freq. dielectric constant tensor:
#      x y z
#    x 1.766620 0.000000 0.004320 
#    y 0.000000 1.747010 0.000000 
#    z 0.004320 0.000000 1.763170 
# 
# From -- ./inp_files/9326.got.cif
#   From: 2010.03.12/outbox.cif.g09.slc.cpg/sg3_5_cif.got.tgz:9326.got - 2010.03.31 09:20:49.
