data_PCOD8045224
_publ_section_title
;
Structure prediction by ZEFSAII (Michael W. Deem and Ramdas Pophale) SiO2 
 PCOD8045224
Probable space group: P 2
;
_chemical_formula_sum "Si O2"
_cell_formula_units_Z 14
_cell_length_a 9.654264
_cell_length_b 6.578306
_cell_length_c 14.359048
_cell_angle_alpha 90.000000
_cell_angle_beta 44.818474
_cell_angle_gamma 90.000000
_cell_volume 642.781812
_symmetry_space_group_name_H-M "P 2"
_symmetry_group_IT_number 3
_symmetry_cell_setting 'monoclinic'
loop_
_space_group_symop_operation_xyz
x,y,z
-x,y,-z
loop_
_atom_site_type_symbol
_atom_site_label
_atom_site_fract_x
_atom_site_fract_y
_atom_site_fract_z
Si Si1 0.555069 0.162270 0.171372
Si Si2 0.079314 0.918963 0.673022
Si Si3 0.806506 0.233515 0.543278
Si Si4 0.358735 0.604660 0.484651
Si Si5 0.321522 0.881197 0.735016
Si Si6 0.688680 0.851877 0.960206
Si Si7 0.205559 0.552477 0.928818
O O1 0.327566 0.135396 0.311122
O O2 0.620376 0.395850 0.133788
O O3 0.686944 0.062184 0.188144
O O4 0.598079 0.051040 0.053663
O O5 0.143969 0.686780 0.617642
O O6 0.205673 0.976427 0.703577
O O7 0.848137 0.921304 0.807193
O O8 0.126401 0.076666 0.568226
O O9 0.673299 0.416571 0.567996
O O10 0.000000 0.322462 0.500000
O O11 0.500000 0.525531 0.500000
O O12 0.457041 0.809591 0.395258
O O13 0.230371 0.679139 0.822398
O O14 0.500000 0.746797 0.000000
O O15 0.795790 0.700832 0.980997
O O16 0.000000 0.442088 0.000000
#
# Coordination Sequence:
#
# PCOD8045224 Si02
#       7
#     2   2   2   2   2   2   2
#     4  11  25  41  71  97 132 172 220 274 326 388
#     4  11  24  42  68  96 133 172 221 269 325 389
#     4  12  26  42  66 101 133 173 218 269 331 393
#     4  10  23  41  67  97 128 168 217 275 327 383
#     4  10  21  43  66  99 130 168 219 275 327 381
#     4  11  26  46  66  94 137 182 216 264 328 394
#     4  11  23  41  70 100 130 170 224 271 326 386
#
# _framework density 21.780328999999998
#
# number of rings (size 3 to 8) (size 9 to 14) (size 15 to 20)
#    0.000    1.143    4.286    0.857    4.000    3.429 
#    0.000    0.000    0.000    0.000    0.000    0.000 
#    0.000    0.000    0.000    0.000    0.000    0.000 
#
# Total GULP energy -173503.909865 kJ/mol
# GULP energy per Si atom -12393.136419 kJ/mol
# Density = 2.173076 g / cm^3
# Si number density = 21.780329 Si / 1000 Ang^3
#
#
#
# Elastic Constant Matrix: (Units=GPa)
#
#
# Indices 1 2 3 4 5 6 
#
# 1 103.8094 23.9891 32.9863 0.0000 -13.5506 0.0000
# 2 23.9891 61.8978 23.3139 0.0000 -2.9686 0.0000
# 3 32.9863 23.3139 135.5133 0.0000 -17.9019 0.0000
# 4 0.0000 0.0000 0.0000 25.5914 0.0000 -4.9027
# 5 -13.5506 -2.9686 -17.9019 0.0000 30.7697 0.0000
# 6 0.0000 0.0000 0.0000 -4.9027 0.0000 15.6560
#
#
#
# Elastic Compliance Matrix: (Units=1/GPa)
#
#
# Indices 1 2 3 4 5 6 
#
# 1 0.011496 -0.003644 -0.001678 0.000000 0.003735 0.000000
# 2 -0.003644 0.018430 -0.002449 0.000000 -0.001252 0.000000
# 3 -0.001678 -0.002449 0.008753 0.000000 0.004117 0.000000
# 4 0.000000 0.000000 0.000000 0.041569 0.000000 0.013017
# 5 0.003735 -0.001252 0.004117 0.000000 0.036419 0.000000
# 6 0.000000 0.000000 0.000000 0.013017 0.000000 0.067950
#
#
# Mechanical properties :
#
#
# Convention : Reuss Voigt Hill
#
# Bulk Modulus (GPa) = 43.22107 51.31102 47.26605
# Shear Modulus (GPa) = 24.05325 29.13217 26.59271
#
# Velocity S-wave (km/s) = 3.32679 3.66121 3.49800
# Velocity P-wave (km/s) = 5.88591 6.44067 6.16953
#
# Compressibility (1/GPa) = 0.02313686
#
# Stress axis : x y z
#
# Youngs Moduli (GPa) = 86.98769 54.25812 114.24582
#
# Poissons Ratio (x) = 0.19773 0.19170
# Poissons Ratio (y) = 0.31700 0.27980
# Poissons Ratio (z) = 0.14596 0.13288
#
# Static dielectric constant tensor:
#      x y z
#    x 3.839800 0.000000 -0.006810 
#    y 0.000000 3.571710 0.000000 
#    z -0.006810 0.000000 4.260240 
# 
# 
# High freq. dielectric constant tensor:
#      x y z
#    x 1.852890 0.000000 -0.001030 
#    y 0.000000 1.836720 0.000000 
#    z -0.001030 0.000000 1.874700 
# 
# From -- ./inp_files/12102.got.cif
#   From: 2010.03.12/outbox.cif.g09.slc.cpg/sg3_7_cif.got.tgz:12102.got - 2010.03.31 09:20:49.
