data_PCOD8045958
_publ_section_title
;
Structure prediction by ZEFSAII (Michael W. Deem and Ramdas Pophale) SiO2 
 PCOD8045958
Probable space group: P 21
;
_chemical_formula_sum "Si O2"
_cell_formula_units_Z 16
_cell_length_a 10.697287
_cell_length_b 14.051337
_cell_length_c 8.089049
_cell_angle_alpha 90.000000
_cell_angle_beta 40.647336
_cell_angle_gamma 90.000000
_cell_volume 792.022232
_symmetry_space_group_name_H-M "P 21"
_symmetry_group_IT_number 4
_symmetry_cell_setting 'monoclinic'
loop_
_space_group_symop_operation_xyz
x,y,z
-x,1/2+y,-z
loop_
_atom_site_type_symbol
_atom_site_label
_atom_site_fract_x
_atom_site_fract_y
_atom_site_fract_z
Si Si1 0.121052 0.081840 0.020111
Si Si2 0.611859 0.665386 0.989837
Si Si3 0.427185 0.065095 0.457015
Si Si4 0.599249 0.472564 0.835883
Si Si5 0.121228 0.884682 0.210385
Si Si6 0.680402 0.849057 0.705689
Si Si7 0.590705 0.256851 0.249127
Si Si8 0.317082 0.642658 0.547479
O O1 0.234725 0.159290 0.014944
O O2 0.211949 0.082293 0.744248
O O3 0.903919 0.116177 0.231308
O O4 0.141899 0.975467 0.070726
O O5 0.397005 0.656647 0.282573
O O6 0.656622 0.580069 0.820887
O O7 0.629744 0.764846 0.881423
O O8 0.426371 0.972255 0.338483
O O9 0.509293 0.154688 0.265927
O O10 0.569184 0.055026 0.474220
O O11 0.772131 0.403843 0.721626
O O12 0.403085 0.444288 0.126140
O O13 0.903517 0.860134 0.460701
O O14 0.214516 0.790814 0.035260
O O15 0.576371 0.833001 0.631492
O O16 0.638679 0.241718 0.395802
#
# Coordination Sequence:
#
# PCOD8045958 Si02
#       8
#     2   2   2   2   2   2   2   2
#     4  10  21  38  60  89 121 154 201 247 297 353
#     4  10  20  38  59  85 121 155 193 251 296 361
#     4   9  20  39  61  85 115 158 194 245 297 355
#     4  10  21  40  59  87 119 154 202 248 297 355
#     4  10  23  38  58  92 119 153 201 252 294 358
#     4  11  22  39  62  87 120 162 197 247 307 345
#     4   9  21  38  61  82 117 156 199 240 295 363
#     4   9  20  36  60  85 110 160 197 234 301 346
#
# _framework density 20.201453000000001
#
# number of rings (size 3 to 8) (size 9 to 14) (size 15 to 20)
#    0.750    1.500    1.250    0.750    1.750    5.000 
#    4.500    2.500    0.000    0.000    0.000    0.000 
#    0.000    0.000    0.000    0.000    0.000    0.000 
#
# Total GULP energy -198223.898036 kJ/mol
# GULP energy per Si atom -12388.993627 kJ/mol
# Density = 2.015547 g / cm^3
# Si number density = 20.201453 Si / 1000 Ang^3
#
#
#
# Elastic Constant Matrix: (Units=GPa)
#
#
# Indices 1 2 3 4 5 6 
#
# 1 60.3579 22.3966 43.5435 0.0000 -12.9345 0.0000
# 2 22.3966 64.6935 29.8465 0.0000 1.0109 0.0000
# 3 43.5435 29.8465 126.7466 0.0000 -36.4648 0.0000
# 4 0.0000 0.0000 0.0000 32.4985 0.0000 7.0365
# 5 -12.9345 1.0109 -36.4648 0.0000 34.8141 0.0000
# 6 0.0000 0.0000 0.0000 7.0365 0.0000 20.4747
#
#
#
# Elastic Compliance Matrix: (Units=1/GPa)
#
#
# Indices 1 2 3 4 5 6 
#
# 1 0.023484 -0.005363 -0.006083 0.000000 0.002509 0.000000
# 2 -0.005363 0.019785 -0.005089 0.000000 -0.007897 0.000000
# 3 -0.006083 -0.005089 0.015129 0.000000 0.013734 0.000000
# 4 0.000000 0.000000 0.000000 0.033244 0.000000 -0.011425
# 5 0.002509 -0.007897 0.013734 0.000000 0.044271 0.000000
# 6 0.000000 0.000000 0.000000 -0.011425 0.000000 0.052767
#
#
# Mechanical properties :
#
#
# Convention : Reuss Voigt Hill
#
# Bulk Modulus (GPa) = 39.47997 49.26347 44.37172
# Shear Modulus (GPa) = 21.72090 27.95821 24.83955
#
# Velocity S-wave (km/s) = 3.28260 3.72421 3.51036
# Velocity P-wave (km/s) = 5.82691 6.55225 6.20020
#
# Compressibility (1/GPa) = 0.02532930
#
# Stress axis : x y z
#
# Youngs Moduli (GPa) = 42.58218 50.54321 66.09735
#
# Poissons Ratio (x) = 0.27105 0.40208
# Poissons Ratio (y) = 0.22836 0.33634
# Poissons Ratio (z) = 0.25903 0.25719
#
# Static dielectric constant tensor:
#      x y z
#    x 3.764100 0.000000 -0.005960 
#    y 0.000000 3.602490 0.000000 
#    z -0.005960 0.000000 3.577050 
# 
# 
# High freq. dielectric constant tensor:
#      x y z
#    x 1.790070 0.000000 -0.002600 
#    y 0.000000 1.774550 0.000000 
#    z -0.002600 0.000000 1.782940 
# 
# From -- ./inp_files/8501.got.cif
#   From: 2010.03.12/outbox.cif.g09.slc.cpg/sg4_5_cif.got.tgz:8501.got - 2010.03.31 09:31:35.
