data_PCOD8045931
_publ_section_title
;
Structure prediction by ZEFSAII (Michael W. Deem and Ramdas Pophale) SiO2 
 PCOD8045931
Probable space group: P 21
;
_chemical_formula_sum "Si O2"
_cell_formula_units_Z 16
_cell_length_a 6.216757
_cell_length_b 14.579283
_cell_length_c 11.199659
_cell_angle_alpha 90.000000
_cell_angle_beta 49.655672
_cell_angle_gamma 90.000000
_cell_volume 773.669360
_symmetry_space_group_name_H-M "P 21"
_symmetry_group_IT_number 4
_symmetry_cell_setting 'monoclinic'
loop_
_space_group_symop_operation_xyz
x,y,z
-x,1/2+y,-z
loop_
_atom_site_type_symbol
_atom_site_label
_atom_site_fract_x
_atom_site_fract_y
_atom_site_fract_z
Si Si1 0.078876 0.171930 0.707536
Si Si2 0.571376 0.740913 0.805786
Si Si3 0.041182 0.088277 0.238464
Si Si4 0.309640 0.341636 0.480282
Si Si5 0.495685 0.773566 0.087897
Si Si6 0.729051 0.436207 0.695691
Si Si7 0.554813 0.512710 0.514256
Si Si8 0.982807 0.659178 0.997932
O O1 0.261017 0.260455 0.596239
O O2 0.174505 0.077596 0.609190
O O3 0.133956 0.145562 0.826386
O O4 0.748457 0.195483 0.802419
O O5 0.851829 0.682941 0.738376
O O6 0.594884 0.801032 0.679624
O O7 0.487754 0.802981 0.950933
O O8 0.316185 0.671796 0.875156
O O9 0.724364 0.074362 0.401734
O O10 0.240195 0.006755 0.207875
O O11 0.067937 0.080866 0.084297
O O12 0.537544 0.417472 0.444168
O O13 0.026054 0.394600 0.550169
O O14 0.468844 0.857899 0.184216
O O15 0.809429 0.743020 0.005807
O O16 0.572464 0.484232 0.644248
#
# Coordination Sequence:
#
# PCOD8045931 Si02
#       8
#     2   2   2   2   2   2   2   2
#     4  10  21  38  58  86 121 153 195 246 294 352
#     4  10  21  40  60  86 117 153 199 241 292 355
#     4  10  21  37  59  84 113 155 197 241 297 351
#     4  10  22  38  60  89 120 155 197 245 298 351
#     4   9  21  38  59  83 116 158 195 242 296 345
#     4  10  21  38  56  83 120 152 195 248 295 350
#     4  11  23  38  62  91 118 157 198 241 300 355
#     4  10  20  37  60  82 111 157 200 236 292 351
#
# _framework density 20.680671
#
# number of rings (size 3 to 8) (size 9 to 14) (size 15 to 20)
#    0.000    2.000    0.000    3.000    0.000    9.000 
#    0.000    7.500    0.000    0.000    0.000    0.000 
#    0.000    0.000    0.000    0.000    0.000    0.000 
#
# Total GULP energy -198211.111683 kJ/mol
# GULP energy per Si atom -12388.194480 kJ/mol
# Density = 2.063360 g / cm^3
# Si number density = 20.680671 Si / 1000 Ang^3
#
#
#
# Elastic Constant Matrix: (Units=GPa)
#
#
# Indices 1 2 3 4 5 6 
#
# 1 101.5996 39.3597 44.6893 0.0000 22.7858 0.0000
# 2 39.3597 92.3740 53.7976 0.0000 13.6859 0.0000
# 3 44.6893 53.7976 106.9961 0.0000 25.9971 0.0000
# 4 0.0000 0.0000 0.0000 34.0739 0.0000 11.8385
# 5 22.7858 13.6859 25.9971 0.0000 28.6531 0.0000
# 6 0.0000 0.0000 0.0000 11.8385 0.0000 30.1001
#
#
#
# Elastic Compliance Matrix: (Units=1/GPa)
#
#
# Indices 1 2 3 4 5 6 
#
# 1 0.013819 -0.003504 -0.002240 0.000000 -0.007283 0.000000
# 2 -0.003504 0.016201 -0.007028 0.000000 0.001426 0.000000
# 3 -0.002240 -0.007028 0.016121 0.000000 -0.009488 0.000000
# 4 0.000000 0.000000 0.000000 0.033993 0.000000 -0.013370
# 5 -0.007283 0.001426 -0.009488 0.000000 0.048620 0.000000
# 6 0.000000 0.000000 0.000000 -0.013370 0.000000 0.038481
#
#
# Mechanical properties :
#
#
# Convention : Reuss Voigt Hill
#
# Bulk Modulus (GPa) = 48.55642 64.07367 56.31505
# Shear Modulus (GPa) = 25.04441 29.44028 27.24234
#
# Velocity S-wave (km/s) = 3.48373 3.77711 3.63338
# Velocity P-wave (km/s) = 6.30174 7.07614 6.70014
#
# Compressibility (1/GPa) = 0.02059460
#
# Stress axis : x y z
#
# Youngs Moduli (GPa) = 72.36483 61.72518 62.03051
#
# Poissons Ratio (x) = 0.21631 0.13896
# Poissons Ratio (y) = 0.25360 0.43598
# Poissons Ratio (z) = 0.16211 0.43383
#
# Static dielectric constant tensor:
#      x y z
#    x 3.951140 0.000000 0.082010 
#    y 0.000000 3.788340 0.000000 
#    z 0.082010 0.000000 3.874340 
# 
# 
# High freq. dielectric constant tensor:
#      x y z
#    x 1.822480 0.000000 0.009170 
#    y 0.000000 1.793020 0.000000 
#    z 0.009170 0.000000 1.809170 
# 
# From -- ./inp_files/1596.got.cif
#   From: 2010.03.12/outbox.cif.g09.slc.cpg/sg4_1_cif.got.tgz:1596.got - 2010.03.31 09:31:35.
