data_PCOD8045634
_publ_section_title
;
Structure prediction by ZEFSAII (Michael W. Deem and Ramdas Pophale) SiO2 
 PCOD8045634
Probable space group: P 21
;
_chemical_formula_sum "Si O2"
_cell_formula_units_Z 12
_cell_length_a 9.321627
_cell_length_b 7.895240
_cell_length_c 8.724442
_cell_angle_alpha 90.000000
_cell_angle_beta 116.101877
_cell_angle_gamma 90.000000
_cell_volume 576.603693
_symmetry_space_group_name_H-M "P 21"
_symmetry_group_IT_number 4
_symmetry_cell_setting 'monoclinic'
loop_
_space_group_symop_operation_xyz
x,y,z
-x,1/2+y,-z
loop_
_atom_site_type_symbol
_atom_site_label
_atom_site_fract_x
_atom_site_fract_y
_atom_site_fract_z
Si Si1 0.692878 0.847150 0.608219
Si Si2 0.352809 0.208604 0.074246
Si Si3 0.652711 0.065449 0.060441
Si Si4 0.983982 0.206041 0.195596
Si Si5 0.587886 0.186542 0.689710
Si Si6 0.843619 0.434619 0.890078
O O1 0.649815 0.769303 0.752280
O O2 0.590329 0.748334 0.433032
O O3 0.881095 0.816222 0.650896
O O4 0.651568 0.046051 0.598634
O O5 0.321349 0.361496 0.938488
O O6 0.217988 0.061858 0.003338
O O7 0.521027 0.115694 0.122313
O O8 0.591748 0.121444 0.865164
O O9 0.811962 0.167680 0.192165
O O10 0.957546 0.297248 0.020645
O O11 0.054088 0.022666 0.192830
O O12 0.700112 0.349608 0.728662
#
# Coordination Sequence:
#
# PCOD8045634 Si02
#       6
#     2   2   2   2   2   2
#     4  10  20  34  55  79 105 138 175 213 257 306
#     4  10  20  34  55  78 105 140 175 210 257 314
#     4  10  20  34  55  79 105 138 175 213 257 306
#     4  10  18  30  52  78 104 132 174 218 254 296
#     4  10  20  34  55  78 105 140 175 210 257 314
#     4  10  18  32  52  78 104 136 174 216 254 304
#
# _framework density 20.811522
#
# number of rings (size 3 to 8) (size 9 to 14) (size 15 to 20)
#    0.000    2.000    0.000    8.000    0.000    0.000 
#    0.000    0.000    0.000   32.000    0.000    0.000 
#    0.000    0.000    0.000    0.000    0.000    0.000 
#
# Total GULP energy -148695.203323 kJ/mol
# GULP energy per Si atom -12391.266944 kJ/mol
# Density = 2.076415 g / cm^3
# Si number density = 20.811522 Si / 1000 Ang^3
#
#
#
# Elastic Constant Matrix: (Units=GPa)
#
#
# Indices 1 2 3 4 5 6 
#
# 1 88.7923 18.0869 24.6930 0.0000 19.2556 0.0000
# 2 18.0869 92.6905 18.1719 0.0000 9.2400 0.0000
# 3 24.6930 18.1719 61.4411 0.0000 33.5246 0.0000
# 4 0.0000 0.0000 0.0000 25.7967 0.0000 8.1280
# 5 19.2556 9.2400 33.5246 0.0000 34.4920 0.0000
# 6 0.0000 0.0000 0.0000 8.1280 0.0000 34.0917
#
#
#
# Elastic Compliance Matrix: (Units=1/GPa)
#
#
# Indices 1 2 3 4 5 6 
#
# 1 0.013260 -0.001675 -0.002213 0.000000 -0.004803 0.000000
# 2 -0.001675 0.011668 -0.003369 0.000000 0.001084 0.000000
# 3 -0.002213 -0.003369 0.036186 0.000000 -0.033032 0.000000
# 4 0.000000 0.000000 0.000000 0.041913 0.000000 -0.009993
# 5 -0.004803 0.001084 -0.033032 0.000000 0.063489 0.000000
# 6 0.000000 0.000000 0.000000 -0.009993 0.000000 0.031715
#
#
# Mechanical properties :
#
#
# Convention : Reuss Voigt Hill
#
# Bulk Modulus (GPa) = 21.45978 40.53639 30.99808
# Shear Modulus (GPa) = 21.90302 31.00757 26.45530
#
# Velocity S-wave (km/s) = 3.24766 3.86414 3.56924
# Velocity P-wave (km/s) = 4.93933 6.27924 5.64915
#
# Compressibility (1/GPa) = 0.04659880
#
# Stress axis : x y z
#
# Youngs Moduli (GPa) = 75.41199 85.70537 27.63537
#
# Poissons Ratio (x) = 0.14354 0.06117
# Poissons Ratio (y) = 0.12630 0.09311
# Poissons Ratio (z) = 0.16692 0.28877
#
# Static dielectric constant tensor:
#      x y z
#    x 3.785410 0.000000 0.394520 
#    y 0.000000 4.347140 0.000000 
#    z 0.394520 0.000000 3.383920 
# 
# 
# High freq. dielectric constant tensor:
#      x y z
#    x 1.806460 0.000000 0.033370 
#    y 0.000000 1.839690 0.000000 
#    z 0.033370 0.000000 1.768690 
# 
# From -- ./inp_files/5213.got.cif
#   From: 2010.03.12/outbox.cif.g09.slc.cpg/sg4_3_cif.got.tgz:5213.got - 2010.03.31 09:31:35.
