data_PCOD8045883
_publ_section_title
;
Structure prediction by ZEFSAII (Michael W. Deem and Ramdas Pophale) SiO2 
 PCOD8045883
Probable space group: P 21
;
_chemical_formula_sum "Si O2"
_cell_formula_units_Z 14
_cell_length_a 13.876566
_cell_length_b 4.990309
_cell_length_c 21.655244
_cell_angle_alpha 90.000000
_cell_angle_beta 27.611490
_cell_angle_gamma 90.000000
_cell_volume 695.020574
_symmetry_space_group_name_H-M "P 21"
_symmetry_group_IT_number 4
_symmetry_cell_setting 'monoclinic'
loop_
_space_group_symop_operation_xyz
x,y,z
-x,1/2+y,-z
loop_
_atom_site_type_symbol
_atom_site_label
_atom_site_fract_x
_atom_site_fract_y
_atom_site_fract_z
Si Si1 0.359749 0.658050 0.223967
Si Si2 0.360705 0.741024 0.358297
Si Si3 0.047322 0.506362 0.690537
Si Si4 0.411690 0.257140 0.409652
Si Si5 0.407824 0.974513 0.022593
Si Si6 0.612611 0.115338 0.413491
Si Si7 0.913238 0.665745 0.643467
O O1 0.459693 0.737803 0.233376
O O2 0.237935 0.381134 0.299719
O O3 0.199480 0.878909 0.290304
O O4 0.545072 0.612412 0.070015
O O5 0.472571 0.530674 0.340148
O O6 0.120047 0.656938 0.484150
O O7 0.378775 0.034441 0.376594
O O8 0.202760 0.289894 0.570127
O O9 0.157910 0.643304 0.687009
O O10 0.831895 0.379365 0.837331
O O11 0.991202 0.727203 0.669628
O O12 0.605376 0.190024 0.344998
O O13 0.454992 0.205114 0.047118
O O14 0.463731 0.310096 0.537263
#
# Coordination Sequence:
#
# PCOD8045883 Si02
#       7
#     2   2   2   2   2   2   2
#     4  12  22  37  53  80 116 154 194 227 277 346
#     4  11  22  35  57  81 114 151 189 239 292 330
#     4  10  21  37  60  84 119 152 189 241 292 345
#     4  10  21  37  58  86 112 144 192 245 294 337
#     4  12  24  39  56  83 120 161 195 231 278 351
#     4  10  20  35  58  87 112 142 187 243 303 343
#     4  11  20  34  54  81 113 146 192 234 282 342
#
# _framework density 20.143288999999999
#
# number of rings (size 3 to 8) (size 9 to 14) (size 15 to 20)
#    0.000    1.143    2.857    6.000    0.000    3.429 
#    0.000    0.000    0.000    1.714    0.000    0.000 
#    0.000    0.000    0.000    0.000    0.000    0.000 
#
# Total GULP energy -173549.025692 kJ/mol
# GULP energy per Si atom -12396.358978 kJ/mol
# Density = 2.009744 g / cm^3
# Si number density = 20.143289 Si / 1000 Ang^3
#
#
#
# Elastic Constant Matrix: (Units=GPa)
#
#
# Indices 1 2 3 4 5 6 
#
# 1 129.1032 13.3805 37.4273 0.0000 5.4258 0.0000
# 2 13.3805 70.3564 5.5977 0.0000 1.1676 0.0000
# 3 37.4273 5.5977 55.2418 0.0000 5.9950 0.0000
# 4 0.0000 0.0000 0.0000 16.7557 0.0000 -0.5350
# 5 5.4258 1.1676 5.9950 0.0000 28.1372 0.0000
# 6 0.0000 0.0000 0.0000 -0.5350 0.0000 27.3601
#
#
#
# Elastic Compliance Matrix: (Units=1/GPa)
#
#
# Indices 1 2 3 4 5 6 
#
# 1 0.009769 -0.001338 -0.006433 0.000000 -0.000458 0.000000
# 2 -0.001338 0.014515 -0.000539 0.000000 -0.000229 0.000000
# 3 -0.006433 -0.000539 0.022908 0.000000 -0.003618 0.000000
# 4 0.000000 0.000000 0.000000 0.059719 0.000000 0.001168
# 5 -0.000458 -0.000229 -0.003618 0.000000 0.036409 0.000000
# 6 0.000000 0.000000 0.000000 0.001168 0.000000 0.036572
#
#
# Mechanical properties :
#
#
# Convention : Reuss Voigt Hill
#
# Bulk Modulus (GPa) = 32.71180 40.83472 36.77326
# Shear Modulus (GPa) = 24.18935 27.67031 25.92983
#
# Velocity S-wave (km/s) = 3.46911 3.71033 3.59175
# Velocity P-wave (km/s) = 5.68516 6.21864 5.95788
#
# Compressibility (1/GPa) = 0.03057001
#
# Stress axis : x y z
#
# Youngs Moduli (GPa) = 102.36796 68.89624 43.65264
#
# Poissons Ratio (x) = 0.09221 0.28083
# Poissons Ratio (y) = 0.13701 0.02353
# Poissons Ratio (z) = 0.65855 0.03714
#
# Static dielectric constant tensor:
#      x y z
#    x 3.873070 0.000000 0.050700 
#    y 0.000000 3.601560 0.000000 
#    z 0.050700 0.000000 3.375530 
# 
# 
# High freq. dielectric constant tensor:
#      x y z
#    x 1.793760 0.000000 0.011150 
#    y 0.000000 1.793240 0.000000 
#    z 0.011150 0.000000 1.735880 
# 
# From -- ./inp_files/15655.got.cif
#   From: 2010.03.12/outbox.cif.g09.slc.cpg/sg4_8_cif.got.tgz:15655.got - 2010.03.31 09:31:35.
