data_PCOD8045075
_publ_section_title
;
Structure prediction by ZEFSAII (Michael W. Deem and Ramdas Pophale) SiO2 
 PCOD8045075
Probable space group: P 2
;
_chemical_formula_sum "Si O2"
_cell_formula_units_Z 16
_cell_length_a 8.086276
_cell_length_b 6.832299
_cell_length_c 13.338652
_cell_angle_alpha 90.000000
_cell_angle_beta 71.681241
_cell_angle_gamma 90.000000
_cell_volume 699.586141
_symmetry_space_group_name_H-M "P 2"
_symmetry_group_IT_number 3
_symmetry_cell_setting 'monoclinic'
loop_
_space_group_symop_operation_xyz
x,y,z
-x,y,-z
loop_
_atom_site_type_symbol
_atom_site_label
_atom_site_fract_x
_atom_site_fract_y
_atom_site_fract_z
Si Si1 0.755012 0.340130 0.734173
Si Si2 0.595656 0.931540 0.291126
Si Si3 0.081493 0.066922 0.657982
Si Si4 0.583343 0.218634 0.122354
Si Si5 0.082490 0.714256 0.226117
Si Si6 0.689200 0.869847 0.986909
Si Si7 0.642175 0.173595 0.548395
Si Si8 0.766500 0.604201 0.157426
O O1 0.611581 0.308124 0.850492
O O2 0.799604 0.567328 0.733780
O O3 0.669937 0.308265 0.640468
O O4 0.930711 0.217201 0.716483
O O5 0.629898 0.701939 0.263037
O O6 0.768357 0.056501 0.287059
O O7 0.538584 0.034106 0.200693
O O8 0.444555 0.964183 0.402455
O O9 0.169963 0.128851 0.535847
O O10 0.004082 0.847340 0.670562
O O11 0.714013 0.385214 0.137205
O O12 0.667804 0.106059 0.011131
O O13 0.195073 0.856979 0.134345
O O14 0.949819 0.594600 0.179999
O O15 0.500000 0.775501 0.000000
O O16 0.780879 0.746864 0.058419
O O17 0.500000 0.274819 0.500000
#
# Coordination Sequence:
#
# PCOD8045075 Si02
#       8
#     2   2   2   2   2   2   2   2
#     4  11  22  38  64  96 128 165 210 265 320 376
#     4   8  18  37  62  88 120 162 208 257 307 369
#     4  10  20  39  62  88 125 163 209 264 316 370
#     4  10  21  38  61  88 123 165 204 251 312 372
#     4  11  24  41  64  95 129 166 211 263 317 375
#     4  11  23  40  61  89 124 164 212 256 306 375
#     4   9  19  39  65  91 124 171 216 260 320 378
#     4  10  21  40  64  93 127 164 208 256 310 375
#
# _framework density 22.870661999999999
#
# number of rings (size 3 to 8) (size 9 to 14) (size 15 to 20)
#    0.000    2.000    0.000    3.000    0.000    4.500 
#    0.000   11.250    0.000   12.000    0.000    0.000 
#    0.000    0.000    0.000    0.000    0.000    0.000 
#
# Total GULP energy -198221.061723 kJ/mol
# GULP energy per Si atom -12388.816358 kJ/mol
# Density = 2.281861 g / cm^3
# Si number density = 22.870662 Si / 1000 Ang^3
#
#
#
# Elastic Constant Matrix: (Units=GPa)
#
#
# Indices 1 2 3 4 5 6 
#
# 1 95.5328 40.0940 39.0552 0.0000 -13.3064 0.0000
# 2 40.0940 117.3249 54.7619 0.0000 -10.5463 0.0000
# 3 39.0552 54.7619 86.6849 0.0000 -6.9175 0.0000
# 4 0.0000 0.0000 0.0000 26.4570 0.0000 3.2114
# 5 -13.3064 -10.5463 -6.9175 0.0000 38.8066 0.0000
# 6 0.0000 0.0000 0.0000 3.2114 0.0000 40.7330
#
#
#
# Elastic Compliance Matrix: (Units=1/GPa)
#
#
# Indices 1 2 3 4 5 6 
#
# 1 0.013717 -0.002312 -0.004458 0.000000 0.003281 0.000000
# 2 -0.002312 0.012625 -0.006820 0.000000 0.001422 0.000000
# 3 -0.004458 -0.006820 0.017837 0.000000 -0.000203 0.000000
# 4 0.000000 0.000000 0.000000 0.038162 0.000000 -0.003009
# 5 0.003281 0.001422 -0.000203 0.000000 0.027244 0.000000
# 6 0.000000 0.000000 0.000000 -0.003009 0.000000 0.024787
#
#
# Mechanical properties :
#
#
# Convention : Reuss Voigt Hill
#
# Bulk Modulus (GPa) = 58.82840 63.04052 60.93446
# Shear Modulus (GPa) = 29.90084 32.24142 31.07113
#
# Velocity S-wave (km/s) = 3.61971 3.75871 3.68986
# Velocity P-wave (km/s) = 6.57630 6.81623 6.69734
#
# Compressibility (1/GPa) = 0.01699859
#
# Stress axis : x y z
#
# Youngs Moduli (GPa) = 72.90053 79.20977 56.06352
#
# Poissons Ratio (x) = 0.18314 0.24992
# Poissons Ratio (y) = 0.16855 0.38237
# Poissons Ratio (z) = 0.32498 0.54023
#
# Static dielectric constant tensor:
#      x y z
#    x 4.283030 0.000000 -0.103140 
#    y 0.000000 3.892580 0.000000 
#    z -0.103140 0.000000 4.228430 
# 
# 
# High freq. dielectric constant tensor:
#      x y z
#    x 1.916580 0.000000 -0.002620 
#    y 0.000000 1.883000 0.000000 
#    z -0.002620 0.000000 1.896030 
# 
# From -- ./inp_files/13355.got.cif
#   From: 2010.03.12/outbox.cif.g09.slc.cpg/sg3_7_cif.got.tgz:13355.got - 2010.03.31 09:20:49.
