data_PCOD8045913
_publ_section_title
;
Structure prediction by ZEFSAII (Michael W. Deem and Ramdas Pophale) SiO2 
 PCOD8045913
Probable space group: P 21
;
_chemical_formula_sum "Si O2"
_cell_formula_units_Z 14
_cell_length_a 25.144209
_cell_length_b 4.918946
_cell_length_c 10.617680
_cell_angle_alpha 90.000000
_cell_angle_beta 147.972938
_cell_angle_gamma 90.000000
_cell_volume 696.430001
_symmetry_space_group_name_H-M "P 21"
_symmetry_group_IT_number 4
_symmetry_cell_setting 'monoclinic'
loop_
_space_group_symop_operation_xyz
x,y,z
-x,1/2+y,-z
loop_
_atom_site_type_symbol
_atom_site_label
_atom_site_fract_x
_atom_site_fract_y
_atom_site_fract_z
Si Si1 0.297183 0.156060 0.248537
Si Si2 0.993798 0.298381 0.406903
Si Si3 0.287596 0.030080 0.934885
Si Si4 0.928157 0.108653 0.854445
Si Si5 0.810194 0.176331 0.870749
Si Si6 0.176763 0.515017 0.614803
Si Si7 0.502329 0.353163 0.590986
O O1 0.219272 0.378114 0.142474
O O2 0.411470 0.256477 0.497907
O O3 0.283665 0.883427 0.304920
O O4 0.277046 0.100166 0.061041
O O5 0.980210 0.492596 0.499911
O O6 0.082291 0.403698 0.498877
O O7 0.892139 0.307035 0.125987
O O8 0.266639 0.297419 0.809192
O O9 0.209085 0.799495 0.739267
O O10 0.401120 0.935028 0.132186
O O11 0.853127 0.170954 0.817216
O O12 0.853978 0.044921 0.591311
O O13 0.999007 0.361613 0.963169
O O14 0.463314 0.610859 0.432799
#
# Coordination Sequence:
#
# PCOD8045913 Si02
#       7
#     2   2   2   2   2   2   2
#     4  11  22  39  62  96 126 156 199 251 319 367
#     4  12  24  36  56  88 124 156 188 248 318 360
#     4  11  22  39  62  96 126 156 199 251 319 367
#     4  12  26  46  62  82 120 174 226 248 294 360
#     4  12  24  40  61  87 124 164 207 256 293 368
#     4  12  24  40  61  87 124 164 207 256 293 368
#     4  10  20  36  62  94 130 164 194 246 310 388
#
# _framework density 20.102523000000001
#
# number of rings (size 3 to 8) (size 9 to 14) (size 15 to 20)
#    0.000    0.571    1.429   10.286    2.000    0.000 
#    0.000    0.000    0.000    3.429    0.000    2.000 
#    0.000    0.000    0.000    0.000    0.000    0.000 
#
# Total GULP energy -173665.599234 kJ/mol
# GULP energy per Si atom -12404.685660 kJ/mol
# Density = 2.005677 g / cm^3
# Si number density = 20.102523 Si / 1000 Ang^3
#
#
#
# Elastic Constant Matrix: (Units=GPa)
#
#
# Indices 1 2 3 4 5 6 
#
# 1 101.5404 31.0482 71.1483 0.0000 -4.6850 0.0000
# 2 31.0482 115.2615 30.1344 0.0000 -3.4566 0.0000
# 3 71.1483 30.1344 94.7602 0.0000 -3.5011 0.0000
# 4 0.0000 0.0000 0.0000 344.7196 0.0000 -338.5367
# 5 -4.6850 -3.4566 -3.5011 0.0000 21.0015 0.0000
# 6 0.0000 0.0000 0.0000 -338.5367 0.0000 433.4380
#
#
#
# Elastic Compliance Matrix: (Units=1/GPa)
#
#
# Indices 1 2 3 4 5 6 
#
# 1 0.021150 -0.001644 -0.015287 0.000000 0.001899 0.000000
# 2 -0.001644 0.009614 -0.001789 0.000000 0.000917 0.000000
# 3 -0.015287 -0.001789 0.022602 0.000000 0.000063 0.000000
# 4 0.000000 0.000000 0.000000 0.012452 0.000000 0.009726
# 5 0.001899 0.000917 0.000063 0.000000 0.048201 0.000000
# 6 0.000000 0.000000 0.000000 0.009726 0.000000 0.009904
#
#
# Mechanical properties :
#
#
# Convention : Reuss Voigt Hill
#
# Bulk Modulus (GPa) = 62.78988 64.02488 63.40738
# Shear Modulus (GPa) = 29.99901 171.78056 100.88979
#
# Velocity S-wave (km/s) = 3.86722 9.25407 7.09201
# Velocity P-wave (km/s) = 7.15843 12.08727 9.93341
#
# Compressibility (1/GPa) = 0.01592613
#
# Stress axis : x y z
#
# Youngs Moduli (GPa) = 47.28134 104.01512 44.24326
#
# Poissons Ratio (x) = 0.17095 0.67635
# Poissons Ratio (y) = 0.07771 0.07917
# Poissons Ratio (z) = 0.72280 0.18613
#
# Static dielectric constant tensor:
#      x y z
#    x 3.461040 0.000000 0.823650 
#    y 0.000000 4.223890 0.000000 
#    z 0.823650 0.000000 -0.766310 
# 
# 
# High freq. dielectric constant tensor:
#      x y z
#    x 1.766500 0.000000 0.022270 
#    y 0.000000 1.815690 0.000000 
#    z 0.022270 0.000000 1.774590 
# 
# From -- ./inp_files/9795.got.cif
#   From: 2010.03.12/outbox.cif.g09.slc.cpg/sg4_5_cif.got.tgz:9795.got - 2010.03.31 09:31:35.
