data_PCOD8045666
_publ_section_title
;
Structure prediction by ZEFSAII (Michael W. Deem and Ramdas Pophale) SiO2 
 PCOD8045666
Probable space group: P 21
;
_chemical_formula_sum "Si O2"
_cell_formula_units_Z 12
_cell_length_a 7.601990
_cell_length_b 4.936991
_cell_length_c 17.705476
_cell_angle_alpha 90.000000
_cell_angle_beta 64.552233
_cell_angle_gamma 90.000000
_cell_volume 600.031579
_symmetry_space_group_name_H-M "P 21"
_symmetry_group_IT_number 4
_symmetry_cell_setting 'monoclinic'
loop_
_space_group_symop_operation_xyz
x,y,z
-x,1/2+y,-z
loop_
_atom_site_type_symbol
_atom_site_label
_atom_site_fract_x
_atom_site_fract_y
_atom_site_fract_z
Si Si1 0.407417 0.870420 0.712301
Si Si2 0.228128 0.922435 0.149999
Si Si3 0.177528 0.335825 0.712775
Si Si4 0.535444 0.918801 0.850511
Si Si5 0.553609 0.607203 0.445653
Si Si6 0.119391 0.917681 0.999843
O O1 0.312679 0.584103 0.711834
O O2 0.546095 0.854629 0.759314
O O3 0.232068 0.087712 0.759686
O O4 0.534100 0.980365 0.616558
O O5 0.400279 0.723500 0.143701
O O6 0.049716 0.903294 0.241910
O O7 0.314491 0.223369 0.134327
O O8 0.150542 0.852463 0.081742
O O9 0.234820 0.237227 0.616456
O O10 0.318592 0.868455 0.918981
O O11 0.578317 0.355199 0.498914
O O12 0.954059 0.723086 0.996645
#
# Coordination Sequence:
#
# PCOD8045666 Si02
#       6
#     2   2   2   2   2   2
#     4  10  20  36  60  88 116 152 206 240 296 345
#     4  12  24  39  60  90 126 161 197 242 304 352
#     4  10  20  36  60  88 116 152 206 240 296 345
#     4  12  24  39  60  90 126 161 197 242 304 352
#     4  10  18  34  62  92 110 148 204 256 288 346
#     4  12  24  42  64  86 124 160 210 248 280 344
#
# _framework density 19.998947000000001
#
# number of rings (size 3 to 8) (size 9 to 14) (size 15 to 20)
#    1.000    0.000    1.667    7.000    0.000    0.000 
#    0.000    0.000    0.000    4.000    0.000    0.000 
#    0.000    0.000    0.000    0.000    0.000    0.000 
#
# Total GULP energy -148731.738673 kJ/mol
# GULP energy per Si atom -12394.311556 kJ/mol
# Density = 1.995343 g / cm^3
# Si number density = 19.998947 Si / 1000 Ang^3
#
#
#
# Elastic Constant Matrix: (Units=GPa)
#
#
# Indices 1 2 3 4 5 6 
#
# 1 68.2483 17.0744 41.7902 0.0000 1.0855 0.0000
# 2 17.0744 99.0900 28.2364 0.0000 2.6496 0.0000
# 3 41.7902 28.2364 125.9789 0.0000 -2.0852 0.0000
# 4 0.0000 0.0000 0.0000 26.3501 0.0000 2.0488
# 5 1.0855 2.6496 -2.0852 0.0000 16.1004 0.0000
# 6 0.0000 0.0000 0.0000 2.0488 0.0000 42.7277
#
#
#
# Elastic Compliance Matrix: (Units=1/GPa)
#
#
# Indices 1 2 3 4 5 6 
#
# 1 0.018656 -0.001491 -0.005884 0.000000 -0.001775 0.000000
# 2 -0.001491 0.010970 -0.001997 0.000000 -0.001963 0.000000
# 3 -0.005884 -0.001997 0.010372 0.000000 0.002069 0.000000
# 4 0.000000 0.000000 0.000000 0.038093 0.000000 -0.001827
# 5 -0.001775 -0.001963 0.002069 0.000000 0.062821 0.000000
# 6 0.000000 0.000000 0.000000 -0.001827 0.000000 0.023492
#
#
# Mechanical properties :
#
#
# Convention : Reuss Voigt Hill
#
# Bulk Modulus (GPa) = 47.04734 51.94659 49.49696
# Shear Modulus (GPa) = 26.28377 30.78338 28.53357
#
# Velocity S-wave (km/s) = 3.62920 3.92758 3.78134
# Velocity P-wave (km/s) = 6.41385 6.82634 6.62331
#
# Compressibility (1/GPa) = 0.02125519
#
# Stress axis : x y z
#
# Youngs Moduli (GPa) = 53.60066 91.15598 96.41778
#
# Poissons Ratio (x) = 0.13588 0.56733
# Poissons Ratio (y) = 0.07990 0.19253
# Poissons Ratio (z) = 0.31539 0.18203
#
# Static dielectric constant tensor:
#      x y z
#    x 3.217000 0.000000 -0.052990 
#    y 0.000000 3.799800 0.000000 
#    z -0.052990 0.000000 3.784470 
# 
# 
# High freq. dielectric constant tensor:
#      x y z
#    x 1.737660 0.000000 -0.003110 
#    y 0.000000 1.808460 0.000000 
#    z -0.003110 0.000000 1.786010 
# 
# From -- ./inp_files/3925.got.cif
#   From: 2010.03.12/outbox.cif.g09.slc.cpg/sg4_2_cif.got.tgz:3925.got - 2010.03.31 09:31:35.
