data_PCOD8045872
_publ_section_title
;
Structure prediction by ZEFSAII (Michael W. Deem and Ramdas Pophale) SiO2 
 PCOD8045872
Probable space group: P 21
;
_chemical_formula_sum "Si O2"
_cell_formula_units_Z 16
_cell_length_a 5.397294
_cell_length_b 8.414542
_cell_length_c 19.852394
_cell_angle_alpha 90.000000
_cell_angle_beta 122.909283
_cell_angle_gamma 90.000000
_cell_volume 756.931572
_symmetry_space_group_name_H-M "P 21"
_symmetry_group_IT_number 4
_symmetry_cell_setting 'monoclinic'
loop_
_space_group_symop_operation_xyz
x,y,z
-x,1/2+y,-z
loop_
_atom_site_type_symbol
_atom_site_label
_atom_site_fract_x
_atom_site_fract_y
_atom_site_fract_z
Si Si1 0.836407 0.515760 0.174226
Si Si2 0.910059 0.999125 0.649404
Si Si3 0.858302 0.322936 0.429606
Si Si4 0.691014 0.648872 0.650556
Si Si5 0.857449 0.137235 0.172919
Si Si6 0.337266 0.072878 0.499417
Si Si7 0.831212 0.016287 0.910410
Si Si8 0.186804 0.139021 0.088284
O O1 0.845303 0.326487 0.172798
O O2 0.499311 0.580677 0.123353
O O3 0.968083 0.579591 0.264528
O O4 0.033055 0.580040 0.140677
O O5 0.659472 0.107381 0.578438
O O6 0.794385 0.824388 0.647682
O O7 0.155877 0.964552 0.628441
O O8 0.640052 0.181820 0.371142
O O9 0.785811 0.408548 0.488880
O O10 0.167326 0.236789 0.488607
O O11 0.662088 0.539192 0.580528
O O12 0.914351 0.570948 0.737205
O O13 0.525820 0.073814 0.138903
O O14 0.990529 0.073632 0.121657
O O15 0.819514 0.827627 0.909692
O O16 0.047389 0.079238 0.999069
#
# Coordination Sequence:
#
# PCOD8045872 Si02
#       8
#     2   2   2   2   2   2   2   2
#     4   9  19  32  56  84 107 140 187 232 269 323
#     4   9  19  32  53  81 110 143 192 237 273 327
#     4  10  20  34  58  78 114 150 192 236 288 334
#     4   9  19  32  53  81 110 143 192 237 273 327
#     4   9  19  32  56  84 107 140 187 232 269 323
#     4  10  20  34  54  84 112 152 184 242 282 340
#     4  10  20  35  57  81 109 141 178 226 280 336
#     4  10  20  35  57  81 109 141 178 226 280 336
#
# _framework density 21.137974
#
# number of rings (size 3 to 8) (size 9 to 14) (size 15 to 20)
#    0.000    2.500    0.000    1.500   12.250    0.000 
#    0.000    0.000    2.750    3.000    0.000    0.000 
#    0.000    0.000    0.000    0.000    0.000    0.000 
#
# Total GULP energy -198232.235127 kJ/mol
# GULP energy per Si atom -12389.514695 kJ/mol
# Density = 2.108986 g / cm^3
# Si number density = 21.137974 Si / 1000 Ang^3
#
#
#
# Elastic Constant Matrix: (Units=GPa)
#
#
# Indices 1 2 3 4 5 6 
#
# 1 168.9706 18.0552 87.6877 0.0000 2.1330 0.0000
# 2 18.0552 14.0989 20.9154 0.0000 0.1807 0.0000
# 3 87.6877 20.9154 199.1768 0.0000 -3.0818 0.0000
# 4 0.0000 0.0000 0.0000 29.4664 0.0000 -0.6444
# 5 2.1330 0.1807 -3.0818 0.0000 17.1659 0.0000
# 6 0.0000 0.0000 0.0000 -0.6444 0.0000 18.1690
#
#
#
# Elastic Compliance Matrix: (Units=1/GPa)
#
#
# Indices 1 2 3 4 5 6 
#
# 1 0.008115 -0.005970 -0.002969 0.000000 -0.001479 0.000000
# 2 -0.005970 0.088511 -0.006688 0.000000 -0.001390 0.000000
# 3 -0.002969 -0.006688 0.007056 0.000000 0.001706 0.000000
# 4 0.000000 0.000000 0.000000 0.033963 0.000000 0.001205
# 5 -0.001479 -0.001390 0.001706 0.000000 0.058760 0.000000
# 6 0.000000 0.000000 0.000000 0.001205 0.000000 0.055082
#
#
# Mechanical properties :
#
#
# Convention : Reuss Voigt Hill
#
# Bulk Modulus (GPa) = 13.80633 70.61809 42.21221
# Shear Modulus (GPa) = 16.29280 29.99944 23.14612
#
# Velocity S-wave (km/s) = 2.77931 3.77134 3.31267
# Velocity P-wave (km/s) = 4.10428 7.24187 5.88599
#
# Compressibility (1/GPa) = 0.07243052
#
# Stress axis : x y z
#
# Youngs Moduli (GPa) = 123.22242 11.29799 141.71547
#
# Poissons Ratio (x) = 0.06744 0.42073
# Poissons Ratio (y) = 0.73558 0.94779
# Poissons Ratio (z) = 0.36583 0.07556
#
# Static dielectric constant tensor:
#      x y z
#    x 4.979940 0.000000 0.030830 
#    y 0.000000 3.167730 0.000000 
#    z 0.030830 0.000000 4.209090 
# 
# 
# High freq. dielectric constant tensor:
#      x y z
#    x 1.848160 0.000000 0.000600 
#    y 0.000000 1.765500 0.000000 
#    z 0.000600 0.000000 1.836550 
# 
# From -- ./inp_files/2977.got.cif
#   From: 2010.03.12/outbox.cif.g09.slc.cpg/sg4_2_cif.got.tgz:2977.got - 2010.03.31 09:31:35.
