data_PCOD8045615
_publ_section_title
;
Structure prediction by ZEFSAII (Michael W. Deem and Ramdas Pophale) SiO2 
 PCOD8045615
Probable space group: P 21
;
_chemical_formula_sum "Si O2"
_cell_formula_units_Z 16
_cell_length_a 23.996075
_cell_length_b 7.556384
_cell_length_c 8.991378
_cell_angle_alpha 90.000000
_cell_angle_beta 151.794142
_cell_angle_gamma 90.000000
_cell_volume 770.569398
_symmetry_space_group_name_H-M "P 21"
_symmetry_group_IT_number 4
_symmetry_cell_setting 'monoclinic'
loop_
_space_group_symop_operation_xyz
x,y,z
-x,1/2+y,-z
loop_
_atom_site_type_symbol
_atom_site_label
_atom_site_fract_x
_atom_site_fract_y
_atom_site_fract_z
Si Si1 0.848507 0.219520 0.983887
Si Si2 0.626370 0.644348 0.591133
Si Si3 0.097359 0.340744 0.505889
Si Si4 0.104809 0.730969 0.559687
Si Si5 0.406180 0.818905 0.666698
Si Si6 0.737293 0.544941 0.163920
Si Si7 0.521783 0.455630 0.852077
Si Si8 0.851867 0.816744 0.029366
O O1 0.861262 0.257488 0.188816
O O2 0.960334 0.293671 0.154312
O O3 0.829966 0.011657 0.915099
O O4 0.735354 0.319912 0.653912
O O5 0.556120 0.481625 0.351422
O O6 0.543813 0.818713 0.413613
O O7 0.664901 0.580364 0.843785
O O8 0.735556 0.696291 0.737910
O O9 0.136276 0.541177 0.562939
O O10 0.181773 0.214790 0.607126
O O11 0.118099 0.307295 0.727316
O O12 0.964001 0.742215 0.204586
O O13 0.175731 0.878072 0.637903
O O14 0.446795 0.634002 0.691733
O O15 0.466088 0.849902 0.965734
O O16 0.648836 0.510051 0.089881
#
# Coordination Sequence:
#
# PCOD8045615 Si02
#       8
#     2   2   2   2   2   2   2   2
#     4  10  17  33  66  90 122 166 208 251 304 381
#     4  11  23  41  65  95 123 168 217 262 313 368
#     4   9  19  33  58  98 129 156 198 259 321 369
#     4  10  18  33  59  98 131 155 193 262 327 363
#     4  12  24  45  65  87 123 174 220 255 310 384
#     4  11  24  39  63  97 130 157 208 270 319 367
#     4  12  28  44  64  91 127 172 217 264 311 374
#     4   9  17  32  60  96 127 154 205 259 307 372
#
# _framework density 20.763864999999999
#
# number of rings (size 3 to 8) (size 9 to 14) (size 15 to 20)
#    0.000    1.500    5.000    0.750    5.250    1.000 
#    0.000    0.000    5.500    0.000    0.000    0.000 
#    0.000    0.000    0.000    0.000    0.000    0.000 
#
# Total GULP energy -198382.850592 kJ/mol
# GULP energy per Si atom -12398.928162 kJ/mol
# Density = 2.071661 g / cm^3
# Si number density = 20.763865 Si / 1000 Ang^3
#
#
#
# Elastic Constant Matrix: (Units=GPa)
#
#
# Indices 1 2 3 4 5 6 
#
# 1 39.3422 22.1442 12.1784 0.0000 18.1715 0.0000
# 2 22.1442 135.4379 27.8931 0.0000 14.8440 0.0000
# 3 12.1784 27.8931 61.9780 0.0000 24.2135 0.0000
# 4 0.0000 0.0000 0.0000 36.8313 0.0000 4.0296
# 5 18.1715 14.8440 24.2135 0.0000 27.5632 0.0000
# 6 0.0000 0.0000 0.0000 4.0296 0.0000 14.6148
#
#
#
# Elastic Compliance Matrix: (Units=1/GPa)
#
#
# Indices 1 2 3 4 5 6 
#
# 1 0.039272 -0.004422 0.005265 0.000000 -0.028134 0.000000
# 2 -0.004422 0.008693 -0.003583 0.000000 0.001381 0.000000
# 3 0.005265 -0.003583 0.026363 0.000000 -0.024700 0.000000
# 4 0.000000 0.000000 0.000000 0.027995 0.000000 -0.007719
# 5 -0.028134 0.001381 -0.024700 0.000000 0.075782 0.000000
# 6 0.000000 0.000000 0.000000 -0.007719 0.000000 0.070552
#
#
# Mechanical properties :
#
#
# Convention : Reuss Voigt Hill
#
# Bulk Modulus (GPa) = 14.52492 40.13217 27.32855
# Shear Modulus (GPa) = 18.04491 27.43801 22.74146
#
# Velocity S-wave (km/s) = 2.95117 3.63909 3.31303
# Velocity P-wave (km/s) = 4.31544 6.08500 5.27495
#
# Compressibility (1/GPa) = 0.06884719
#
# Stress axis : x y z
#
# Youngs Moduli (GPa) = 25.46357 115.03573 37.93259
#
# Poissons Ratio (x) = 0.50865 -0.19970
# Poissons Ratio (y) = 0.11259 0.13591
# Poissons Ratio (z) = -0.13406 0.41217
#
# Static dielectric constant tensor:
#      x y z
#    x 3.215090 0.000000 0.280370 
#    y 0.000000 4.041430 0.000000 
#    z 0.280370 0.000000 3.844020 
# 
# 
# High freq. dielectric constant tensor:
#      x y z
#    x 1.756770 0.000000 0.022370 
#    y 0.000000 1.838170 0.000000 
#    z 0.022370 0.000000 1.813460 
# 
# From -- ./inp_files/9931.got.cif
#   From: 2010.03.12/outbox.cif.g09.slc.cpg/sg4_5_cif.got.tgz:9931.got - 2010.03.31 09:31:35.
