data_PCOD8045597
_publ_section_title
;
Structure prediction by ZEFSAII (Michael W. Deem and Ramdas Pophale) SiO2 
 PCOD8045597
Probable space group: P 21
;
_chemical_formula_sum "Si O2"
_cell_formula_units_Z 16
_cell_length_a 9.077725
_cell_length_b 11.855756
_cell_length_c 7.612396
_cell_angle_alpha 90.000000
_cell_angle_beta 93.362844
_cell_angle_gamma 90.000000
_cell_volume 817.860401
_symmetry_space_group_name_H-M "P 21"
_symmetry_group_IT_number 4
_symmetry_cell_setting 'monoclinic'
loop_
_space_group_symop_operation_xyz
x,y,z
-x,1/2+y,-z
loop_
_atom_site_type_symbol
_atom_site_label
_atom_site_fract_x
_atom_site_fract_y
_atom_site_fract_z
Si Si1 0.719504 0.908440 0.248538
Si Si2 0.129145 0.074885 0.082540
Si Si3 0.968567 0.255932 0.236284
Si Si4 0.960887 0.347410 0.846595
Si Si5 0.320647 0.656108 0.858605
Si Si6 0.634244 0.756359 0.933372
Si Si7 0.865843 0.116945 0.815355
Si Si8 0.213362 0.395842 0.365063
O O1 0.696664 0.873767 0.450266
O O2 0.893298 0.905395 0.219564
O O3 0.656107 0.034225 0.225839
O O4 0.631393 0.822288 0.118194
O O5 0.277725 0.138909 0.035171
O O6 0.054791 0.136131 0.246105
O O7 0.163262 0.945651 0.143931
O O8 0.013711 0.065068 0.912299
O O9 0.795788 0.233904 0.260410
O O10 0.047095 0.343222 0.373939
O O11 0.000768 0.296482 0.038991
O O12 0.902226 0.239720 0.728743
O O13 0.469579 0.726571 0.867340
O O14 0.261477 0.637461 0.050574
O O15 0.702686 0.836521 0.789270
O O16 0.803956 0.030027 0.667208
#
# Coordination Sequence:
#
# PCOD8045597 Si02
#       8
#     2   2   2   2   2   2   2   2
#     4  12  21  39  65  90 118 170 198 250 325 361
#     4   9  15  32  63  83 118 151 201 246 296 354
#     4   9  17  34  61  89 115 153 198 258 294 353
#     4  10  16  34  62  86 119 149 210 247 302 362
#     4  10  21  37  65  85 124 169 202 237 321 368
#     4  11  22  42  60  89 127 165 198 256 301 377
#     4  10  18  37  60  89 116 160 196 261 299 350
#     4  11  22  39  64  87 129 153 207 263 304 353
#
# _framework density 19.563241999999999
#
# number of rings (size 3 to 8) (size 9 to 14) (size 15 to 20)
#    0.000    2.000    8.750    0.000    0.000    3.000 
#    2.250    0.000    2.750    0.000    0.000    0.000 
#    0.000    0.000    0.000    0.000    0.000    0.000 
#
# Total GULP energy -198281.172556 kJ/mol
# GULP energy per Si atom -12392.573285 kJ/mol
# Density = 1.951872 g / cm^3
# Si number density = 19.563242 Si / 1000 Ang^3
#
#
#
# Elastic Constant Matrix: (Units=GPa)
#
#
# Indices 1 2 3 4 5 6 
#
# 1 98.2890 44.4631 21.3921 0.0000 12.8587 0.0000
# 2 44.4631 150.8565 41.7436 0.0000 12.2817 0.0000
# 3 21.3921 41.7436 62.0537 0.0000 14.7261 0.0000
# 4 0.0000 0.0000 0.0000 15.9968 0.0000 7.0196
# 5 12.8587 12.2817 14.7261 0.0000 11.5680 0.0000
# 6 0.0000 0.0000 0.0000 7.0196 0.0000 30.4163
#
#
#
# Elastic Compliance Matrix: (Units=1/GPa)
#
#
# Indices 1 2 3 4 5 6 
#
# 1 0.012972 -0.002952 0.000275 0.000000 -0.011635 0.000000
# 2 -0.002952 0.008863 -0.005001 0.000000 0.000238 0.000000
# 3 0.000275 -0.005001 0.026074 0.000000 -0.028188 0.000000
# 4 0.000000 0.000000 0.000000 0.069556 0.000000 -0.016052
# 5 -0.011635 0.000238 -0.028188 0.000000 0.135011 0.000000
# 6 0.000000 0.000000 0.000000 -0.016052 0.000000 0.036582
#
#
# Mechanical properties :
#
#
# Convention : Reuss Voigt Hill
#
# Bulk Modulus (GPa) = 30.71905 58.48853 44.60379
# Shear Modulus (GPa) = 15.85966 25.16957 20.51461
#
# Velocity S-wave (km/s) = 2.85034 3.59078 3.24177
# Velocity P-wave (km/s) = 5.15453 6.86685 6.07136
#
# Compressibility (1/GPa) = 0.03255309
#
# Stress axis : x y z
#
# Youngs Moduli (GPa) = 77.08996 112.82280 38.35257
#
# Poissons Ratio (x) = 0.33308 -0.01056
# Poissons Ratio (y) = 0.22759 0.19181
# Poissons Ratio (z) = -0.02122 0.56424
#
# Static dielectric constant tensor:
#      x y z
#    x 3.331230 0.000000 0.072390 
#    y 0.000000 4.008360 0.000000 
#    z 0.072390 0.000000 3.187390 
# 
# 
# High freq. dielectric constant tensor:
#      x y z
#    x 1.731490 0.000000 0.002910 
#    y 0.000000 1.783070 0.000000 
#    z 0.002910 0.000000 1.722230 
# 
# From -- ./inp_files/6121.got.cif
#   From: 2010.03.12/outbox.cif.g09.slc.cpg/sg4_4_cif.got.tgz:6121.got - 2010.03.31 09:31:35.
