data_PCOD8045918
_publ_section_title
;
Structure prediction by ZEFSAII (Michael W. Deem and Ramdas Pophale) SiO2 
 PCOD8045918
Probable space group: P 21
;
_chemical_formula_sum "Si O2"
_cell_formula_units_Z 10
_cell_length_a 14.682478
_cell_length_b 5.031152
_cell_length_c 9.085482
_cell_angle_alpha 90.000000
_cell_angle_beta 35.654615
_cell_angle_gamma 90.000000
_cell_volume 391.207487
_symmetry_space_group_name_H-M "P 21"
_symmetry_group_IT_number 4
_symmetry_cell_setting 'monoclinic'
loop_
_space_group_symop_operation_xyz
x,y,z
-x,1/2+y,-z
loop_
_atom_site_type_symbol
_atom_site_label
_atom_site_fract_x
_atom_site_fract_y
_atom_site_fract_z
Si Si1 0.948309 0.500000 0.983604
Si Si2 0.046919 0.116723 0.349891
Si Si3 0.338381 0.098288 0.488708
Si Si4 0.362687 0.351434 0.994129
Si Si5 0.662464 0.115098 0.686513
O O1 0.758907 0.546924 0.233352
O O2 0.020505 0.554197 0.725707
O O3 0.981342 0.197278 0.985803
O O4 0.227113 0.203140 0.084780
O O5 0.952563 0.353735 0.551188
O O6 0.301094 0.394843 0.485164
O O7 0.265067 0.894497 0.462322
O O8 0.524089 0.026510 0.263422
O O9 0.277472 0.538518 0.229132
O O10 0.471086 0.143005 0.943519
#
# Coordination Sequence:
#
# PCOD8045918 Si02
#       5
#     2   2   2   2   2
#     4  12  28  51  73 107 148 200 243 295 377 433
#     4  12  31  48  74 109 151 195 241 310 357 438
#     4  10  22  41  69 104 136 191 237 294 348 438
#     4  10  23  42  70 107 144 181 252 283 376 411
#     4  10  20  36  72 105 137 185 227 306 352 434
#
# _framework density 25.561885
#
# number of rings (size 3 to 8) (size 9 to 14) (size 15 to 20)
#    1.200    0.000    2.000    2.400   11.200    0.000 
#    3.600    0.000    0.000    0.000    0.000    0.000 
#    0.000    0.000    0.000    0.000    0.000    0.000 
#
# Total GULP energy -123942.503334 kJ/mol
# GULP energy per Si atom -12394.250333 kJ/mol
# Density = 2.550370 g / cm^3
# Si number density = 25.561885 Si / 1000 Ang^3
#
#
#
# Elastic Constant Matrix: (Units=GPa)
#
#
# Indices 1 2 3 4 5 6 
#
# 1 71.2570 20.4949 0.9779 0.0000 9.8846 0.0000
# 2 20.4949 135.2354 15.4449 0.0000 11.5158 0.0000
# 3 0.9779 15.4449 125.9452 0.0000 20.7715 0.0000
# 4 0.0000 0.0000 0.0000 40.3177 0.0000 -5.1156
# 5 9.8846 11.5158 20.7715 0.0000 27.8757 0.0000
# 6 0.0000 0.0000 0.0000 -5.1156 0.0000 33.3089
#
#
#
# Elastic Compliance Matrix: (Units=1/GPa)
#
#
# Indices 1 2 3 4 5 6 
#
# 1 0.015335 -0.001982 0.001010 0.000000 -0.005371 0.000000
# 2 -0.001982 0.007945 -0.000608 0.000000 -0.002126 0.000000
# 3 0.001010 -0.000608 0.009149 0.000000 -0.006924 0.000000
# 4 0.000000 0.000000 0.000000 0.025296 0.000000 0.003885
# 5 -0.005371 -0.002126 -0.006924 0.000000 0.043816 0.000000
# 6 0.000000 0.000000 0.000000 0.003885 0.000000 0.030619
#
#
# Mechanical properties :
#
#
# Convention : Reuss Voigt Hill
#
# Bulk Modulus (GPa) = 34.16668 45.14144 39.65406
# Shear Modulus (GPa) = 34.46462 40.00179 37.23321
#
# Velocity S-wave (km/s) = 3.67588 3.96017 3.82067
# Velocity P-wave (km/s) = 5.60459 6.21358 5.91693
#
# Compressibility (1/GPa) = 0.02926828
#
# Stress axis : x y z
#
# Youngs Moduli (GPa) = 65.21024 125.85879 109.30593
#
# Poissons Ratio (x) = 0.24945 -0.11038
# Poissons Ratio (y) = 0.12924 0.06649
# Poissons Ratio (z) = -0.06585 0.07656
#
# Static dielectric constant tensor:
#      x y z
#    x 3.869920 0.000000 -0.337970 
#    y 0.000000 4.507660 0.000000 
#    z -0.337970 0.000000 5.005950 
# 
# 
# High freq. dielectric constant tensor:
#      x y z
#    x 1.965430 0.000000 -0.026670 
#    y 0.000000 2.029410 0.000000 
#    z -0.026670 0.000000 2.053350 
# 
# From -- ./inp_files/8762.got.cif
#   From: 2010.03.12/outbox.cif.g09.slc.cpg/sg4_5_cif.got.tgz:8762.got - 2010.03.31 09:31:35.
