data_PCOD8045016
_publ_section_title
;
Structure prediction by ZEFSAII (Michael W. Deem and Ramdas Pophale) SiO2 
 PCOD8045016
Probable space group: P 2
;
_chemical_formula_sum "Si O2"
_cell_formula_units_Z 12
_cell_length_a 8.402053
_cell_length_b 9.546910
_cell_length_c 8.953105
_cell_angle_alpha 90.000000
_cell_angle_beta 120.800568
_cell_angle_gamma 90.000000
_cell_volume 616.868004
_symmetry_space_group_name_H-M "P 2"
_symmetry_group_IT_number 3
_symmetry_cell_setting 'monoclinic'
loop_
_space_group_symop_operation_xyz
x,y,z
-x,y,-z
loop_
_atom_site_type_symbol
_atom_site_label
_atom_site_fract_x
_atom_site_fract_y
_atom_site_fract_z
Si Si1 0.811514 0.196050 0.500034
Si Si2 0.531520 0.696624 0.184119
Si Si3 0.297150 0.733900 0.331471
Si Si4 0.337194 0.997311 0.808271
Si Si5 0.195035 0.511930 0.512004
Si Si6 0.959107 0.001623 0.807362
O O1 0.666187 0.109600 0.328053
O O2 0.742900 0.353694 0.495599
O O3 0.000000 0.197746 0.500000
O O4 0.840328 0.127246 0.676921
O O5 0.333811 0.699107 0.174920
O O6 0.655277 0.572301 0.303918
O O7 0.629628 0.846965 0.251925
O O8 0.500000 0.658738 0.000000
O O9 0.500000 0.765588 0.500000
O O10 0.196487 0.602198 0.360775
O O11 0.158934 0.862695 0.274847
O O12 0.500000 0.039670 0.000000
O O13 0.149667 0.985836 0.811022
O O14 0.000000 0.519408 0.500000
O O15 0.000000 0.034345 0.000000
#
# Coordination Sequence:
#
# PCOD8045016 Si02
#       6
#     2   2   2   2   2   2
#     4   9  20  37  56  79 113 149 184 225 279 336
#     4  10  20  36  55  82 112 141 184 234 275 327
#     4  10  21  37  57  84 112 146 189 228 276 334
#     4  10  20  37  60  85 111 146 187 230 280 333
#     4  10  20  37  57  79 110 151 186 225 278 331
#     4  11  21  36  58  85 112 145 186 234 280 329
#
# _framework density 19.453108
#
# number of rings (size 3 to 8) (size 9 to 14) (size 15 to 20)
#    0.000    2.000    0.000    5.000    0.000    2.000 
#    0.000   18.333    0.000    0.000    0.000    0.000 
#    0.000    0.000    0.000    0.000    0.000    0.000 
#
# Total GULP energy -148773.147583 kJ/mol
# GULP energy per Si atom -12397.762299 kJ/mol
# Density = 1.940883 g / cm^3
# Si number density = 19.453108 Si / 1000 Ang^3
#
#
#
# Elastic Constant Matrix: (Units=GPa)
#
#
# Indices 1 2 3 4 5 6 
#
# 1 107.2485 54.5447 43.2995 0.0000 -13.5847 0.0000
# 2 54.5447 184.6813 92.5503 0.0000 -7.2048 0.0000
# 3 43.2995 92.5503 129.1617 0.0000 -15.7169 0.0000
# 4 0.0000 0.0000 0.0000 15.5519 0.0000 3.6662
# 5 -13.5847 -7.2048 -15.7169 0.0000 37.9223 0.0000
# 6 0.0000 0.0000 0.0000 3.6662 0.0000 20.7591
#
#
#
# Elastic Compliance Matrix: (Units=1/GPa)
#
#
# Indices 1 2 3 4 5 6 
#
# 1 0.011663 -0.002419 -0.001816 0.000000 0.002966 0.000000
# 2 -0.002419 0.008983 -0.005817 0.000000 -0.001571 0.000000
# 3 -0.001816 -0.005817 0.012959 0.000000 0.003615 0.000000
# 4 0.000000 0.000000 0.000000 0.067094 0.000000 -0.011850
# 5 0.002966 -0.001571 0.003615 0.000000 0.028632 0.000000
# 6 0.000000 0.000000 0.000000 -0.011850 0.000000 0.050264
#
#
# Mechanical properties :
#
#
# Convention : Reuss Voigt Hill
#
# Bulk Modulus (GPa) = 74.06395 89.09784 81.58089
# Shear Modulus (GPa) = 24.48584 30.22645 27.35615
#
# Velocity S-wave (km/s) = 3.55168 3.94612 3.75408
# Velocity P-wave (km/s) = 7.41451 8.16476 7.79866
#
# Compressibility (1/GPa) = 0.01350185
#
# Stress axis : x y z
#
# Youngs Moduli (GPa) = 85.74028 111.32185 77.16720
#
# Poissons Ratio (x) = 0.26930 0.14010
# Poissons Ratio (y) = 0.20741 0.44887
# Poissons Ratio (z) = 0.15567 0.64755
#
# Static dielectric constant tensor:
#      x y z
#    x 3.626540 0.000000 -0.185440 
#    y 0.000000 3.702090 0.000000 
#    z -0.185440 0.000000 3.720360 
# 
# 
# High freq. dielectric constant tensor:
#      x y z
#    x 1.764080 0.000000 -0.009520 
#    y 0.000000 1.753870 0.000000 
#    z -0.009520 0.000000 1.760930 
# 
# From -- ./inp_files/4953.got.cif
#   From: 2010.03.12/outbox.cif.g09.slc.cpg/sg3_3_cif.got.tgz:4953.got - 2010.03.31 09:20:49.
