data_PCOD8045163
_publ_section_title
;
Structure prediction by ZEFSAII (Michael W. Deem and Ramdas Pophale) SiO2 
 PCOD8045163
Probable space group: P 2
;
_chemical_formula_sum "Si O2"
_cell_formula_units_Z 16
_cell_length_a 20.125332
_cell_length_b 5.025638
_cell_length_c 9.741213
_cell_angle_alpha 90.000000
_cell_angle_beta 53.434485
_cell_angle_gamma 90.000000
_cell_volume 791.330888
_symmetry_space_group_name_H-M "P 2"
_symmetry_group_IT_number 3
_symmetry_cell_setting 'monoclinic'
loop_
_space_group_symop_operation_xyz
x,y,z
-x,y,-z
loop_
_atom_site_type_symbol
_atom_site_label
_atom_site_fract_x
_atom_site_fract_y
_atom_site_fract_z
Si Si1 0.850659 0.365710 0.982510
Si Si2 0.424131 0.912561 0.189090
Si Si3 0.832193 0.400290 0.686707
Si Si4 0.580104 0.954606 0.492607
Si Si5 0.960507 0.865829 0.901235
Si Si6 0.309635 0.453542 0.637395
Si Si7 0.928581 0.907214 0.488382
Si Si8 0.680584 0.412243 0.688911
O O1 0.819181 0.383308 0.865335
O O2 0.922822 0.574734 0.925616
O O3 0.887274 0.074607 0.965164
O O4 0.773141 0.416120 0.175020
O O5 0.451867 0.945692 0.312130
O O6 0.395880 0.611967 0.195908
O O7 0.349230 0.112563 0.247557
O O8 0.500000 0.986681 0.000000
O O9 0.903007 0.612987 0.565993
O O10 0.748435 0.493612 0.717055
O O11 0.853797 0.114441 0.594700
O O12 0.500000 0.905954 0.500000
O O13 0.650298 0.736408 0.376165
O O14 0.621676 0.236197 0.407547
O O15 0.038363 0.906730 0.706197
O O16 0.000000 0.900235 0.000000
O O17 0.283748 0.439251 0.509249
O O18 0.000000 0.014259 0.500000
#
# Coordination Sequence:
#
# PCOD8045163 Si02
#       8
#     2   2   2   2   2   2   2   2
#     4  12  24  43  61  91 125 156 204 254 299 359
#     4  10  21  39  61  88 121 152 196 248 288 353
#     4  12  24  40  65  90 121 162 200 251 307 359
#     4  10  21  39  61  88 117 158 198 237 298 353
#     4  12  27  41  63  91 119 160 209 250 303 359
#     4  10  23  39  59  87 124 156 194 248 294 355
#     4  12  23  43  63  87 123 158 203 256 303 351
#     4  10  23  39  59  90 120 157 198 237 306 355
#
# _framework density 20.219101999999999
#
# number of rings (size 3 to 8) (size 9 to 14) (size 15 to 20)
#    0.000    1.000    2.500    3.750    3.500    2.000 
#    0.000    0.000    0.000    0.000    0.000    0.000 
#    0.000    0.000    0.000    0.000    0.000    0.000 
#
# Total GULP energy -198511.954476 kJ/mol
# GULP energy per Si atom -12406.997155 kJ/mol
# Density = 2.017308 g / cm^3
# Si number density = 20.219102 Si / 1000 Ang^3
#
#
#
# Elastic Constant Matrix: (Units=GPa)
#
#
# Indices 1 2 3 4 5 6 
#
# 1 102.3962 10.0214 50.3190 0.0000 14.8673 0.0000
# 2 10.0214 83.1896 21.5450 0.0000 5.2774 0.0000
# 3 50.3190 21.5450 136.4617 0.0000 6.5744 0.0000
# 4 0.0000 0.0000 0.0000 112.7004 0.0000 -49.8631
# 5 14.8673 5.2774 6.5744 0.0000 24.4635 0.0000
# 6 0.0000 0.0000 0.0000 -49.8631 0.0000 49.2102
#
#
#
# Elastic Compliance Matrix: (Units=1/GPa)
#
#
# Indices 1 2 3 4 5 6 
#
# 1 0.012915 0.000018 -0.004444 0.000000 -0.006658 0.000000
# 2 0.000018 0.012651 -0.001896 0.000000 -0.002230 0.000000
# 3 -0.004444 -0.001896 0.009236 0.000000 0.000628 0.000000
# 4 0.000000 0.000000 0.000000 0.016083 0.000000 0.016297
# 5 -0.006658 -0.002230 0.000628 0.000000 0.045236 0.000000
# 6 0.000000 0.000000 0.000000 0.016297 0.000000 0.036834
#
#
# Mechanical properties :
#
#
# Convention : Reuss Voigt Hill
#
# Bulk Modulus (GPa) = 45.13456 53.97983 49.55720
# Shear Modulus (GPa) = 32.68242 53.28563 42.98403
#
# Velocity S-wave (km/s) = 4.02483 5.13919 4.61576
# Velocity P-wave (km/s) = 6.63100 7.87213 7.27807
#
# Compressibility (1/GPa) = 0.02215597
#
# Stress axis : x y z
#
# Youngs Moduli (GPa) = 77.42933 79.04358 108.27174
#
# Poissons Ratio (x) = -0.00139 0.48119
# Poissons Ratio (y) = -0.00136 0.20533
# Poissons Ratio (z) = 0.34412 0.14990
#
# Static dielectric constant tensor:
#      x y z
#    x 0.811040 0.000000 2.175670 
#    y 0.000000 3.830370 0.000000 
#    z 2.175670 0.000000 2.139610 
# 
# 
# High freq. dielectric constant tensor:
#      x y z
#    x 1.786750 0.000000 0.005160 
#    y 0.000000 1.809590 0.000000 
#    z 0.005160 0.000000 1.794030 
# 
# From -- ./inp_files/8907.got.cif
#   From: 2010.03.12/outbox.cif.g09.slc.cpg/sg3_5_cif.got.tgz:8907.got - 2010.03.31 09:20:49.
