data_PCOD8045755
_publ_section_title
;
Structure prediction by ZEFSAII (Michael W. Deem and Ramdas Pophale) SiO2 
 PCOD8045755
Probable space group: P 21
;
_chemical_formula_sum "Si O2"
_cell_formula_units_Z 16
_cell_length_a 9.366508
_cell_length_b 7.823979
_cell_length_c 11.617611
_cell_angle_alpha 90.000000
_cell_angle_beta 103.731478
_cell_angle_gamma 90.000000
_cell_volume 827.044246
_symmetry_space_group_name_H-M "P 21"
_symmetry_group_IT_number 4
_symmetry_cell_setting 'monoclinic'
loop_
_space_group_symop_operation_xyz
x,y,z
-x,1/2+y,-z
loop_
_atom_site_type_symbol
_atom_site_label
_atom_site_fract_x
_atom_site_fract_y
_atom_site_fract_z
Si Si1 0.102296 0.831740 0.758966
Si Si2 0.797600 0.706472 0.625165
Si Si3 0.805699 0.899070 0.029990
Si Si4 0.326663 0.156790 0.158441
Si Si5 0.063058 0.060329 0.971297
Si Si6 0.192977 0.512287 0.534963
Si Si7 0.125010 0.906669 0.512788
Si Si8 0.343141 0.560709 0.793976
O O1 0.132092 0.947606 0.651368
O O2 0.251763 0.729455 0.808413
O O3 0.965492 0.706934 0.703376
O O4 0.058640 0.931226 0.864505
O O5 0.684601 0.675815 0.706753
O O6 0.756433 0.890137 0.560319
O O7 0.775446 0.547103 0.533363
O O8 0.924484 0.749646 0.078823
O O9 0.707375 0.920606 0.123662
O O10 0.697741 0.843218 0.904795
O O11 0.908486 0.057936 0.011726
O O12 0.485339 0.088132 0.155339
O O13 0.202800 0.026969 0.083175
O O14 0.174388 0.711615 0.493049
O O15 0.313654 0.499504 0.658471
O O16 0.043028 0.434454 0.558396
#
# Coordination Sequence:
#
# PCOD8045755 Si02
#       8
#     2   2   2   2   2   2   2   2
#     4  10  20  38  65  90 123 158 206 263 302 373
#     4  11  20  42  62  91 126 158 220 262 305 365
#     4  10  22  38  64  89 120 165 205 263 304 370
#     4  10  25  39  60  90 129 163 200 261 314 386
#     4  10  21  39  63  93 117 160 213 253 312 352
#     4  10  21  36  65  92 121 164 206 265 307 373
#     4  10  19  35  63  96 116 164 209 258 312 358
#     4  11  22  41  60  89 132 162 201 251 326 377
#
# _framework density 19.346003
#
# number of rings (size 3 to 8) (size 9 to 14) (size 15 to 20)
#    0.750    1.000    5.000    1.500    3.500    0.000 
#    4.500    0.000    2.750    0.000    0.000    0.000 
#    0.000    0.000    0.000    0.000    0.000    0.000 
#
# Total GULP energy -198267.645770 kJ/mol
# GULP energy per Si atom -12391.727861 kJ/mol
# Density = 1.930197 g / cm^3
# Si number density = 19.346003 Si / 1000 Ang^3
#
#
#
# Elastic Constant Matrix: (Units=GPa)
#
#
# Indices 1 2 3 4 5 6 
#
# 1 100.0314 33.8500 41.9491 0.0000 -0.6310 0.0000
# 2 33.8500 93.5840 43.9211 0.0000 -10.3964 0.0000
# 3 41.9491 43.9211 93.0163 0.0000 -10.9713 0.0000
# 4 0.0000 0.0000 0.0000 36.9854 0.0000 -4.4591
# 5 -0.6310 -10.3964 -10.9713 0.0000 26.2358 0.0000
# 6 0.0000 0.0000 0.0000 -4.4591 0.0000 23.5672
#
#
#
# Elastic Compliance Matrix: (Units=1/GPa)
#
#
# Indices 1 2 3 4 5 6 
#
# 1 0.012944 -0.002696 -0.004895 0.000000 -0.002804 0.000000
# 2 -0.002696 0.014498 -0.005217 0.000000 0.003499 0.000000
# 3 -0.004895 -0.005217 0.015951 0.000000 0.004485 0.000000
# 4 0.000000 0.000000 0.000000 0.027669 0.000000 0.005235
# 5 -0.002804 0.003499 0.004485 0.000000 0.041311 0.000000
# 6 0.000000 0.000000 0.000000 0.005235 0.000000 0.043422
#
#
# Mechanical properties :
#
#
# Convention : Reuss Voigt Hill
#
# Bulk Modulus (GPa) = 56.25548 58.45245 57.35396
# Shear Modulus (GPa) = 26.68968 28.48511 27.58740
#
# Velocity S-wave (km/s) = 3.71832 3.84135 3.78034
# Velocity P-wave (km/s) = 6.89756 7.06785 6.98322
#
# Compressibility (1/GPa) = 0.01777605
#
# Stress axis : x y z
#
# Youngs Moduli (GPa) = 77.25299 68.97506 62.69143
#
# Poissons Ratio (x) = 0.18596 0.30691
# Poissons Ratio (y) = 0.20828 0.32707
# Poissons Ratio (z) = 0.37819 0.35986
#
# Static dielectric constant tensor:
#      x y z
#    x 3.213120 0.000000 -0.068660 
#    y 0.000000 3.494320 0.000000 
#    z -0.068660 0.000000 3.653000 
# 
# 
# High freq. dielectric constant tensor:
#      x y z
#    x 1.727650 0.000000 -0.008600 
#    y 0.000000 1.739790 0.000000 
#    z -0.008600 0.000000 1.760310 
# 
# From -- ./inp_files/10947.got.cif
#   From: 2010.03.12/outbox.cif.g09.slc.cpg/sg4_6_cif.got.tgz:10947.got - 2010.03.31 09:31:35.
