data_PCOD8045767
_publ_section_title
;
Structure prediction by ZEFSAII (Michael W. Deem and Ramdas Pophale) SiO2 
 PCOD8045767
Probable space group: P 21
;
_chemical_formula_sum "Si O2"
_cell_formula_units_Z 8
_cell_length_a 13.343799
_cell_length_b 4.947297
_cell_length_c 7.445179
_cell_angle_alpha 90.000000
_cell_angle_beta 129.989018
_cell_angle_gamma 90.000000
_cell_volume 376.570608
_symmetry_space_group_name_H-M "P 21"
_symmetry_group_IT_number 4
_symmetry_cell_setting 'monoclinic'
loop_
_space_group_symop_operation_xyz
x,y,z
-x,1/2+y,-z
loop_
_atom_site_type_symbol
_atom_site_label
_atom_site_fract_x
_atom_site_fract_y
_atom_site_fract_z
Si Si1 0.252428 0.669220 0.085019
Si Si2 0.479055 0.765793 0.093311
Si Si3 0.708176 0.669489 0.628060
Si Si4 0.981565 0.781063 0.865247
O O1 0.332080 0.721370 0.994934
O O2 0.280718 0.369331 0.189311
O O3 0.293434 0.869176 0.293857
O O4 0.097290 0.708169 0.857178
O O5 0.575594 0.714667 0.369143
O O6 0.507151 0.571151 0.958384
O O7 0.832365 0.711791 0.634302
O O8 0.009620 0.596958 0.074983
#
# Coordination Sequence:
#
# PCOD8045767 Si02
#       4
#     2   2   2   2
#     4  10  19  36  58  78 100 136 177 214 254 306
#     4  12  24  36  50  78 112 140 170 212 258 306
#     4  10  19  36  58  78 100 136 177 214 254 306
#     4   8  16  30  54  80  98 122 172 222 252 292
#
# _framework density 21.244356
#
# number of rings (size 3 to 8) (size 9 to 14) (size 15 to 20)
#    0.000    2.000    0.000    4.500    0.000    0.000 
#    0.000    2.500    0.000    0.000    0.000    0.000 
#    0.000    0.000    0.000    0.000    0.000    0.000 
#
# Total GULP energy -99166.503159 kJ/mol
# GULP energy per Si atom -12395.812895 kJ/mol
# Density = 2.119600 g / cm^3
# Si number density = 21.244356 Si / 1000 Ang^3
#
#
#
# Elastic Constant Matrix: (Units=GPa)
#
#
# Indices 1 2 3 4 5 6 
#
# 1 183.9274 4.8251 15.0525 0.0000 8.1712 0.0000
# 2 4.8251 73.7719 0.5734 0.0000 0.2389 0.0000
# 3 15.0525 0.5734 16.1871 0.0000 -1.7727 0.0000
# 4 0.0000 0.0000 0.0000 26.7643 0.0000 -2.4658
# 5 8.1712 0.2389 -1.7727 0.0000 17.1575 0.0000
# 6 0.0000 0.0000 0.0000 -2.4658 0.0000 31.1723
#
#
#
# Elastic Compliance Matrix: (Units=1/GPa)
#
#
# Indices 1 2 3 4 5 6 
#
# 1 0.006097 -0.000340 -0.006043 0.000000 -0.003523 0.000000
# 2 -0.000340 0.013579 -0.000169 0.000000 -0.000044 0.000000
# 3 -0.006043 -0.000169 0.068494 0.000000 0.009957 0.000000
# 4 0.000000 0.000000 0.000000 0.037637 0.000000 0.002977
# 5 -0.003523 -0.000044 0.009957 0.000000 0.060991 0.000000
# 6 0.000000 0.000000 0.000000 0.002977 0.000000 0.032315
#
#
# Mechanical properties :
#
#
# Convention : Reuss Voigt Hill
#
# Bulk Modulus (GPa) = 13.32205 34.97647 24.14926
# Shear Modulus (GPa) = 19.43704 31.91452 25.67578
#
# Velocity S-wave (km/s) = 3.02806 3.88010 3.48025
# Velocity P-wave (km/s) = 4.30232 6.04758 5.24801
#
# Compressibility (1/GPa) = 0.07506354
#
# Stress axis : x y z
#
# Youngs Moduli (GPa) = 164.01589 73.64298 14.59987
#
# Poissons Ratio (x) = 0.02507 0.08823
# Poissons Ratio (y) = 0.05583 0.00247
# Poissons Ratio (z) = 0.99121 0.01247
#
# Static dielectric constant tensor:
#      x y z
#    x 4.320490 0.000000 0.452370 
#    y 0.000000 3.994750 0.000000 
#    z 0.452370 0.000000 3.160570 
# 
# 
# High freq. dielectric constant tensor:
#      x y z
#    x 1.856530 0.000000 0.034980 
#    y 0.000000 1.856840 0.000000 
#    z 0.034980 0.000000 1.760710 
# 
# From -- ./inp_files/870.got.cif
#   From: 2010.03.12/outbox.cif.g09.slc.cpg/sg4_1_cif.got.tgz:870.got - 2010.03.31 09:31:35.
