data_PCOD8045951
_publ_section_title
;
Structure prediction by ZEFSAII (Michael W. Deem and Ramdas Pophale) SiO2 
 PCOD8045951
Probable space group: P 21
;
_chemical_formula_sum "Si O2"
_cell_formula_units_Z 12
_cell_length_a 11.200699
_cell_length_b 4.831866
_cell_length_c 15.839682
_cell_angle_alpha 90.000000
_cell_angle_beta 134.997237
_cell_angle_gamma 90.000000
_cell_volume 606.195085
_symmetry_space_group_name_H-M "P 21"
_symmetry_group_IT_number 4
_symmetry_cell_setting 'monoclinic'
loop_
_space_group_symop_operation_xyz
x,y,z
-x,1/2+y,-z
loop_
_atom_site_type_symbol
_atom_site_label
_atom_site_fract_x
_atom_site_fract_y
_atom_site_fract_z
Si Si1 0.082157 0.981160 0.079887
Si Si2 0.608888 0.283432 0.244934
Si Si3 0.381350 0.774640 0.127876
Si Si4 0.922415 0.231188 0.502305
Si Si5 0.880861 0.033424 0.135984
Si Si6 0.125704 0.024659 0.753520
O O1 0.270776 0.891056 0.150425
O O2 0.040419 0.943732 0.158035
O O3 0.944950 0.799735 0.959610
O O4 0.481394 0.514630 0.215056
O O5 0.724379 0.193807 0.382455
O O6 0.717642 0.420187 0.224114
O O7 0.508848 0.015316 0.160445
O O8 0.269493 0.670159 0.993596
O O9 0.974317 0.549750 0.514693
O O10 0.970010 0.141084 0.620410
O O11 0.948583 0.264654 0.233586
O O12 0.811902 0.765340 0.151538
#
# Coordination Sequence:
#
# PCOD8045951 Si02
#       6
#     2   2   2   2   2   2
#     4  10  20  38  58  78 110 154 196 220 258 336
#     4  11  22  37  58  85 115 147 184 230 280 331
#     4  11  22  37  58  85 115 147 184 230 280 331
#     4  10  20  38  58  78 110 154 196 220 258 336
#     4  11  22  37  58  85 115 147 184 230 280 331
#     4  11  22  37  58  85 115 147 184 230 280 331
#
# _framework density 19.795608999999999
#
# number of rings (size 3 to 8) (size 9 to 14) (size 15 to 20)
#    0.000    1.333    0.000   10.000    0.000    2.667 
#    0.000    3.333    0.000    4.000    0.000    4.667 
#    0.000    0.000    0.000    0.000    0.000    0.000 
#
# Total GULP energy -148792.385883 kJ/mol
# GULP energy per Si atom -12399.365490 kJ/mol
# Density = 1.975055 g / cm^3
# Si number density = 19.795609 Si / 1000 Ang^3
#
#
#
# Elastic Constant Matrix: (Units=GPa)
#
#
# Indices 1 2 3 4 5 6 
#
# 1 83.2067 26.9232 55.5700 0.0000 -0.8437 0.0000
# 2 26.9232 95.6145 26.9341 0.0000 0.0104 0.0000
# 3 55.5700 26.9341 83.2595 0.0000 0.9129 0.0000
# 4 0.0000 0.0000 0.0000 39.1736 0.0000 0.0036
# 5 -0.8437 0.0104 0.9129 0.0000 6.6551 0.0000
# 6 0.0000 0.0000 0.0000 0.0036 0.0000 39.1725
#
#
#
# Elastic Compliance Matrix: (Units=1/GPa)
#
#
# Indices 1 2 3 4 5 6 
#
# 1 0.022276 -0.002278 -0.014183 0.000000 0.004773 0.000000
# 2 -0.002278 0.011742 -0.002278 0.000000 0.000005 0.000000
# 3 -0.014183 -0.002278 0.022267 0.000000 -0.004849 0.000000
# 4 0.000000 0.000000 0.000000 0.025527 0.000000 -0.000002
# 5 0.004773 0.000005 -0.004849 0.000000 0.151530 0.000000
# 6 0.000000 0.000000 0.000000 -0.000002 0.000000 0.025528
#
#
# Mechanical properties :
#
#
# Convention : Reuss Voigt Hill
#
# Bulk Modulus (GPa) = 53.17289 53.43727 53.30508
# Shear Modulus (GPa) = 16.52248 27.17714 21.84981
#
# Velocity S-wave (km/s) = 2.89217 3.70927 3.32591
# Velocity P-wave (km/s) = 6.17026 6.73780 6.46027
#
# Compressibility (1/GPa) = 0.01880657
#
# Stress axis : x y z
#
# Youngs Moduli (GPa) = 44.89144 85.16591 44.90923
#
# Poissons Ratio (x) = 0.19398 0.63696
# Poissons Ratio (y) = 0.10225 0.10232
# Poissons Ratio (z) = 0.63670 0.19403
#
# Static dielectric constant tensor:
#      x y z
#    x 3.544660 0.000000 0.000140 
#    y 0.000000 3.954920 0.000000 
#    z 0.000140 0.000000 3.544800 
# 
# 
# High freq. dielectric constant tensor:
#      x y z
#    x 1.749070 0.000000 0.000020 
#    y 0.000000 1.806440 0.000000 
#    z 0.000020 0.000000 1.749080 
# 
# From -- ./inp_files/15079.got.cif
#   From: 2010.03.12/outbox.cif.g09.slc.cpg/sg4_8_cif.got.tgz:15079.got - 2010.03.31 09:31:35.
