data_PCOD8045746
_publ_section_title
;
Structure prediction by ZEFSAII (Michael W. Deem and Ramdas Pophale) SiO2 
 PCOD8045746
Probable space group: P 21
;
_chemical_formula_sum "Si O2"
_cell_formula_units_Z 14
_cell_length_a 11.682493
_cell_length_b 8.066036
_cell_length_c 11.997767
_cell_angle_alpha 90.000000
_cell_angle_beta 34.108209
_cell_angle_gamma 90.000000
_cell_volume 633.973784
_symmetry_space_group_name_H-M "P 21"
_symmetry_group_IT_number 4
_symmetry_cell_setting 'monoclinic'
loop_
_space_group_symop_operation_xyz
x,y,z
-x,1/2+y,-z
loop_
_atom_site_type_symbol
_atom_site_label
_atom_site_fract_x
_atom_site_fract_y
_atom_site_fract_z
Si Si1 0.376654 0.020590 0.973051
Si Si2 0.518438 0.764206 0.695041
Si Si3 0.252645 0.487804 0.982821
Si Si4 0.180905 0.985153 0.553930
Si Si5 0.269662 0.875837 0.710815
Si Si6 0.618695 0.346130 0.809571
Si Si7 0.879478 0.666321 0.009478
O O1 0.528103 0.163078 0.894718
O O2 0.525436 0.914688 0.774876
O O3 0.177078 0.081177 0.064634
O O4 0.294316 0.911038 0.142656
O O5 0.729879 0.667840 0.542582
O O6 0.484571 0.831786 0.596298
O O7 0.306226 0.661534 0.882421
O O8 0.245124 0.341445 0.895559
O O9 0.049710 0.496929 0.220322
O O10 0.435481 0.464936 0.921700
O O11 0.322092 0.916797 0.540703
O O12 0.203124 0.865169 0.428255
O O13 0.115124 0.718412 0.832797
O O14 0.173873 0.041765 0.846649
#
# Coordination Sequence:
#
# PCOD8045746 Si02
#       7
#     2   2   2   2   2   2   2
#     4  10  21  40  62  85 115 158 197 240 297 347
#     4  10  21  37  59  86 119 155 194 239 292 350
#     4   9  19  38  59  86 117 154 195 238 292 346
#     4  10  21  36  58  87 116 152 195 241 292 347
#     4  10  19  35  57  88 121 154 194 240 290 346
#     4  10  20  39  61  81 116 152 194 246 290 345
#     4   9  19  35  60  87 116 153 195 234 287 347
#
# _framework density 22.082932
#
# number of rings (size 3 to 8) (size 9 to 14) (size 15 to 20)
#    0.000    2.286    0.000    3.429    0.000    4.571 
#    0.000   24.286    0.000    0.000    0.000    0.000 
#    0.000    0.000    0.000    0.000    0.000    0.000 
#
# Total GULP energy -173450.177604 kJ/mol
# GULP energy per Si atom -12389.298400 kJ/mol
# Density = 2.203267 g / cm^3
# Si number density = 22.082932 Si / 1000 Ang^3
#
#
#
# Elastic Constant Matrix: (Units=GPa)
#
#
# Indices 1 2 3 4 5 6 
#
# 1 67.7176 18.4128 7.4530 0.0000 23.7143 0.0000
# 2 18.4128 91.3932 12.3330 0.0000 7.4047 0.0000
# 3 7.4530 12.3330 69.2464 0.0000 2.1837 0.0000
# 4 0.0000 0.0000 0.0000 19.5261 0.0000 3.9976
# 5 23.7143 7.4047 2.1837 0.0000 36.3096 0.0000
# 6 0.0000 0.0000 0.0000 3.9976 0.0000 37.1933
#
#
#
# Elastic Compliance Matrix: (Units=1/GPa)
#
#
# Indices 1 2 3 4 5 6 
#
# 1 0.020035 -0.002860 -0.001255 0.000000 -0.012426 0.000000
# 2 -0.002860 0.011793 -0.001779 0.000000 -0.000430 0.000000
# 3 -0.001255 -0.001779 0.014884 0.000000 0.000287 0.000000
# 4 0.000000 0.000000 0.000000 0.052366 0.000000 -0.005628
# 5 -0.012426 -0.000430 0.000287 0.000000 0.035727 0.000000
# 6 0.000000 0.000000 0.000000 -0.005628 0.000000 0.027492
#
#
# Mechanical properties :
#
#
# Convention : Reuss Voigt Hill
#
# Bulk Modulus (GPa) = 28.63435 33.86164 31.24800
# Shear Modulus (GPa) = 26.92151 31.28304 29.10227
#
# Velocity S-wave (km/s) = 3.49536 3.76788 3.63418
# Velocity P-wave (km/s) = 5.41156 5.85631 5.63832
#
# Compressibility (1/GPa) = 0.03492309
#
# Stress axis : x y z
#
# Youngs Moduli (GPa) = 49.91373 84.79707 67.18605
#
# Poissons Ratio (x) = 0.24253 0.08432
# Poissons Ratio (y) = 0.14276 0.11952
# Poissons Ratio (z) = 0.06265 0.15085
#
# Static dielectric constant tensor:
#      x y z
#    x 4.046960 0.000000 0.248160 
#    y 0.000000 4.238130 0.000000 
#    z 0.248160 0.000000 3.631430 
# 
# 
# High freq. dielectric constant tensor:
#      x y z
#    x 1.873650 0.000000 0.016040 
#    y 0.000000 1.879120 0.000000 
#    z 0.016040 0.000000 1.834730 
# 
# From -- ./inp_files/11957.got.cif
#   From: 2010.03.12/outbox.cif.g09.slc.cpg/sg4_6_cif.got.tgz:11957.got - 2010.03.31 09:31:35.
