data_PCOD8045151
_publ_section_title
;
Structure prediction by ZEFSAII (Michael W. Deem and Ramdas Pophale) SiO2 
 PCOD8045151
Probable space group: P 2
;
_chemical_formula_sum "Si O2"
_cell_formula_units_Z 12
_cell_length_a 8.782358
_cell_length_b 9.293351
_cell_length_c 8.849109
_cell_angle_alpha 90.000000
_cell_angle_beta 61.071679
_cell_angle_gamma 90.000000
_cell_volume 632.125051
_symmetry_space_group_name_H-M "P 2"
_symmetry_group_IT_number 3
_symmetry_cell_setting 'monoclinic'
loop_
_space_group_symop_operation_xyz
x,y,z
-x,y,-z
loop_
_atom_site_type_symbol
_atom_site_label
_atom_site_fract_x
_atom_site_fract_y
_atom_site_fract_z
Si Si1 0.818425 0.966500 0.661096
Si Si2 0.330342 0.660591 0.975436
Si Si3 0.493155 0.126279 0.678479
Si Si4 0.179400 0.634258 0.345152
Si Si5 0.190073 0.959696 0.980264
Si Si6 0.491552 0.464399 0.330149
O O1 0.779543 0.800833 0.636027
O O2 0.000000 0.017288 0.500000
O O3 0.660954 0.060571 0.676691
O O4 0.829168 0.993066 0.834095
O O5 0.280017 0.805208 0.911271
O O6 0.352379 0.537737 0.839223
O O7 0.500000 0.687006 0.000000
O O8 0.175933 0.615019 0.164430
O O9 0.500000 0.083334 0.500000
O O10 0.499408 0.295914 0.699908
O O11 0.313653 0.074656 0.839399
O O12 0.313943 0.526218 0.352985
O O13 0.000000 0.583336 0.500000
O O14 0.000000 0.964545 0.000000
O O15 0.500000 0.508143 0.500000
#
# Coordination Sequence:
#
# PCOD8045151 Si02
#       6
#     2   2   2   2   2   2
#     4  10  21  38  61  87 113 146 187 231 281 334
#     4   9  19  37  58  82 110 145 185 225 277 335
#     4  11  23  39  56  81 117 153 189 230 277 333
#     4   9  19  36  57  83 110 139 183 229 274 331
#     4  11  22  37  59  87 113 145 188 234 281 333
#     4  10  22  37  55  80 111 148 186 225 276 330
#
# _framework density 18.983585999999999
#
# number of rings (size 3 to 8) (size 9 to 14) (size 15 to 20)
#    0.000    2.000    0.000    4.500    0.000   11.333 
#    0.000    4.167    0.000    0.000    0.000    0.000 
#    0.000    0.000    0.000    0.000    0.000    0.000 
#
# Total GULP energy -148794.962492 kJ/mol
# GULP energy per Si atom -12399.580208 kJ/mol
# Density = 1.894038 g / cm^3
# Si number density = 18.983586 Si / 1000 Ang^3
#
#
#
# Elastic Constant Matrix: (Units=GPa)
#
#
# Indices 1 2 3 4 5 6 
#
# 1 101.4522 50.9824 55.0858 0.0000 4.4695 0.0000
# 2 50.9824 89.1444 68.7228 0.0000 6.3981 0.0000
# 3 55.0858 68.7228 157.9574 0.0000 -7.1234 0.0000
# 4 0.0000 0.0000 0.0000 0.0255 0.0000 -33.1910
# 5 4.4695 6.3981 -7.1234 0.0000 34.3504 0.0000
# 6 0.0000 0.0000 0.0000 -33.1910 0.0000 -60.6999
#
#
#
# Elastic Compliance Matrix: (Units=1/GPa)
#
#
# Indices 1 2 3 4 5 6 
#
# 1 0.014345 -0.006356 -0.002290 0.000000 -0.001157 0.000000
# 2 -0.006356 0.020486 -0.006895 0.000000 -0.004419 0.000000
# 3 -0.002290 -0.006895 0.010297 0.000000 0.003718 0.000000
# 4 0.000000 0.000000 0.000000 0.055022 0.000000 -0.030086
# 5 -0.001157 -0.004419 0.003718 0.000000 0.030856 0.000000
# 6 0.000000 0.000000 0.000000 -0.030086 0.000000 -0.000023
#
#
# Mechanical properties :
#
#
# Convention : Reuss Voigt Hill
#
# Bulk Modulus (GPa) = 71.19568 77.57067 74.38318
# Shear Modulus (GPa) = 29.98559 6.31940 18.15250
#
# Velocity S-wave (km/s) = 3.97867 1.82650 3.09564
# Velocity P-wave (km/s) = 7.66105 6.73786 7.21424
#
# Compressibility (1/GPa) = 0.01404580
#
# Stress axis : x y z
#
# Youngs Moduli (GPa) = 69.71053 48.81453 97.11583
#
# Poissons Ratio (x) = 0.31026 0.22236
# Poissons Ratio (y) = 0.44307 0.66966
# Poissons Ratio (z) = 0.15961 0.33660
#
# Static dielectric constant tensor:
#      x y z
#    x 3.773330 0.000000 1.322860 
#    y 0.000000 3.417150 0.000000 
#    z 1.322860 0.000000 8.696790 
# 
# 
# High freq. dielectric constant tensor:
#      x y z
#    x 1.729600 0.000000 -0.003460 
#    y 0.000000 1.731680 0.000000 
#    z -0.003460 0.000000 1.764460 
# 
# From -- ./inp_files/5049.got.cif
#   From: 2010.03.12/outbox.cif.g09.slc.cpg/sg3_3_cif.got.tgz:5049.got - 2010.03.31 09:20:49.
