data_PCOD8045460
_publ_section_title
;
Structure prediction by ZEFSAII (Michael W. Deem and Ramdas Pophale) SiO2 
 PCOD8045460
Probable space group: P 2
;
_chemical_formula_sum "Si O2"
_cell_formula_units_Z 12
_cell_length_a 20.411126
_cell_length_b 4.853016
_cell_length_c 14.437655
_cell_angle_alpha 90.000000
_cell_angle_beta 22.955543
_cell_angle_gamma 90.000000
_cell_volume 557.774467
_symmetry_space_group_name_H-M "P 2"
_symmetry_group_IT_number 3
_symmetry_cell_setting 'monoclinic'
loop_
_space_group_symop_operation_xyz
x,y,z
-x,y,-z
loop_
_atom_site_type_symbol
_atom_site_label
_atom_site_fract_x
_atom_site_fract_y
_atom_site_fract_z
Si Si1 0.906306 0.239490 0.026066
Si Si2 0.803980 0.946502 0.902463
Si Si3 0.307573 0.637408 0.256744
Si Si4 0.303992 0.770548 0.760783
Si Si5 0.177762 0.422933 0.236681
Si Si6 0.128543 0.141784 0.567039
O O1 0.814815 0.504701 0.099533
O O2 0.762662 0.002367 0.225539
O O3 0.000000 0.313856 0.000000
O O4 0.052194 0.114801 0.769599
O O5 0.706826 0.915959 0.124946
O O6 0.838255 0.640081 0.824843
O O7 0.716022 0.157071 0.942076
O O8 0.981264 0.098338 0.685278
O O9 0.256834 0.593812 0.216894
O O10 0.206823 0.441938 0.457502
O O11 0.276406 0.933988 0.343677
O O12 0.500000 0.567436 0.000000
O O13 0.500000 0.689590 0.500000
O O14 0.000000 0.304211 0.500000
#
# Coordination Sequence:
#
# PCOD8045460 Si02
#       6
#     2   2   2   2   2   2
#     4  11  24  45  73  98 129 183 232 270 334 420
#     4  11  21  39  67  94 120 170 221 257 324 386
#     4  12  25  40  59  93 133 170 208 270 334 373
#     4  11  24  45  70 101 139 170 217 296 347 383
#     4  12  21  38  65  92 121 167 222 263 299 406
#     4  11  21  42  66  87 128 172 218 261 323 398
#
# _framework density 21.51407
#
# number of rings (size 3 to 8) (size 9 to 14) (size 15 to 20)
#    0.000    0.667    3.333    7.000    0.000    0.000 
#    9.000    0.000    0.000    0.000    0.000    0.000 
#    0.000    0.000    0.000    0.000    0.000    0.000 
#
# Total GULP energy -148675.162862 kJ/mol
# GULP energy per Si atom -12389.596905 kJ/mol
# Density = 2.146510 g / cm^3
# Si number density = 21.514070 Si / 1000 Ang^3
#
#
#
# Elastic Constant Matrix: (Units=GPa)
#
#
# Indices 1 2 3 4 5 6 
#
# 1 99.4297 30.0267 41.1232 0.0000 10.9345 0.0000
# 2 30.0267 109.6412 18.0895 0.0000 10.4415 0.0000
# 3 41.1232 18.0895 96.8786 0.0000 -3.4361 0.0000
# 4 0.0000 0.0000 0.0000 26.9311 0.0000 9.1811
# 5 10.9345 10.4415 -3.4361 0.0000 22.1340 0.0000
# 6 0.0000 0.0000 0.0000 9.1811 0.0000 28.9003
#
#
#
# Elastic Compliance Matrix: (Units=1/GPa)
#
#
# Indices 1 2 3 4 5 6 
#
# 1 0.013809 -0.002209 -0.005685 0.000000 -0.006662 0.000000
# 2 -0.002209 0.010286 -0.001122 0.000000 -0.003935 0.000000
# 3 -0.005685 -0.001122 0.013136 0.000000 0.005377 0.000000
# 4 0.000000 0.000000 0.000000 0.041642 0.000000 -0.013229
# 5 -0.006662 -0.003935 0.005377 0.000000 0.051162 0.000000
# 6 0.000000 0.000000 0.000000 -0.013229 0.000000 0.038804
#
#
# Mechanical properties :
#
#
# Convention : Reuss Voigt Hill
#
# Bulk Modulus (GPa) = 52.09346 53.82538 52.95942
# Shear Modulus (GPa) = 25.87059 30.04043 27.95551
#
# Velocity S-wave (km/s) = 3.47147 3.74078 3.60864
# Velocity P-wave (km/s) = 6.35093 6.61294 6.48326
#
# Compressibility (1/GPa) = 0.01919627
#
# Stress axis : x y z
#
# Youngs Moduli (GPa) = 72.41913 97.22334 76.12796
#
# Poissons Ratio (x) = 0.21479 0.43281
# Poissons Ratio (y) = 0.15999 0.08544
# Poissons Ratio (z) = 0.41172 0.10912
#
# Static dielectric constant tensor:
#      x y z
#    x 3.909150 0.000000 0.074140 
#    y 0.000000 4.109990 0.000000 
#    z 0.074140 0.000000 3.687540 
# 
# 
# High freq. dielectric constant tensor:
#      x y z
#    x 1.836820 0.000000 0.015830 
#    y 0.000000 1.866850 0.000000 
#    z 0.015830 0.000000 1.825530 
# 
# From -- ./inp_files/14222.got.cif
#   From: 2010.03.12/outbox.cif.g09.slc.cpg/sg3_8_cif.got.tgz:14222.got - 2010.03.31 09:20:49.
