data_PCOD8045503
_publ_section_title
;
Structure prediction by ZEFSAII (Michael W. Deem and Ramdas Pophale) SiO2 
 PCOD8045503
Probable space group: P 2
;
_chemical_formula_sum "Si O2"
_cell_formula_units_Z 10
_cell_length_a 11.293851
_cell_length_b 8.048673
_cell_length_c 11.293751
_cell_angle_alpha 90.000000
_cell_angle_beta 24.751149
_cell_angle_gamma 90.000000
_cell_volume 429.818034
_symmetry_space_group_name_H-M "P 2"
_symmetry_group_IT_number 3
_symmetry_cell_setting 'monoclinic'
loop_
_space_group_symop_operation_xyz
x,y,z
-x,y,-z
loop_
_atom_site_type_symbol
_atom_site_label
_atom_site_fract_x
_atom_site_fract_y
_atom_site_fract_z
Si Si1 0.445293 0.953450 0.779897
Si Si2 0.999643 0.830018 0.638349
Si Si3 0.720075 0.326581 0.054739
Si Si4 0.500000 0.746711 0.500000
Si Si5 0.000000 0.533312 0.000000
Si Si6 0.138327 0.450014 0.499668
O O1 0.777951 0.953016 0.502696
O O2 0.388559 0.854230 0.711114
O O3 0.347523 0.140015 0.847485
O O4 0.297698 0.865742 0.027322
O O5 0.083295 0.640015 0.583341
O O6 0.000000 0.874030 0.500000
O O7 0.788881 0.425794 0.111452
O O8 0.472655 0.414298 0.202336
O O9 0.997269 0.327011 0.722080
O O10 0.780178 0.640013 0.280179
O O11 0.000000 0.406004 0.500000
#
# Coordination Sequence:
#
# PCOD8045503 Si02
#       6
#     2   2   2   1   1   2
#     4  12  26  43  67 100 135 171 218 277 336 389
#     4  11  24  44  69  97 132 176 224 269 323 396
#     4  12  26  43  67 100 135 171 218 277 336 389
#     4  12  26  46  70  94 132 180 226 270 326 402
#     4  12  26  46  70  94 132 180 226 270 326 402
#     4  11  24  44  69  97 132 176 224 269 323 396
#
# _framework density 23.26566
#
# number of rings (size 3 to 8) (size 9 to 14) (size 15 to 20)
#    0.000    0.400    0.000    9.600    0.000   12.800 
#    0.000    0.000    0.000    0.000    0.000    0.000 
#    0.000    0.000    0.000    0.000    0.000    0.000 
#
# Total GULP energy -124049.251307 kJ/mol
# GULP energy per Si atom -12404.925131 kJ/mol
# Density = 2.321271 g / cm^3
# Si number density = 23.265660 Si / 1000 Ang^3
#
#
#
# Elastic Constant Matrix: (Units=GPa)
#
#
# Indices 1 2 3 4 5 6 
#
# 1 137.6352 41.6923 28.5387 0.0000 1.9162 0.0000
# 2 41.6923 129.2980 27.5097 0.0000 2.5816 0.0000
# 3 28.5387 27.5097 94.3323 0.0000 5.9644 0.0000
# 4 0.0000 0.0000 0.0000 41.2727 0.0000 -9.4826
# 5 1.9162 2.5816 5.9644 0.0000 48.5498 0.0000
# 6 0.0000 0.0000 0.0000 -9.4826 0.0000 -10.8467
#
#
#
# Elastic Compliance Matrix: (Units=1/GPa)
#
#
# Indices 1 2 3 4 5 6 
#
# 1 0.008346 -0.002297 -0.001856 0.000000 0.000021 0.000000
# 2 -0.002297 0.008879 -0.001885 0.000000 -0.000150 0.000000
# 3 -0.001856 -0.001885 0.011793 0.000000 -0.001275 0.000000
# 4 0.000000 0.000000 0.000000 0.020176 0.000000 -0.017639
# 5 0.000021 -0.000150 -0.001275 0.000000 0.020761 0.000000
# 6 0.000000 0.000000 0.000000 -0.017639 0.000000 -0.076773
#
#
# Mechanical properties :
#
#
# Convention : Reuss Voigt Hill
#
# Bulk Modulus (GPa) = 59.02738 61.86077 60.44408
# Shear Modulus (GPa) = 458.49788 33.36347 245.93067
#
# Velocity S-wave (km/s) = 14.05342 3.79096 10.29247
# Velocity P-wave (km/s) = 16.99286 6.76819 12.93379
#
# Compressibility (1/GPa) = 0.01694129
#
# Stress axis : x y z
#
# Youngs Moduli (GPa) = 119.81906 112.62968 84.79743
#
# Poissons Ratio (x) = 0.25866 0.15743
# Poissons Ratio (y) = 0.27517 0.15984
# Poissons Ratio (z) = 0.22244 0.21230
#
# Static dielectric constant tensor:
#      x y z
#    x 4.099650 0.000000 -0.121960 
#    y 0.000000 4.086040 0.000000 
#    z -0.121960 0.000000 4.769010 
# 
# 
# High freq. dielectric constant tensor:
#      x y z
#    x 1.924690 0.000000 -0.002500 
#    y 0.000000 1.921570 0.000000 
#    z -0.002500 0.000000 1.938390 
# 
# From -- ./inp_files/11642.got.cif
#   From: 2010.03.12/outbox.cif.g09.slc.cpg/sg3_6_cif.got.tgz:11642.got - 2010.03.31 09:20:49.
