data_PCOD8045093
_publ_section_title
;
Structure prediction by ZEFSAII (Michael W. Deem and Ramdas Pophale) SiO2 
 PCOD8045093
Probable space group: P 2
;
_chemical_formula_sum "Si O2"
_cell_formula_units_Z 14
_cell_length_a 9.465295
_cell_length_b 8.086556
_cell_length_c 8.921527
_cell_angle_alpha 90.000000
_cell_angle_beta 74.252736
_cell_angle_gamma 90.000000
_cell_volume 657.239013
_symmetry_space_group_name_H-M "P 2"
_symmetry_group_IT_number 3
_symmetry_cell_setting 'monoclinic'
loop_
_space_group_symop_operation_xyz
x,y,z
-x,y,-z
loop_
_atom_site_type_symbol
_atom_site_label
_atom_site_fract_x
_atom_site_fract_y
_atom_site_fract_z
Si Si1 0.000000 0.920070 0.000000
Si Si2 0.734518 0.778934 0.927905
Si Si3 0.417122 0.826535 0.730729
Si Si4 0.000000 0.853703 0.500000
Si Si5 0.420523 0.096257 0.164711
Si Si6 0.709074 0.645893 0.631667
Si Si7 0.342791 0.294128 0.466290
Si Si8 0.170988 0.019900 0.685635
O O1 0.094444 0.798294 0.079253
O O2 0.888111 0.036949 0.126369
O O3 0.684677 0.951053 0.864793
O O4 0.707124 0.632174 0.814931
O O5 0.640978 0.732697 0.103202
O O6 0.457332 0.013736 0.764567
O O7 0.555908 0.730707 0.621257
O O8 0.288311 0.864333 0.646290
O O9 0.853538 0.749852 0.558819
O O10 0.972912 0.973184 0.367250
O O11 0.339728 0.224128 0.297139
O O12 0.500000 0.185857 0.000000
O O13 0.722984 0.476616 0.536033
O O14 0.500000 0.303218 0.500000
O O15 0.236838 0.190467 0.605264
#
# Coordination Sequence:
#
# PCOD8045093 Si02
#       8
#     1   2   2   1   2   2   2   2
#     4  10  20  40  72 100 132 170 242 286 336 398
#     4   9  18  39  68 100 122 176 230 287 328 397
#     4   9  19  39  73  93 126 169 244 281 316 401
#     4  12  26  40  68  96 132 180 234 276 344 400
#     4   9  18  37  64  96 127 169 228 280 330 393
#     4  11  24  41  61  98 140 179 219 279 351 401
#     4  12  26  41  65 103 145 178 227 282 350 408
#     4  11  23  42  70 101 130 180 236 286 336 405
#
# _framework density 21.30123
#
# number of rings (size 3 to 8) (size 9 to 14) (size 15 to 20)
#    0.000    1.714    2.857    3.000    2.000    1.714 
#    0.000    0.000    0.000    1.714    0.000    0.000 
#    0.000    0.000    0.000    0.000    0.000    0.000 
#
# Total GULP energy -173458.673915 kJ/mol
# GULP energy per Si atom -12389.905280 kJ/mol
# Density = 2.125275 g / cm^3
# Si number density = 21.301230 Si / 1000 Ang^3
#
#
#
# Elastic Constant Matrix: (Units=GPa)
#
#
# Indices 1 2 3 4 5 6 
#
# 1 136.1546 46.5776 46.3816 0.0000 3.9547 0.0000
# 2 46.5776 88.8501 44.6423 0.0000 -2.9183 0.0000
# 3 46.3816 44.6423 88.2586 0.0000 -7.6826 0.0000
# 4 0.0000 0.0000 0.0000 27.6721 0.0000 5.2381
# 5 3.9547 -2.9183 -7.6826 0.0000 43.5346 0.0000
# 6 0.0000 0.0000 0.0000 5.2381 0.0000 18.6038
#
#
#
# Elastic Compliance Matrix: (Units=1/GPa)
#
#
# Indices 1 2 3 4 5 6 
#
# 1 0.009771 -0.003383 -0.003575 0.000000 -0.001745 0.000000
# 2 -0.003383 0.016266 -0.006427 0.000000 0.000264 0.000000
# 3 -0.003575 -0.006427 0.016708 0.000000 0.002842 0.000000
# 4 0.000000 0.000000 0.000000 0.038172 0.000000 -0.010748
# 5 -0.001745 0.000264 0.002842 0.000000 0.023648 0.000000
# 6 0.000000 0.000000 0.000000 -0.010748 0.000000 0.056779
#
#
# Mechanical properties :
#
#
# Convention : Reuss Voigt Hill
#
# Bulk Modulus (GPa) = 62.60258 65.38516 63.99387
# Shear Modulus (GPa) = 25.84809 29.67286 27.76048
#
# Velocity S-wave (km/s) = 3.48725 3.73636 3.61395
# Velocity P-wave (km/s) = 6.75777 7.02680 6.89360
#
# Compressibility (1/GPa) = 0.01597378
#
# Stress axis : x y z
#
# Youngs Moduli (GPa) = 102.34877 61.47753 59.85318
#
# Poissons Ratio (x) = 0.20797 0.21400
# Poissons Ratio (y) = 0.34623 0.38467
# Poissons Ratio (z) = 0.36594 0.39511
#
# Static dielectric constant tensor:
#      x y z
#    x 4.079330 0.000000 0.179290 
#    y 0.000000 3.333900 0.000000 
#    z 0.179290 0.000000 4.291670 
# 
# 
# High freq. dielectric constant tensor:
#      x y z
#    x 1.853650 0.000000 0.009570 
#    y 0.000000 1.769270 0.000000 
#    z 0.009570 0.000000 1.859580 
# 
# From -- ./inp_files/5303.got.cif
#   From: 2010.03.12/outbox.cif.g09.slc.cpg/sg3_3_cif.got.tgz:5303.got - 2010.03.31 09:20:49.
