data_PCOD8045524
_publ_section_title
;
Structure prediction by ZEFSAII (Michael W. Deem and Ramdas Pophale) SiO2 
 PCOD8045524
Probable space group: P 2
;
_chemical_formula_sum "Si O2"
_cell_formula_units_Z 12
_cell_length_a 20.451670
_cell_length_b 5.052017
_cell_length_c 7.932359
_cell_angle_alpha 90.000000
_cell_angle_beta 140.121318
_cell_angle_gamma 90.000000
_cell_volume 525.490866
_symmetry_space_group_name_H-M "P 2"
_symmetry_group_IT_number 3
_symmetry_cell_setting 'monoclinic'
loop_
_space_group_symop_operation_xyz
x,y,z
-x,y,-z
loop_
_atom_site_type_symbol
_atom_site_label
_atom_site_fract_x
_atom_site_fract_y
_atom_site_fract_z
Si Si1 0.603414 0.811980 0.452832
Si Si2 0.080178 0.097534 0.519987
Si Si3 0.078474 0.586521 0.303917
Si Si4 0.693831 0.996635 0.967107
Si Si5 0.534185 0.311263 0.817344
Si Si6 0.305665 0.628655 0.702773
O O1 0.534488 0.561479 0.364469
O O2 0.675342 0.780341 0.433353
O O3 0.533053 0.060014 0.266404
O O4 0.324001 0.846658 0.242824
O O5 0.046778 0.385667 0.388962
O O6 0.193508 0.118663 0.820505
O O7 0.000000 0.003043 0.500000
O O8 0.076632 0.887916 0.361448
O O9 0.192349 0.507777 0.469219
O O10 0.000000 0.547689 0.000000
O O11 0.680958 0.810095 0.104953
O O12 0.608707 0.229975 0.808473
O O13 0.610628 0.392070 0.122457
#
# Coordination Sequence:
#
# PCOD8045524 Si02
#       6
#     2   2   2   2   2   2
#     4  12  30  42  76 106 144 196 244 282 360 434
#     4  11  25  48  76 106 142 185 235 302 365 426
#     4  11  25  48  76 106 142 185 235 302 365 426
#     4  11  27  48  72 107 146 190 237 305 352 429
#     4  12  26  46  70 108 146 190 240 294 350 426
#     4  11  27  48  72 107 146 190 237 305 352 429
#
# _framework density 22.835791
#
# number of rings (size 3 to 8) (size 9 to 14) (size 15 to 20)
#    0.000    0.667    3.333    2.000   11.667    0.000 
#    3.000    0.000    0.000    0.000    0.000    0.000 
#    0.000    0.000    0.000    0.000    0.000    0.000 
#
# Total GULP energy -148836.597666 kJ/mol
# GULP energy per Si atom -12403.049806 kJ/mol
# Density = 2.278382 g / cm^3
# Si number density = 22.835791 Si / 1000 Ang^3
#
#
#
# Elastic Constant Matrix: (Units=GPa)
#
#
# Indices 1 2 3 4 5 6 
#
# 1 119.5733 31.0382 68.5375 0.0000 -14.1054 0.0000
# 2 31.0382 114.6323 38.7189 0.0000 -1.1654 0.0000
# 3 68.5375 38.7189 133.8011 0.0000 -5.3724 0.0000
# 4 0.0000 0.0000 0.0000 -85.9406 0.0000 -92.7755
# 5 -14.1054 -1.1654 -5.3724 0.0000 38.3218 0.0000
# 6 0.0000 0.0000 0.0000 -92.7755 0.0000 -37.4313
#
#
#
# Elastic Compliance Matrix: (Units=1/GPa)
#
#
# Indices 1 2 3 4 5 6 
#
# 1 0.012524 -0.001371 -0.005868 0.000000 0.003746 0.000000
# 2 -0.001371 0.009819 -0.002160 0.000000 -0.000509 0.000000
# 3 -0.005868 -0.002160 0.011078 0.000000 -0.000673 0.000000
# 4 0.000000 0.000000 0.000000 0.006944 0.000000 -0.017211
# 5 0.003746 -0.000509 -0.000673 0.000000 0.027364 0.000000
# 6 0.000000 0.000000 0.000000 -0.017211 0.000000 0.015943
#
#
# Mechanical properties :
#
#
# Convention : Reuss Voigt Hill
#
# Bulk Modulus (GPa) = 68.38358 71.62176 70.00267
# Shear Modulus (GPa) = 46.57917 -1.69587 22.44165
#
# Velocity S-wave (km/s) = 4.52125 -0.86270 3.13827
# Velocity P-wave (km/s) = 7.56746 5.51721 6.62216
#
# Compressibility (1/GPa) = 0.01462339
#
# Stress axis : x y z
#
# Youngs Moduli (GPa) = 79.84414 101.84328 90.27186
#
# Poissons Ratio (x) = 0.13962 0.52974
# Poissons Ratio (y) = 0.10946 0.19495
# Poissons Ratio (z) = 0.46855 0.21994
#
# Static dielectric constant tensor:
#      x y z
#    x 4.129590 0.000000 0.067640 
#    y 0.000000 4.311200 0.000000 
#    z 0.067640 0.000000 4.341430 
# 
# 
# High freq. dielectric constant tensor:
#      x y z
#    x 1.899990 0.000000 0.006990 
#    y 0.000000 1.908880 0.000000 
#    z 0.006990 0.000000 1.908060 
# 
# From -- ./inp_files/9273.got.cif
#   From: 2010.03.12/outbox.cif.g09.slc.cpg/sg3_5_cif.got.tgz:9273.got - 2010.03.31 09:20:49.
