data_PCOD8045358
_publ_section_title
;
Structure prediction by ZEFSAII (Michael W. Deem and Ramdas Pophale) SiO2 
 PCOD8045358
Probable space group: P 2
;
_chemical_formula_sum "Si O2"
_cell_formula_units_Z 15
_cell_length_a 18.511072
_cell_length_b 8.433059
_cell_length_c 9.093978
_cell_angle_alpha 90.000000
_cell_angle_beta 149.965095
_cell_angle_gamma 90.000000
_cell_volume 710.556388
_symmetry_space_group_name_H-M "P 2"
_symmetry_group_IT_number 3
_symmetry_cell_setting 'monoclinic'
loop_
_space_group_symop_operation_xyz
x,y,z
-x,y,-z
loop_
_atom_site_type_symbol
_atom_site_label
_atom_site_fract_x
_atom_site_fract_y
_atom_site_fract_z
Si Si1 0.621391 0.228170 0.107740
Si Si2 0.792355 0.583441 0.829231
Si Si3 0.653560 0.751117 0.845341
Si Si4 0.090900 0.297625 0.799849
Si Si5 0.646776 0.103232 0.843784
Si Si6 0.481492 0.577081 0.130660
Si Si7 0.000000 0.802155 0.000000
Si Si8 0.079028 0.110396 0.278744
O O1 0.769828 0.199374 0.453039
O O2 0.500000 0.162883 0.000000
O O3 0.609820 0.117908 0.947783
O O4 0.600676 0.411160 0.030528
O O5 0.766301 0.652631 0.947014
O O6 0.638821 0.549641 0.480789
O O7 0.886067 0.696785 0.889364
O O8 0.884965 0.426639 0.028709
O O9 0.500000 0.749855 0.500000
O O10 0.627577 0.683853 0.964156
O O11 0.715468 0.929144 0.950683
O O12 0.000000 0.363522 0.500000
O O13 0.005467 0.149084 0.719427
O O14 0.245715 0.239272 0.018403
O O15 0.500000 0.127953 0.500000
O O16 0.500000 0.653171 0.000000
O O17 0.913776 0.918183 0.733186
O O18 0.000000 0.189151 0.000000
#
# Coordination Sequence:
#
# PCOD8045358 Si02
#       8
#     2   2   2   2   2   2   1   2
#     4  11  24  41  66 101 132 175 230 287 344 405
#     4  11  24  45  67 100 139 183 228 287 344 420
#     4   9  21  41  64  95 134 175 224 282 342 405
#     4  12  25  45  69 102 136 183 234 285 344 410
#     4  11  23  41  70  97 131 180 229 280 342 408
#     4  10  23  40  68 101 137 173 231 288 351 404
#     4  10  26  46  72  98 140 192 232 276 366 406
#     4  10  26  46  70  97 141 181 232 289 341 426
#
# _framework density 21.110216999999999
#
# number of rings (size 3 to 8) (size 9 to 14) (size 15 to 20)
#    0.400    1.067    1.333    2.400    6.533    4.800 
#    2.400    0.000    0.000    0.000    0.000    0.000 
#    0.000    0.000    0.000    0.000    0.000    0.000 
#
# Total GULP energy -185935.225576 kJ/mol
# GULP energy per Si atom -12395.681705 kJ/mol
# Density = 2.106217 g / cm^3
# Si number density = 21.110217 Si / 1000 Ang^3
#
#
#
# Elastic Constant Matrix: (Units=GPa)
#
#
# Indices 1 2 3 4 5 6 
#
# 1 141.4704 42.9094 47.5279 0.0000 1.2507 0.0000
# 2 42.9094 106.0221 52.7502 0.0000 7.2957 0.0000
# 3 47.5279 52.7502 137.0784 0.0000 -2.8118 0.0000
# 4 0.0000 0.0000 0.0000 33.5375 0.0000 -2.8698
# 5 1.2507 7.2957 -2.8118 0.0000 34.7308 0.0000
# 6 0.0000 0.0000 0.0000 -2.8698 0.0000 40.3177
#
#
#
# Elastic Compliance Matrix: (Units=1/GPa)
#
#
# Indices 1 2 3 4 5 6 
#
# 1 0.008480 -0.002440 -0.002000 0.000000 0.000045 0.000000
# 2 -0.002440 0.012650 -0.004081 0.000000 -0.002900 0.000000
# 3 -0.002000 -0.004081 0.009594 0.000000 0.001706 0.000000
# 4 0.000000 0.000000 0.000000 0.030000 0.000000 0.002135
# 5 0.000045 -0.002900 0.001706 0.000000 0.029539 0.000000
# 6 0.000000 0.000000 0.000000 0.002135 0.000000 0.024955
#
#
# Mechanical properties :
#
#
# Convention : Reuss Voigt Hill
#
# Bulk Modulus (GPa) = 73.09513 74.54955 73.82234
# Shear Modulus (GPa) = 36.54392 37.80942 37.17667
#
# Velocity S-wave (km/s) = 4.16516 4.23667 4.20107
# Velocity P-wave (km/s) = 7.60474 7.70218 7.65362
#
# Compressibility (1/GPa) = 0.01368080
#
# Stress axis : x y z
#
# Youngs Moduli (GPa) = 117.91967 79.05336 104.22915
#
# Poissons Ratio (x) = 0.19289 0.20850
# Poissons Ratio (y) = 0.28772 0.42539
# Poissons Ratio (z) = 0.23589 0.32264
#
# Static dielectric constant tensor:
#      x y z
#    x 4.114750 0.000000 -0.103380 
#    y 0.000000 3.833640 0.000000 
#    z -0.103380 0.000000 3.750560 
# 
# 
# High freq. dielectric constant tensor:
#      x y z
#    x 1.845320 0.000000 -0.004540 
#    y 0.000000 1.823090 0.000000 
#    z -0.004540 0.000000 1.823190 
# 
# From -- ./inp_files/9169.got.cif
#   From: 2010.03.12/outbox.cif.g09.slc.cpg/sg3_5_cif.got.tgz:9169.got - 2010.03.31 09:20:49.
