data_PCOD8045841
_publ_section_title
;
Structure prediction by ZEFSAII (Michael W. Deem and Ramdas Pophale) SiO2 
 PCOD8045841
Probable space group: P 21
;
_chemical_formula_sum "Si O2"
_cell_formula_units_Z 16
_cell_length_a 5.121223
_cell_length_b 12.585308
_cell_length_c 10.755256
_cell_angle_alpha 90.000000
_cell_angle_beta 94.097234
_cell_angle_gamma 90.000000
_cell_volume 691.427919
_symmetry_space_group_name_H-M "P 21"
_symmetry_group_IT_number 4
_symmetry_cell_setting 'monoclinic'
loop_
_space_group_symop_operation_xyz
x,y,z
-x,1/2+y,-z
loop_
_atom_site_type_symbol
_atom_site_label
_atom_site_fract_x
_atom_site_fract_y
_atom_site_fract_z
Si Si1 0.013224 0.210580 0.386894
Si Si2 0.965208 0.722833 0.905218
Si Si3 0.514444 0.128584 0.969081
Si Si4 0.193060 0.391157 0.551311
Si Si5 0.499892 0.082297 0.411982
Si Si6 0.476218 0.282420 0.770326
Si Si7 0.157085 0.955961 0.244493
Si Si8 0.790801 0.922583 0.029841
O O1 0.063099 0.202129 0.242091
O O2 0.036076 0.332653 0.435760
O O3 0.242985 0.139859 0.459788
O O4 0.723188 0.171202 0.408753
O O5 0.757075 0.649377 0.970184
O O6 0.258651 0.698195 0.959011
O O7 0.913732 0.848825 0.926751
O O8 0.578985 0.003584 0.966813
O O9 0.494128 0.162121 0.821492
O O10 0.401265 0.478736 0.504755
O O11 0.325102 0.295417 0.635295
O O12 0.015736 0.465464 0.635655
O O13 0.415799 0.029766 0.274163
O O14 0.767063 0.331450 0.765311
O O15 0.336712 0.347183 0.873931
O O16 0.008490 0.992299 0.113703
#
# Coordination Sequence:
#
# PCOD8045841 Si02
#       8
#     2   2   2   2   2   2   2   2
#     4  12  26  43  66 100 134 173 218 276 328 394
#     4  11  25  40  61 102 130 167 212 268 327 389
#     4  11  23  40  66  93 128 171 211 265 329 386
#     4  10  24  43  69  95 133 172 222 277 318 391
#     4  11  24  42  69  96 122 175 227 261 325 384
#     4   9  21  39  64  96 124 164 226 263 312 392
#     4  10  19  41  66  95 124 166 223 275 304 394
#     4  10  22  38  65  95 133 166 211 273 327 382
#
# _framework density 23.140518
#
# number of rings (size 3 to 8) (size 9 to 14) (size 15 to 20)
#    0.000    1.500    2.500    1.500   14.000    0.000 
#    2.250    0.000    2.750    0.000    0.000    0.000 
#    0.000    0.000    0.000    0.000    0.000    0.000 
#
# Total GULP energy -198268.162830 kJ/mol
# GULP energy per Si atom -12391.760177 kJ/mol
# Density = 2.308785 g / cm^3
# Si number density = 23.140518 Si / 1000 Ang^3
#
#
#
# Elastic Constant Matrix: (Units=GPa)
#
#
# Indices 1 2 3 4 5 6 
#
# 1 99.5848 13.1393 6.4483 0.0000 12.7673 0.0000
# 2 13.1393 69.7790 8.4094 0.0000 12.0780 0.0000
# 3 6.4483 8.4094 26.5363 0.0000 6.7327 0.0000
# 4 0.0000 0.0000 0.0000 39.3999 0.0000 8.7840
# 5 12.7673 12.0780 6.7327 0.0000 19.4467 0.0000
# 6 0.0000 0.0000 0.0000 8.7840 0.0000 37.1948
#
#
#
# Elastic Compliance Matrix: (Units=1/GPa)
#
#
# Indices 1 2 3 4 5 6 
#
# 1 0.011031 -0.000870 -0.000772 0.000000 -0.006434 0.000000
# 2 -0.000870 0.016319 -0.002777 0.000000 -0.008602 0.000000
# 3 -0.000772 -0.002777 0.041863 0.000000 -0.012261 0.000000
# 4 0.000000 0.000000 0.000000 0.026791 0.000000 -0.006327
# 5 -0.006434 -0.008602 -0.012261 0.000000 0.065234 0.000000
# 6 0.000000 0.000000 0.000000 -0.006327 0.000000 0.028380
#
#
# Mechanical properties :
#
#
# Convention : Reuss Voigt Hill
#
# Bulk Modulus (GPa) = 16.56375 27.98824 22.27599
# Shear Modulus (GPa) = 22.87462 30.40182 26.63822
#
# Velocity S-wave (km/s) = 3.14747 3.62856 3.39654
# Velocity P-wave (km/s) = 4.51466 5.44761 5.00293
#
# Compressibility (1/GPa) = 0.06037280
#
# Stress axis : x y z
#
# Youngs Moduli (GPa) = 90.64970 61.28014 23.88745
#
# Poissons Ratio (x) = 0.05334 0.01845
# Poissons Ratio (y) = 0.07890 0.06634
# Poissons Ratio (z) = 0.07001 0.17020
#
# Static dielectric constant tensor:
#      x y z
#    x 4.467480 0.000000 0.267420 
#    y 0.000000 4.353060 0.000000 
#    z 0.267420 0.000000 3.999180 
# 
# 
# High freq. dielectric constant tensor:
#      x y z
#    x 1.929930 0.000000 0.014850 
#    y 0.000000 1.918620 0.000000 
#    z 0.014850 0.000000 1.869310 
# 
# From -- ./inp_files/10530.got.cif
#   From: 2010.03.12/outbox.cif.g09.slc.cpg/sg4_6_cif.got.tgz:10530.got - 2010.03.31 09:31:35.
