data_PCOD8045653
_publ_section_title
;
Structure prediction by ZEFSAII (Michael W. Deem and Ramdas Pophale) SiO2 
 PCOD8045653
Probable space group: P 21
;
_chemical_formula_sum "Si O2"
_cell_formula_units_Z 16
_cell_length_a 16.385760
_cell_length_b 8.705804
_cell_length_c 11.229172
_cell_angle_alpha 90.000000
_cell_angle_beta 147.191705
_cell_angle_gamma 90.000000
_cell_volume 867.932946
_symmetry_space_group_name_H-M "P 21"
_symmetry_group_IT_number 4
_symmetry_cell_setting 'monoclinic'
loop_
_space_group_symop_operation_xyz
x,y,z
-x,1/2+y,-z
loop_
_atom_site_type_symbol
_atom_site_label
_atom_site_fract_x
_atom_site_fract_y
_atom_site_fract_z
Si Si1 0.250790 0.586980 0.566407
Si Si2 0.104783 0.396930 0.770144
Si Si3 0.965430 0.560331 0.812437
Si Si4 0.355681 0.555510 0.936978
Si Si5 0.194100 0.877860 0.731814
Si Si6 0.944640 0.914820 0.839770
Si Si7 0.322860 0.934808 0.645117
Si Si8 0.083839 0.076939 0.808383
O O1 0.360281 0.514075 0.800736
O O2 0.217471 0.475426 0.412453
O O3 0.319613 0.751734 0.612769
O O4 0.092250 0.605767 0.444590
O O5 0.052220 0.533305 0.794072
O O6 0.250687 0.439457 0.877024
O O7 0.152697 0.247072 0.905507
O O8 0.977076 0.345478 0.518900
O O9 0.966767 0.735477 0.851902
O O10 0.793494 0.509407 0.589306
O O11 0.047132 0.458357 0.012620
O O12 0.295029 0.728070 0.884767
O O13 0.521306 0.521202 0.190668
O O14 0.276335 0.967893 0.725040
O O15 0.183173 0.981283 0.836412
O O16 0.082642 0.993658 0.935735
#
# Coordination Sequence:
#
# PCOD8045653 Si02
#       8
#     2   2   2   2   2   2   2   2
#     4   9  19  37  52  83 112 148 188 234 280 329
#     4  11  18  33  56  80 110 146 194 234 275 332
#     4  11  20  36  59  84 106 146 193 239 288 333
#     4  11  21  34  55  85 121 150 183 231 296 347
#     4  10  18  35  53  81 113 149 192 232 274 337
#     4  10  20  34  60  84 105 140 195 251 274 331
#     4  10  22  36  54  83 124 151 181 231 292 358
#     4  10  18  33  55  82 107 138 188 246 269 321
#
# _framework density 18.434604
#
# number of rings (size 3 to 8) (size 9 to 14) (size 15 to 20)
#    0.750    1.000    5.000    2.250    0.000    7.000 
#    0.000    0.000    0.000   10.500    0.000    0.000 
#    0.000    0.000    0.000    0.000    0.000    0.000 
#
# Total GULP energy -198214.674175 kJ/mol
# GULP energy per Si atom -12388.417136 kJ/mol
# Density = 1.839265 g / cm^3
# Si number density = 18.434604 Si / 1000 Ang^3
#
#
#
# Elastic Constant Matrix: (Units=GPa)
#
#
# Indices 1 2 3 4 5 6 
#
# 1 41.2192 20.6891 24.3168 0.0000 1.5568 0.0000
# 2 20.6891 99.1820 30.7605 0.0000 -3.6581 0.0000
# 3 24.3168 30.7605 81.0103 0.0000 2.5652 0.0000
# 4 0.0000 0.0000 0.0000 28.1826 0.0000 -1.2572
# 5 1.5568 -3.6581 2.5652 0.0000 20.7671 0.0000
# 6 0.0000 0.0000 0.0000 -1.2572 0.0000 29.1972
#
#
#
# Elastic Compliance Matrix: (Units=1/GPa)
#
#
# Indices 1 2 3 4 5 6 
#
# 1 0.030936 -0.004162 -0.007639 0.000000 -0.002109 0.000000
# 2 -0.004162 0.012125 -0.003446 0.000000 0.002873 0.000000
# 3 -0.007639 -0.003446 0.016009 0.000000 -0.002012 0.000000
# 4 0.000000 0.000000 0.000000 0.035551 0.000000 0.001531
# 5 -0.002109 0.002873 -0.002012 0.000000 0.049066 0.000000
# 6 0.000000 0.000000 0.000000 0.001531 0.000000 0.034316
#
#
# Mechanical properties :
#
#
# Convention : Reuss Voigt Hill
#
# Bulk Modulus (GPa) = 34.99305 41.43825 38.21565
# Shear Modulus (GPa) = 22.93354 25.33906 24.13630
#
# Velocity S-wave (km/s) = 3.53093 3.71150 3.62234
# Velocity P-wave (km/s) = 5.97049 6.39486 6.18632
#
# Compressibility (1/GPa) = 0.02857711
#
# Stress axis : x y z
#
# Youngs Moduli (GPa) = 32.32527 82.47227 62.46405
#
# Poissons Ratio (x) = 0.34322 0.47716
# Poissons Ratio (y) = 0.13453 0.21524
# Poissons Ratio (z) = 0.24693 0.28419
#
# Static dielectric constant tensor:
#      x y z
#    x 3.198090 0.000000 -0.077410 
#    y 0.000000 3.389970 0.000000 
#    z -0.077410 0.000000 3.139400 
# 
# 
# High freq. dielectric constant tensor:
#      x y z
#    x 1.695690 0.000000 -0.008600 
#    y 0.000000 1.723870 0.000000 
#    z -0.008600 0.000000 1.683170 
# 
# From -- ./inp_files/12886.got.cif
#   From: 2010.03.12/outbox.cif.g09.slc.cpg/sg4_7_cif.got.tgz:12886.got - 2010.03.31 09:31:35.
