data_PCOD8045082
_publ_section_title
;
Structure prediction by ZEFSAII (Michael W. Deem and Ramdas Pophale) SiO2 
 PCOD8045082
Probable space group: P 2
;
_chemical_formula_sum "Si O2"
_cell_formula_units_Z 11
_cell_length_a 8.439398
_cell_length_b 7.920959
_cell_length_c 11.107678
_cell_angle_alpha 90.000000
_cell_angle_beta 43.453092
_cell_angle_gamma 90.000000
_cell_volume 510.681039
_symmetry_space_group_name_H-M "P 2"
_symmetry_group_IT_number 3
_symmetry_cell_setting 'monoclinic'
loop_
_space_group_symop_operation_xyz
x,y,z
-x,y,-z
loop_
_atom_site_type_symbol
_atom_site_label
_atom_site_fract_x
_atom_site_fract_y
_atom_site_fract_z
Si Si1 0.849485 0.512080 0.962517
Si Si2 0.982165 0.164326 0.243583
Si Si3 0.365805 0.478659 0.341871
Si Si4 0.000000 0.232967 0.500000
Si Si5 0.000000 0.744662 0.500000
Si Si6 0.775433 0.840947 0.858574
Si Si7 0.500000 0.276797 0.500000
O O1 0.902305 0.340180 0.861044
O O2 0.886071 0.673543 0.856860
O O3 0.584051 0.524750 0.142851
O O4 0.000000 0.523821 0.000000
O O5 0.955393 0.133585 0.401767
O O6 0.718370 0.161706 0.338888
O O7 0.134684 0.004851 0.114173
O O8 0.202125 0.638698 0.453261
O O9 0.428241 0.403671 0.435678
O O10 0.223577 0.343643 0.342835
O O11 0.122609 0.858810 0.331890
O O12 0.500000 0.839901 0.000000
#
# Coordination Sequence:
#
# PCOD8045082 Si02
#       7
#     2   2   2   1   1   2   1
#     4  12  25  45  68  99 141 177 224 281 340 402
#     4  11  25  44  69  99 137 177 226 280 339 400
#     4  10  20  39  71  98 131 181 224 272 340 400
#     4   9  21  38  68  99 125 174 229 267 336 397
#     4  11  23  46  70  99 139 176 229 285 330 401
#     4  12  27  46  70 103 135 180 231 279 336 401
#     4  10  20  44  66  98 134 184 226 274 338 406
#
# _framework density 21.539864999999999
#
# number of rings (size 3 to 8) (size 9 to 14) (size 15 to 20)
#    0.000    1.091    3.636    3.818    2.545    0.727 
#    3.273    0.000    0.000    0.000    0.000    0.000 
#    0.000    0.000    0.000    0.000    0.000    0.000 
#
# Total GULP energy -136310.023942 kJ/mol
# GULP energy per Si atom -12391.820358 kJ/mol
# Density = 2.149084 g / cm^3
# Si number density = 21.539865 Si / 1000 Ang^3
#
#
#
# Elastic Constant Matrix: (Units=GPa)
#
#
# Indices 1 2 3 4 5 6 
#
# 1 111.7938 51.6914 39.8593 0.0000 -14.8545 0.0000
# 2 51.6914 155.3720 41.4620 0.0000 -14.5578 0.0000
# 3 39.8593 41.4620 121.7502 0.0000 -19.9192 0.0000
# 4 0.0000 0.0000 0.0000 11.3023 0.0000 -6.7882
# 5 -14.8545 -14.5578 -19.9192 0.0000 39.0452 0.0000
# 6 0.0000 0.0000 0.0000 -6.7882 0.0000 -7.9407
#
#
#
# Elastic Compliance Matrix: (Units=1/GPa)
#
#
# Indices 1 2 3 4 5 6 
#
# 1 0.011447 -0.002978 -0.002403 0.000000 0.002019 0.000000
# 2 -0.002978 0.007940 -0.001560 0.000000 0.001031 0.000000
# 3 -0.002403 -0.001560 0.010133 0.000000 0.003673 0.000000
# 4 0.000000 0.000000 0.000000 0.058461 0.000000 -0.049977
# 5 0.002019 0.001031 0.003673 0.000000 0.028638 0.000000
# 6 0.000000 0.000000 0.000000 -0.049977 0.000000 -0.083210
#
#
# Mechanical properties :
#
#
# Convention : Reuss Voigt Hill
#
# Bulk Modulus (GPa) = 63.95160 72.77128 68.36144
# Shear Modulus (GPa) = 95.23234 25.54159 60.38696
#
# Velocity S-wave (km/s) = 6.65643 3.44725 5.30055
# Velocity P-wave (km/s) = 9.42506 7.05000 8.32269
#
# Compressibility (1/GPa) = 0.01563683
#
# Stress axis : x y z
#
# Youngs Moduli (GPa) = 87.35883 125.94604 98.69112
#
# Poissons Ratio (x) = 0.37506 0.23717
# Poissons Ratio (y) = 0.26015 0.15398
# Poissons Ratio (z) = 0.20994 0.19651
#
# Static dielectric constant tensor:
#      x y z
#    x 4.491490 0.000000 -0.053720 
#    y 0.000000 3.871030 0.000000 
#    z -0.053720 0.000000 4.253670 
# 
# 
# High freq. dielectric constant tensor:
#      x y z
#    x 1.850890 0.000000 -0.011830 
#    y 0.000000 1.840810 0.000000 
#    z -0.011830 0.000000 1.853640 
# 
# From -- ./inp_files/6836.got.cif
#   From: 2010.03.12/outbox.cif.g09.slc.cpg/sg3_4_cif.got.tgz:6836.got - 2010.03.31 09:20:49.
