data_PCOD8045144
_publ_section_title
;
Structure prediction by ZEFSAII (Michael W. Deem and Ramdas Pophale) SiO2 
 PCOD8045144
Probable space group: P 2
;
_chemical_formula_sum "Si O2"
_cell_formula_units_Z 15
_cell_length_a 8.166209
_cell_length_b 9.693219
_cell_length_c 11.221061
_cell_angle_alpha 90.000000
_cell_angle_beta 125.283970
_cell_angle_gamma 90.000000
_cell_volume 725.056458
_symmetry_space_group_name_H-M "P 2"
_symmetry_group_IT_number 3
_symmetry_cell_setting 'monoclinic'
loop_
_space_group_symop_operation_xyz
x,y,z
-x,y,-z
loop_
_atom_site_type_symbol
_atom_site_label
_atom_site_fract_x
_atom_site_fract_y
_atom_site_fract_z
Si Si1 0.447098 0.915350 0.113464
Si Si2 0.235312 0.528242 0.459472
Si Si3 0.761679 0.185796 0.917392
Si Si4 0.225245 0.777305 0.608926
Si Si5 0.397137 0.432185 0.276179
Si Si6 0.500000 0.329829 0.000000
Si Si7 0.802448 0.642775 0.981376
Si Si8 0.199370 0.529833 0.767196
O O1 0.630306 0.902091 0.287247
O O2 0.339040 0.770671 0.055561
O O3 0.301084 0.026374 0.114448
O O4 0.500000 0.962713 0.000000
O O5 0.267645 0.693162 0.502909
O O6 0.312147 0.496801 0.361145
O O7 0.360205 0.443132 0.612565
O O8 0.006116 0.477435 0.381240
O O9 0.663984 0.272689 0.767663
O O10 0.672033 0.242454 0.005127
O O11 0.000000 0.200560 0.000000
O O12 0.266483 0.668008 0.730727
O O13 0.000000 0.836795 0.500000
O O14 0.312109 0.521980 0.133954
O O15 0.616692 0.420960 0.148883
O O16 0.870704 0.572030 0.130999
O O17 0.000000 0.697104 0.000000
#
# Coordination Sequence:
#
# PCOD8045144 Si02
#       8
#     2   2   2   2   2   1   2   2
#     4  12  24  43  66  97 131 180 229 284 336 400
#     4  10  21  37  63  98 134 173 213 275 339 407
#     4  12  26  45  66  98 136 178 227 284 341 402
#     4  10  21  38  62  96 134 170 221 276 340 407
#     4  11  21  39  66  93 135 173 221 278 340 393
#     4  12  22  38  70 100 130 178 222 286 334 400
#     4  12  21  36  66 103 131 174 224 289 338 400
#     4  11  20  35  65 104 132 166 225 281 343 392
#
# _framework density 20.688044000000001
#
# number of rings (size 3 to 8) (size 9 to 14) (size 15 to 20)
#    0.000    0.800    6.000    3.200    0.000    0.000 
#    0.000    1.333    8.800    0.000    0.000    0.000 
#    0.000    0.000    0.000    0.000    0.000    0.000 
#
# Total GULP energy -185870.066951 kJ/mol
# GULP energy per Si atom -12391.337797 kJ/mol
# Density = 2.064096 g / cm^3
# Si number density = 20.688044 Si / 1000 Ang^3
#
#
#
# Elastic Constant Matrix: (Units=GPa)
#
#
# Indices 1 2 3 4 5 6 
#
# 1 96.3110 25.0873 39.9466 0.0000 20.2822 0.0000
# 2 25.0873 72.1338 35.6564 0.0000 11.8563 0.0000
# 3 39.9466 35.6564 109.4932 0.0000 17.2422 0.0000
# 4 0.0000 0.0000 0.0000 22.8197 0.0000 7.9754
# 5 20.2822 11.8563 17.2422 0.0000 51.3366 0.0000
# 6 0.0000 0.0000 0.0000 7.9754 0.0000 27.8148
#
#
#
# Elastic Compliance Matrix: (Units=1/GPa)
#
#
# Indices 1 2 3 4 5 6 
#
# 1 0.013168 -0.002267 -0.003515 0.000000 -0.003498 0.000000
# 2 -0.002267 0.017135 -0.004509 0.000000 -0.001547 0.000000
# 3 -0.003515 -0.004509 0.012143 0.000000 -0.001648 0.000000
# 4 0.000000 0.000000 0.000000 0.048702 0.000000 -0.013965
# 5 -0.003498 -0.001547 -0.001648 0.000000 0.021772 0.000000
# 6 0.000000 0.000000 0.000000 -0.013965 0.000000 0.039956
#
#
# Mechanical properties :
#
#
# Convention : Reuss Voigt Hill
#
# Bulk Modulus (GPa) = 45.73800 53.25761 49.49780
# Shear Modulus (GPa) = 27.66284 32.21075 29.93679
#
# Velocity S-wave (km/s) = 3.66066 3.95013 3.80815
# Velocity P-wave (km/s) = 6.32643 6.82670 6.58132
#
# Compressibility (1/GPa) = 0.02186366
#
# Stress axis : x y z
#
# Youngs Moduli (GPa) = 75.94044 58.36054 82.34973
#
# Poissons Ratio (x) = 0.13232 0.28945
# Poissons Ratio (y) = 0.17218 0.37133
# Poissons Ratio (z) = 0.26693 0.26316
#
# Static dielectric constant tensor:
#      x y z
#    x 4.306870 0.000000 0.080520 
#    y 0.000000 3.583660 0.000000 
#    z 0.080520 0.000000 4.285270 
# 
# 
# High freq. dielectric constant tensor:
#      x y z
#    x 1.829180 0.000000 0.005500 
#    y 0.000000 1.771520 0.000000 
#    z 0.005500 0.000000 1.826930 
# 
# From -- ./inp_files/10793.got.cif
#   From: 2010.03.12/outbox.cif.g09.slc.cpg/sg3_6_cif.got.tgz:10793.got - 2010.03.31 09:20:49.
