data_PCOD8045559
_publ_section_title
;
Structure prediction by ZEFSAII (Michael W. Deem and Ramdas Pophale) SiO2 
 PCOD8045559
Probable space group: P 2
;
_chemical_formula_sum "Si O2"
_cell_formula_units_Z 10
_cell_length_a 9.258572
_cell_length_b 5.735754
_cell_length_c 7.881875
_cell_angle_alpha 90.000000
_cell_angle_beta 115.667227
_cell_angle_gamma 90.000000
_cell_volume 377.264073
_symmetry_space_group_name_H-M "P 2"
_symmetry_group_IT_number 3
_symmetry_cell_setting 'monoclinic'
loop_
_space_group_symop_operation_xyz
x,y,z
-x,y,-z
loop_
_atom_site_type_symbol
_atom_site_label
_atom_site_fract_x
_atom_site_fract_y
_atom_site_fract_z
Si Si1 0.293200 0.286250 0.142266
Si Si2 0.000000 0.189486 0.500000
Si Si3 0.500000 0.575660 0.000000
Si Si4 0.500000 0.035990 0.500000
Si Si5 0.095511 0.551039 0.301509
Si Si6 0.000000 0.930579 0.000000
Si Si7 0.725331 0.829877 0.370299
O O1 0.450814 0.188320 0.313052
O O2 0.222425 0.490292 0.221726
O O3 0.158111 0.087411 0.051408
O O4 0.361907 0.411392 0.009363
O O5 0.000484 0.322626 0.684824
O O6 0.838700 0.044280 0.380332
O O7 0.410368 0.757714 0.831365
O O8 0.648123 0.882754 0.514947
O O9 0.996888 0.767013 0.169307
O O10 0.166094 0.610143 0.524276
#
# Coordination Sequence:
#
# PCOD8045559 Si02
#       7
#     2   1   1   1   2   1   2
#     4  12  28  56  84 123 170 222 279 354 413 512
#     4  12  28  54  88 116 168 224 294 346 410 504
#     4  12  32  54  88 132 172 216 286 340 446 492
#     4  12  24  60  80 112 178 220 264 354 424 474
#     4  12  26  54  84 120 164 226 284 342 423 493
#     4  12  28  54  88 116 168 224 294 346 410 504
#     4  12  28  56  84 123 170 222 279 354 413 512
#
# _framework density 26.506629
#
# number of rings (size 3 to 8) (size 9 to 14) (size 15 to 20)
#    0.000    0.000    4.000    3.600    0.000   10.400 
#    7.200    0.000    0.000    0.000    0.000    0.000 
#    0.000    0.000    0.000    0.000    0.000    0.000 
#
# Total GULP energy -123928.816410 kJ/mol
# GULP energy per Si atom -12392.881641 kJ/mol
# Density = 2.644630 g / cm^3
# Si number density = 26.506629 Si / 1000 Ang^3
#
#
#
# Elastic Constant Matrix: (Units=GPa)
#
#
# Indices 1 2 3 4 5 6 
#
# 1 157.3973 72.6207 41.0433 0.0000 -11.4987 0.0000
# 2 72.6207 149.7545 65.5223 0.0000 2.0152 0.0000
# 3 41.0433 65.5223 137.1029 0.0000 12.2891 0.0000
# 4 0.0000 0.0000 0.0000 22.2837 0.0000 -6.4842
# 5 -11.4987 2.0152 12.2891 0.0000 47.4273 0.0000
# 6 0.0000 0.0000 0.0000 -6.4842 0.0000 22.3103
#
#
#
# Elastic Compliance Matrix: (Units=1/GPa)
#
#
# Indices 1 2 3 4 5 6 
#
# 1 0.008513 -0.003729 -0.000988 0.000000 0.002478 0.000000
# 2 -0.003729 0.010099 -0.003676 0.000000 -0.000381 0.000000
# 3 -0.000988 -0.003676 0.009576 0.000000 -0.002565 0.000000
# 4 0.000000 0.000000 0.000000 0.049022 0.000000 0.014247
# 5 0.002478 -0.000381 -0.002565 0.000000 0.022367 0.000000
# 6 0.000000 0.000000 0.000000 0.014247 0.000000 0.048963
#
#
# Mechanical properties :
#
#
# Convention : Reuss Voigt Hill
#
# Bulk Modulus (GPa) = 87.70797 89.18079 88.44438
# Shear Modulus (GPa) = 29.56354 36.07550 32.81952
#
# Velocity S-wave (km/s) = 3.34327 3.69317 3.52257
# Velocity P-wave (km/s) = 6.93284 7.20443 7.06994
#
# Compressibility (1/GPa) = 0.01140147
#
# Stress axis : x y z
#
# Youngs Moduli (GPa) = 117.47262 99.01555 104.42288
#
# Poissons Ratio (x) = 0.36922 0.10321
# Poissons Ratio (y) = 0.43805 0.38388
# Poissons Ratio (z) = 0.11611 0.36400
#
# Static dielectric constant tensor:
#      x y z
#    x 4.852560 0.000000 -0.028490 
#    y 0.000000 5.068680 0.000000 
#    z -0.028490 0.000000 4.748450 
# 
# 
# High freq. dielectric constant tensor:
#      x y z
#    x 2.078150 0.000000 -0.005010 
#    y 0.000000 2.081800 0.000000 
#    z -0.005010 0.000000 2.071120 
# 
# From -- ./inp_files/4912.got.cif
#   From: 2010.03.12/outbox.cif.g09.slc.cpg/sg3_3_cif.got.tgz:4912.got - 2010.03.31 09:20:49.
