data_PCOD8045825
_publ_section_title
;
Structure prediction by ZEFSAII (Michael W. Deem and Ramdas Pophale) SiO2 
 PCOD8045825
Probable space group: P 21
;
_chemical_formula_sum "Si O2"
_cell_formula_units_Z 12
_cell_length_a 10.141640
_cell_length_b 8.174518
_cell_length_c 9.147334
_cell_angle_alpha 90.000000
_cell_angle_beta 46.806263
_cell_angle_gamma 90.000000
_cell_volume 552.863978
_symmetry_space_group_name_H-M "P 21"
_symmetry_group_IT_number 4
_symmetry_cell_setting 'monoclinic'
loop_
_space_group_symop_operation_xyz
x,y,z
-x,1/2+y,-z
loop_
_atom_site_type_symbol
_atom_site_label
_atom_site_fract_x
_atom_site_fract_y
_atom_site_fract_z
Si Si1 0.371922 0.038630 0.052216
Si Si2 0.141155 0.231003 0.582332
Si Si3 0.904255 0.105978 0.006199
Si Si4 0.934614 0.420515 0.529203
Si Si5 0.529771 0.234524 0.183023
Si Si6 0.062091 0.252609 0.157303
O O1 0.517623 0.128633 0.043882
O O2 0.252020 0.176622 0.063749
O O3 0.256661 0.914797 0.242062
O O4 0.468592 0.927141 0.857606
O O5 0.357134 0.204551 0.419947
O O6 0.058086 0.213675 0.806374
O O7 0.089461 0.397826 0.536516
O O8 0.035820 0.097805 0.563209
O O9 0.902036 0.917842 0.961281
O O10 0.708088 0.185318 0.134535
O O11 0.953898 0.122297 0.139605
O O12 0.942759 0.288381 0.391849
#
# Coordination Sequence:
#
# PCOD8045825 Si02
#       6
#     2   2   2   2   2   2
#     4  11  22  39  68  98 131 173 224 272 324 384
#     4  10  22  38  64  92 131 167 217 263 321 384
#     4  11  24  42  66  93 138 173 213 272 334 392
#     4  10  19  39  65  92 126 168 218 257 318 388
#     4  11  22  39  64  98 132 168 225 269 321 392
#     4  11  23  43  67  97 132 179 215 267 340 386
#
# _framework density 21.705158000000001
#
# number of rings (size 3 to 8) (size 9 to 14) (size 15 to 20)
#    0.000    1.333    5.000    2.000    2.333    0.000 
#    0.000    8.333    0.000    0.000    0.000    0.000 
#    0.000    0.000    0.000    0.000    0.000    0.000 
#
# Total GULP energy -148768.415878 kJ/mol
# GULP energy per Si atom -12397.367990 kJ/mol
# Density = 2.165576 g / cm^3
# Si number density = 21.705158 Si / 1000 Ang^3
#
#
#
# Elastic Constant Matrix: (Units=GPa)
#
#
# Indices 1 2 3 4 5 6 
#
# 1 84.8428 9.6221 40.9517 0.0000 2.2943 0.0000
# 2 9.6221 63.7591 29.4574 0.0000 0.1014 0.0000
# 3 40.9517 29.4574 91.5809 0.0000 -1.5853 0.0000
# 4 0.0000 0.0000 0.0000 35.7205 0.0000 -0.2544
# 5 2.2943 0.1014 -1.5853 0.0000 33.5340 0.0000
# 6 0.0000 0.0000 0.0000 -0.2544 0.0000 38.0082
#
#
#
# Elastic Compliance Matrix: (Units=1/GPa)
#
#
# Indices 1 2 3 4 5 6 
#
# 1 0.015146 0.001006 -0.007120 0.000000 -0.001376 0.000000
# 2 0.001006 0.018492 -0.006405 0.000000 -0.000428 0.000000
# 3 -0.007120 -0.006405 0.016186 0.000000 0.001272 0.000000
# 4 0.000000 0.000000 0.000000 0.027996 0.000000 0.000187
# 5 -0.001376 -0.000428 0.001272 0.000000 0.029976 0.000000
# 6 0.000000 0.000000 0.000000 0.000187 0.000000 0.026311
#
#
# Mechanical properties :
#
#
# Convention : Reuss Voigt Hill
#
# Bulk Modulus (GPa) = 40.34709 44.47168 42.40939
# Shear Modulus (GPa) = 29.86695 32.12934 30.99814
#
# Velocity S-wave (km/s) = 3.71351 3.85159 3.78318
# Velocity P-wave (km/s) = 6.08407 6.34926 6.21808
#
# Compressibility (1/GPa) = 0.02478493
#
# Stress axis : x y z
#
# Youngs Moduli (GPa) = 66.02209 54.07672 61.78321
#
# Poissons Ratio (x) = -0.05441 0.43992
# Poissons Ratio (y) = -0.06642 0.39575
# Poissons Ratio (z) = 0.47010 0.34638
#
# Static dielectric constant tensor:
#      x y z
#    x 3.731850 0.000000 0.139910 
#    y 0.000000 4.102910 0.000000 
#    z 0.139910 0.000000 3.909420 
# 
# 
# High freq. dielectric constant tensor:
#      x y z
#    x 1.840500 0.000000 0.007070 
#    y 0.000000 1.862290 0.000000 
#    z 0.007070 0.000000 1.843390 
# 
# From -- ./inp_files/5759.got.cif
#   From: 2010.03.12/outbox.cif.g09.slc.cpg/sg4_3_cif.got.tgz:5759.got - 2010.03.31 09:31:35.
