data_PCOD8045317
_publ_section_title
;
Structure prediction by ZEFSAII (Michael W. Deem and Ramdas Pophale) SiO2 
 PCOD8045317
Probable space group: P 2
;
_chemical_formula_sum "Si O2"
_cell_formula_units_Z 13
_cell_length_a 14.706808
_cell_length_b 6.045714
_cell_length_c 9.562280
_cell_angle_alpha 90.000000
_cell_angle_beta 138.104723
_cell_angle_gamma 90.000000
_cell_volume 567.747409
_symmetry_space_group_name_H-M "P 2"
_symmetry_group_IT_number 3
_symmetry_cell_setting 'monoclinic'
loop_
_space_group_symop_operation_xyz
x,y,z
-x,y,-z
loop_
_atom_site_type_symbol
_atom_site_label
_atom_site_fract_x
_atom_site_fract_y
_atom_site_fract_z
Si Si1 0.231085 0.881860 0.229870
Si Si2 0.348306 0.614545 0.123846
Si Si3 0.136175 0.264977 0.935758
Si Si4 0.260083 0.568407 0.735108
Si Si5 0.000000 0.332615 0.500000
Si Si6 0.500000 0.212582 0.000000
Si Si7 0.000000 0.559142 0.000000
Si Si8 0.598336 0.858296 0.320240
O O1 0.331423 0.779118 0.231786
O O2 0.131685 0.704640 0.186668
O O3 0.324167 0.974932 0.461864
O O4 0.142241 0.062080 0.048225
O O5 0.507639 0.644153 0.265014
O O6 0.289040 0.371240 0.096784
O O7 0.262454 0.688696 0.889233
O O8 0.077191 0.197786 0.713576
O O9 0.030436 0.427194 0.892209
O O10 0.291681 0.756327 0.659209
O O11 0.108534 0.479242 0.538761
O O12 0.367279 0.365114 0.862300
O O13 0.510859 0.052422 0.147957
#
# Coordination Sequence:
#
# PCOD8045317 Si02
#       8
#     2   2   2   2   1   1   1   2
#     4  11  25  41  69  98 139 180 230 284 350 416
#     4  10  22  43  63  96 137 173 228 292 340 399
#     4  10  23  44  67 100 136 180 234 286 341 416
#     4  11  23  46  70 100 138 182 232 294 340 415
#     4  10  24  42  74  98 134 186 226 278 358 392
#     4  12  24  40  74  98 140 182 238 288 346 416
#     4  10  22  46  66  92 140 178 228 294 336 412
#     4  12  24  44  68 101 133 187 233 282 351 414
#
# _framework density 22.897504999999999
#
# number of rings (size 3 to 8) (size 9 to 14) (size 15 to 20)
#    0.000    1.231    3.077    1.846    4.308    4.923 
#    2.769    7.692    0.000    0.000    0.000    0.000 
#    0.000    0.000    0.000    0.000    0.000    0.000 
#
# Total GULP energy -161078.558845 kJ/mol
# GULP energy per Si atom -12390.658373 kJ/mol
# Density = 2.284539 g / cm^3
# Si number density = 22.897505 Si / 1000 Ang^3
#
#
#
# Elastic Constant Matrix: (Units=GPa)
#
#
# Indices 1 2 3 4 5 6 
#
# 1 77.0551 4.7668 16.2585 0.0000 -5.1212 0.0000
# 2 4.7668 60.6820 40.0457 0.0000 -12.0228 0.0000
# 3 16.2585 40.0457 147.9124 0.0000 -25.5218 0.0000
# 4 0.0000 0.0000 0.0000 27.0877 0.0000 -5.4531
# 5 -5.1212 -12.0228 -25.5218 0.0000 40.7314 0.0000
# 6 0.0000 0.0000 0.0000 -5.4531 0.0000 4.1955
#
#
#
# Elastic Compliance Matrix: (Units=1/GPa)
#
#
# Indices 1 2 3 4 5 6 
#
# 1 0.013312 -0.000011 -0.001314 0.000000 0.000847 0.000000
# 2 -0.000011 0.020358 -0.005016 0.000000 0.002865 0.000000
# 3 -0.001314 -0.005016 0.008947 0.000000 0.003960 0.000000
# 4 0.000000 0.000000 0.000000 0.050000 0.000000 0.064989
# 5 0.000847 0.002865 0.003960 0.000000 0.027984 0.000000
# 6 0.000000 0.000000 0.000000 0.064989 0.000000 0.322824
#
#
# Mechanical properties :
#
#
# Convention : Reuss Voigt Hill
#
# Bulk Modulus (GPa) = 33.40619 45.31015 39.35817
# Shear Modulus (GPa) = 10.72764 29.37481 20.05123
#
# Velocity S-wave (km/s) = 2.16685 3.58562 2.96242
# Velocity P-wave (km/s) = 4.56962 6.08058 5.37842
#
# Compressibility (1/GPa) = 0.02993457
#
# Stress axis : x y z
#
# Youngs Moduli (GPa) = 75.12031 49.12037 111.77444
#
# Poissons Ratio (x) = 0.00052 0.14690
# Poissons Ratio (y) = 0.00079 0.56069
# Poissons Ratio (z) = 0.09872 0.24640
#
# Static dielectric constant tensor:
#      x y z
#    x 4.423560 0.000000 -0.135900 
#    y 0.000000 3.918610 0.000000 
#    z -0.135900 0.000000 4.049700 
# 
# 
# High freq. dielectric constant tensor:
#      x y z
#    x 1.927280 0.000000 -0.013430 
#    y 0.000000 1.871170 0.000000 
#    z -0.013430 0.000000 1.903680 
# 
# From -- ./inp_files/6585.got.cif
#   From: 2010.03.12/outbox.cif.g09.slc.cpg/sg3_4_cif.got.tgz:6585.got - 2010.03.31 09:20:49.
