data_PCOD8045111
_publ_section_title
;
Structure prediction by ZEFSAII (Michael W. Deem and Ramdas Pophale) SiO2 
 PCOD8045111
Probable space group: P 2
;
_chemical_formula_sum "Si O2"
_cell_formula_units_Z 13
_cell_length_a 6.383015
_cell_length_b 10.515715
_cell_length_c 9.084988
_cell_angle_alpha 90.000000
_cell_angle_beta 99.493266
_cell_angle_gamma 90.000000
_cell_volume 601.451015
_symmetry_space_group_name_H-M "P 2"
_symmetry_group_IT_number 3
_symmetry_cell_setting 'monoclinic'
loop_
_space_group_symop_operation_xyz
x,y,z
-x,y,-z
loop_
_atom_site_type_symbol
_atom_site_label
_atom_site_fract_x
_atom_site_fract_y
_atom_site_fract_z
Si Si1 0.000000 0.783741 0.000000
Si Si2 0.500000 0.292568 0.500000
Si Si3 0.313647 0.611529 0.862548
Si Si4 0.872861 0.156164 0.701578
Si Si5 0.000000 0.942012 0.500000
Si Si6 0.347826 0.984307 0.123353
Si Si7 0.593306 0.813421 0.356844
Si Si8 0.845332 0.387435 0.346352
O O1 0.819243 0.871740 0.911445
O O2 0.119893 0.695216 0.898911
O O3 0.684889 0.206873 0.581934
O O4 0.606119 0.373248 0.381366
O O5 0.434941 0.693643 0.753910
O O6 0.185482 0.491579 0.783096
O O7 0.500000 0.572350 0.000000
O O8 0.062973 0.260163 0.724588
O O9 0.780333 0.115460 0.852072
O O10 0.941844 0.026528 0.633274
O O11 0.166157 0.844841 0.584539
O O12 0.490230 0.942029 0.278389
O O13 0.500000 0.006094 0.000000
O O14 0.500000 0.770173 0.500000
O O15 0.000000 0.428683 0.500000
#
# Coordination Sequence:
#
# PCOD8045111 Si02
#       8
#     1   1   2   2   1   2   2   2
#     4  12  24  48  70  94 152 188 230 304 368 444
#     4  10  20  44  70 100 142 174 246 304 352 412
#     4  12  27  48  70 101 155 192 245 300 368 441
#     4  11  22  42  69 104 142 184 237 304 366 432
#     4  12  22  38  72 104 142 172 236 304 366 434
#     4  12  25  44  70 107 147 187 233 304 384 441
#     4  12  25  40  70 112 134 186 239 296 375 430
#     4  10  25  44  72 106 138 200 249 300 356 427
#
# _framework density 21.614394999999998
#
# number of rings (size 3 to 8) (size 9 to 14) (size 15 to 20)
#    0.000    0.615    6.923    1.846    2.154    2.462 
#    0.000    4.615    0.000    0.000    0.000    0.000 
#    0.000    0.000    0.000    0.000    0.000    0.000 
#
# Total GULP energy -161113.720504 kJ/mol
# GULP energy per Si atom -12393.363116 kJ/mol
# Density = 2.156520 g / cm^3
# Si number density = 21.614395 Si / 1000 Ang^3
#
#
#
# Elastic Constant Matrix: (Units=GPa)
#
#
# Indices 1 2 3 4 5 6 
#
# 1 118.0442 31.1123 45.8790 0.0000 -6.7983 0.0000
# 2 31.1123 86.9146 47.9227 0.0000 1.5994 0.0000
# 3 45.8790 47.9227 113.8252 0.0000 -10.9466 0.0000
# 4 0.0000 0.0000 0.0000 43.0044 0.0000 -25.0559
# 5 -6.7983 1.5994 -10.9466 0.0000 43.3454 0.0000
# 6 0.0000 0.0000 0.0000 -25.0559 0.0000 47.3676
#
#
#
# Elastic Compliance Matrix: (Units=1/GPa)
#
#
# Indices 1 2 3 4 5 6 
#
# 1 0.010291 -0.001899 -0.003266 0.000000 0.000859 0.000000
# 2 -0.001899 0.015542 -0.006008 0.000000 -0.002389 0.000000
# 3 -0.003266 -0.006008 0.012917 0.000000 0.002972 0.000000
# 4 0.000000 0.000000 0.000000 0.033613 0.000000 0.017780
# 5 0.000859 -0.002389 0.002972 0.000000 0.024044 0.000000
# 6 0.000000 0.000000 0.000000 0.017780 0.000000 0.030517
#
#
# Mechanical properties :
#
#
# Convention : Reuss Voigt Hill
#
# Bulk Modulus (GPa) = 60.95836 63.17910 62.06873
# Shear Modulus (GPa) = 32.31329 39.66813 35.99071
#
# Velocity S-wave (km/s) = 3.87070 4.28865 4.08502
# Velocity P-wave (km/s) = 6.94553 7.33600 7.14343
#
# Compressibility (1/GPa) = 0.01640464
#
# Stress axis : x y z
#
# Youngs Moduli (GPa) = 97.17604 64.34284 77.41830
#
# Poissons Ratio (x) = 0.12218 0.25282
# Poissons Ratio (y) = 0.18452 0.46511
# Poissons Ratio (z) = 0.31735 0.38655
#
# Static dielectric constant tensor:
#      x y z
#    x 4.814460 0.000000 -0.332130 
#    y 0.000000 3.950190 0.000000 
#    z -0.332130 0.000000 3.856070 
# 
# 
# High freq. dielectric constant tensor:
#      x y z
#    x 1.871950 0.000000 -0.005370 
#    y 0.000000 1.836800 0.000000 
#    z -0.005370 0.000000 1.846990 
# 
# From -- ./inp_files/1337.got.cif
#   From: 2010.03.12/outbox.cif.g09.slc.cpg/sg3_1_cif.got.tgz:1337.got - 2010.03.31 09:20:49.
