data_PCOD8045154
_publ_section_title
;
Structure prediction by ZEFSAII (Michael W. Deem and Ramdas Pophale) SiO2 
 PCOD8045154
Probable space group: P 2
;
_chemical_formula_sum "Si O2"
_cell_formula_units_Z 14
_cell_length_a 6.166939
_cell_length_b 6.101007
_cell_length_c 16.586493
_cell_angle_alpha 90.000000
_cell_angle_beta 97.667450
_cell_angle_gamma 90.000000
_cell_volume 618.479522
_symmetry_space_group_name_H-M "P 2"
_symmetry_group_IT_number 3
_symmetry_cell_setting 'monoclinic'
loop_
_space_group_symop_operation_xyz
x,y,z
-x,y,-z
loop_
_atom_site_type_symbol
_atom_site_label
_atom_site_fract_x
_atom_site_fract_y
_atom_site_fract_z
Si Si1 0.134816 0.835940 0.430432
Si Si2 0.500000 0.567196 0.000000
Si Si3 0.476956 0.227583 0.216329
Si Si4 0.500000 0.174288 0.500000
Si Si5 0.208368 0.563352 0.851642
Si Si6 0.145778 0.295003 0.075445
Si Si7 0.457890 0.507490 0.363868
Si Si8 0.237119 0.844681 0.702401
O O1 0.258994 0.628631 0.398384
O O2 0.000000 0.746677 0.500000
O O3 0.973056 0.940758 0.354779
O O4 0.293889 0.026540 0.467388
O O5 0.366809 0.697214 0.923431
O O6 0.676197 0.415775 0.967420
O O7 0.663756 0.350845 0.175134
O O8 0.275936 0.147199 0.148018
O O9 0.374188 0.392570 0.277625
O O10 0.581901 0.023381 0.267000
O O11 0.562954 0.324929 0.427256
O O12 0.146600 0.731086 0.778611
O O13 0.990811 0.479310 0.883836
O O14 0.000000 0.164037 0.000000
O O15 0.650947 0.675508 0.353279
#
# Coordination Sequence:
#
# PCOD8045154 Si02
#       8
#     2   1   2   1   2   2   2   2
#     4  12  25  42  64  93 124 160 206 255 309 374
#     4   8  16  34  60  90 126 166 210 254 302 358
#     4  10  21  38  62  92 125 163 209 259 306 361
#     4  12  26  44  66  92 124 160 202 256 312 372
#     4   9  19  36  61  90 125 168 208 254 307 362
#     4   9  17  35  63  91 125 170 209 249 308 365
#     4  11  24  44  65  89 125 165 204 256 311 366
#     4  11  24  42  65  94 125 161 208 256 309 370
#
# _framework density 22.63616
#
# number of rings (size 3 to 8) (size 9 to 14) (size 15 to 20)
#    0.000    1.714    0.000    4.714    0.000    6.286 
#    0.000    5.714    0.000   15.429    0.000    0.000 
#    0.000    0.000    0.000    0.000    0.000    0.000 
#
# Total GULP energy -173498.719689 kJ/mol
# GULP energy per Si atom -12392.765692 kJ/mol
# Density = 2.258464 g / cm^3
# Si number density = 22.636160 Si / 1000 Ang^3
#
#
#
# Elastic Constant Matrix: (Units=GPa)
#
#
# Indices 1 2 3 4 5 6 
#
# 1 125.8276 51.0578 92.1697 0.0000 9.3189 0.0000
# 2 51.0578 86.7048 56.9047 0.0000 9.0144 0.0000
# 3 92.1697 56.9047 175.4222 0.0000 28.2271 0.0000
# 4 0.0000 0.0000 0.0000 10.4287 0.0000 7.0410
# 5 9.3189 9.0144 28.2271 0.0000 65.9838 0.0000
# 6 0.0000 0.0000 0.0000 7.0410 0.0000 19.4549
#
#
#
# Elastic Compliance Matrix: (Units=1/GPa)
#
#
# Indices 1 2 3 4 5 6 
#
# 1 0.014214 -0.004404 -0.006243 0.000000 0.001265 0.000000
# 2 -0.004404 0.016018 -0.002824 0.000000 -0.000358 0.000000
# 3 -0.006243 -0.002824 0.010409 0.000000 -0.003185 0.000000
# 4 0.000000 0.000000 0.000000 0.126896 0.000000 -0.045925
# 5 0.001265 -0.000358 -0.003185 0.000000 0.016388 0.000000
# 6 0.000000 0.000000 0.000000 -0.045925 0.000000 0.068022
#
#
# Mechanical properties :
#
#
# Convention : Reuss Voigt Hill
#
# Bulk Modulus (GPa) = 73.00386 87.57988 80.29187
# Shear Modulus (GPa) = 17.63941 31.69496 24.66719
#
# Velocity S-wave (km/s) = 2.79455 3.74597 3.30468
# Velocity P-wave (km/s) = 6.53710 7.58182 7.07876
#
# Compressibility (1/GPa) = 0.01369791
#
# Stress axis : x y z
#
# Youngs Moduli (GPa) = 70.35329 62.43079 96.06634
#
# Poissons Ratio (x) = 0.27497 0.59975
# Poissons Ratio (y) = 0.30986 0.27131
# Poissons Ratio (z) = 0.43922 0.17632
#
# Static dielectric constant tensor:
#      x y z
#    x 4.175010 0.000000 0.201950 
#    y 0.000000 3.622640 0.000000 
#    z 0.201950 0.000000 5.039450 
# 
# 
# High freq. dielectric constant tensor:
#      x y z
#    x 1.900580 0.000000 0.000430 
#    y 0.000000 1.845510 0.000000 
#    z 0.000430 0.000000 1.935720 
# 
# From -- ./inp_files/14619.got.cif
#   From: 2010.03.12/outbox.cif.g09.slc.cpg/sg3_8_cif.got.tgz:14619.got - 2010.03.31 09:20:49.
