data_PCOD8045401
_publ_section_title
;
Structure prediction by ZEFSAII (Michael W. Deem and Ramdas Pophale) SiO2 
 PCOD8045401
Probable space group: P 2
;
_chemical_formula_sum "Si O2"
_cell_formula_units_Z 12
_cell_length_a 9.021474
_cell_length_b 6.875639
_cell_length_c 14.140487
_cell_angle_alpha 90.000000
_cell_angle_beta 38.853808
_cell_angle_gamma 90.000000
_cell_volume 550.243286
_symmetry_space_group_name_H-M "P 2"
_symmetry_group_IT_number 3
_symmetry_cell_setting 'monoclinic'
loop_
_space_group_symop_operation_xyz
x,y,z
-x,y,-z
loop_
_atom_site_type_symbol
_atom_site_label
_atom_site_fract_x
_atom_site_fract_y
_atom_site_fract_z
Si Si1 0.233687 0.585380 0.801780
Si Si2 0.652882 0.799087 0.512468
Si Si3 0.356966 0.267918 0.870351
Si Si4 0.979321 0.486163 0.279878
Si Si5 0.000000 0.938843 0.000000
Si Si6 0.795161 0.196248 0.526750
Si Si7 0.500000 0.386445 0.000000
O O1 0.505632 0.638296 0.643983
O O2 0.215089 0.466968 0.911713
O O3 0.102124 0.794551 0.869377
O O4 0.119428 0.449045 0.777061
O O5 0.500000 0.877580 0.500000
O O6 0.889625 0.692781 0.360660
O O7 0.741781 0.973178 0.532027
O O8 0.559221 0.280035 0.690557
O O9 0.451880 0.259967 0.930054
O O10 0.206008 0.072390 0.939045
O O11 0.878212 0.308067 0.391538
O O12 0.263592 0.508590 0.138672
O O13 0.000000 0.212589 0.500000
#
# Coordination Sequence:
#
# PCOD8045401 Si02
#       7
#     2   2   2   2   1   2   1
#     4  11  24  46  73 107 134 183 232 290 346 401
#     4  10  24  42  74 106 132 179 237 287 338 406
#     4  12  26  46  74 100 143 185 228 290 344 415
#     4  11  25  46  71 104 140 177 235 285 348 414
#     4  12  24  46  72 106 140 176 242 288 340 408
#     4  12  25  46  72 103 141 185 230 280 350 421
#     4  12  26  46  68 102 142 192 220 280 362 404
#
# _framework density 21.808536
#
# number of rings (size 3 to 8) (size 9 to 14) (size 15 to 20)
#    0.000    0.667    5.000    2.500    2.333    4.667 
#    3.000    1.667    0.000    0.000    0.000    0.000 
#    0.000    0.000    0.000    0.000    0.000    0.000 
#
# Total GULP energy -148774.074914 kJ/mol
# GULP energy per Si atom -12397.839576 kJ/mol
# Density = 2.175890 g / cm^3
# Si number density = 21.808536 Si / 1000 Ang^3
#
#
#
# Elastic Constant Matrix: (Units=GPa)
#
#
# Indices 1 2 3 4 5 6 
#
# 1 120.5746 71.0560 58.5335 0.0000 11.0975 0.0000
# 2 71.0560 109.3472 39.9981 0.0000 2.1251 0.0000
# 3 58.5335 39.9981 139.4027 0.0000 -8.1819 0.0000
# 4 0.0000 0.0000 0.0000 45.9210 0.0000 -24.0659
# 5 11.0975 2.1251 -8.1819 0.0000 46.2818 0.0000
# 6 0.0000 0.0000 0.0000 -24.0659 0.0000 76.2759
#
#
#
# Elastic Compliance Matrix: (Units=1/GPa)
#
#
# Indices 1 2 3 4 5 6 
#
# 1 0.015942 -0.008646 -0.004460 0.000000 -0.004214 0.000000
# 2 -0.008646 0.014952 -0.000585 0.000000 0.001283 0.000000
# 3 -0.004460 -0.000585 0.009376 0.000000 0.002754 0.000000
# 4 0.000000 0.000000 0.000000 0.026091 0.000000 0.008232
# 5 -0.004214 0.001283 0.002754 0.000000 0.023045 0.000000
# 6 0.000000 0.000000 0.000000 0.008232 0.000000 0.015708
#
#
# Mechanical properties :
#
#
# Convention : Reuss Voigt Hill
#
# Bulk Modulus (GPa) = 77.59060 78.72218 78.15639
# Shear Modulus (GPa) = 36.55202 47.01153 41.78178
#
# Velocity S-wave (km/s) = 4.09839 4.64793 4.38179
# Velocity P-wave (km/s) = 7.61912 8.06100 7.84317
#
# Compressibility (1/GPa) = 0.01288816
#
# Stress axis : x y z
#
# Youngs Moduli (GPa) = 62.72746 66.87902 106.65858
#
# Poissons Ratio (x) = 0.57823 0.47575
# Poissons Ratio (y) = 0.54234 0.06235
# Poissons Ratio (z) = 0.27979 0.03910
#
# Static dielectric constant tensor:
#      x y z
#    x 3.850360 0.000000 -0.227490 
#    y 0.000000 3.681050 0.000000 
#    z -0.227490 0.000000 4.045380 
# 
# 
# High freq. dielectric constant tensor:
#      x y z
#    x 1.853910 0.000000 -0.004630 
#    y 0.000000 1.845760 0.000000 
#    z -0.004630 0.000000 1.890680 
# 
# From -- ./inp_files/8157.got.cif
#   From: 2010.03.12/outbox.cif.g09.slc.cpg/sg3_5_cif.got.tgz:8157.got - 2010.03.31 09:20:49.
