data_PCOD8045759
_publ_section_title
;
Structure prediction by ZEFSAII (Michael W. Deem and Ramdas Pophale) SiO2 
 PCOD8045759
Probable space group: P 21
;
_chemical_formula_sum "Si O2"
_cell_formula_units_Z 16
_cell_length_a 18.023996
_cell_length_b 7.781337
_cell_length_c 11.369929
_cell_angle_alpha 90.000000
_cell_angle_beta 150.613496
_cell_angle_gamma 90.000000
_cell_volume 782.488228
_symmetry_space_group_name_H-M "P 21"
_symmetry_group_IT_number 4
_symmetry_cell_setting 'monoclinic'
loop_
_space_group_symop_operation_xyz
x,y,z
-x,1/2+y,-z
loop_
_atom_site_type_symbol
_atom_site_label
_atom_site_fract_x
_atom_site_fract_y
_atom_site_fract_z
Si Si1 0.839034 0.483910 0.242702
Si Si2 0.362945 0.974845 0.230214
Si Si3 0.231081 0.338957 0.087563
Si Si4 0.494782 0.961992 0.649838
Si Si5 0.933049 0.213871 0.555558
Si Si6 0.358482 0.332585 0.501979
Si Si7 0.324764 0.497199 0.697634
Si Si8 0.414102 0.235391 0.017790
O O1 0.842442 0.350266 0.352627
O O2 0.001077 0.569273 0.441172
O O3 0.780729 0.395223 0.039594
O O4 0.724060 0.636879 0.113156
O O5 0.393302 0.888725 0.399719
O O6 0.506949 0.962690 0.343537
O O7 0.337075 0.175244 0.213357
O O8 0.329965 0.485924 0.155610
O O9 0.225253 0.361605 0.221230
O O10 0.062109 0.315804 0.806064
O O11 0.485589 0.832238 0.745826
O O12 0.428162 0.141985 0.602066
O O13 0.816845 0.125724 0.484099
O O14 0.293268 0.382970 0.538632
O O15 0.478366 0.606364 0.904200
O O16 0.337772 0.372661 0.826178
#
# Coordination Sequence:
#
# PCOD8045759 Si02
#       8
#     2   2   2   2   2   2   2   2
#     4  11  22  42  62  90 124 162 213 252 308 365
#     4   9  18  36  62  91 118 149 208 264 299 354
#     4   9  19  40  61  91 122 159 205 259 308 369
#     4  10  19  35  66  91 117 153 208 264 302 352
#     4  11  24  40  61  91 128 167 200 255 312 377
#     4  10  20  36  63  93 122 160 204 259 315 361
#     4  12  25  40  59  91 129 166 205 254 316 371
#     4  12  23  41  60  90 124 164 213 257 304 367
#
# _framework density 20.447590000000002
#
# number of rings (size 3 to 8) (size 9 to 14) (size 15 to 20)
#    0.000    1.500    3.750    2.250    1.750    0.000 
#    0.000    5.000    0.000    0.000    0.000    0.000 
#    0.000    0.000    0.000    0.000    0.000    0.000 
#
# Total GULP energy -198323.496486 kJ/mol
# GULP energy per Si atom -12395.218530 kJ/mol
# Density = 2.040105 g / cm^3
# Si number density = 20.447590 Si / 1000 Ang^3
#
#
#
# Elastic Constant Matrix: (Units=GPa)
#
#
# Indices 1 2 3 4 5 6 
#
# 1 93.4462 37.4511 40.4331 0.0000 -19.6145 0.0000
# 2 37.4511 60.6724 42.5043 0.0000 -16.7859 0.0000
# 3 40.4331 42.5043 98.8091 0.0000 -26.6723 0.0000
# 4 0.0000 0.0000 0.0000 29.3504 0.0000 1.2070
# 5 -19.6145 -16.7859 -26.6723 0.0000 39.4628 0.0000
# 6 0.0000 0.0000 0.0000 1.2070 0.0000 39.9951
#
#
#
# Elastic Compliance Matrix: (Units=1/GPa)
#
#
# Indices 1 2 3 4 5 6 
#
# 1 0.015106 -0.006778 -0.002468 0.000000 0.002958 0.000000
# 2 -0.006778 0.027129 -0.008184 0.000000 0.002639 0.000000
# 3 -0.002468 -0.008184 0.016366 0.000000 0.006354 0.000000
# 4 0.000000 0.000000 0.000000 0.034113 0.000000 -0.001029
# 5 0.002958 0.002639 0.006354 0.000000 0.032227 0.000000
# 6 0.000000 0.000000 0.000000 -0.001029 0.000000 0.025034
#
#
# Mechanical properties :
#
#
# Convention : Reuss Voigt Hill
#
# Bulk Modulus (GPa) = 42.11847 54.85609 48.48728
# Shear Modulus (GPa) = 25.94040 30.59759 28.26899
#
# Velocity S-wave (km/s) = 3.56565 3.87252 3.72225
# Velocity P-wave (km/s) = 6.13146 6.84698 6.49907
#
# Compressibility (1/GPa) = 0.02374255
#
# Stress axis : x y z
#
# Youngs Moduli (GPa) = 66.19815 36.86058 61.10227
#
# Poissons Ratio (x) = 0.24982 0.15078
# Poissons Ratio (y) = 0.44866 0.50007
# Poissons Ratio (z) = 0.16336 0.30167
#
# Static dielectric constant tensor:
#      x y z
#    x 3.786400 0.000000 -0.361170 
#    y 0.000000 3.632980 0.000000 
#    z -0.361170 0.000000 3.858720 
# 
# 
# High freq. dielectric constant tensor:
#      x y z
#    x 1.793410 0.000000 -0.026460 
#    y 0.000000 1.794330 0.000000 
#    z -0.026460 0.000000 1.797830 
# 
# From -- ./inp_files/11047.got.cif
#   From: 2010.03.12/outbox.cif.g09.slc.cpg/sg4_6_cif.got.tgz:11047.got - 2010.03.31 09:31:35.
