data_PCOD8045380
_publ_section_title
;
Structure prediction by ZEFSAII (Michael W. Deem and Ramdas Pophale) SiO2 
 PCOD8045380
Probable space group: P 2
;
_chemical_formula_sum "Si O2"
_cell_formula_units_Z 12
_cell_length_a 15.495880
_cell_length_b 5.196024
_cell_length_c 9.870323
_cell_angle_alpha 90.000000
_cell_angle_beta 38.254726
_cell_angle_gamma 90.000000
_cell_volume 492.063050
_symmetry_space_group_name_H-M "P 2"
_symmetry_group_IT_number 3
_symmetry_cell_setting 'monoclinic'
loop_
_space_group_symop_operation_xyz
x,y,z
-x,y,-z
loop_
_atom_site_type_symbol
_atom_site_label
_atom_site_fract_x
_atom_site_fract_y
_atom_site_fract_z
Si Si1 0.808916 0.509460 0.874804
Si Si2 0.499112 0.609985 0.657511
Si Si3 0.443439 0.105747 0.278613
Si Si4 0.992107 0.292448 0.170232
Si Si5 0.277481 0.112491 0.218946
Si Si6 0.073305 0.777301 0.605995
O O1 0.856079 0.331313 0.945835
O O2 0.818549 0.343634 0.722257
O O3 0.921192 0.742381 0.723054
O O4 0.656323 0.620415 0.089698
O O5 0.500000 0.675391 0.500000
O O6 0.567776 0.331787 0.597068
O O7 0.595515 0.829693 0.609030
O O8 0.344386 0.191181 0.279335
O O9 0.602847 0.066806 0.037256
O O10 0.889917 0.519372 0.353759
O O11 0.927709 0.019287 0.290007
O O12 0.000000 0.313832 0.000000
O O13 0.190173 0.846785 0.348119
#
# Coordination Sequence:
#
# PCOD8045380 Si02
#       6
#     2   2   2   2   2   2
#     4   9  25  45  71 105 144 188 230 301 348 424
#     4  11  24  46  71 102 137 188 243 286 354 416
#     4  10  25  44  72 105 136 190 231 307 338 417
#     4  10  23  45  66 102 140 184 236 282 350 417
#     4  10  23  48  70 105 148 178 245 285 363 426
#     4  10  24  43  69 104 135 194 223 292 360 410
#
# _framework density 24.387121
#
# number of rings (size 3 to 8) (size 9 to 14) (size 15 to 20)
#    1.000    1.000    0.000    1.000    4.667   12.667 
#    6.000    0.000    0.000    0.000    0.000    0.000 
#    0.000    0.000    0.000    0.000    0.000    0.000 
#
# Total GULP energy -148740.406828 kJ/mol
# GULP energy per Si atom -12395.033902 kJ/mol
# Density = 2.433161 g / cm^3
# Si number density = 24.387121 Si / 1000 Ang^3
#
#
#
# Elastic Constant Matrix: (Units=GPa)
#
#
# Indices 1 2 3 4 5 6 
#
# 1 103.0487 55.1004 31.1696 0.0000 31.8941 0.0000
# 2 55.1004 172.3448 45.6846 0.0000 16.3333 0.0000
# 3 31.1696 45.6846 72.2809 0.0000 19.3555 0.0000
# 4 0.0000 0.0000 0.0000 20.5803 0.0000 -4.5437
# 5 31.8941 16.3333 19.3555 0.0000 41.8002 0.0000
# 6 0.0000 0.0000 0.0000 -4.5437 0.0000 34.9956
#
#
#
# Elastic Compliance Matrix: (Units=1/GPa)
#
#
# Indices 1 2 3 4 5 6 
#
# 1 0.014935 -0.003421 -0.001809 0.000000 -0.009221 0.000000
# 2 -0.003421 0.007776 -0.003796 0.000000 0.001330 0.000000
# 3 -0.001809 -0.003796 0.018547 0.000000 -0.005725 0.000000
# 4 0.000000 0.000000 0.000000 0.050024 0.000000 0.006495
# 5 -0.009221 0.001330 -0.005725 0.000000 0.033090 0.000000
# 6 0.000000 0.000000 0.000000 0.006495 0.000000 0.029418
#
#
# Mechanical properties :
#
#
# Convention : Reuss Voigt Hill
#
# Bulk Modulus (GPa) = 43.09122 67.95373 55.52248
# Shear Modulus (GPa) = 27.84320 33.85655 30.84988
#
# Velocity S-wave (km/s) = 3.38260 3.73003 3.56055
# Velocity P-wave (km/s) = 5.74143 6.81732 6.30238
#
# Compressibility (1/GPa) = 0.02320658
#
# Stress axis : x y z
#
# Youngs Moduli (GPa) = 66.95878 128.59577 53.91766
#
# Poissons Ratio (x) = 0.43998 0.09751
# Poissons Ratio (y) = 0.22910 0.20465
# Poissons Ratio (z) = 0.12110 0.48809
#
# Static dielectric constant tensor:
#      x y z
#    x 4.305160 0.000000 -0.027830 
#    y 0.000000 4.445160 0.000000 
#    z -0.027830 0.000000 4.171750 
# 
# 
# High freq. dielectric constant tensor:
#      x y z
#    x 1.974910 0.000000 0.008510 
#    y 0.000000 1.979030 0.000000 
#    z 0.008510 0.000000 1.950520 
# 
# From -- ./inp_files/8786.got.cif
#   From: 2010.03.12/outbox.cif.g09.slc.cpg/sg3_5_cif.got.tgz:8786.got - 2010.03.31 09:20:49.
