data_PCOD8045323
_publ_section_title
;
Structure prediction by ZEFSAII (Michael W. Deem and Ramdas Pophale) SiO2 
 PCOD8045323
Probable space group: P 2
;
_chemical_formula_sum "Si O2"
_cell_formula_units_Z 9
_cell_length_a 8.925600
_cell_length_b 7.292251
_cell_length_c 9.364812
_cell_angle_alpha 90.000000
_cell_angle_beta 46.248204
_cell_angle_gamma 90.000000
_cell_volume 440.292341
_symmetry_space_group_name_H-M "P 2"
_symmetry_group_IT_number 3
_symmetry_cell_setting 'monoclinic'
loop_
_space_group_symop_operation_xyz
x,y,z
-x,y,-z
loop_
_atom_site_type_symbol
_atom_site_label
_atom_site_fract_x
_atom_site_fract_y
_atom_site_fract_z
Si Si1 0.166070 0.956980 0.175116
Si Si2 0.436526 0.884181 0.259592
Si Si3 0.881376 0.623732 0.442450
Si Si4 0.500000 0.098570 0.500000
Si Si5 0.083817 0.291965 0.792449
O O1 0.285149 0.989147 0.246803
O O2 0.986413 0.808215 0.312003
O O3 0.329395 0.875482 0.952565
O O4 0.069342 0.147334 0.183794
O O5 0.349295 0.678864 0.348844
O O6 0.421074 0.982938 0.419640
O O7 0.880241 0.471242 0.324164
O O8 0.000000 0.541375 0.500000
O O9 0.308669 0.215996 0.679754
O O10 0.000000 0.355399 0.000000
#
# Coordination Sequence:
#
# PCOD8045323 Si02
#       5
#     2   2   2   1   2
#     4  10  22  46  68  92 132 178 220 266 328 394
#     4  10  22  43  69  96 129 173 217 271 327 387
#     4  10  24  42  68  96 131 175 218 270 327 393
#     4  12  24  38  66 100 128 172 218 270 328 380
#     4  12  26  42  64 102 135 174 219 272 332 388
#
# _framework density 20.440964000000001
#
# number of rings (size 3 to 8) (size 9 to 14) (size 15 to 20)
#    0.000    1.333    4.444    0.000    3.111    5.333 
#    0.000    2.222    0.000    0.000    0.000    0.000 
#    0.000    0.000    0.000    0.000    0.000    0.000 
#
# Total GULP energy -111580.796588 kJ/mol
# GULP energy per Si atom -12397.866288 kJ/mol
# Density = 2.039444 g / cm^3
# Si number density = 20.440964 Si / 1000 Ang^3
#
#
#
# Elastic Constant Matrix: (Units=GPa)
#
#
# Indices 1 2 3 4 5 6 
#
# 1 88.6579 41.5274 44.7927 0.0000 5.6950 0.0000
# 2 41.5274 74.2172 33.1412 0.0000 12.2083 0.0000
# 3 44.7927 33.1412 121.7164 0.0000 3.4578 0.0000
# 4 0.0000 0.0000 0.0000 64.5681 0.0000 64.4247
# 5 5.6950 12.2083 3.4578 0.0000 42.4257 0.0000
# 6 0.0000 0.0000 0.0000 64.4247 0.0000 150.4960
#
#
#
# Elastic Compliance Matrix: (Units=1/GPa)
#
#
# Indices 1 2 3 4 5 6 
#
# 1 0.016959 -0.007677 -0.004158 0.000000 0.000272 0.000000
# 2 -0.007677 0.019554 -0.002374 0.000000 -0.004403 0.000000
# 3 -0.004158 -0.002374 0.010381 0.000000 0.000395 0.000000
# 4 0.000000 0.000000 0.000000 0.027035 0.000000 -0.011573
# 5 0.000272 -0.004403 0.000395 0.000000 0.024769 0.000000
# 6 0.000000 0.000000 0.000000 -0.011573 0.000000 0.011599
#
#
# Mechanical properties :
#
#
# Convention : Reuss Voigt Hill
#
# Bulk Modulus (GPa) = 54.12590 58.16822 56.14706
# Shear Modulus (GPa) = 34.51294 62.50665 48.50979
#
# Velocity S-wave (km/s) = 4.11350 5.53584 4.87680
# Velocity P-wave (km/s) = 7.00698 8.32941 7.69665
#
# Compressibility (1/GPa) = 0.01847544
#
# Stress axis : x y z
#
# Youngs Moduli (GPa) = 58.96703 51.14122 96.32710
#
# Poissons Ratio (x) = 0.39260 0.40057
# Poissons Ratio (y) = 0.45268 0.22867
# Poissons Ratio (z) = 0.24521 0.12141
#
# Static dielectric constant tensor:
#      x y z
#    x 3.844670 0.000000 -0.097280 
#    y 0.000000 3.461500 0.000000 
#    z -0.097280 0.000000 4.000770 
# 
# 
# High freq. dielectric constant tensor:
#      x y z
#    x 1.810490 0.000000 0.000350 
#    y 0.000000 1.772420 0.000000 
#    z 0.000350 0.000000 1.826740 
# 
# From -- ./inp_files/4645.got.cif
#   From: 2010.03.12/outbox.cif.g09.slc.cpg/sg3_3_cif.got.tgz:4645.got - 2010.03.31 09:20:49.
