data_PCOD8045776
_publ_section_title
;
Structure prediction by ZEFSAII (Michael W. Deem and Ramdas Pophale) SiO2 
 PCOD8045776
Probable space group: P 21
;
_chemical_formula_sum "Si O2"
_cell_formula_units_Z 16
_cell_length_a 17.430713
_cell_length_b 5.305788
_cell_length_c 18.127375
_cell_angle_alpha 90.000000
_cell_angle_beta 153.211906
_cell_angle_gamma 90.000000
_cell_volume 755.578975
_symmetry_space_group_name_H-M "P 21"
_symmetry_group_IT_number 4
_symmetry_cell_setting 'monoclinic'
loop_
_space_group_symop_operation_xyz
x,y,z
-x,1/2+y,-z
loop_
_atom_site_type_symbol
_atom_site_label
_atom_site_fract_x
_atom_site_fract_y
_atom_site_fract_z
Si Si1 0.633952 0.522580 0.277166
Si Si2 0.468555 0.550098 0.428819
Si Si3 0.068468 0.524900 0.264257
Si Si4 0.370634 0.522076 0.785955
Si Si5 0.302020 0.520688 0.894657
Si Si6 0.914784 0.041137 0.896556
Si Si7 0.762368 0.520166 0.101789
Si Si8 0.732035 0.519420 0.525979
O O1 0.728353 0.269761 0.328477
O O2 0.631577 0.529311 0.362966
O O3 0.728838 0.773113 0.327537
O O4 0.444500 0.520256 0.080705
O O5 0.496705 0.333059 0.513551
O O6 0.275702 0.534996 0.236147
O O7 0.590086 0.490177 0.465825
O O8 0.078531 0.542875 0.185508
O O9 0.160000 0.272549 0.370686
O O10 0.870733 0.516796 0.119327
O O11 0.150814 0.772347 0.371104
O O12 0.390877 0.523301 0.891288
O O13 0.559814 0.519789 0.911955
O O14 0.188865 0.269282 0.808447
O O15 0.188032 0.771226 0.807797
O O16 0.995775 0.295124 0.995972
#
# Coordination Sequence:
#
# PCOD8045776 Si02
#       8
#     2   2   2   2   2   2   2   2
#     4  10  20  33  59  93 117 152 211 258 309 369
#     4  12  23  46  72  94 129 184 226 252 337 414
#     4  12  25  43  62  88 133 169 205 267 337 383
#     4  10  19  36  63  89 123 158 205 269 325 378
#     4  10  19  37  63  89 121 161 205 266 326 383
#     4  12  26  43  69 102 131 164 223 285 329 387
#     4  10  20  34  60  87 119 158 204 246 330 379
#     4  12  24  42  66  88 127 174 219 259 307 409
#
# _framework density 21.175813000000002
#
# number of rings (size 3 to 8) (size 9 to 14) (size 15 to 20)
#    0.000    1.000    2.500    6.750    0.000    4.000 
#    0.000    0.000    0.000   25.500    0.000    0.000 
#    0.000    0.000    0.000    0.000    0.000    0.000 
#
# Total GULP energy -198320.230640 kJ/mol
# GULP energy per Si atom -12395.014415 kJ/mol
# Density = 2.112762 g / cm^3
# Si number density = 21.175813 Si / 1000 Ang^3
#
#
#
# Elastic Constant Matrix: (Units=GPa)
#
#
# Indices 1 2 3 4 5 6 
#
# 1 89.1945 23.9962 33.9042 0.0000 -17.0365 0.0000
# 2 23.9962 221.7392 33.4042 0.0000 -7.8734 0.0000
# 3 33.9042 33.4042 76.0291 0.0000 -8.9210 0.0000
# 4 0.0000 0.0000 0.0000 26.8768 0.0000 -4.4816
# 5 -17.0365 -7.8734 -8.9210 0.0000 31.8718 0.0000
# 6 0.0000 0.0000 0.0000 -4.4816 0.0000 21.3109
#
#
#
# Elastic Compliance Matrix: (Units=1/GPa)
#
#
# Indices 1 2 3 4 5 6 
#
# 1 0.014646 -0.000526 -0.005580 0.000000 0.006137 0.000000
# 2 -0.000526 0.004860 -0.001854 0.000000 0.000400 0.000000
# 3 -0.005580 -0.001854 0.016597 0.000000 0.001205 0.000000
# 4 0.000000 0.000000 0.000000 0.038559 0.000000 0.008109
# 5 0.006137 0.000400 0.001205 0.000000 0.035092 0.000000
# 6 0.000000 0.000000 0.000000 0.008109 0.000000 0.048630
#
#
# Mechanical properties :
#
#
# Convention : Reuss Voigt Hill
#
# Bulk Modulus (GPa) = 49.54564 63.28578 56.41571
# Shear Modulus (GPa) = 27.61942 35.72246 31.67094
#
# Velocity S-wave (km/s) = 3.61541 4.11170 3.87152
# Velocity P-wave (km/s) = 6.39346 7.24515 6.83259
#
# Compressibility (1/GPa) = 0.02018341
#
# Stress axis : x y z
#
# Youngs Moduli (GPa) = 68.27667 205.75121 60.25209
#
# Poissons Ratio (x) = 0.10833 0.33620
# Poissons Ratio (y) = 0.03595 0.11169
# Poissons Ratio (z) = 0.38098 0.38139
#
# Static dielectric constant tensor:
#      x y z
#    x 3.898100 0.000000 -0.066950 
#    y 0.000000 5.626890 0.000000 
#    z -0.066950 0.000000 3.514540 
# 
# 
# High freq. dielectric constant tensor:
#      x y z
#    x 1.828810 0.000000 -0.005350 
#    y 0.000000 1.878420 0.000000 
#    z -0.005350 0.000000 1.791100 
# 
# From -- ./inp_files/14119.got.cif
#   From: 2010.03.12/outbox.cif.g09.slc.cpg/sg4_8_cif.got.tgz:14119.got - 2010.03.31 09:31:35.
