data_PCOD8045560
_publ_section_title
;
Structure prediction by ZEFSAII (Michael W. Deem and Ramdas Pophale) SiO2 
 PCOD8045560
Probable space group: P 2
;
_chemical_formula_sum "Si O2"
_cell_formula_units_Z 8
_cell_length_a 7.537209
_cell_length_b 8.890449
_cell_length_c 8.040028
_cell_angle_alpha 90.000000
_cell_angle_beta 34.496090
_cell_angle_gamma 90.000000
_cell_volume 305.124243
_symmetry_space_group_name_H-M "P 2"
_symmetry_group_IT_number 3
_symmetry_cell_setting 'monoclinic'
loop_
_space_group_symop_operation_xyz
x,y,z
-x,y,-z
loop_
_atom_site_type_symbol
_atom_site_label
_atom_site_fract_x
_atom_site_fract_y
_atom_site_fract_z
Si Si1 0.323300 0.616650 0.354591
Si Si2 0.939493 0.796900 0.861766
Si Si3 0.678246 0.336909 0.195910
Si Si4 0.836496 0.100119 0.790147
O O1 0.602711 0.723697 0.073665
O O2 0.450356 0.446831 0.269594
O O3 0.000000 0.625412 0.500000
O O4 0.216037 0.676048 0.616760
O O5 0.000000 0.849071 0.000000
O O6 0.015603 0.946576 0.696413
O O7 0.500000 0.274274 0.500000
O O8 0.801149 0.207681 0.977288
O O9 0.000000 0.422707 0.000000
O O10 0.000000 0.176926 0.500000
O O11 0.500000 0.044388 0.000000
#
# Coordination Sequence:
#
# PCOD8045560 Si02
#       4
#     2   2   2   2
#     4  12  26  47  75 110 147 193 248 310 372 442
#     4  12  25  46  76 109 147 195 249 307 371 443
#     4  12  27  49  76 111 151 197 249 309 374 445
#     4  12  27  48  74 110 151 197 249 308 372 444
#
# _framework density 26.218827999999998
#
# number of rings (size 3 to 8) (size 9 to 14) (size 15 to 20)
#    0.000    0.000    0.000   11.250    0.000    7.000 
#    0.000    3.750    0.000    0.000    0.000    0.000 
#    0.000    0.000    0.000    0.000    0.000    0.000 
#
# Total GULP energy -99113.821690 kJ/mol
# GULP energy per Si atom -12389.227711 kJ/mol
# Density = 2.615915 g / cm^3
# Si number density = 26.218828 Si / 1000 Ang^3
#
#
#
# Elastic Constant Matrix: (Units=GPa)
#
#
# Indices 1 2 3 4 5 6 
#
# 1 84.1051 40.6832 44.3704 0.0000 -0.9973 0.0000
# 2 40.6832 126.3054 61.4941 0.0000 3.4587 0.0000
# 3 44.3704 61.4941 195.8361 0.0000 18.3336 0.0000
# 4 0.0000 0.0000 0.0000 35.6128 0.0000 -0.1350
# 5 -0.9973 3.4587 18.3336 0.0000 62.4377 0.0000
# 6 0.0000 0.0000 0.0000 -0.1350 0.0000 28.9828
#
#
#
# Elastic Compliance Matrix: (Units=1/GPa)
#
#
# Indices 1 2 3 4 5 6 
#
# 1 0.014921 -0.003706 -0.002322 0.000000 0.001126 0.000000
# 2 -0.003706 0.010274 -0.002393 0.000000 0.000074 0.000000
# 3 -0.002322 -0.002393 0.006555 0.000000 -0.001829 0.000000
# 4 0.000000 0.000000 0.000000 0.028080 0.000000 0.000131
# 5 0.001126 0.000074 -0.001829 0.000000 0.016567 0.000000
# 6 0.000000 0.000000 0.000000 0.000131 0.000000 0.034504
#
#
# Mechanical properties :
#
#
# Convention : Reuss Voigt Hill
#
# Bulk Modulus (GPa) = 67.08354 77.70465 72.39410
# Shear Modulus (GPa) = 37.67474 42.71993 40.19733
#
# Velocity S-wave (km/s) = 3.79480 4.04091 3.91979
# Velocity P-wave (km/s) = 6.69644 7.17449 6.93958
#
# Compressibility (1/GPa) = 0.01490679
#
# Stress axis : x y z
#
# Youngs Moduli (GPa) = 67.01891 97.32924 152.54881
#
# Poissons Ratio (x) = 0.36074 0.35425
# Poissons Ratio (y) = 0.24839 0.36512
# Poissons Ratio (z) = 0.15563 0.23295
#
# Static dielectric constant tensor:
#      x y z
#    x 4.823440 0.000000 -0.103090 
#    y 0.000000 4.288010 0.000000 
#    z -0.103090 0.000000 5.301660 
# 
# 
# High freq. dielectric constant tensor:
#      x y z
#    x 2.067640 0.000000 -0.000460 
#    y 0.000000 2.037450 0.000000 
#    z -0.000460 0.000000 2.076460 
# 
# From -- ./inp_files/4077.got.cif
#   From: 2010.03.12/outbox.cif.g09.slc.cpg/sg3_3_cif.got.tgz:4077.got - 2010.03.31 09:20:49.
