data_PCOD8045067
_publ_section_title
;
Structure prediction by ZEFSAII (Michael W. Deem and Ramdas Pophale) SiO2 
 PCOD8045067
Probable space group: P 2
;
_chemical_formula_sum "Si O2"
_cell_formula_units_Z 16
_cell_length_a 9.601308
_cell_length_b 17.846367
_cell_length_c 8.585683
_cell_angle_alpha 90.000000
_cell_angle_beta 149.475037
_cell_angle_gamma 90.000000
_cell_volume 747.214018
_symmetry_space_group_name_H-M "P 2"
_symmetry_group_IT_number 3
_symmetry_cell_setting 'monoclinic'
loop_
_space_group_symop_operation_xyz
x,y,z
-x,y,-z
loop_
_atom_site_type_symbol
_atom_site_label
_atom_site_fract_x
_atom_site_fract_y
_atom_site_fract_z
Si Si1 0.411814 0.803130 0.092340
Si Si2 0.433581 0.341502 0.111840
Si Si3 0.766264 0.957712 0.161510
Si Si4 0.476318 0.186909 0.301246
Si Si5 0.911400 0.414630 0.737699
Si Si6 0.770282 0.575100 0.661717
Si Si7 0.015472 0.085811 0.189710
Si Si8 0.102191 0.732705 0.273846
O O1 0.660048 0.791199 0.452305
O O2 0.500000 0.793056 0.000000
O O3 0.318492 0.889202 0.032313
O O4 0.164297 0.744709 0.876847
O O5 0.501242 0.254007 0.202194
O O6 0.610081 0.385127 0.410171
O O7 0.500000 0.363715 0.000000
O O8 0.121448 0.368792 0.832516
O O9 0.000000 0.925263 0.500000
O O10 0.909563 0.024255 0.206019
O O11 0.500000 0.987637 0.000000
O O12 0.500000 0.218488 0.500000
O O13 0.683507 0.116927 0.473289
O O14 0.170491 0.158961 0.980514
O O15 0.886983 0.503864 0.678092
O O16 0.000000 0.400971 0.000000
O O17 0.500000 0.553272 0.500000
O O18 0.751138 0.651768 0.544067
O O19 0.000000 0.602338 0.000000
O O20 0.000000 0.052017 0.000000
O O21 0.000000 0.747216 0.000000
#
# Coordination Sequence:
#
# PCOD8045067 Si02
#       8
#     2   2   2   2   2   2   2   2
#     4  11  23  41  61  89 129 169 205 250 315 385
#     4  12  25  40  60  94 130 159 201 260 308 359
#     4  11  23  41  63  88 123 168 209 252 309 382
#     4  10  21  39  62  88 120 162 203 247 305 375
#     4  11  22  41  66  88 118 168 211 247 305 378
#     4  10  20  38  63  93 122 157 210 265 310 367
#     4  10  22  40  63  90 119 152 204 261 305 356
#     4  11  22  40  65  94 122 159 212 268 312 362
#
# _framework density 21.412875
#
# number of rings (size 3 to 8) (size 9 to 14) (size 15 to 20)
#    0.000    1.250    0.000    8.250    0.000    3.000 
#    0.000    8.750    0.000    0.000    0.000    0.000 
#    0.000    0.000    0.000    0.000    0.000    0.000 
#
# Total GULP energy -198321.422981 kJ/mol
# GULP energy per Si atom -12395.088936 kJ/mol
# Density = 2.136414 g / cm^3
# Si number density = 21.412875 Si / 1000 Ang^3
#
#
#
# Elastic Constant Matrix: (Units=GPa)
#
#
# Indices 1 2 3 4 5 6 
#
# 1 87.4100 49.5149 18.9270 0.0000 14.1850 0.0000
# 2 49.5149 106.5520 25.8401 0.0000 -3.4444 0.0000
# 3 18.9270 25.8401 102.8690 0.0000 6.2185 0.0000
# 4 0.0000 0.0000 0.0000 18.0932 0.0000 9.4291
# 5 14.1850 -3.4444 6.2185 0.0000 35.0157 0.0000
# 6 0.0000 0.0000 0.0000 9.4291 0.0000 27.8285
#
#
#
# Elastic Compliance Matrix: (Units=1/GPa)
#
#
# Indices 1 2 3 4 5 6 
#
# 1 0.017509 -0.008221 -0.000686 0.000000 -0.007780 0.000000
# 2 -0.008221 0.013927 -0.002295 0.000000 0.005108 0.000000
# 3 -0.000686 -0.002295 0.010534 0.000000 -0.001819 0.000000
# 4 0.000000 0.000000 0.000000 0.067122 0.000000 -0.022743
# 5 -0.007780 0.005108 -0.001819 0.000000 0.032536 0.000000
# 6 0.000000 0.000000 0.000000 -0.022743 0.000000 0.043640
#
#
# Mechanical properties :
#
#
# Convention : Reuss Voigt Hill
#
# Bulk Modulus (GPa) = 51.11030 53.93278 52.52154
# Shear Modulus (GPa) = 23.34351 29.69076 26.51714
#
# Velocity S-wave (km/s) = 3.30534 3.72773 3.52287
# Velocity P-wave (km/s) = 6.20386 6.61587 6.41317
#
# Compressibility (1/GPa) = 0.01956553
#
# Stress axis : x y z
#
# Youngs Moduli (GPa) = 57.11507 71.80217 94.93408
#
# Poissons Ratio (x) = 0.59031 0.06512
# Poissons Ratio (y) = 0.46956 0.21783
# Poissons Ratio (z) = 0.03918 0.16475
#
# Static dielectric constant tensor:
#      x y z
#    x 3.788710 0.000000 0.124060 
#    y 0.000000 3.858160 0.000000 
#    z 0.124060 0.000000 4.156360 
# 
# 
# High freq. dielectric constant tensor:
#      x y z
#    x 1.822170 0.000000 0.016910 
#    y 0.000000 1.843720 0.000000 
#    z 0.016910 0.000000 1.858840 
# 
# From -- ./inp_files/6300.got.cif
#   From: 2010.03.12/outbox.cif.g09.slc.cpg/sg3_4_cif.got.tgz:6300.got - 2010.03.31 09:20:49.
