data_PCOD8045312
_publ_section_title
;
Structure prediction by ZEFSAII (Michael W. Deem and Ramdas Pophale) SiO2 
 PCOD8045312
Probable space group: P 2
;
_chemical_formula_sum "Si O2"
_cell_formula_units_Z 15
_cell_length_a 9.264010
_cell_length_b 11.063486
_cell_length_c 8.639853
_cell_angle_alpha 90.000000
_cell_angle_beta 131.901677
_cell_angle_gamma 90.000000
_cell_volume 659.083910
_symmetry_space_group_name_H-M "P 2"
_symmetry_group_IT_number 3
_symmetry_cell_setting 'monoclinic'
loop_
_space_group_symop_operation_xyz
x,y,z
-x,y,-z
loop_
_atom_site_type_symbol
_atom_site_label
_atom_site_fract_x
_atom_site_fract_y
_atom_site_fract_z
Si Si1 0.590590 0.078040 0.908154
Si Si2 0.000000 0.293911 0.500000
Si Si3 0.880870 0.674717 0.063820
Si Si4 0.239650 0.132491 0.442887
Si Si5 0.479095 0.808083 0.156033
Si Si6 0.111671 0.874758 0.421263
Si Si7 0.289102 0.443403 0.916088
Si Si8 0.211072 0.262189 0.112138
O O1 0.444308 0.111652 0.668388
O O2 0.790034 0.149245 0.011771
O O3 0.628236 0.936566 0.947031
O O4 0.500000 0.131029 0.000000
O O5 0.094795 0.211348 0.438858
O O6 0.167104 0.372206 0.700690
O O7 0.840263 0.561665 0.145005
O O8 0.994640 0.778115 0.238320
O O9 0.672409 0.726572 0.856693
O O10 0.000000 0.632424 0.000000
O O11 0.297060 0.207993 0.331502
O O12 0.143554 0.999010 0.347815
O O13 0.680241 0.815831 0.389770
O O14 0.500000 0.750070 0.000000
O O15 0.000000 0.906800 0.500000
O O16 0.500000 0.476573 0.000000
O O17 0.322575 0.371101 0.103805
O O18 0.000000 0.310760 0.000000
#
# Coordination Sequence:
#
# PCOD8045312 Si02
#       8
#     2   1   2   2   2   2   2   2
#     4  10  23  40  66 104 146 188 232 289 356 444
#     4  12  24  46  74 106 138 192 238 300 366 428
#     4  12  29  47  73 104 146 191 247 307 362 421
#     4  11  24  41  72 109 148 184 232 295 377 433
#     4  10  22  42  71 103 142 187 237 289 359 426
#     4  11  24  44  75 112 148 190 245 294 361 449
#     4  12  29  51  74 101 141 196 255 300 356 435
#     4  12  24  41  70 102 149 179 237 295 362 423
#
# _framework density 22.758862000000001
#
# number of rings (size 3 to 8) (size 9 to 14) (size 15 to 20)
#    0.000    0.800    3.333    3.200    4.667    0.533 
#    0.000    0.000    2.933    0.000    0.000    0.000 
#    0.000    0.000    0.000    0.000    0.000    0.000 
#
# Total GULP energy -185918.030413 kJ/mol
# GULP energy per Si atom -12394.535361 kJ/mol
# Density = 2.270706 g / cm^3
# Si number density = 22.758862 Si / 1000 Ang^3
#
#
#
# Elastic Constant Matrix: (Units=GPa)
#
#
# Indices 1 2 3 4 5 6 
#
# 1 149.1458 51.8632 31.2331 0.0000 -2.8594 0.0000
# 2 51.8632 112.2981 53.2581 0.0000 0.3131 0.0000
# 3 31.2331 53.2581 88.4535 0.0000 -4.8512 0.0000
# 4 0.0000 0.0000 0.0000 -21.2255 0.0000 -54.5230
# 5 -2.8594 0.3131 -4.8512 0.0000 37.4369 0.0000
# 6 0.0000 0.0000 0.0000 -54.5230 0.0000 -27.6697
#
#
#
# Elastic Compliance Matrix: (Units=1/GPa)
#
#
# Indices 1 2 3 4 5 6 
#
# 1 0.008043 -0.003336 -0.000802 0.000000 0.000538 0.000000
# 2 -0.003336 0.013891 -0.007258 0.000000 -0.001311 0.000000
# 3 -0.000802 -0.007258 0.016073 0.000000 0.002082 0.000000
# 4 0.000000 0.000000 0.000000 0.011599 0.000000 -0.022856
# 5 0.000538 -0.001311 0.002082 0.000000 0.027034 0.000000
# 6 0.000000 0.000000 0.000000 -0.022856 0.000000 0.008898
#
#
# Mechanical properties :
#
#
# Convention : Reuss Voigt Hill
#
# Bulk Modulus (GPa) = 65.72212 69.17846 67.45029
# Shear Modulus (GPa) = 44.09116 11.94453 28.01784
#
# Velocity S-wave (km/s) = 4.40627 2.29340 3.51247
# Velocity P-wave (km/s) = 7.40454 6.12170 6.79347
#
# Compressibility (1/GPa) = 0.01521558
#
# Stress axis : x y z
#
# Youngs Moduli (GPa) = 124.33068 71.98780 62.21659
#
# Poissons Ratio (x) = 0.24013 0.04990
# Poissons Ratio (y) = 0.41473 0.45157
# Poissons Ratio (z) = 0.09972 0.52249
#
# Static dielectric constant tensor:
#      x y z
#    x 4.578610 0.000000 -0.020110 
#    y 0.000000 4.171130 0.000000 
#    z -0.020110 0.000000 4.148900 
# 
# 
# High freq. dielectric constant tensor:
#      x y z
#    x 1.919940 0.000000 0.006590 
#    y 0.000000 1.896280 0.000000 
#    z 0.006590 0.000000 1.887820 
# 
# From -- ./inp_files/6072.got.cif
#   From: 2010.03.12/outbox.cif.g09.slc.cpg/sg3_4_cif.got.tgz:6072.got - 2010.03.31 09:20:49.
