data_PCOD8045033
_publ_section_title
;
Structure prediction by ZEFSAII (Michael W. Deem and Ramdas Pophale) SiO2 
 PCOD8045033
Probable space group: P 2
;
_chemical_formula_sum "Si O2"
_cell_formula_units_Z 14
_cell_length_a 7.398667
_cell_length_b 8.672062
_cell_length_c 13.848511
_cell_angle_alpha 90.000000
_cell_angle_beta 53.419690
_cell_angle_gamma 90.000000
_cell_volume 713.520662
_symmetry_space_group_name_H-M "P 2"
_symmetry_group_IT_number 3
_symmetry_cell_setting 'monoclinic'
loop_
_space_group_symop_operation_xyz
x,y,z
-x,y,-z
loop_
_atom_site_type_symbol
_atom_site_label
_atom_site_fract_x
_atom_site_fract_y
_atom_site_fract_z
Si Si1 0.010102 0.386880 0.221880
Si Si2 0.361016 0.053449 0.893758
Si Si3 0.107520 0.562225 0.362925
Si Si4 0.962465 0.061258 0.168325
Si Si5 0.852158 0.614336 0.962857
Si Si6 0.227444 0.832145 0.185677
Si Si7 0.470734 0.390267 0.160936
O O1 0.935204 0.463676 0.348358
O O2 0.963673 0.505431 0.149473
O O3 0.890847 0.224881 0.238116
O O4 0.285284 0.371834 0.134271
O O5 0.230962 0.994657 0.839533
O O6 0.448449 0.221505 0.836248
O O7 0.549731 0.929498 0.860694
O O8 0.196661 0.078999 0.036083
O O9 0.166915 0.724894 0.294585
O O10 0.339673 0.463905 0.295935
O O11 0.000000 0.593221 0.500000
O O12 0.011956 0.944200 0.240096
O O13 0.741886 0.738426 0.925174
O O14 0.658936 0.511010 0.070849
O O15 0.000000 0.698047 0.000000
#
# Coordination Sequence:
#
# PCOD8045033 Si02
#       7
#     2   2   2   2   2   2   2
#     4   9  19  35  60  86 120 150 199 244 293 357
#     4  11  23  36  59  89 130 161 185 237 305 375
#     4   9  22  40  63  84 111 165 211 252 296 335
#     4  11  22  35  57  92 127 158 188 233 307 373
#     4  11  22  34  55  93 126 154 192 245 308 369
#     4  11  24  36  59  86 128 155 201 244 293 369
#     4  10  20  36  61  84 117 156 198 249 288 358
#
# _framework density 19.621016999999998
#
# number of rings (size 3 to 8) (size 9 to 14) (size 15 to 20)
#    0.857    0.857    2.857    1.714    6.000    0.000 
#    0.000    2.857    0.000   15.429    0.000    0.000 
#    0.000    0.000    0.000    0.000    0.000    0.000 
#
# Total GULP energy -173434.754157 kJ/mol
# GULP energy per Si atom -12388.196725 kJ/mol
# Density = 1.957636 g / cm^3
# Si number density = 19.621017 Si / 1000 Ang^3
#
#
#
# Elastic Constant Matrix: (Units=GPa)
#
#
# Indices 1 2 3 4 5 6 
#
# 1 102.1920 51.7420 43.4849 0.0000 19.0676 0.0000
# 2 51.7420 142.2689 49.4864 0.0000 6.0981 0.0000
# 3 43.4849 49.4864 107.8976 0.0000 14.6533 0.0000
# 4 0.0000 0.0000 0.0000 16.2149 0.0000 -1.2560
# 5 19.0676 6.0981 14.6533 0.0000 13.0157 0.0000
# 6 0.0000 0.0000 0.0000 -1.2560 0.0000 11.8496
#
#
#
# Elastic Compliance Matrix: (Units=1/GPa)
#
#
# Indices 1 2 3 4 5 6 
#
# 1 0.016640 -0.004530 -0.001896 0.000000 -0.020120 0.000000
# 2 -0.004530 0.009599 -0.003385 0.000000 0.005949 0.000000
# 3 -0.001896 -0.003385 0.012976 0.000000 -0.010245 0.000000
# 4 0.000000 0.000000 0.000000 0.062182 0.000000 0.006591
# 5 -0.020120 0.005949 -0.010245 0.000000 0.115052 0.000000
# 6 0.000000 0.000000 0.000000 0.006591 0.000000 0.085089
#
#
# Mechanical properties :
#
#
# Convention : Reuss Voigt Hill
#
# Bulk Modulus (GPa) = 51.03849 71.30946 61.17398
# Shear Modulus (GPa) = 15.25828 22.05906 18.65867
#
# Velocity S-wave (km/s) = 2.79166 3.35663 3.08710
# Velocity P-wave (km/s) = 6.03820 7.17251 6.62966
#
# Compressibility (1/GPa) = 0.01959306
#
# Stress axis : x y z
#
# Youngs Moduli (GPa) = 60.09594 104.18044 77.06548
#
# Poissons Ratio (x) = 0.47192 0.14614
# Poissons Ratio (y) = 0.27223 0.26085
# Poissons Ratio (z) = 0.11396 0.35262
#
# Static dielectric constant tensor:
#      x y z
#    x 3.628420 0.000000 0.213930 
#    y 0.000000 3.869760 0.000000 
#    z 0.213930 0.000000 3.007190 
# 
# 
# High freq. dielectric constant tensor:
#      x y z
#    x 1.764040 0.000000 0.023190 
#    y 0.000000 1.786020 0.000000 
#    z 0.023190 0.000000 1.699180 
# 
# From -- ./inp_files/10690.got.cif
#   From: 2010.03.12/outbox.cif.g09.slc.cpg/sg3_6_cif.got.tgz:10690.got - 2010.03.31 09:20:49.
