data_PCOD8045494
_publ_section_title
;
Structure prediction by ZEFSAII (Michael W. Deem and Ramdas Pophale) SiO2 
 PCOD8045494
Probable space group: P 2
;
_chemical_formula_sum "Si O2"
_cell_formula_units_Z 10
_cell_length_a 14.262426
_cell_length_b 5.052972
_cell_length_c 15.063943
_cell_angle_alpha 90.000000
_cell_angle_beta 19.198148
_cell_angle_gamma 90.000000
_cell_volume 356.991994
_symmetry_space_group_name_H-M "P 2"
_symmetry_group_IT_number 3
_symmetry_cell_setting 'monoclinic'
loop_
_space_group_symop_operation_xyz
x,y,z
-x,y,-z
loop_
_atom_site_type_symbol
_atom_site_label
_atom_site_fract_x
_atom_site_fract_y
_atom_site_fract_z
Si Si1 0.465512 0.713080 0.429560
Si Si2 0.124098 0.286588 0.293632
Si Si3 0.612575 0.109090 0.650100
Si Si4 0.888559 0.506247 0.919147
Si Si5 0.640332 0.782526 0.989276
O O1 0.500000 0.799617 0.500000
O O2 0.761089 0.603043 0.127534
O O3 0.366847 0.975554 0.464581
O O4 0.229833 0.473461 0.629377
O O5 0.880596 0.305663 0.432039
O O6 0.000000 0.359709 0.500000
O O7 0.375637 0.498688 0.045855
O O8 0.260398 0.994991 0.173006
O O9 0.305693 0.256513 0.938443
O O10 0.638972 0.890310 0.707854
O O11 0.863501 0.747211 0.871084
#
# Coordination Sequence:
#
# PCOD8045494 Si02
#       5
#     2   2   2   2   2
#     4  11  25  46  76 118 157 204 265 327 395 474
#     4  12  26  48  75 113 159 207 268 327 389 469
#     4  11  26  47  78 105 162 210 258 328 398 472
#     4  11  23  46  77 106 155 209 256 321 397 468
#     4  11  24  47  71 108 153 200 263 317 397 458
#
# _framework density 28.011834
#
# number of rings (size 3 to 8) (size 9 to 14) (size 15 to 20)
#    0.000    0.800    4.000    2.400    2.800    1.600 
#    3.600    8.000    0.000    0.000    0.000    0.000 
#    0.000    0.000    0.000    0.000    0.000    0.000 
#
# Total GULP energy -123900.526613 kJ/mol
# GULP energy per Si atom -12390.052661 kJ/mol
# Density = 2.794808 g / cm^3
# Si number density = 28.011834 Si / 1000 Ang^3
#
#
#
# Elastic Constant Matrix: (Units=GPa)
#
#
# Indices 1 2 3 4 5 6 
#
# 1 147.0000 18.2911 22.0173 0.0000 24.3639 0.0000
# 2 18.2911 143.1783 15.9135 0.0000 9.9249 0.0000
# 3 22.0173 15.9135 81.6006 0.0000 -1.9686 0.0000
# 4 0.0000 0.0000 0.0000 -101.5036 0.0000 121.3656
# 5 24.3639 9.9249 -1.9686 0.0000 56.3958 0.0000
# 6 0.0000 0.0000 0.0000 121.3656 0.0000 -77.8801
#
#
#
# Elastic Compliance Matrix: (Units=1/GPa)
#
#
# Indices 1 2 3 4 5 6 
#
# 1 0.007727 -0.000528 -0.002062 0.000000 -0.003317 0.000000
# 2 -0.000528 0.007273 -0.001302 0.000000 -0.001097 0.000000
# 3 -0.002062 -0.001302 0.013103 0.000000 0.001577 0.000000
# 4 0.000000 0.000000 0.000000 0.011412 0.000000 0.017784
# 5 -0.003317 -0.001097 0.001577 0.000000 0.019413 0.000000
# 6 0.000000 0.000000 0.000000 0.017784 0.000000 0.014873
#
#
# Mechanical properties :
#
#
# Convention : Reuss Voigt Hill
#
# Bulk Modulus (GPa) = 49.21671 53.80252 51.50961
# Shear Modulus (GPa) = 56.58769 -3.56045 26.51362
#
# Velocity S-wave (km/s) = 4.49947 -1.12863 3.07989
# Velocity P-wave (km/s) = 6.67845 4.18931 5.57459
#
# Compressibility (1/GPa) = 0.02031830
#
# Stress axis : x y z
#
# Youngs Moduli (GPa) = 129.41525 137.50336 76.31732
#
# Poissons Ratio (x) = 0.07260 0.15736
# Poissons Ratio (y) = 0.06833 0.09939
# Poissons Ratio (z) = 0.26685 0.17907
#
# Static dielectric constant tensor:
#      x y z
#    x 5.501590 0.000000 0.568780 
#    y 0.000000 5.003410 0.000000 
#    z 0.568780 0.000000 5.505590 
# 
# 
# High freq. dielectric constant tensor:
#      x y z
#    x 2.128500 0.000000 0.022870 
#    y 0.000000 2.127120 0.000000 
#    z 0.022870 0.000000 2.144450 
# 
# From -- ./inp_files/2717.got.cif
#   From: 2010.03.12/outbox.cif.g09.slc.cpg/sg3_2_cif.got.tgz:2717.got - 2010.03.31 09:20:49.
