data_PCOD8045875
_publ_section_title
;
Structure prediction by ZEFSAII (Michael W. Deem and Ramdas Pophale) SiO2 
 PCOD8045875
Probable space group: P 21
;
_chemical_formula_sum "Si O2"
_cell_formula_units_Z 16
_cell_length_a 18.090150
_cell_length_b 6.939599
_cell_length_c 6.965670
_cell_angle_alpha 90.000000
_cell_angle_beta 57.931610
_cell_angle_gamma 90.000000
_cell_volume 741.029621
_symmetry_space_group_name_H-M "P 21"
_symmetry_group_IT_number 4
_symmetry_cell_setting 'monoclinic'
loop_
_space_group_symop_operation_xyz
x,y,z
-x,1/2+y,-z
loop_
_atom_site_type_symbol
_atom_site_label
_atom_site_fract_x
_atom_site_fract_y
_atom_site_fract_z
Si Si1 0.576412 0.569120 0.232264
Si Si2 0.148852 0.899678 0.351872
Si Si3 0.114304 0.474207 0.248705
Si Si4 0.015124 0.965242 0.263239
Si Si5 0.659129 0.301251 0.837768
Si Si6 0.614619 0.233097 0.465593
Si Si7 0.024326 0.860585 0.837647
Si Si8 0.688046 0.956026 0.063434
O O1 0.606584 0.436164 0.367483
O O2 0.476522 0.624092 0.392507
O O3 0.632016 0.763432 0.151421
O O4 0.584684 0.442589 0.025220
O O5 0.116798 0.696066 0.307659
O O6 0.104965 0.035554 0.248150
O O7 0.252239 0.909956 0.221714
O O8 0.107986 0.957252 0.615748
O O9 0.067234 0.454097 0.106633
O O10 0.052692 0.365057 0.492288
O O11 0.212234 0.390620 0.105948
O O12 0.967360 0.143370 0.237512
O O13 0.035405 0.835396 0.050081
O O14 0.653373 0.283187 0.618741
O O15 0.653584 0.086775 0.933828
O O16 0.679856 0.086688 0.266817
#
# Coordination Sequence:
#
# PCOD8045875 Si02
#       8
#     2   2   2   2   2   2   2   2
#     4  11  24  42  66  97 130 165 210 268 323 384
#     4   9  20  40  57  83 123 159 202 258 308 366
#     4   9  20  38  59  83 121 160 204 254 312 364
#     4  10  20  35  59  85 123 160 209 252 306 368
#     4  10  25  41  68  96 127 172 214 262 326 387
#     4  11  24  44  68  97 130 169 213 263 327 389
#     4  10  20  34  60  87 117 167 203 251 304 368
#     4  10  23  44  67  92 133 168 211 270 320 382
#
# _framework density 21.59158
#
# number of rings (size 3 to 8) (size 9 to 14) (size 15 to 20)
#    0.000    2.000    1.250    0.750    3.500    8.000 
#    0.000    0.000    0.000    0.000    0.000    0.000 
#    0.000    0.000    0.000    0.000    0.000    0.000 
#
# Total GULP energy -198268.547556 kJ/mol
# GULP energy per Si atom -12391.784222 kJ/mol
# Density = 2.154244 g / cm^3
# Si number density = 21.591580 Si / 1000 Ang^3
#
#
#
# Elastic Constant Matrix: (Units=GPa)
#
#
# Indices 1 2 3 4 5 6 
#
# 1 87.2211 29.1902 67.3324 0.0000 5.2740 0.0000
# 2 29.1902 55.5005 25.9710 0.0000 2.8303 0.0000
# 3 67.3324 25.9710 136.4342 0.0000 19.6522 0.0000
# 4 0.0000 0.0000 0.0000 29.7581 0.0000 -6.3305
# 5 5.2740 2.8303 19.6522 0.0000 44.0949 0.0000
# 6 0.0000 0.0000 0.0000 -6.3305 0.0000 27.9903
#
#
#
# Elastic Compliance Matrix: (Units=1/GPa)
#
#
# Indices 1 2 3 4 5 6 
#
# 1 0.020714 -0.006671 -0.009252 0.000000 0.002074 0.000000
# 2 -0.006671 0.021936 -0.000850 0.000000 -0.000231 0.000000
# 3 -0.009252 -0.000850 0.012706 0.000000 -0.004502 0.000000
# 4 0.000000 0.000000 0.000000 0.035303 0.000000 0.007984
# 5 0.002074 -0.000231 -0.004502 0.000000 0.024451 0.000000
# 6 0.000000 0.000000 0.000000 0.007984 0.000000 0.037532
#
#
# Mechanical properties :
#
#
# Convention : Reuss Voigt Hill
#
# Bulk Modulus (GPa) = 45.84989 58.23813 52.04401
# Shear Modulus (GPa) = 25.84532 30.81283 28.32908
#
# Velocity S-wave (km/s) = 3.46354 3.78176 3.62614
# Velocity P-wave (km/s) = 6.10540 6.78971 6.45663
#
# Compressibility (1/GPa) = 0.02181030
#
# Stress axis : x y z
#
# Youngs Moduli (GPa) = 48.27554 45.58710 78.70518
#
# Poissons Ratio (x) = 0.30412 0.72816
# Poissons Ratio (y) = 0.32205 0.06690
# Poissons Ratio (z) = 0.44663 0.03875
#
# Static dielectric constant tensor:
#      x y z
#    x 3.955530 0.000000 0.290700 
#    y 0.000000 3.900610 0.000000 
#    z 0.290700 0.000000 5.094690 
# 
# 
# High freq. dielectric constant tensor:
#      x y z
#    x 1.832380 0.000000 -0.002710 
#    y 0.000000 1.854840 0.000000 
#    z -0.002710 0.000000 1.860810 
# 
# From -- ./inp_files/4041.got.cif
#   From: 2010.03.12/outbox.cif.g09.slc.cpg/sg4_3_cif.got.tgz:4041.got - 2010.03.31 09:31:35.
