data_PCOD8045651
_publ_section_title
;
Structure prediction by ZEFSAII (Michael W. Deem and Ramdas Pophale) SiO2 
 PCOD8045651
Probable space group: P 21
;
_chemical_formula_sum "Si O2"
_cell_formula_units_Z 12
_cell_length_a 28.268479
_cell_length_b 5.128666
_cell_length_c 22.150388
_cell_angle_alpha 90.000000
_cell_angle_beta 11.051690
_cell_angle_gamma 90.000000
_cell_volume 615.598930
_symmetry_space_group_name_H-M "P 21"
_symmetry_group_IT_number 4
_symmetry_cell_setting 'monoclinic'
loop_
_space_group_symop_operation_xyz
x,y,z
-x,1/2+y,-z
loop_
_atom_site_type_symbol
_atom_site_label
_atom_site_fract_x
_atom_site_fract_y
_atom_site_fract_z
Si Si1 0.812534 0.439000 0.877172
Si Si2 0.390577 0.404896 0.166013
Si Si3 0.386717 0.488677 0.670257
Si Si4 0.136396 0.917156 0.639279
Si Si5 0.252150 0.435755 0.967950
Si Si6 0.440623 0.417086 0.244328
O O1 0.105522 0.460669 0.509717
O O2 0.692921 0.671885 0.065347
O O3 0.710008 0.453452 0.937106
O O4 0.712202 0.175891 0.032330
O O5 0.466566 0.436485 0.140304
O O6 0.450893 0.112495 0.069982
O O7 0.458558 0.779396 0.560963
O O8 0.439026 0.456741 0.676700
O O9 0.092333 0.450276 0.027419
O O10 0.336546 0.141517 0.397173
O O11 0.256631 0.637313 0.499642
O O12 0.030293 0.936924 0.703500
#
# Coordination Sequence:
#
# PCOD8045651 Si02
#       6
#     2   2   2   2   2   2
#     4  12  23  41  64  89 118 159 204 247 293 356
#     4  12  24  40  62  88 124 152 192 250 304 358
#     4  10  18  32  62  92 118 160 202 238 302 358
#     4  10  20  38  63  87 118 158 209 236 295 350
#     4  10  20  38  63  87 118 158 209 236 295 350
#     4  12  23  41  64  89 118 159 204 247 293 356
#
# _framework density 19.493210999999999
#
# number of rings (size 3 to 8) (size 9 to 14) (size 15 to 20)
#    1.000    0.000    3.333    5.000    0.000    1.333 
#    0.000    0.000    0.000   20.000    0.000    0.000 
#    0.000    0.000    0.000    0.000    0.000    0.000 
#
# Total GULP energy -148787.609123 kJ/mol
# GULP energy per Si atom -12398.967427 kJ/mol
# Density = 1.944884 g / cm^3
# Si number density = 19.493211 Si / 1000 Ang^3
#
#
#
# Elastic Constant Matrix: (Units=GPa)
#
#
# Indices 1 2 3 4 5 6 
#
# 1 107.9760 5.5149 60.1881 0.0000 -28.5078 0.0000
# 2 5.5149 78.4651 12.3267 0.0000 -9.4976 0.0000
# 3 60.1881 12.3267 56.4535 0.0000 8.5128 0.0000
# 4 0.0000 0.0000 0.0000 11.1056 0.0000 17.1919
# 5 -28.5078 -9.4976 8.5128 0.0000 22.3400 0.0000
# 6 0.0000 0.0000 0.0000 17.1919 0.0000 21.4469
#
#
#
# Elastic Compliance Matrix: (Units=1/GPa)
#
#
# Indices 1 2 3 4 5 6 
#
# 1 -0.029026 -0.011626 0.042242 0.000000 -0.058079 0.000000
# 2 -0.011626 0.009701 0.012617 0.000000 -0.015520 0.000000
# 3 0.042242 0.012617 -0.041394 0.000000 0.075043 0.000000
# 4 0.000000 0.000000 0.000000 -0.373760 0.000000 0.299608
# 5 -0.058079 -0.015520 0.075043 0.000000 -0.064545 0.000000
# 6 0.000000 0.000000 0.000000 0.299608 0.000000 -0.193540
#
#
# Mechanical properties :
#
#
# Convention : Reuss Voigt Hill
#
# Bulk Modulus (GPa) = 38.83768 44.32824 41.58296
# Shear Modulus (GPa) = -6.48972 21.96948 7.73988
#
# Velocity S-wave (km/s) = -1.82660 3.36077 1.99479
# Velocity P-wave (km/s) = 3.93933 6.15219 5.16565
#
# Compressibility (1/GPa) = 0.02574819
#
# Stress axis : x y z
#
# Youngs Moduli (GPa) = -34.45221 103.08240 -24.15797
#
# Poissons Ratio (x) = 1.19845 1.02049
# Poissons Ratio (y) = -0.40055 0.30481
# Poissons Ratio (z) = 1.45534 -1.30062
#
# Static dielectric constant tensor:
#      x y z
#    x 3.508910 0.000000 -0.062650 
#    y 0.000000 3.632850 0.000000 
#    z -0.062650 0.000000 3.355460 
# 
# 
# High freq. dielectric constant tensor:
#      x y z
#    x 1.748550 0.000000 0.001290 
#    y 0.000000 1.781500 0.000000 
#    z 0.001290 0.000000 1.741350 
# 
# From -- ./inp_files/15954.got.cif
#   From: 2010.03.12/outbox.cif.g09.slc.cpg/sg4_8_cif.got.tgz:15954.got - 2010.03.31 09:31:35.
