data_PCOD8045713
_publ_section_title
;
Structure prediction by ZEFSAII (Michael W. Deem and Ramdas Pophale) SiO2 
 PCOD8045713
Probable space group: P 21
;
_chemical_formula_sum "Si O2"
_cell_formula_units_Z 16
_cell_length_a 31.404251
_cell_length_b 5.013380
_cell_length_c 7.950853
_cell_angle_alpha 90.000000
_cell_angle_beta 39.750369
_cell_angle_gamma 90.000000
_cell_volume 800.451961
_symmetry_space_group_name_H-M "P 21"
_symmetry_group_IT_number 4
_symmetry_cell_setting 'monoclinic'
loop_
_space_group_symop_operation_xyz
x,y,z
-x,1/2+y,-z
loop_
_atom_site_type_symbol
_atom_site_label
_atom_site_fract_x
_atom_site_fract_y
_atom_site_fract_z
Si Si1 0.492218 0.674730 0.129228
Si Si2 0.899722 0.184479 0.406550
Si Si3 0.631225 0.783759 0.780921
Si Si4 0.008087 0.186945 0.361880
Si Si5 0.885122 0.685418 0.229212
Si Si6 0.749785 0.174714 0.920442
Si Si7 0.735260 0.676315 0.750240
Si Si8 0.647705 0.283644 0.508011
O O1 0.416928 0.741961 0.419583
O O2 0.496012 0.362659 0.071112
O O3 0.552906 0.745193 0.072302
O O4 0.905449 0.400701 0.241834
O O5 0.828356 0.201836 0.714494
O O6 0.953880 0.238779 0.383355
O O7 0.911410 0.900930 0.283339
O O8 0.675236 0.732777 0.808697
O O9 0.649315 0.581525 0.575460
O O10 0.643869 0.081597 0.676618
O O11 0.000671 0.393871 0.535745
O O12 0.080739 0.217503 0.056330
O O13 0.805854 0.713464 0.440870
O O14 0.726995 0.378582 0.844585
O O15 0.730857 0.878188 0.919944
O O16 0.714801 0.236718 0.202144
#
# Coordination Sequence:
#
# PCOD8045713 Si02
#       8
#     2   2   2   2   2   2   2   2
#     4   8  16  30  48  72 100 134 172 206 252 312
#     4  10  21  39  58  74 104 147 175 198 254 326
#     4  10  19  33  54  76 102 137 175 214 256 306
#     4  12  24  36  56  86 110 128 170 228 258 286
#     4  10  21  39  58  74 104 147 175 198 254 326
#     4  10  21  36  54  78 106 136 173 214 256 306
#     4  10  21  36  54  78 106 136 173 214 256 306
#     4  10  19  33  54  76 102 137 175 214 256 306
#
# _framework density 19.988705
#
# number of rings (size 3 to 8) (size 9 to 14) (size 15 to 20)
#    0.000    2.000    0.000    3.750    0.000    2.000 
#    0.000    1.250    0.000    0.000    0.000    0.000 
#    0.000    0.000    0.000    0.000    0.000    0.000 
#
# Total GULP energy -198398.867699 kJ/mol
# GULP energy per Si atom -12399.929231 kJ/mol
# Density = 1.994321 g / cm^3
# Si number density = 19.988705 Si / 1000 Ang^3
#
#
#
# Elastic Constant Matrix: (Units=GPa)
#
#
# Indices 1 2 3 4 5 6 
#
# 1 64.7142 -2.7947 -25.5977 0.0000 -3.0395 0.0000
# 2 -2.7947 71.9078 1.8698 0.0000 -4.7697 0.0000
# 3 -25.5977 1.8698 47.0982 0.0000 -2.5793 0.0000
# 4 0.0000 0.0000 0.0000 22.8522 0.0000 -2.2946
# 5 -3.0395 -4.7697 -2.5793 0.0000 15.1410 0.0000
# 6 0.0000 0.0000 0.0000 -2.2946 0.0000 22.1816
#
#
#
# Elastic Compliance Matrix: (Units=1/GPa)
#
#
# Indices 1 2 3 4 5 6 
#
# 1 0.020265 0.000910 0.011322 0.000000 0.006284 0.000000
# 2 0.000910 0.014249 0.000186 0.000000 0.004703 0.000000
# 3 0.011322 0.000186 0.027765 0.000000 0.007061 0.000000
# 4 0.000000 0.000000 0.000000 0.044219 0.000000 0.004574
# 5 0.006284 0.004703 0.007061 0.000000 0.069992 0.000000
# 6 0.000000 0.000000 0.000000 0.004574 0.000000 0.045556
#
#
# Mechanical properties :
#
#
# Convention : Reuss Voigt Hill
#
# Bulk Modulus (GPa) = 11.47879 14.51944 12.99912
# Shear Modulus (GPa) = 22.09967 26.05114 24.07540
#
# Velocity S-wave (km/s) = 3.32868 3.61403 3.47428
# Velocity P-wave (km/s) = 4.53084 4.96936 4.75516
#
# Compressibility (1/GPa) = 0.08711719
#
# Stress axis : x y z
#
# Youngs Moduli (GPa) = 49.34499 70.17948 36.01638
#
# Poissons Ratio (x) = -0.06386 -0.40779
# Poissons Ratio (y) = -0.04490 -0.00672
# Poissons Ratio (z) = -0.55869 -0.01309
#
# Static dielectric constant tensor:
#      x y z
#    x 3.561600 0.000000 -0.438540 
#    y 0.000000 3.866220 0.000000 
#    z -0.438540 0.000000 3.483430 
# 
# 
# High freq. dielectric constant tensor:
#      x y z
#    x 1.771230 0.000000 -0.030900 
#    y 0.000000 1.803560 0.000000 
#    z -0.030900 0.000000 1.758630 
# 
# From -- ./inp_files/4234.got.cif
#   From: 2010.03.12/outbox.cif.g09.slc.cpg/sg4_3_cif.got.tgz:4234.got - 2010.03.31 09:31:35.
