data_PCOD8045878
_publ_section_title
;
Structure prediction by ZEFSAII (Michael W. Deem and Ramdas Pophale) SiO2 
 PCOD8045878
Probable space group: P 21
;
_chemical_formula_sum "Si O2"
_cell_formula_units_Z 16
_cell_length_a 11.624375
_cell_length_b 8.446082
_cell_length_c 8.349161
_cell_angle_alpha 90.000000
_cell_angle_beta 124.925304
_cell_angle_gamma 90.000000
_cell_volume 672.091122
_symmetry_space_group_name_H-M "P 21"
_symmetry_group_IT_number 4
_symmetry_cell_setting 'monoclinic'
loop_
_space_group_symop_operation_xyz
x,y,z
-x,1/2+y,-z
loop_
_atom_site_type_symbol
_atom_site_label
_atom_site_fract_x
_atom_site_fract_y
_atom_site_fract_z
Si Si1 0.703071 0.643120 0.441169
Si Si2 0.954059 0.515874 0.107737
Si Si3 0.694697 0.328652 0.934105
Si Si4 0.807658 0.172795 0.332379
Si Si5 0.951782 0.470036 0.481359
Si Si6 0.581502 0.952406 0.194659
Si Si7 0.578155 0.000319 0.812304
Si Si8 0.814582 0.805819 0.844670
O O1 0.824841 0.580303 0.427172
O O2 0.634567 0.779011 0.279302
O O3 0.584040 0.507170 0.378124
O O4 0.772277 0.703432 0.657985
O O5 0.982567 0.486111 0.316906
O O6 0.093407 0.460953 0.124780
O O7 0.824930 0.404712 0.944814
O O8 0.910921 0.696555 0.035997
O O9 0.572638 0.463788 0.849336
O O10 0.646212 0.167466 0.810820
O O11 0.735900 0.288965 0.149245
O O12 0.916501 0.290087 0.512748
O O13 0.901958 0.033240 0.323247
O O14 0.686898 0.089861 0.346281
O O15 0.580001 0.978114 0.003816
O O16 0.667210 0.859429 0.805157
#
# Coordination Sequence:
#
# PCOD8045878 Si02
#       8
#     2   2   2   2   2   2   2   2
#     4  11  24  42  66  96 130 166 217 271 314 378
#     4  11  24  42  64  91 128 173 215 261 321 382
#     4   9  20  39  64  92 124 165 218 267 310 373
#     4  10  20  34  61  96 126 154 204 271 320 365
#     4  11  22  40  64  93 123 164 217 266 315 371
#     4  10  20  41  68  94 124 164 216 269 315 373
#     4  10  22  41  65  94 129 172 211 257 325 385
#     4  12  26  43  64  94 134 172 212 262 324 387
#
# _framework density 23.806296
#
# number of rings (size 3 to 8) (size 9 to 14) (size 15 to 20)
#    0.000    1.500    0.000    6.000    0.000    8.000 
#    0.000    3.750    0.000    0.000    0.000    0.000 
#    0.000    0.000    0.000    0.000    0.000    0.000 
#
# Total GULP energy -198286.159603 kJ/mol
# GULP energy per Si atom -12392.884975 kJ/mol
# Density = 2.375211 g / cm^3
# Si number density = 23.806296 Si / 1000 Ang^3
#
#
#
# Elastic Constant Matrix: (Units=GPa)
#
#
# Indices 1 2 3 4 5 6 
#
# 1 83.9755 19.3071 31.5224 0.0000 17.6849 0.0000
# 2 19.3071 80.7520 22.6863 0.0000 7.2113 0.0000
# 3 31.5224 22.6863 37.4287 0.0000 16.2861 0.0000
# 4 0.0000 0.0000 0.0000 31.8221 0.0000 13.3251
# 5 17.6849 7.2113 16.2861 0.0000 33.2736 0.0000
# 6 0.0000 0.0000 0.0000 13.3251 0.0000 53.2272
#
#
#
# Elastic Compliance Matrix: (Units=1/GPa)
#
#
# Indices 1 2 3 4 5 6 
#
# 1 0.017599 -0.000159 -0.013558 0.000000 -0.002683 0.000000
# 2 -0.000159 0.014987 -0.009623 0.000000 0.001547 0.000000
# 3 -0.013558 -0.009623 0.050730 0.000000 -0.015539 0.000000
# 4 0.000000 0.000000 0.000000 0.035105 0.000000 -0.008788
# 5 -0.002683 0.001547 -0.015539 0.000000 0.038751 0.000000
# 6 0.000000 0.000000 0.000000 -0.008788 0.000000 0.020987
#
#
# Mechanical properties :
#
#
# Convention : Reuss Voigt Hill
#
# Bulk Modulus (GPa) = 27.29541 38.79865 33.04703
# Shear Modulus (GPa) = 21.09254 32.24060 26.66657
#
# Velocity S-wave (km/s) = 2.97982 3.68406 3.35049
# Velocity P-wave (km/s) = 4.83007 5.86766 5.37396
#
# Compressibility (1/GPa) = 0.03663620
#
# Stress axis : x y z
#
# Youngs Moduli (GPa) = 56.82040 66.72475 19.71230
#
# Poissons Ratio (x) = 0.01063 0.26726
# Poissons Ratio (y) = 0.00905 0.18969
# Poissons Ratio (z) = 0.77037 0.64207
#
# Static dielectric constant tensor:
#      x y z
#    x 4.575080 0.000000 0.621720 
#    y 0.000000 4.695380 0.000000 
#    z 0.621720 0.000000 4.189820 
# 
# 
# High freq. dielectric constant tensor:
#      x y z
#    x 1.948840 0.000000 0.036440 
#    y 0.000000 1.949490 0.000000 
#    z 0.036440 0.000000 1.920170 
# 
# From -- ./inp_files/7880.got.cif
#   From: 2010.03.12/outbox.cif.g09.slc.cpg/sg4_4_cif.got.tgz:7880.got - 2010.03.31 09:31:35.
