data_PCOD8045590
_publ_section_title
;
Structure prediction by ZEFSAII (Michael W. Deem and Ramdas Pophale) SiO2 
 PCOD8045590
Probable space group: P 21
;
_chemical_formula_sum "Si O2"
_cell_formula_units_Z 16
_cell_length_a 15.415315
_cell_length_b 5.138022
_cell_length_c 31.060669
_cell_angle_alpha 90.000000
_cell_angle_beta 157.617064
_cell_angle_gamma 90.000000
_cell_volume 936.807622
_symmetry_space_group_name_H-M "P 21"
_symmetry_group_IT_number 4
_symmetry_cell_setting 'monoclinic'
loop_
_space_group_symop_operation_xyz
x,y,z
-x,1/2+y,-z
loop_
_atom_site_type_symbol
_atom_site_label
_atom_site_fract_x
_atom_site_fract_y
_atom_site_fract_z
Si Si1 0.053486 0.774560 0.468759
Si Si2 0.277359 0.280071 0.606155
Si Si3 0.111962 0.202605 0.702020
Si Si4 0.574613 0.389601 0.933604
Si Si5 0.209246 0.841995 0.136660
Si Si6 0.928768 0.347247 0.022024
Si Si7 0.158991 0.695217 0.767537
Si Si8 0.362207 0.726741 0.945531
O O1 0.162757 0.492410 0.523207
O O2 0.828584 0.796267 0.394783
O O3 0.979527 0.794722 0.385690
O O4 0.233966 0.998504 0.564687
O O5 0.539047 0.359871 0.729060
O O6 0.388689 0.184502 0.829744
O O7 0.027235 0.425250 0.696847
O O8 0.032651 0.919830 0.681956
O O9 0.428601 0.652558 0.877720
O O10 0.705246 0.281667 0.036041
O O11 0.765907 0.429912 0.985976
O O12 0.126192 0.559038 0.112130
O O13 0.046335 0.065377 0.081866
O O14 0.217178 0.865136 0.088676
O O15 0.151719 0.764176 0.815268
O O16 0.440204 0.428518 0.976984
#
# Coordination Sequence:
#
# PCOD8045590 Si02
#       8
#     2   2   2   2   2   2   2   2
#     4  10  20  32  51  71  90 122 164 196 241 304
#     4  10  20  35  49  67  94 124 156 205 251 271
#     4  10  18  29  45  70  98 124 156 190 229 290
#     4   9  20  28  50  68 103 129 161 187 232 287
#     4  10  21  36  48  67  99 126 163 206 233 273
#     4  10  21  33  50  71  93 131 168 193 232 278
#     4   9  18  28  44  69 101 134 144 193 234 287
#     4  10  16  29  43  67 100 136 150 182 240 288
#
# _framework density 17.079277999999999
#
# number of rings (size 3 to 8) (size 9 to 14) (size 15 to 20)
#    0.750    1.500    1.250    2.250    1.750    0.000 
#    2.250    0.000    0.000    0.000    0.000    0.000 
#    0.000   20.000    0.000    0.000    0.000    0.000 
#
# Total GULP energy -198234.502492 kJ/mol
# GULP energy per Si atom -12389.656406 kJ/mol
# Density = 1.704041 g / cm^3
# Si number density = 17.079278 Si / 1000 Ang^3
#
#
#
# Elastic Constant Matrix: (Units=GPa)
#
#
# Indices 1 2 3 4 5 6 
#
# 1 62.7478 7.7662 18.3163 -0.0001 -13.8607 -0.0005
# 2 7.7662 85.8955 10.1864 -0.0001 -8.0613 -0.0004
# 3 18.3163 10.1864 51.4388 -0.0005 -12.6152 -0.0024
# 4 -0.0001 -0.0001 -0.0005 14.6562 -0.0002 -6.8737
# 5 -13.8607 -8.0613 -12.6152 -0.0002 24.3877 -0.0004
# 6 -0.0005 -0.0004 -0.0024 -6.8737 -0.0004 17.3277
#
#
#
# Elastic Compliance Matrix: (Units=1/GPa)
#
#
# Indices 1 2 3 4 5 6 
#
# 1 0.019205 -0.000394 -0.004714 0.000000 0.008347 0.000000
# 2 -0.000394 0.012140 -0.001528 0.000000 0.002998 0.000000
# 3 -0.004714 -0.001528 0.023640 0.000003 0.009044 0.000004
# 4 0.000000 0.000000 0.000003 0.083826 0.000003 0.033253
# 5 0.008347 0.002998 0.009044 0.000003 0.051418 0.000004
# 6 0.000000 0.000000 0.000004 0.033253 0.000004 0.070902
#
#
# Mechanical properties :
#
#
# Convention : Reuss Voigt Hill
#
# Bulk Modulus (GPa) = 23.97330 30.29112 27.13221
# Shear Modulus (GPa) = 17.34255 22.19519 19.76887
#
# Velocity S-wave (km/s) = 3.19001 3.60882 3.40586
# Velocity P-wave (km/s) = 5.25692 5.92781 5.60242
#
# Compressibility (1/GPa) = 0.04171308
#
# Stress axis : x y z
#
# Youngs Moduli (GPa) = 52.06903 82.37001 42.30164
#
# Poissons Ratio (x) = 0.03246 0.19939
# Poissons Ratio (y) = 0.02052 0.06466
# Poissons Ratio (z) = 0.24543 0.12590
#
# Static dielectric constant tensor:
#      x y z
#    x 3.000710 0.000000 -0.310580 
#    y 0.000000 3.299500 0.000000 
#    z -0.310580 0.000000 2.880240 
# 
# 
# High freq. dielectric constant tensor:
#      x y z
#    x 1.632160 0.000000 -0.039020 
#    y 0.000000 1.678410 0.000000 
#    z -0.039020 0.000000 1.626600 
# 
# From -- ./inp_files/16538.got.cif
#   From: 2010.03.12/outbox.cif.g09.slc.cpg/sg4_9_cif.got.tgz:16538.got - 2010.03.31 09:31:35.
