data_PCOD8045389
_publ_section_title
;
Structure prediction by ZEFSAII (Michael W. Deem and Ramdas Pophale) SiO2 
 PCOD8045389
Probable space group: P 2
;
_chemical_formula_sum "Si O2"
_cell_formula_units_Z 13
_cell_length_a 12.275884
_cell_length_b 9.806731
_cell_length_c 5.046283
_cell_angle_alpha 90.000000
_cell_angle_beta 78.714196
_cell_angle_gamma 90.000000
_cell_volume 595.756116
_symmetry_space_group_name_H-M "P 2"
_symmetry_group_IT_number 3
_symmetry_cell_setting 'monoclinic'
loop_
_space_group_symop_operation_xyz
x,y,z
-x,y,-z
loop_
_atom_site_type_symbol
_atom_site_label
_atom_site_fract_x
_atom_site_fract_y
_atom_site_fract_z
Si Si1 0.000000 0.423151 0.500000
Si Si2 0.500000 0.454889 0.000000
Si Si3 0.070876 0.946073 0.711723
Si Si4 0.257160 0.150073 0.566293
Si Si5 0.721916 0.585627 0.960551
Si Si6 0.177410 0.294876 0.103252
Si Si7 0.500000 0.255472 0.500000
Si Si8 0.842342 0.657433 0.413112
O O1 0.051077 0.321725 0.254465
O O2 0.085352 0.519616 0.618047
O O3 0.407510 0.570837 0.018488
O O4 0.492328 0.354894 0.253687
O O5 0.077514 0.782651 0.694775
O O6 0.000000 0.004038 0.500000
O O7 0.197948 0.004009 0.650403
O O8 0.000000 0.992271 0.000000
O O9 0.237697 0.186821 0.268858
O O10 0.389872 0.158002 0.566349
O O11 0.189702 0.252753 0.791274
O O12 0.762195 0.435281 0.879525
O O13 0.780576 0.686227 0.720768
O O14 0.747842 0.640563 0.238318
#
# Coordination Sequence:
#
# PCOD8045389 Si02
#       8
#     1   1   2   2   2   2   1   2
#     4  10  24  38  66  94 140 168 206 274 340 418
#     4  12  22  40  66 100 134 172 208 276 344 388
#     4  12  27  47  68  93 134 179 224 276 325 396
#     4  12  25  43  64  98 131 176 224 270 328 394
#     4  11  22  40  65  98 129 165 218 267 324 403
#     4  11  23  39  61  99 132 165 209 274 337 396
#     4  12  22  44  66  92 138 180 220 268 340 404
#     4  11  24  43  64  93 130 177 217 258 332 402
#
# _framework density 21.821010000000001
#
# number of rings (size 3 to 8) (size 9 to 14) (size 15 to 20)
#    0.000    0.615    3.846    4.615    5.385    2.462 
#    0.000    1.538    0.000    0.000    0.000    0.000 
#    0.000    0.000    0.000    0.000    0.000    0.000 
#
# Total GULP energy -161152.097284 kJ/mol
# GULP energy per Si atom -12396.315176 kJ/mol
# Density = 2.177134 g / cm^3
# Si number density = 21.821010 Si / 1000 Ang^3
#
#
#
# Elastic Constant Matrix: (Units=GPa)
#
#
# Indices 1 2 3 4 5 6 
#
# 1 126.3248 22.3349 29.6948 0.0000 -3.1897 0.0000
# 2 22.3349 51.0183 15.1547 0.0000 -3.6656 0.0000
# 3 29.6948 15.1547 117.7321 0.0000 10.1488 0.0000
# 4 0.0000 0.0000 0.0000 20.6654 0.0000 1.9759
# 5 -3.1897 -3.6656 10.1488 0.0000 35.6550 0.0000
# 6 0.0000 0.0000 0.0000 1.9759 0.0000 11.4622
#
#
#
# Elastic Compliance Matrix: (Units=1/GPa)
#
#
# Indices 1 2 3 4 5 6 
#
# 1 0.008976 -0.003284 -0.001929 0.000000 0.001014 0.000000
# 2 -0.003284 0.021881 -0.002211 0.000000 0.002585 0.000000
# 3 -0.001929 -0.002211 0.009533 0.000000 -0.003113 0.000000
# 4 0.000000 0.000000 0.000000 0.049201 0.000000 -0.008482
# 5 0.001014 0.002585 -0.003113 0.000000 0.029289 0.000000
# 6 0.000000 0.000000 0.000000 -0.008482 0.000000 0.088706
#
#
# Mechanical properties :
#
#
# Convention : Reuss Voigt Hill
#
# Bulk Modulus (GPa) = 39.14971 47.71601 43.43286
# Shear Modulus (GPa) = 21.64998 28.74922 25.19960
#
# Velocity S-wave (km/s) = 3.15328 3.63368 3.40197
# Velocity P-wave (km/s) = 5.58908 6.28644 5.94799
#
# Compressibility (1/GPa) = 0.02554298
#
# Stress axis : x y z
#
# Youngs Moduli (GPa) = 111.41282 45.70197 104.89521
#
# Poissons Ratio (x) = 0.15007 0.20230
# Poissons Ratio (y) = 0.36583 0.23195
# Poissons Ratio (z) = 0.21487 0.10106
#
# Static dielectric constant tensor:
#      x y z
#    x 5.731820 0.000000 -1.570220 
#    y 0.000000 3.723490 0.000000 
#    z -1.570220 0.000000 5.812850 
# 
# 
# High freq. dielectric constant tensor:
#      x y z
#    x 1.861780 0.000000 0.001530 
#    y 0.000000 1.827420 0.000000 
#    z 0.001530 0.000000 1.876640 
# 
# From -- ./inp_files/2204.got.cif
#   From: 2010.03.12/outbox.cif.g09.slc.cpg/sg3_2_cif.got.tgz:2204.got - 2010.03.31 09:20:49.
