data_PCOD8045464
_publ_section_title
;
Structure prediction by ZEFSAII (Michael W. Deem and Ramdas Pophale) SiO2 
 PCOD8045464
Probable space group: P 2
;
_chemical_formula_sum "Si O2"
_cell_formula_units_Z 10
_cell_length_a 8.545060
_cell_length_b 7.676811
_cell_length_c 11.521186
_cell_angle_alpha 90.000000
_cell_angle_beta 142.552680
_cell_angle_gamma 90.000000
_cell_volume 459.535850
_symmetry_space_group_name_H-M "P 2"
_symmetry_group_IT_number 3
_symmetry_cell_setting 'monoclinic'
loop_
_space_group_symop_operation_xyz
x,y,z
-x,y,-z
loop_
_atom_site_type_symbol
_atom_site_label
_atom_site_fract_x
_atom_site_fract_y
_atom_site_fract_z
Si Si1 0.230386 0.248920 0.775274
Si Si2 0.073959 0.697043 0.921744
Si Si3 0.764380 0.434738 0.611394
Si Si4 0.780582 0.862140 0.215826
Si Si5 0.644757 0.569169 0.299359
O O1 0.257961 0.377902 0.683012
O O2 0.986567 0.297829 0.711299
O O3 0.173573 0.051525 0.699975
O O4 0.500000 0.260096 0.000000
O O5 0.045081 0.829751 0.796415
O O6 0.866765 0.545225 0.780428
O O7 0.352144 0.606389 0.092739
O O8 0.000000 0.791505 0.000000
O O9 0.500000 0.341537 0.500000
O O10 0.697688 0.569447 0.467493
O O11 0.820614 0.714250 0.337578
O O12 0.500000 0.849554 0.000000
#
# Coordination Sequence:
#
# PCOD8045464 Si02
#       5
#     2   2   2   2   2
#     4  11  21  42  69  95 128 169 215 266 316 379
#     4  11  21  42  67  91 132 173 209 263 324 378
#     4  12  24  40  65  98 130 171 213 258 328 382
#     4   9  21  40  68  96 122 168 224 262 314 378
#     4  11  21  42  69  93 125 172 218 266 313 376
#
# _framework density 21.761085999999999
#
# number of rings (size 3 to 8) (size 9 to 14) (size 15 to 20)
#    0.000    1.200    6.000    1.200    0.000    0.000 
#    7.200    8.000    0.000    0.000    0.000    0.000 
#    0.000    0.000    0.000    0.000    0.000    0.000 
#
# Total GULP energy -123905.777623 kJ/mol
# GULP energy per Si atom -12390.577762 kJ/mol
# Density = 2.171156 g / cm^3
# Si number density = 21.761086 Si / 1000 Ang^3
#
#
#
# Elastic Constant Matrix: (Units=GPa)
#
#
# Indices 1 2 3 4 5 6 
#
# 1 146.3429 45.9606 38.6633 0.0000 5.3291 0.0000
# 2 45.9606 130.0415 23.3427 0.0000 -12.0804 0.0000
# 3 38.6633 23.3427 90.4874 0.0000 7.1815 0.0000
# 4 0.0000 0.0000 0.0000 -20.5086 0.0000 7.0623
# 5 5.3291 -12.0804 7.1815 0.0000 42.5166 0.0000
# 6 0.0000 0.0000 0.0000 7.0623 0.0000 14.5645
#
#
#
# Elastic Compliance Matrix: (Units=1/GPa)
#
#
# Indices 1 2 3 4 5 6 
#
# 1 0.008446 -0.002599 -0.002834 0.000000 -0.001318 0.000000
# 2 -0.002599 0.009175 -0.001509 0.000000 0.003188 0.000000
# 3 -0.002834 -0.001509 0.012829 0.000000 -0.002241 0.000000
# 4 0.000000 0.000000 0.000000 -0.041783 0.000000 0.020261
# 5 -0.001318 0.003188 -0.002241 0.000000 0.024970 0.000000
# 6 0.000000 0.000000 0.000000 0.020261 0.000000 0.058836
#
#
# Mechanical properties :
#
#
# Convention : Reuss Voigt Hill
#
# Bulk Modulus (GPa) = 60.36267 64.75609 62.55938
# Shear Modulus (GPa) = 54.41873 24.57484 39.49678
#
# Velocity S-wave (km/s) = 5.00616 3.36415 4.26493
# Velocity P-wave (km/s) = 7.82397 6.70167 7.28447
#
# Compressibility (1/GPa) = 0.01656653
#
# Stress axis : x y z
#
# Youngs Moduli (GPa) = 118.39667 108.98605 77.94652
#
# Poissons Ratio (x) = 0.28325 0.22088
# Poissons Ratio (y) = 0.30771 0.11766
# Poissons Ratio (z) = 0.33551 0.16451
#
# Static dielectric constant tensor:
#      x y z
#    x 4.142100 0.000000 0.081480 
#    y 0.000000 3.911480 0.000000 
#    z 0.081480 0.000000 4.030850 
# 
# 
# High freq. dielectric constant tensor:
#      x y z
#    x 1.855770 0.000000 0.007190 
#    y 0.000000 1.818500 0.000000 
#    z 0.007190 0.000000 1.881450 
# 
# From -- ./inp_files/6883.got.cif
#   From: 2010.03.12/outbox.cif.g09.slc.cpg/sg3_4_cif.got.tgz:6883.got - 2010.03.31 09:20:49.
