data_PCOD8045868
_publ_section_title
;
Structure prediction by ZEFSAII (Michael W. Deem and Ramdas Pophale) SiO2 
 PCOD8045868
Probable space group: P 21
;
_chemical_formula_sum "Si O2"
_cell_formula_units_Z 16
_cell_length_a 12.382218
_cell_length_b 4.994407
_cell_length_c 28.566344
_cell_angle_alpha 90.000000
_cell_angle_beta 150.017987
_cell_angle_gamma 90.000000
_cell_volume 882.817250
_symmetry_space_group_name_H-M "P 21"
_symmetry_group_IT_number 4
_symmetry_cell_setting 'monoclinic'
loop_
_space_group_symop_operation_xyz
x,y,z
-x,1/2+y,-z
loop_
_atom_site_type_symbol
_atom_site_label
_atom_site_fract_x
_atom_site_fract_y
_atom_site_fract_z
Si Si1 0.373497 0.628580 0.938625
Si Si2 0.087660 0.151948 0.198847
Si Si3 0.751105 0.561028 0.938410
Si Si4 0.572191 0.846972 0.499674
Si Si5 0.761569 0.139034 0.692322
Si Si6 0.992155 0.564282 0.934689
Si Si7 0.004214 0.060891 0.688233
Si Si8 0.283333 0.562236 0.798334
O O1 0.335315 0.516466 0.872229
O O2 0.158777 0.738571 0.883588
O O3 0.465199 0.380678 0.003101
O O4 0.251058 0.387945 0.276689
O O5 0.129984 0.084020 0.160572
O O6 0.120872 0.883031 0.239642
O O7 0.494706 0.535714 0.845941
O O8 0.806488 0.561251 0.904235
O O9 0.853599 0.314447 0.003205
O O10 0.848939 0.813533 0.002055
O O11 0.577970 0.592566 0.537654
O O12 0.474596 0.735834 0.414166
O O13 0.811756 0.967959 0.580854
O O14 0.902821 0.044324 0.701562
O O15 0.098797 0.353490 0.712055
O O16 0.202296 0.860321 0.759014
#
# Coordination Sequence:
#
# PCOD8045868 Si02
#       8
#     2   2   2   2   2   2   2   2
#     4  12  22  32  46  70 108 144 172 204 262 320
#     4  12  21  34  53  77 108 142 178 221 264 313
#     4  10  21  38  56  75 103 142 189 231 262 300
#     4  10  20  34  54  76 108 148 178 210 270 320
#     4  11  20  35  51  79 110 140 173 218 263 328
#     4  10  21  38  56  75 103 142 189 231 262 300
#     4  11  20  35  51  79 110 140 173 218 263 328
#     4  12  21  34  53  77 108 142 178 221 264 313
#
# _framework density 18.123797
#
# number of rings (size 3 to 8) (size 9 to 14) (size 15 to 20)
#    0.000    1.000    2.500    7.500    0.000    0.000 
#    0.000    0.000    0.000    0.000    0.000    3.500 
#    0.000    2.000    0.000    0.000    0.000    0.000 
#
# Total GULP energy -198422.128159 kJ/mol
# GULP energy per Si atom -12401.383010 kJ/mol
# Density = 1.808255 g / cm^3
# Si number density = 18.123797 Si / 1000 Ang^3
#
#
#
# Elastic Constant Matrix: (Units=GPa)
#
#
# Indices 1 2 3 4 5 6 
#
# 1 55.0164 15.2214 51.8214 0.0000 4.6047 0.0000
# 2 15.2214 113.1354 33.7107 0.0000 -2.5291 0.0000
# 3 51.8214 33.7107 96.2330 0.0000 -2.1294 0.0000
# 4 0.0000 0.0000 0.0000 50.9137 0.0000 6.7783
# 5 4.6047 -2.5291 -2.1294 0.0000 19.9164 0.0000
# 6 0.0000 0.0000 0.0000 6.7783 0.0000 18.2678
#
#
#
# Elastic Compliance Matrix: (Units=1/GPa)
#
#
# Indices 1 2 3 4 5 6 
#
# 1 0.039388 0.000941 -0.021791 0.000000 -0.011317 0.000000
# 2 0.000941 0.009907 -0.003963 0.000000 0.000617 0.000000
# 3 -0.021791 -0.003963 0.023670 0.000000 0.007066 0.000000
# 4 0.000000 0.000000 0.000000 0.020662 0.000000 -0.007667
# 5 -0.011317 0.000617 0.007066 0.000000 0.053660 0.000000
# 6 0.000000 0.000000 0.000000 -0.007667 0.000000 0.057586
#
#
# Mechanical properties :
#
#
# Convention : Reuss Voigt Hill
#
# Bulk Modulus (GPa) = 42.84625 51.76575 47.30600
# Shear Modulus (GPa) = 19.06359 28.72833 23.89596
#
# Velocity S-wave (km/s) = 3.24675 3.98567 3.63503
# Velocity P-wave (km/s) = 6.14389 7.05727 6.61636
#
# Compressibility (1/GPa) = 0.02333927
#
# Stress axis : x y z
#
# Youngs Moduli (GPa) = 25.38815 100.93709 42.24700
#
# Poissons Ratio (x) = -0.09493 0.92058
# Poissons Ratio (y) = -0.02388 0.16744
# Poissons Ratio (z) = 0.55322 0.40005
#
# Static dielectric constant tensor:
#      x y z
#    x 3.071660 0.000000 -0.035570 
#    y 0.000000 3.601120 0.000000 
#    z -0.035570 0.000000 3.463710 
# 
# 
# High freq. dielectric constant tensor:
#      x y z
#    x 1.656520 0.000000 0.000410 
#    y 0.000000 1.732290 0.000000 
#    z 0.000410 0.000000 1.698630 
# 
# From -- ./inp_files/16374.got.cif
#   From: 2010.03.12/outbox.cif.g09.slc.cpg/sg4_9_cif.got.tgz:16374.got - 2010.03.31 09:31:35.
