data_PCOD8045647
_publ_section_title
;
Structure prediction by ZEFSAII (Michael W. Deem and Ramdas Pophale) SiO2 
 PCOD8045647
Probable space group: P 21
;
_chemical_formula_sum "Si O2"
_cell_formula_units_Z 14
_cell_length_a 8.694858
_cell_length_b 9.209453
_cell_length_c 10.246656
_cell_angle_alpha 90.000000
_cell_angle_beta 125.623792
_cell_angle_gamma 90.000000
_cell_volume 666.950628
_symmetry_space_group_name_H-M "P 21"
_symmetry_group_IT_number 4
_symmetry_cell_setting 'monoclinic'
loop_
_space_group_symop_operation_xyz
x,y,z
-x,1/2+y,-z
loop_
_atom_site_type_symbol
_atom_site_label
_atom_site_fract_x
_atom_site_fract_y
_atom_site_fract_z
Si Si1 0.624180 0.775950 0.263076
Si Si2 0.381152 0.031888 0.229064
Si Si3 0.057460 0.411870 0.735015
Si Si4 0.950432 0.328330 0.968131
Si Si5 0.663884 0.523419 0.491904
Si Si6 0.637549 0.848080 0.790567
Si Si7 0.704226 0.109581 0.992016
O O1 0.826089 0.798724 0.295810
O O2 0.632741 0.661947 0.384970
O O3 0.559080 0.928684 0.292239
O O4 0.471630 0.720552 0.077907
O O5 0.418556 0.188564 0.182782
O O6 0.192168 0.961236 0.073971
O O7 0.348961 0.070196 0.364818
O O8 0.179213 0.561249 0.821480
O O9 0.003169 0.327384 0.841081
O O10 0.869194 0.454728 0.563214
O O11 0.850055 0.177106 0.957780
O O12 0.141894 0.346898 0.147903
O O13 0.503211 0.400731 0.392515
O O14 0.615195 0.958599 0.898908
#
# Coordination Sequence:
#
# PCOD8045647 Si02
#       7
#     2   2   2   2   2   2   2
#     4  10  22  39  58  85 116 146 187 236 283 329
#     4  10  20  35  58  83 110 149 190 232 279 334
#     4  10  21  37  59  85 116 146 184 237 283 328
#     4   9  18  36  59  82 108 143 188 234 280 335
#     4  10  21  37  55  81 116 152 188 226 276 341
#     4  10  18  32  56  82 108 144 190 230 271 328
#     4   9  20  38  59  82 110 146 189 233 280 337
#
# _framework density 20.991059
#
# number of rings (size 3 to 8) (size 9 to 14) (size 15 to 20)
#    0.000    2.286    0.000    3.429    0.000    4.571 
#    0.000    2.857    0.000    1.714    0.000    0.000 
#    0.000    0.000    0.000    0.000    0.000    0.000 
#
# Total GULP energy -173503.028773 kJ/mol
# GULP energy per Si atom -12393.073484 kJ/mol
# Density = 2.094328 g / cm^3
# Si number density = 20.991059 Si / 1000 Ang^3
#
#
#
# Elastic Constant Matrix: (Units=GPa)
#
#
# Indices 1 2 3 4 5 6 
#
# 1 98.1710 43.9745 32.2021 0.0000 17.7380 0.0000
# 2 43.9745 140.0915 39.7893 0.0000 10.6757 0.0000
# 3 32.2021 39.7893 81.1372 0.0000 32.6167 0.0000
# 4 0.0000 0.0000 0.0000 28.1969 0.0000 6.0417
# 5 17.7380 10.6757 32.6167 0.0000 33.4701 0.0000
# 6 0.0000 0.0000 0.0000 6.0417 0.0000 32.6439
#
#
#
# Elastic Compliance Matrix: (Units=1/GPa)
#
#
# Indices 1 2 3 4 5 6 
#
# 1 0.012988 -0.003208 -0.002016 0.000000 -0.003896 0.000000
# 2 -0.003208 0.009182 -0.004498 0.000000 0.003154 0.000000
# 3 -0.002016 -0.004498 0.023550 0.000000 -0.020447 0.000000
# 4 0.000000 0.000000 0.000000 0.036929 0.000000 -0.006835
# 5 -0.003896 0.003154 -0.020447 0.000000 0.050861 0.000000
# 6 0.000000 0.000000 0.000000 -0.006835 0.000000 0.031899
#
#
# Mechanical properties :
#
#
# Convention : Reuss Voigt Hill
#
# Bulk Modulus (GPa) = 38.05468 61.25905 49.65686
# Shear Modulus (GPa) = 25.82496 32.42444 29.12470
#
# Velocity S-wave (km/s) = 3.51135 3.93450 3.72893
# Velocity P-wave (km/s) = 5.88284 7.06309 6.49980
#
# Compressibility (1/GPa) = 0.02627798
#
# Stress axis : x y z
#
# Youngs Moduli (GPa) = 76.99284 108.90664 42.46299
#
# Poissons Ratio (x) = 0.34933 0.08559
# Poissons Ratio (y) = 0.24696 0.19099
# Poissons Ratio (z) = 0.15520 0.48985
#
# Static dielectric constant tensor:
#      x y z
#    x 3.727620 0.000000 0.477680 
#    y 0.000000 3.939050 0.000000 
#    z 0.477680 0.000000 3.820300 
# 
# 
# High freq. dielectric constant tensor:
#      x y z
#    x 1.810470 0.000000 0.031950 
#    y 0.000000 1.831010 0.000000 
#    z 0.031950 0.000000 1.802000 
# 
# From -- ./inp_files/5303.got.cif
#   From: 2010.03.12/outbox.cif.g09.slc.cpg/sg4_3_cif.got.tgz:5303.got - 2010.03.31 09:31:35.
