data_PCOD8045840
_publ_section_title
;
Structure prediction by ZEFSAII (Michael W. Deem and Ramdas Pophale) SiO2 
 PCOD8045840
Probable space group: P 21
;
_chemical_formula_sum "Si O2"
_cell_formula_units_Z 16
_cell_length_a 9.906074
_cell_length_b 12.256605
_cell_length_c 10.737401
_cell_angle_alpha 90.000000
_cell_angle_beta 139.524917
_cell_angle_gamma 90.000000
_cell_volume 846.241099
_symmetry_space_group_name_H-M "P 21"
_symmetry_group_IT_number 4
_symmetry_cell_setting 'monoclinic'
loop_
_space_group_symop_operation_xyz
x,y,z
-x,1/2+y,-z
loop_
_atom_site_type_symbol
_atom_site_label
_atom_site_fract_x
_atom_site_fract_y
_atom_site_fract_z
Si Si1 0.780444 0.206410 0.015078
Si Si2 0.922869 0.083343 0.677532
Si Si3 0.095226 0.115631 0.060475
Si Si4 0.635240 0.702416 0.416205
Si Si5 0.875343 0.308200 0.546423
Si Si6 0.478726 0.699189 0.579042
Si Si7 0.942731 0.528019 0.713272
Si Si8 0.979634 0.353620 0.346014
O O1 0.834784 0.316323 0.128976
O O2 0.920179 0.202093 0.986423
O O3 0.849053 0.103368 0.150822
O O4 0.537338 0.199380 0.813200
O O5 0.001727 0.196750 0.668790
O O6 0.673094 0.092622 0.523101
O O7 0.983107 0.983258 0.631814
O O8 0.031396 0.063128 0.886103
O O9 0.313557 0.177383 0.196763
O O10 0.120581 0.021155 0.184115
O O11 0.530233 0.731295 0.474014
O O12 0.753565 0.586290 0.505899
O O13 0.795638 0.797838 0.497913
O O14 0.641353 0.300153 0.438682
O O15 0.991830 0.409988 0.692383
O O16 0.860641 0.324488 0.389035
#
# Coordination Sequence:
#
# PCOD8045840 Si02
#       8
#     2   2   2   2   2   2   2   2
#     4   9  19  39  63  91 118 155 207 247 304 357
#     4  10  23  37  62  90 123 155 208 248 303 351
#     4   9  18  39  63  96 117 149 207 261 293 354
#     4  10  19  41  66  92 118 156 209 252 305 351
#     4  10  23  43  59  86 135 162 192 252 306 366
#     4   9  19  39  61  90 118 154 199 256 295 353
#     4   8  19  37  63  89 121 158 196 247 310 352
#     4  11  24  39  63  88 126 169 196 245 308 374
#
# _framework density 18.907142
#
# number of rings (size 3 to 8) (size 9 to 14) (size 15 to 20)
#    1.500    1.000    2.500    0.000    3.500    5.000 
#    4.500    0.000    0.000    0.000    0.000    0.000 
#    0.000    0.000    0.000    0.000    0.000    0.000 
#
# Total GULP energy -198252.266455 kJ/mol
# GULP energy per Si atom -12390.766653 kJ/mol
# Density = 1.886411 g / cm^3
# Si number density = 18.907142 Si / 1000 Ang^3
#
#
#
# Elastic Constant Matrix: (Units=GPa)
#
#
# Indices 1 2 3 4 5 6 
#
# 1 70.3891 36.3023 29.2902 0.0000 -11.4505 0.0000
# 2 36.3023 122.2382 39.2883 0.0000 -4.4191 0.0000
# 3 29.2902 39.2883 129.0413 0.0000 13.2843 0.0000
# 4 0.0000 0.0000 0.0000 19.5200 0.0000 -8.3877
# 5 -11.4505 -4.4191 13.2843 0.0000 24.6656 0.0000
# 6 0.0000 0.0000 0.0000 -8.3877 0.0000 20.6558
#
#
#
# Elastic Compliance Matrix: (Units=1/GPa)
#
#
# Indices 1 2 3 4 5 6 
#
# 1 0.019924 -0.004113 -0.004390 0.000000 0.010877 0.000000
# 2 -0.004113 0.010177 -0.002283 0.000000 0.001143 0.000000
# 3 -0.004390 -0.002283 0.010262 0.000000 -0.007974 0.000000
# 4 0.000000 0.000000 0.000000 0.062058 0.000000 0.025200
# 5 0.010877 0.001143 -0.007974 0.000000 0.050091 0.000000
# 6 0.000000 0.000000 0.000000 0.025200 0.000000 0.058645
#
#
# Mechanical properties :
#
#
# Convention : Reuss Voigt Hill
#
# Bulk Modulus (GPa) = 53.21440 59.04782 56.13111
# Shear Modulus (GPa) = 20.92123 27.42081 24.17102
#
# Velocity S-wave (km/s) = 3.33006 3.81240 3.57936
# Velocity P-wave (km/s) = 6.55682 7.11881 6.84359
#
# Compressibility (1/GPa) = 0.01879191
#
# Stress axis : x y z
#
# Youngs Moduli (GPa) = 50.19075 98.25867 97.44912
#
# Poissons Ratio (x) = 0.40412 0.42779
# Poissons Ratio (y) = 0.20643 0.22245
# Poissons Ratio (z) = 0.22033 0.22430
#
# Static dielectric constant tensor:
#      x y z
#    x 3.260040 0.000000 0.024470 
#    y 0.000000 3.174540 0.000000 
#    z 0.024470 0.000000 3.328870 
# 
# 
# High freq. dielectric constant tensor:
#      x y z
#    x 1.717990 0.000000 -0.004370 
#    y 0.000000 1.713550 0.000000 
#    z -0.004370 0.000000 1.730910 
# 
# From -- ./inp_files/12232.got.cif
#   From: 2010.03.12/outbox.cif.g09.slc.cpg/sg4_7_cif.got.tgz:12232.got - 2010.03.31 09:31:35.
