data_PCOD8045065
_publ_section_title
;
Structure prediction by ZEFSAII (Michael W. Deem and Ramdas Pophale) SiO2 
 PCOD8045065
Probable space group: P 2
;
_chemical_formula_sum "Si O2"
_cell_formula_units_Z 15
_cell_length_a 10.305016
_cell_length_b 8.652814
_cell_length_c 12.485415
_cell_angle_alpha 90.000000
_cell_angle_beta 137.800619
_cell_angle_gamma 90.000000
_cell_volume 747.812132
_symmetry_space_group_name_H-M "P 2"
_symmetry_group_IT_number 3
_symmetry_cell_setting 'monoclinic'
loop_
_space_group_symop_operation_xyz
x,y,z
-x,y,-z
loop_
_atom_site_type_symbol
_atom_site_label
_atom_site_fract_x
_atom_site_fract_y
_atom_site_fract_z
Si Si1 0.501596 0.699060 0.881399
Si Si2 0.000000 0.423113 0.000000
Si Si3 0.145209 0.489086 0.686762
Si Si4 0.156918 0.141732 0.687977
Si Si5 0.805078 0.123837 0.838037
Si Si6 0.939713 0.648042 0.152445
Si Si7 0.899003 0.972156 0.685549
Si Si8 0.583498 0.981415 0.309033
O O1 0.357465 0.553243 0.789320
O O2 0.430278 0.812613 0.747283
O O3 0.500000 0.772435 0.000000
O O4 0.717336 0.654373 0.981691
O O5 0.813909 0.305937 0.878936
O O6 0.971283 0.530578 0.878880
O O7 0.177422 0.314168 0.744924
O O8 0.040055 0.581774 0.716285
O O9 0.000000 0.501655 0.500000
O O10 0.000000 0.130632 0.500000
O O11 0.354647 0.091110 0.751846
O O12 0.097137 0.032068 0.750986
O O13 0.813270 0.099184 0.715056
O O14 0.618138 0.044797 0.772325
O O15 0.000000 0.038664 0.000000
O O16 0.052639 0.811921 0.223457
O O17 0.734241 0.959183 0.496226
#
# Coordination Sequence:
#
# PCOD8045065 Si02
#       8
#     2   1   2   2   2   2   2   2
#     4  10  22  37  58  95 127 163 207 262 322 383
#     4  10  26  42  64  86 130 176 210 260 326 394
#     4  10  20  38  62  91 130 165 209 270 321 377
#     4   9  20  36  62  93 122 161 210 264 321 368
#     4  10  24  42  62  90 124 172 210 266 318 385
#     4  11  23  40  62  92 126 169 213 264 324 386
#     4  11  22  41  68  92 125 166 221 270 318 380
#     4  11  22  40  66  96 123 167 216 268 317 379
#
# _framework density 20.058513999999999
#
# number of rings (size 3 to 8) (size 9 to 14) (size 15 to 20)
#    0.400    1.333    0.000    4.400    4.667    1.067 
#    0.000    0.000    2.933    0.000    0.000    0.000 
#    0.000    0.000    0.000    0.000    0.000    0.000 
#
# Total GULP energy -185906.698618 kJ/mol
# GULP energy per Si atom -12393.779908 kJ/mol
# Density = 2.001286 g / cm^3
# Si number density = 20.058514 Si / 1000 Ang^3
#
#
#
# Elastic Constant Matrix: (Units=GPa)
#
#
# Indices 1 2 3 4 5 6 
#
# 1 102.0936 36.7500 31.1591 0.0000 10.2507 0.0000
# 2 36.7500 121.2568 42.3532 0.0000 -5.4424 0.0000
# 3 31.1591 42.3532 92.2220 0.0000 3.0064 0.0000
# 4 0.0000 0.0000 0.0000 40.9912 0.0000 1.1589
# 5 10.2507 -5.4424 3.0064 0.0000 31.8071 0.0000
# 6 0.0000 0.0000 0.0000 1.1589 0.0000 53.0308
#
#
#
# Elastic Compliance Matrix: (Units=1/GPa)
#
#
# Indices 1 2 3 4 5 6 
#
# 1 0.012058 -0.002936 -0.002591 0.000000 -0.004144 0.000000
# 2 -0.002936 0.010681 -0.004016 0.000000 0.003153 0.000000
# 3 -0.002591 -0.004016 0.013600 0.000000 -0.001138 0.000000
# 4 0.000000 0.000000 0.000000 0.024411 0.000000 -0.000533
# 5 -0.004144 0.003153 -0.001138 0.000000 0.033422 0.000000
# 6 0.000000 0.000000 0.000000 -0.000533 0.000000 0.018869
#
#
# Mechanical properties :
#
#
# Convention : Reuss Voigt Hill
#
# Bulk Modulus (GPa) = 57.95670 59.56635 58.76152
# Shear Modulus (GPa) = 36.26397 38.85316 37.55857
#
# Velocity S-wave (km/s) = 4.25656 4.40590 4.33188
# Velocity P-wave (km/s) = 7.28796 7.45945 7.37420
#
# Compressibility (1/GPa) = 0.01725426
#
# Stress axis : x y z
#
# Youngs Moduli (GPa) = 82.92949 93.62415 73.52762
#
# Poissons Ratio (x) = 0.27485 0.19050
# Poissons Ratio (y) = 0.24345 0.29530
# Poissons Ratio (z) = 0.21486 0.37601
#
# Static dielectric constant tensor:
#      x y z
#    x 3.362280 0.000000 -0.030990 
#    y 0.000000 3.713130 0.000000 
#    z -0.030990 0.000000 3.626410 
# 
# 
# High freq. dielectric constant tensor:
#      x y z
#    x 1.783160 0.000000 -0.008640 
#    y 0.000000 1.783760 0.000000 
#    z -0.008640 0.000000 1.785220 
# 
# From -- ./inp_files/10796.got.cif
#   From: 2010.03.12/outbox.cif.g09.slc.cpg/sg3_6_cif.got.tgz:10796.got - 2010.03.31 09:20:49.
