data_PCOD8045130
_publ_section_title
;
Structure prediction by ZEFSAII (Michael W. Deem and Ramdas Pophale) SiO2 
 PCOD8045130
Probable space group: P 2
;
_chemical_formula_sum "Si O2"
_cell_formula_units_Z 16
_cell_length_a 9.309477
_cell_length_b 17.559410
_cell_length_c 9.024684
_cell_angle_alpha 90.000000
_cell_angle_beta 30.920533
_cell_angle_gamma 90.000000
_cell_volume 758.058092
_symmetry_space_group_name_H-M "P 2"
_symmetry_group_IT_number 3
_symmetry_cell_setting 'monoclinic'
loop_
_space_group_symop_operation_xyz
x,y,z
-x,y,-z
loop_
_atom_site_type_symbol
_atom_site_label
_atom_site_fract_x
_atom_site_fract_y
_atom_site_fract_z
Si Si1 0.573822 0.625000 0.266250
Si Si2 0.080184 0.264950 0.097868
Si Si3 0.023577 0.564232 0.647082
Si Si4 0.915174 0.023343 0.408409
Si Si5 0.580210 0.927720 0.097840
Si Si6 0.415186 0.169350 0.408371
Si Si7 0.802691 0.398182 0.798933
Si Si8 0.697104 0.793963 0.200563
O O1 0.500000 0.599839 0.500000
O O2 0.351749 0.577365 0.371190
O O3 0.551124 0.716257 0.274510
O O4 0.867994 0.605400 0.923752
O O5 0.212301 0.340809 0.050019
O O6 0.792927 0.240650 0.429760
O O7 0.299957 0.194553 0.926432
O O8 0.000000 0.282344 0.000000
O O9 0.000000 0.596851 0.500000
O O10 0.945064 0.475958 0.726253
O O11 0.749831 0.096283 0.500054
O O12 0.000000 0.040488 0.500000
O O13 0.707260 0.951952 0.570217
O O14 0.200202 0.998148 0.073590
O O15 0.713153 0.852123 0.049988
O O16 0.500000 0.910152 0.000000
O O17 0.500000 0.152268 0.500000
O O18 0.000000 0.360157 0.500000
O O19 0.500000 0.415424 0.000000
O O20 0.500000 0.831351 0.500000
O O21 0.000000 0.775768 0.000000
#
# Coordination Sequence:
#
# PCOD8045130 Si02
#       8
#     2   2   2   2   2   2   2   2
#     4  11  23  41  63  91 125 162 206 257 311 373
#     4  10  22  39  59  86 118 153 197 246 298 358
#     4  11  23  41  63  91 125 162 206 257 311 373
#     4  10  21  37  57  84 117 152 195 245 295 355
#     4  10  22  39  59  86 118 153 197 246 298 358
#     4  10  21  37  57  84 117 152 195 245 295 355
#     4  11  23  41  62  89 122 157 201 254 305 366
#     4  11  23  41  62  89 122 157 201 254 305 366
#
# _framework density 21.106562
#
# number of rings (size 3 to 8) (size 9 to 14) (size 15 to 20)
#    0.000    1.500    0.000    6.000    0.000    5.000 
#    0.000    2.500    0.000    0.000    0.000    0.000 
#    0.000    0.000    0.000    0.000    0.000    0.000 
#
# Total GULP energy -198236.039683 kJ/mol
# GULP energy per Si atom -12389.752480 kJ/mol
# Density = 2.105852 g / cm^3
# Si number density = 21.106562 Si / 1000 Ang^3
#
#
#
# Elastic Constant Matrix: (Units=GPa)
#
#
# Indices 1 2 3 4 5 6 
#
# 1 93.0921 65.2544 29.0615 0.0000 -19.8046 0.0000
# 2 65.2544 109.2139 16.9510 0.0000 -10.2714 0.0000
# 3 29.0615 16.9510 101.6275 0.0000 -6.2808 0.0000
# 4 0.0000 0.0000 0.0000 19.7340 0.0000 -5.5979
# 5 -19.8046 -10.2714 -6.2808 0.0000 40.2604 0.0000
# 6 0.0000 0.0000 0.0000 -5.5979 0.0000 32.4026
#
#
#
# Elastic Compliance Matrix: (Units=1/GPa)
#
#
# Indices 1 2 3 4 5 6 
#
# 1 0.021595 -0.011650 -0.003796 0.000000 0.007058 0.000000
# 2 -0.011650 0.015877 0.000585 0.000000 -0.001589 0.000000
# 3 -0.003796 0.000585 0.010826 0.000000 -0.000029 0.000000
# 4 0.000000 0.000000 0.000000 0.053285 0.000000 0.009206
# 5 0.007058 -0.001589 -0.000029 0.000000 0.027901 0.000000
# 6 0.000000 0.000000 0.000000 0.009206 0.000000 0.032452
#
#
# Mechanical properties :
#
#
# Convention : Reuss Voigt Hill
#
# Bulk Modulus (GPa) = 53.83227 58.49638 56.16433
# Shear Modulus (GPa) = 25.27188 31.32386 28.29787
#
# Velocity S-wave (km/s) = 3.46402 3.85656 3.66555
# Velocity P-wave (km/s) = 6.44668 6.89969 6.67702
#
# Compressibility (1/GPa) = 0.01857622
#
# Stress axis : x y z
#
# Youngs Moduli (GPa) = 46.30769 62.98535 92.37056
#
# Poissons Ratio (x) = 0.73376 0.35063
# Poissons Ratio (y) = 0.53947 -0.05404
# Poissons Ratio (z) = 0.17578 -0.03685
#
# Static dielectric constant tensor:
#      x y z
#    x 3.753770 0.000000 -0.119620 
#    y 0.000000 3.529780 0.000000 
#    z -0.119620 0.000000 4.219260 
# 
# 
# High freq. dielectric constant tensor:
#      x y z
#    x 1.828460 0.000000 -0.014340 
#    y 0.000000 1.818140 0.000000 
#    z -0.014340 0.000000 1.845410 
# 
# From -- ./inp_files/6194.got.cif
#   From: 2010.03.12/outbox.cif.g09.slc.cpg/sg3_4_cif.got.tgz:6194.got - 2010.03.31 09:20:49.
