data_PCOD8045864
_publ_section_title
;
Structure prediction by ZEFSAII (Michael W. Deem and Ramdas Pophale) SiO2 
 PCOD8045864
Probable space group: P 21
;
_chemical_formula_sum "Si O2"
_cell_formula_units_Z 12
_cell_length_a 8.954243
_cell_length_b 8.898820
_cell_length_c 9.207256
_cell_angle_alpha 90.000000
_cell_angle_beta 116.946068
_cell_angle_gamma 90.000000
_cell_volume 654.004070
_symmetry_space_group_name_H-M "P 21"
_symmetry_group_IT_number 4
_symmetry_cell_setting 'monoclinic'
loop_
_space_group_symop_operation_xyz
x,y,z
-x,1/2+y,-z
loop_
_atom_site_type_symbol
_atom_site_label
_atom_site_fract_x
_atom_site_fract_y
_atom_site_fract_z
Si Si1 0.195449 0.021030 0.531687
Si Si2 0.604347 0.472253 0.645524
Si Si3 0.325217 0.626907 0.339577
Si Si4 0.128488 0.683241 0.517948
Si Si5 0.461474 0.639683 0.833189
Si Si6 0.526344 0.991009 0.850754
O O1 0.235253 0.028784 0.376675
O O2 0.361191 0.055951 0.698784
O O3 0.052664 0.138037 0.506578
O O4 0.126471 0.859464 0.542275
O O5 0.440934 0.523059 0.488794
O O6 0.599042 0.292412 0.652817
O O7 0.601969 0.547882 0.803611
O O8 0.152965 0.640823 0.357002
O O9 0.313270 0.542068 0.178417
O O10 0.279479 0.616096 0.680958
O O11 0.519324 0.812185 0.863780
O O12 0.453486 0.570542 0.987812
#
# Coordination Sequence:
#
# PCOD8045864 Si02
#       6
#     2   2   2   2   2   2
#     4   9  19  33  51  75 101 128 164 204 245 293
#     4   9  17  31  50  73  99 130 167 205 242 292
#     4   9  17  31  50  73  99 130 167 205 242 292
#     4   9  19  33  51  75 101 128 164 204 245 293
#     4  10  20  34  52  76 101 130 167 207 248 295
#     4  10  20  34  52  76 101 130 167 207 248 295
#
# _framework density 18.348509
#
# number of rings (size 3 to 8) (size 9 to 14) (size 15 to 20)
#    0.000    2.667    0.000    4.000    0.000    8.000 
#    0.000    1.667    0.000    0.000    0.000    0.000 
#    0.000    0.000    0.000    0.000    0.000    0.000 
#
# Total GULP energy -148695.490777 kJ/mol
# GULP energy per Si atom -12391.290898 kJ/mol
# Density = 1.830675 g / cm^3
# Si number density = 18.348509 Si / 1000 Ang^3
#
#
#
# Elastic Constant Matrix: (Units=GPa)
#
#
# Indices 1 2 3 4 5 6 
#
# 1 42.0644 -4.6703 15.8950 0.0000 -12.3869 0.0000
# 2 -4.6703 43.3181 18.0595 0.0000 -8.1158 0.0000
# 3 15.8950 18.0595 85.4904 0.0000 -31.1790 0.0000
# 4 0.0000 0.0000 0.0000 10.3060 0.0000 -5.4995
# 5 -12.3869 -8.1158 -31.1790 0.0000 29.5533 0.0000
# 6 0.0000 0.0000 0.0000 -5.4995 0.0000 35.0970
#
#
#
# Elastic Compliance Matrix: (Units=1/GPa)
#
#
# Indices 1 2 3 4 5 6 
#
# 1 0.028694 0.006254 -0.002671 0.000000 0.010926 0.000000
# 2 0.006254 0.026760 -0.005168 0.000000 0.004518 0.000000
# 3 -0.002671 -0.005168 0.020090 0.000000 0.018656 0.000000
# 4 0.000000 0.000000 0.000000 0.105885 0.000000 0.016592
# 5 0.010926 0.004518 0.018656 0.000000 0.059339 0.000000
# 6 0.000000 0.000000 0.000000 0.016592 0.000000 0.031092
#
#
# Mechanical properties :
#
#
# Convention : Reuss Voigt Hill
#
# Bulk Modulus (GPa) = 13.81713 25.49346 19.65529
# Shear Modulus (GPa) = 16.71370 24.43051 20.57211
#
# Velocity S-wave (km/s) = 3.02139 3.65289 3.35205
# Velocity P-wave (km/s) = 4.44055 5.63167 5.07120
#
# Compressibility (1/GPa) = 0.07237395
#
# Stress axis : x y z
#
# Youngs Moduli (GPa) = 34.85001 37.36861 49.77710
#
# Poissons Ratio (x) = -0.23372 0.13298
# Poissons Ratio (y) = -0.21797 0.25726
# Poissons Ratio (z) = 0.09310 0.19313
#
# Static dielectric constant tensor:
#      x y z
#    x 3.841050 0.000000 -0.794800 
#    y 0.000000 3.516570 0.000000 
#    z -0.794800 0.000000 3.661340 
# 
# 
# High freq. dielectric constant tensor:
#      x y z
#    x 1.702390 0.000000 -0.039840 
#    y 0.000000 1.724930 0.000000 
#    z -0.039840 0.000000 1.687580 
# 
# From -- ./inp_files/5199.got.cif
#   From: 2010.03.12/outbox.cif.g09.slc.cpg/sg4_3_cif.got.tgz:5199.got - 2010.03.31 09:31:35.
