data_PCOD8045795
_publ_section_title
;
Structure prediction by ZEFSAII (Michael W. Deem and Ramdas Pophale) SiO2 
 PCOD8045795
Probable space group: P 21
;
_chemical_formula_sum "Si O2"
_cell_formula_units_Z 14
_cell_length_a 5.475911
_cell_length_b 7.143942
_cell_length_c 16.073254
_cell_angle_alpha 90.000000
_cell_angle_beta 119.308677
_cell_angle_gamma 90.000000
_cell_volume 548.292339
_symmetry_space_group_name_H-M "P 21"
_symmetry_group_IT_number 4
_symmetry_cell_setting 'monoclinic'
loop_
_space_group_symop_operation_xyz
x,y,z
-x,1/2+y,-z
loop_
_atom_site_type_symbol
_atom_site_label
_atom_site_fract_x
_atom_site_fract_y
_atom_site_fract_z
Si Si1 0.582752 0.721780 0.363333
Si Si2 0.384239 0.987604 0.889831
Si Si3 0.300128 0.190194 0.138949
Si Si4 0.507022 0.779559 0.656462
Si Si5 0.238295 0.832331 0.036422
Si Si6 0.008507 0.168826 0.701831
Si Si7 0.893995 0.801267 0.579387
O O1 0.542915 0.499438 0.362596
O O2 0.733586 0.779911 0.300652
O O3 0.770552 0.809821 0.466670
O O4 0.261876 0.798857 0.320999
O O5 0.632499 0.135195 0.916179
O O6 0.102821 0.081131 0.806148
O O7 0.415806 0.791104 0.845384
O O8 0.389848 0.946086 0.988186
O O9 0.278861 0.230892 0.233156
O O10 0.269187 0.968264 0.121011
O O11 0.075234 0.299372 0.045406
O O12 0.666284 0.697271 0.601404
O O13 0.196467 0.692879 0.622088
O O14 0.933069 0.010094 0.621292
#
# Coordination Sequence:
#
# PCOD8045795 Si02
#       7
#     2   2   2   2   2   2   2
#     4  10  19  37  64  91 124 175 231 278 361 417
#     4  12  24  45  70 103 148 184 242 298 369 428
#     4  12  24  45  70 103 148 184 242 298 369 428
#     4  10  22  39  64  93 134 183 218 298 356 418
#     4  12  26  42  74 108 140 196 242 300 362 446
#     4  10  22  39  64  93 134 183 218 298 356 418
#     4  10  19  37  64  91 124 175 231 278 361 417
#
# _framework density 25.533823999999999
#
# number of rings (size 3 to 8) (size 9 to 14) (size 15 to 20)
#    0.000    1.143    5.714    2.571    0.000    0.000 
#    0.000    8.571    0.000    0.000    0.000    0.000 
#    0.000    0.000    0.000    0.000    0.000    0.000 
#
# Total GULP energy -173461.604194 kJ/mol
# GULP energy per Si atom -12390.114585 kJ/mol
# Density = 2.547571 g / cm^3
# Si number density = 25.533824 Si / 1000 Ang^3
#
#
#
# Elastic Constant Matrix: (Units=GPa)
#
#
# Indices 1 2 3 4 5 6 
#
# 1 178.0486 -9.7936 10.9774 0.0000 -15.3586 0.0000
# 2 -9.7936 57.8089 -9.8610 0.0000 -5.3966 0.0000
# 3 10.9774 -9.8610 31.7059 0.0000 4.0424 0.0000
# 4 0.0000 0.0000 0.0000 64.7977 0.0000 -0.8896
# 5 -15.3586 -5.3966 4.0424 0.0000 23.1937 0.0000
# 6 0.0000 0.0000 0.0000 -0.8896 0.0000 15.6168
#
#
#
# Elastic Compliance Matrix: (Units=1/GPa)
#
#
# Indices 1 2 3 4 5 6 
#
# 1 0.006242 0.001091 -0.002435 0.000000 0.004811 0.000000
# 2 0.001091 0.018714 0.004904 0.000000 0.004222 0.000000
# 3 -0.002435 0.004904 0.034740 0.000000 -0.006526 0.000000
# 4 0.000000 0.000000 0.000000 0.015445 0.000000 0.000880
# 5 0.004811 0.004222 -0.006526 0.000000 0.048421 0.000000
# 6 0.000000 0.000000 0.000000 0.000880 0.000000 0.064084
#
#
# Mechanical properties :
#
#
# Convention : Reuss Voigt Hill
#
# Bulk Modulus (GPa) = 14.96634 27.80099 21.38366
# Shear Modulus (GPa) = 24.65521 39.13768 31.89645
#
# Velocity S-wave (km/s) = 3.11077 3.91932 3.53821
# Velocity P-wave (km/s) = 4.33320 5.60294 5.00847
#
# Compressibility (1/GPa) = 0.06681662
#
# Stress axis : x y z
#
# Youngs Moduli (GPa) = 160.21439 53.43609 28.78495
#
# Poissons Ratio (x) = -0.05831 0.07009
# Poissons Ratio (y) = -0.17483 -0.14117
# Poissons Ratio (z) = 0.39014 -0.26206
#
# Static dielectric constant tensor:
#      x y z
#    x -8.723020 0.000000 -4.218830 
#    y 0.000000 4.239520 0.000000 
#    z -4.218830 0.000000 3.501710 
# 
# 
# High freq. dielectric constant tensor:
#      x y z
#    x 2.033420 0.000000 0.003990 
#    y 0.000000 1.986610 0.000000 
#    z 0.003990 0.000000 2.023180 
# 
# From -- ./inp_files/2500.got.cif
#   From: 2010.03.12/outbox.cif.g09.slc.cpg/sg4_2_cif.got.tgz:2500.got - 2010.03.31 09:31:35.
