data_PCOD8045905
_publ_section_title
;
Structure prediction by ZEFSAII (Michael W. Deem and Ramdas Pophale) SiO2 
 PCOD8045905
Probable space group: P 21
;
_chemical_formula_sum "Si O2"
_cell_formula_units_Z 16
_cell_length_a 13.630672
_cell_length_b 8.960744
_cell_length_c 11.763033
_cell_angle_alpha 90.000000
_cell_angle_beta 33.764673
_cell_angle_gamma 90.000000
_cell_volume 798.520421
_symmetry_space_group_name_H-M "P 21"
_symmetry_group_IT_number 4
_symmetry_cell_setting 'monoclinic'
loop_
_space_group_symop_operation_xyz
x,y,z
-x,1/2+y,-z
loop_
_atom_site_type_symbol
_atom_site_label
_atom_site_fract_x
_atom_site_fract_y
_atom_site_fract_z
Si Si1 0.544471 0.209470 0.837004
Si Si2 0.838925 0.710486 0.417054
Si Si3 0.534853 0.858485 0.848415
Si Si4 0.848497 0.358514 0.406194
Si Si5 0.801153 0.710056 0.970971
Si Si6 0.307193 0.857579 0.682547
Si Si7 0.318936 0.205847 0.669425
Si Si8 0.810689 0.363409 0.959827
O O1 0.725699 0.273966 0.613520
O O2 0.564496 0.033696 0.834791
O O3 0.507966 0.287071 0.990571
O O4 0.386637 0.248905 0.903249
O O5 0.712871 0.785861 0.630178
O O6 0.830024 0.534050 0.442947
O O7 0.783544 0.760633 0.343608
O O8 0.036713 0.768870 0.248573
O O9 0.376273 0.821524 0.915253
O O10 0.799812 0.307506 0.325441
O O11 0.050121 0.309597 0.233227
O O12 0.851585 0.537741 0.904625
O O13 0.792115 0.753537 0.112769
O O14 0.490017 0.774489 0.510606
O O15 0.350462 0.030772 0.637931
O O16 0.193976 0.817099 0.903125
#
# Coordination Sequence:
#
# PCOD8045905 Si02
#       8
#     2   2   2   2   2   2   2   2
#     4  11  24  43  65  87 118 159 204 253 300 352
#     4  11  23  38  62  94 124 157 198 246 300 358
#     4  11  24  43  65  87 118 159 204 253 300 352
#     4  11  23  38  62  94 124 157 198 246 300 358
#     4  10  22  40  62  89 122 161 199 242 300 358
#     4  10  20  36  60  91 124 158 196 241 297 358
#     4  10  20  36  60  91 124 158 196 241 297 358
#     4  10  22  40  62  89 122 161 199 242 300 358
#
# _framework density 20.037057000000001
#
# number of rings (size 3 to 8) (size 9 to 14) (size 15 to 20)
#    0.000    1.500    2.500    2.250    0.000    5.000 
#    0.000    0.000    0.000    0.000    0.000    0.000 
#    0.000    0.000    0.000    0.000    0.000    0.000 
#
# Total GULP energy -198482.443216 kJ/mol
# GULP energy per Si atom -12405.152701 kJ/mol
# Density = 1.999145 g / cm^3
# Si number density = 20.037057 Si / 1000 Ang^3
#
#
#
# Elastic Constant Matrix: (Units=GPa)
#
#
# Indices 1 2 3 4 5 6 
#
# 1 30.3983 18.7118 19.0249 0.0000 14.9710 0.0000
# 2 18.7118 49.0278 21.5682 0.0000 4.3098 0.0000
# 3 19.0249 21.5682 101.8836 0.0000 6.1958 0.0000
# 4 0.0000 0.0000 0.0000 44.0103 0.0000 -3.2533
# 5 14.9710 4.3098 6.1958 0.0000 39.4017 0.0000
# 6 0.0000 0.0000 0.0000 -3.2533 0.0000 31.9320
#
#
#
# Elastic Compliance Matrix: (Units=1/GPa)
#
#
# Indices 1 2 3 4 5 6 
#
# 1 0.056306 -0.017342 -0.005712 0.000000 -0.018599 0.000000
# 2 -0.017342 0.027949 -0.002921 0.000000 0.003991 0.000000
# 3 -0.005712 -0.002921 0.011458 0.000000 0.000688 0.000000
# 4 0.000000 0.000000 0.000000 0.022894 0.000000 0.002333
# 5 -0.018599 0.003991 0.000688 0.000000 0.031902 0.000000
# 6 0.000000 0.000000 0.000000 0.002333 0.000000 0.031554
#
#
# Mechanical properties :
#
#
# Convention : Reuss Voigt Hill
#
# Bulk Modulus (GPa) = 22.84990 33.32439 28.08715
# Shear Modulus (GPa) = 20.11248 31.20247 25.65747
#
# Velocity S-wave (km/s) = 3.17166 3.95047 3.58229
# Velocity P-wave (km/s) = 4.98409 6.12174 5.58197
#
# Compressibility (1/GPa) = 0.04376386
#
# Stress axis : x y z
#
# Youngs Moduli (GPa) = 17.76008 35.77889 87.27321
#
# Poissons Ratio (x) = 0.62047 0.49849
# Poissons Ratio (y) = 0.30799 0.25494
# Poissons Ratio (z) = 0.10144 0.10452
#
# Static dielectric constant tensor:
#      x y z
#    x 3.395650 0.000000 -0.061590 
#    y 0.000000 4.060940 0.000000 
#    z -0.061590 0.000000 3.483560 
# 
# 
# High freq. dielectric constant tensor:
#      x y z
#    x 1.780620 0.000000 -0.000130 
#    y 0.000000 1.783370 0.000000 
#    z -0.000130 0.000000 1.795210 
# 
# From -- ./inp_files/2583.got.cif
#   From: 2010.03.12/outbox.cif.g09.slc.cpg/sg4_2_cif.got.tgz:2583.got - 2010.03.31 09:31:35.
