data_PCOD8045509
_publ_section_title
;
Structure prediction by ZEFSAII (Michael W. Deem and Ramdas Pophale) SiO2 
 PCOD8045509
Probable space group: P 2
;
_chemical_formula_sum "Si O2"
_cell_formula_units_Z 16
_cell_length_a 15.250737
_cell_length_b 5.265319
_cell_length_c 9.539472
_cell_angle_alpha 90.000000
_cell_angle_beta 60.739326
_cell_angle_gamma 90.000000
_cell_volume 668.279263
_symmetry_space_group_name_H-M "P 2"
_symmetry_group_IT_number 3
_symmetry_cell_setting 'monoclinic'
loop_
_space_group_symop_operation_xyz
x,y,z
-x,y,-z
loop_
_atom_site_type_symbol
_atom_site_label
_atom_site_fract_x
_atom_site_fract_y
_atom_site_fract_z
Si Si1 0.313383 0.932220 0.287375
Si Si2 0.902951 0.528996 0.155268
Si Si3 0.150531 0.915347 0.190997
Si Si4 0.756162 0.180129 0.130841
Si Si5 0.026867 0.413893 0.317036
Si Si6 0.430339 0.453147 0.177465
Si Si7 0.705701 0.816489 0.381722
Si Si8 0.565701 0.450960 0.329986
O O1 0.377394 0.710628 0.160833
O O2 0.294578 0.809850 0.452968
O O3 0.208216 0.953151 0.291049
O O4 0.358777 0.212984 0.265645
O O5 0.863111 0.310647 0.080322
O O6 0.812516 0.721556 0.239207
O O7 0.930437 0.435346 0.290753
O O8 0.000000 0.650148 0.000000
O O9 0.065358 0.129720 0.261354
O O10 0.107529 0.630870 0.210120
O O11 0.225198 0.964882 0.001113
O O12 0.658333 0.342171 0.163124
O O13 0.708497 0.098473 0.318327
O O14 0.000000 0.459274 0.500000
O O15 0.488288 0.539542 0.271654
O O16 0.500000 0.349497 0.000000
O O17 0.609906 0.680561 0.388498
O O18 0.500000 0.291302 0.500000
#
# Coordination Sequence:
#
# PCOD8045509 Si02
#       8
#     2   2   2   2   2   2   2   2
#     4  12  27  48  74 109 151 195 249 308 370 440
#     4  11  24  46  69 109 144 193 246 301 369 438
#     4  12  27  48  74 109 151 195 249 308 370 440
#     4  11  26  42  75 105 148 194 242 307 367 438
#     4  12  27  47  76 107 150 198 246 306 371 443
#     4  12  27  47  76 107 150 198 246 306 371 443
#     4  11  26  42  75 105 148 194 242 307 367 438
#     4  11  24  46  69 109 144 193 246 301 369 438
#
# _framework density 23.942084999999999
#
# number of rings (size 3 to 8) (size 9 to 14) (size 15 to 20)
#    0.000    0.500    2.500    4.500   10.500    1.000 
#    0.000    0.000    0.000    0.000    0.000    0.000 
#    0.000    0.000    0.000    0.000    0.000    0.000 
#
# Total GULP energy -198255.312933 kJ/mol
# GULP energy per Si atom -12390.957058 kJ/mol
# Density = 2.388759 g / cm^3
# Si number density = 23.942085 Si / 1000 Ang^3
#
#
#
# Elastic Constant Matrix: (Units=GPa)
#
#
# Indices 1 2 3 4 5 6 
#
# 1 110.4671 22.4165 8.8673 0.0000 11.4027 0.0000
# 2 22.4165 76.1709 1.1736 0.0000 -1.3886 0.0000
# 3 8.8673 1.1736 83.7068 0.0000 2.0540 0.0000
# 4 0.0000 0.0000 0.0000 37.3803 0.0000 5.6748
# 5 11.4027 -1.3886 2.0540 0.0000 40.4443 0.0000
# 6 0.0000 0.0000 0.0000 5.6748 0.0000 10.6398
#
#
#
# Elastic Compliance Matrix: (Units=1/GPa)
#
#
# Indices 1 2 3 4 5 6 
#
# 1 0.010033 -0.002991 -0.000950 0.000000 -0.002883 0.000000
# 2 -0.002991 0.014031 0.000088 0.000000 0.001320 0.000000
# 3 -0.000950 0.000088 0.012054 0.000000 -0.000341 0.000000
# 4 0.000000 0.000000 0.000000 0.029109 0.000000 -0.015525
# 5 -0.002883 0.001320 -0.000341 0.000000 0.025601 0.000000
# 6 0.000000 0.000000 0.000000 -0.015525 0.000000 0.102267
#
#
# Mechanical properties :
#
#
# Convention : Reuss Voigt Hill
#
# Bulk Modulus (GPa) = 35.19584 37.25109 36.22346
# Shear Modulus (GPa) = 23.77863 33.55204 28.66533
#
# Velocity S-wave (km/s) = 3.15488 3.74757 3.46392
# Velocity P-wave (km/s) = 5.29182 5.85818 5.58219
#
# Compressibility (1/GPa) = 0.02841245
#
# Stress axis : x y z
#
# Youngs Moduli (GPa) = 99.66889 71.26968 82.95822
#
# Poissons Ratio (x) = 0.21314 0.07882
# Poissons Ratio (y) = 0.29807 -0.00727
# Poissons Ratio (z) = 0.09470 -0.00625
#
# Static dielectric constant tensor:
#      x y z
#    x 4.453490 0.000000 0.025990 
#    y 0.000000 4.099080 0.000000 
#    z 0.025990 0.000000 4.428850 
# 
# 
# High freq. dielectric constant tensor:
#      x y z
#    x 1.965240 0.000000 0.004610 
#    y 0.000000 1.937110 0.000000 
#    z 0.004610 0.000000 1.966910 
# 
# From -- ./inp_files/8276.got.cif
#   From: 2010.03.12/outbox.cif.g09.slc.cpg/sg3_5_cif.got.tgz:8276.got - 2010.03.31 09:20:49.
