data_PCOD8045866
_publ_section_title
;
Structure prediction by ZEFSAII (Michael W. Deem and Ramdas Pophale) SiO2 
 PCOD8045866
Probable space group: P 21
;
_chemical_formula_sum "Si O2"
_cell_formula_units_Z 16
_cell_length_a 12.807817
_cell_length_b 5.092455
_cell_length_c 12.738538
_cell_angle_alpha 90.000000
_cell_angle_beta 93.879312
_cell_angle_gamma 90.000000
_cell_volume 828.944952
_symmetry_space_group_name_H-M "P 21"
_symmetry_group_IT_number 4
_symmetry_cell_setting 'monoclinic'
loop_
_space_group_symop_operation_xyz
x,y,z
-x,1/2+y,-z
loop_
_atom_site_type_symbol
_atom_site_label
_atom_site_fract_x
_atom_site_fract_y
_atom_site_fract_z
Si Si1 0.677447 0.415510 0.792218
Si Si2 0.874843 0.489193 0.944023
Si Si3 0.323932 0.958912 0.648411
Si Si4 0.491125 0.527423 0.926792
Si Si5 0.345980 0.087384 0.426054
Si Si6 0.561143 0.091064 0.637327
Si Si7 0.715069 0.953882 0.225532
Si Si8 0.894014 0.994837 0.078403
O O1 0.779737 0.388381 0.867664
O O2 0.584091 0.563589 0.848254
O O3 0.715267 0.571940 0.689264
O O4 0.630521 0.133618 0.749207
O O5 0.982961 0.458758 0.886297
O O6 0.877365 0.291223 0.040653
O O7 0.858216 0.782834 0.987636
O O8 0.276300 0.167396 0.724443
O O9 0.281177 0.013622 0.526739
O O10 0.448023 0.996358 0.662487
O O11 0.293330 0.669013 0.683154
O O12 0.380767 0.478491 0.862101
O O13 0.480643 0.789475 0.994173
O O14 0.441420 0.871912 0.424275
O O15 0.388259 0.381606 0.438688
O O16 0.826467 0.973710 0.177660
#
# Coordination Sequence:
#
# PCOD8045866 Si02
#       8
#     2   2   2   2   2   2   2   2
#     4  10  23  36  58  84 114 148 191 238 285 337
#     4  10  21  39  64  82 116 142 202 240 287 330
#     4  12  21  37  56  82 116 155 190 235 278 351
#     4  12  24  35  52  81 118 151 182 227 290 347
#     4  10  22  34  57  80 116 147 197 236 278 335
#     4  10  20  34  53  80 114 148 191 227 282 327
#     4  12  23  37  57  81 120 151 193 225 293 349
#     4  10  22  40  59  88 108 156 190 242 283 346
#
# _framework density 19.301642999999999
#
# number of rings (size 3 to 8) (size 9 to 14) (size 15 to 20)
#    0.750    0.500    1.250    6.000    3.500    0.000 
#    0.000    0.000    0.000    1.500    0.000    0.000 
#    0.000    0.000    0.000    0.000    0.000    0.000 
#
# Total GULP energy -198252.483960 kJ/mol
# GULP energy per Si atom -12390.780247 kJ/mol
# Density = 1.925771 g / cm^3
# Si number density = 19.301643 Si / 1000 Ang^3
#
#
#
# Elastic Constant Matrix: (Units=GPa)
#
#
# Indices 1 2 3 4 5 6 
#
# 1 63.8168 -7.7248 21.6408 0.0000 -12.6812 0.0000
# 2 -7.7248 71.5996 -1.4343 0.0000 -1.5234 0.0000
# 3 21.6408 -1.4343 78.8072 0.0000 -12.0568 0.0000
# 4 0.0000 0.0000 0.0000 30.0626 0.0000 -8.6937
# 5 -12.6812 -1.5234 -12.0568 0.0000 20.3517 0.0000
# 6 0.0000 0.0000 0.0000 -8.6937 0.0000 18.1525
#
#
#
# Elastic Compliance Matrix: (Units=1/GPa)
#
#
# Indices 1 2 3 4 5 6 
#
# 1 0.019163 0.002204 -0.003706 0.000000 0.009910 0.000000
# 2 0.002204 0.014257 0.000030 0.000000 0.002459 0.000000
# 3 -0.003706 0.000030 0.014686 0.000000 0.006393 0.000000
# 4 0.000000 0.000000 0.000000 0.038612 0.000000 0.018492
# 5 0.009910 0.002459 0.006393 0.000000 0.059282 0.000000
# 6 0.000000 0.000000 0.000000 0.018492 0.000000 0.063945
#
#
# Mechanical properties :
#
#
# Convention : Reuss Voigt Hill
#
# Bulk Modulus (GPa) = 22.14235 26.57633 24.35934
# Shear Modulus (GPa) = 21.93547 27.16282 24.54914
#
# Velocity S-wave (km/s) = 3.37479 3.75544 3.57020
# Velocity P-wave (km/s) = 5.16549 5.70993 5.44452
#
# Compressibility (1/GPa) = 0.04516232
#
# Stress axis : x y z
#
# Youngs Moduli (GPa) = 52.18519 70.13963 68.09436
#
# Poissons Ratio (x) = -0.15459 0.25235
# Poissons Ratio (y) = -0.11502 -0.00207
# Poissons Ratio (z) = 0.19339 -0.00213
#
# Static dielectric constant tensor:
#      x y z
#    x 3.304710 0.000000 -0.058140 
#    y 0.000000 3.725950 0.000000 
#    z -0.058140 0.000000 3.675280 
# 
# 
# High freq. dielectric constant tensor:
#      x y z
#    x 1.710000 0.000000 -0.006910 
#    y 0.000000 1.769760 0.000000 
#    z -0.006910 0.000000 1.756190 
# 
# From -- ./inp_files/11755.got.cif
#   From: 2010.03.12/outbox.cif.g09.slc.cpg/sg4_6_cif.got.tgz:11755.got - 2010.03.31 09:31:35.
