data_PCOD8045779
_publ_section_title
;
Structure prediction by ZEFSAII (Michael W. Deem and Ramdas Pophale) SiO2 
 PCOD8045779
Probable space group: P 21
;
_chemical_formula_sum "Si O2"
_cell_formula_units_Z 16
_cell_length_a 5.551507
_cell_length_b 12.405697
_cell_length_c 9.828263
_cell_angle_alpha 90.000000
_cell_angle_beta 65.323899
_cell_angle_gamma 90.000000
_cell_volume 615.064903
_symmetry_space_group_name_H-M "P 21"
_symmetry_group_IT_number 4
_symmetry_cell_setting 'monoclinic'
loop_
_space_group_symop_operation_xyz
x,y,z
-x,1/2+y,-z
loop_
_atom_site_type_symbol
_atom_site_label
_atom_site_fract_x
_atom_site_fract_y
_atom_site_fract_z
Si Si1 0.649343 0.271170 0.398714
Si Si2 0.757575 0.183914 0.641020
Si Si3 0.929533 0.736104 0.904026
Si Si4 0.923967 0.486280 0.974667
Si Si5 0.722785 0.587412 0.567559
Si Si6 0.616487 0.489763 0.312507
Si Si7 0.337492 0.728416 0.035824
Si Si8 0.495340 0.496887 0.879079
O O1 0.617618 0.269544 0.571355
O O2 0.536435 0.161110 0.364460
O O3 0.488312 0.372585 0.373616
O O4 0.949892 0.273896 0.268738
O O5 0.795845 0.231312 0.782277
O O6 0.022525 0.163375 0.492803
O O7 0.598327 0.072605 0.691777
O O8 0.914515 0.607413 0.917868
O O9 0.629418 0.784065 0.978766
O O10 0.122127 0.783722 0.981483
O O11 0.855288 0.484207 0.149678
O O12 0.685984 0.428406 0.940253
O O13 0.223371 0.436444 0.893736
O O14 0.748821 0.520182 0.423935
O O15 0.697495 0.512765 0.705478
O O16 0.384041 0.606451 0.973408
#
# Coordination Sequence:
#
# PCOD8045779 Si02
#       8
#     2   2   2   2   2   2   2   2
#     4  11  25  42  65  98 136 180 232 283 344 414
#     4  11  23  41  69  96 136 186 223 284 346 412
#     4  10  19  39  65  95 123 169 218 279 334 401
#     4  10  19  39  65  95 123 169 218 279 334 401
#     4  11  23  41  69  96 136 186 223 284 346 412
#     4  11  25  42  65  98 136 180 232 283 344 414
#     4  10  19  36  68  93 124 169 226 267 341 401
#     4  10  19  36  68  93 124 169 226 267 341 401
#
# _framework density 26.013511999999999
#
# number of rings (size 3 to 8) (size 9 to 14) (size 15 to 20)
#    0.000    1.500    5.000    3.000    3.500    1.000 
#    0.000    2.500    0.000    0.000    0.000    0.000 
#    0.000    0.000    0.000    0.000    0.000    0.000 
#
# Total GULP energy -198314.643478 kJ/mol
# GULP energy per Si atom -12394.665217 kJ/mol
# Density = 2.595430 g / cm^3
# Si number density = 26.013512 Si / 1000 Ang^3
#
#
#
# Elastic Constant Matrix: (Units=GPa)
#
#
# Indices 1 2 3 4 5 6 
#
# 1 112.2722 6.8093 0.8926 0.0000 -10.0078 0.0000
# 2 6.8093 36.6668 22.5524 0.0000 5.9572 0.0000
# 3 0.8926 22.5524 117.5924 0.0000 -2.7477 0.0000
# 4 0.0000 0.0000 0.0000 21.4053 0.0000 8.5193
# 5 -10.0078 5.9572 -2.7477 0.0000 43.9749 0.0000
# 6 0.0000 0.0000 0.0000 8.5193 0.0000 23.7701
#
#
#
# Elastic Compliance Matrix: (Units=1/GPa)
#
#
# Indices 1 2 3 4 5 6 
#
# 1 0.009268 -0.002396 0.000447 0.000000 0.002462 0.000000
# 2 -0.002396 0.032483 -0.006336 0.000000 -0.005342 0.000000
# 3 0.000447 -0.006336 0.009752 0.000000 0.001569 0.000000
# 4 0.000000 0.000000 0.000000 0.054490 0.000000 -0.019529
# 5 0.002462 -0.005342 0.001569 0.000000 0.024122 0.000000
# 6 0.000000 0.000000 0.000000 -0.019529 0.000000 0.049069
#
#
# Mechanical properties :
#
#
# Convention : Reuss Voigt Hill
#
# Bulk Modulus (GPa) = 28.62686 36.33778 32.48232
# Shear Modulus (GPa) = 24.10807 33.58187 28.84497
#
# Velocity S-wave (km/s) = 3.04756 3.59686 3.33355
# Velocity P-wave (km/s) = 4.83860 5.59008 5.22786
#
# Compressibility (1/GPa) = 0.03493222
#
# Stress axis : x y z
#
# Youngs Moduli (GPa) = 107.89685 30.78569 102.53848
#
# Poissons Ratio (x) = 0.07376 -0.04580
# Poissons Ratio (y) = 0.25850 0.64971
# Poissons Ratio (z) = -0.04819 0.19507
#
# Static dielectric constant tensor:
#      x y z
#    x 5.376960 0.000000 0.108670 
#    y 0.000000 4.678080 0.000000 
#    z 0.108670 0.000000 4.615880 
# 
# 
# High freq. dielectric constant tensor:
#      x y z
#    x 2.044440 0.000000 0.008540 
#    y 0.000000 2.044350 0.000000 
#    z 0.008540 0.000000 2.048090 
# 
# From -- ./inp_files/1729.got.cif
#   From: 2010.03.12/outbox.cif.g09.slc.cpg/sg4_1_cif.got.tgz:1729.got - 2010.03.31 09:31:35.
