data_PCOD8045620
_publ_section_title
;
Structure prediction by ZEFSAII (Michael W. Deem and Ramdas Pophale) SiO2 
 PCOD8045620
Probable space group: P 21
;
_chemical_formula_sum "Si O2"
_cell_formula_units_Z 16
_cell_length_a 17.929245
_cell_length_b 11.584422
_cell_length_c 7.899429
_cell_angle_alpha 90.000000
_cell_angle_beta 30.200269
_cell_angle_gamma 90.000000
_cell_volume 825.316983
_symmetry_space_group_name_H-M "P 21"
_symmetry_group_IT_number 4
_symmetry_cell_setting 'monoclinic'
loop_
_space_group_symop_operation_xyz
x,y,z
-x,1/2+y,-z
loop_
_atom_site_type_symbol
_atom_site_label
_atom_site_fract_x
_atom_site_fract_y
_atom_site_fract_z
Si Si1 0.737677 0.205000 0.177532
Si Si2 0.536762 0.837677 0.866937
Si Si3 0.013489 0.569900 0.176809
Si Si4 0.296949 0.566469 0.442056
Si Si5 0.258760 0.908026 0.618242
Si Si6 0.326946 0.708554 0.062032
Si Si7 0.790798 0.663797 0.375745
Si Si8 0.951879 0.320740 0.262288
O O1 0.900044 0.142706 0.849075
O O2 0.648441 0.156032 0.518153
O O3 0.757147 0.343618 0.168157
O O4 0.647121 0.173992 0.184443
O O5 0.635302 0.725755 0.722308
O O6 0.647021 0.941805 0.613733
O O7 0.423987 0.878564 0.231863
O O8 0.443407 0.809064 0.880337
O O9 0.116782 0.564697 0.802573
O O10 0.860121 0.630034 0.422260
O O11 0.989130 0.439344 0.287662
O O12 0.350879 0.604342 0.149646
O O13 0.133978 0.848894 0.744190
O O14 0.237812 0.045795 0.675001
O O15 0.157455 0.750819 0.401455
O O16 0.898723 0.748269 0.060219
#
# Coordination Sequence:
#
# PCOD8045620 Si02
#       8
#     2   2   2   2   2   2   2   2
#     4  10  20  42  60  85 127 158 201 256 309 355
#     4  11  21  38  62  90 122 163 205 250 307 370
#     4   9  18  35  61  88 116 155 194 259 299 349
#     4  10  19  39  62  84 119 160 198 249 305 356
#     4  10  21  35  58  91 121 158 201 247 306 361
#     4  11  22  40  63  89 124 164 199 252 316 368
#     4  11  18  34  68  86 116 165 206 243 310 363
#     4  10  17  37  60  87 117 153 204 246 300 366
#
# _framework density 19.386492000000001
#
# number of rings (size 3 to 8) (size 9 to 14) (size 15 to 20)
#    0.750    1.000    6.250    0.750    0.000    0.000 
#    6.750    0.000    2.750    0.000    0.000    0.000 
#    0.000    0.000    0.000    0.000    0.000    0.000 
#
# Total GULP energy -198226.030339 kJ/mol
# GULP energy per Si atom -12389.126896 kJ/mol
# Density = 1.934237 g / cm^3
# Si number density = 19.386492 Si / 1000 Ang^3
#
#
#
# Elastic Constant Matrix: (Units=GPa)
#
#
# Indices 1 2 3 4 5 6 
#
# 1 98.4419 37.6391 23.0981 0.0000 1.1005 0.0000
# 2 37.6391 123.8826 34.0646 0.0000 -9.3547 0.0000
# 3 23.0981 34.0646 68.6308 0.0000 -18.8670 0.0000
# 4 0.0000 0.0000 0.0000 35.3214 0.0000 -10.1200
# 5 1.1005 -9.3547 -18.8670 0.0000 19.8230 0.0000
# 6 0.0000 0.0000 0.0000 -10.1200 0.0000 17.7977
#
#
#
# Elastic Compliance Matrix: (Units=1/GPa)
#
#
# Indices 1 2 3 4 5 6 
#
# 1 0.012426 -0.003040 -0.004412 0.000000 -0.006323 0.000000
# 2 -0.003040 0.010092 -0.003562 0.000000 0.001541 0.000000
# 3 -0.004412 -0.003562 0.023605 0.000000 0.021031 0.000000
# 4 0.000000 0.000000 0.000000 0.033821 0.000000 0.019231
# 5 -0.006323 0.001541 0.021031 0.000000 0.071541 0.000000
# 6 0.000000 0.000000 0.000000 0.019231 0.000000 0.067122
#
#
# Mechanical properties :
#
#
# Convention : Reuss Voigt Hill
#
# Bulk Modulus (GPa) = 41.50186 53.39546 47.44866
# Shear Modulus (GPa) = 20.10720 27.66531 23.88625
#
# Velocity S-wave (km/s) = 3.22402 3.78172 3.51395
# Velocity P-wave (km/s) = 5.94248 6.83161 6.40250
#
# Compressibility (1/GPa) = 0.02409530
#
# Stress axis : x y z
#
# Youngs Moduli (GPa) = 80.47377 99.09177 42.36380
#
# Poissons Ratio (x) = 0.30123 0.18690
# Poissons Ratio (y) = 0.24463 0.15091
# Poissons Ratio (z) = 0.35502 0.35300
#
# Static dielectric constant tensor:
#      x y z
#    x 3.136450 0.000000 -0.283260 
#    y 0.000000 3.784210 0.000000 
#    z -0.283260 0.000000 3.406990 
# 
# 
# High freq. dielectric constant tensor:
#      x y z
#    x 1.709820 0.000000 -0.029160 
#    y 0.000000 1.770840 0.000000 
#    z -0.029160 0.000000 1.740690 
# 
# From -- ./inp_files/9721.got.cif
#   From: 2010.03.12/outbox.cif.g09.slc.cpg/sg4_5_cif.got.tgz:9721.got - 2010.03.31 09:31:35.
