data_PCOD8045156
_publ_section_title
;
Structure prediction by ZEFSAII (Michael W. Deem and Ramdas Pophale) SiO2 
 PCOD8045156
Probable space group: P 2
;
_chemical_formula_sum "Si O2"
_cell_formula_units_Z 15
_cell_length_a 20.215366
_cell_length_b 6.660305
_cell_length_c 7.007843
_cell_angle_alpha 90.000000
_cell_angle_beta 128.023610
_cell_angle_gamma 90.000000
_cell_volume 743.279843
_symmetry_space_group_name_H-M "P 2"
_symmetry_group_IT_number 3
_symmetry_cell_setting 'monoclinic'
loop_
_space_group_symop_operation_xyz
x,y,z
-x,y,-z
loop_
_atom_site_type_symbol
_atom_site_label
_atom_site_fract_x
_atom_site_fract_y
_atom_site_fract_z
Si Si1 0.807812 0.678170 0.064302
Si Si2 0.134225 0.000408 0.101690
Si Si3 0.910878 0.288621 0.275856
Si Si4 0.500000 0.060096 0.500000
Si Si5 0.550650 0.365000 0.278671
Si Si6 0.695278 0.074979 0.454602
Si Si7 0.169026 0.981307 0.576352
Si Si8 0.626748 0.753892 0.583452
O O1 0.866021 0.793163 0.014926
O O2 0.840874 0.454397 0.124241
O O3 0.820750 0.770706 0.297663
O O4 0.710157 0.675795 0.835376
O O5 0.888807 0.954481 0.717827
O O6 0.074380 0.164703 0.895099
O O7 0.229129 0.092519 0.256113
O O8 0.000000 0.380023 0.500000
O O9 0.876018 0.139921 0.372168
O O10 0.581182 0.914340 0.642778
O O11 0.498443 0.202560 0.310221
O O12 0.567127 0.564902 0.431118
O O13 0.639082 0.272554 0.367865
O O14 0.500000 0.423420 0.000000
O O15 0.737405 0.056081 0.319345
O O16 0.645178 0.869871 0.416886
#
# Coordination Sequence:
#
# PCOD8045156 Si02
#       8
#     2   2   2   1   2   2   2   2
#     4  10  21  38  64  90 119 159 205 253 300 364
#     4   8  19  41  61  82 118 158 199 248 298 359
#     4  11  23  38  60  94 127 154 198 256 310 364
#     4  10  24  42  54  86 124 162 208 254 306 350
#     4  11  23  39  61  88 121 164 202 255 309 362
#     4   8  19  40  63  83 116 154 212 249 294 360
#     4   9  21  41  63  89 112 165 203 244 304 361
#     4  10  21  41  62  88 124 162 206 257 304 357
#
# _framework density 20.180824999999999
#
# number of rings (size 3 to 8) (size 9 to 14) (size 15 to 20)
#    0.800    1.600    0.000    1.200    1.867    8.000 
#    4.800    0.000    0.000    0.000    0.000    0.000 
#    0.000    0.000    0.000    0.000    0.000    0.000 
#
# Total GULP energy -185892.274765 kJ/mol
# GULP energy per Si atom -12392.818318 kJ/mol
# Density = 2.013489 g / cm^3
# Si number density = 20.180825 Si / 1000 Ang^3
#
#
#
# Elastic Constant Matrix: (Units=GPa)
#
#
# Indices 1 2 3 4 5 6 
#
# 1 74.2795 32.2759 25.8253 0.0000 -17.7941 0.0000
# 2 32.2759 100.5798 52.0173 0.0000 -7.3019 0.0000
# 3 25.8253 52.0173 101.6656 0.0000 -15.4918 0.0000
# 4 0.0000 0.0000 0.0000 24.7637 0.0000 2.2919
# 5 -17.7941 -7.3019 -15.4918 0.0000 36.0388 0.0000
# 6 0.0000 0.0000 0.0000 2.2919 0.0000 17.2029
#
#
#
# Elastic Compliance Matrix: (Units=1/GPa)
#
#
# Indices 1 2 3 4 5 6 
#
# 1 0.017553 -0.004586 -0.000999 0.000000 0.007308 0.000000
# 2 -0.004586 0.014720 -0.006696 0.000000 -0.002160 0.000000
# 3 -0.000999 -0.006696 0.014162 0.000000 0.004238 0.000000
# 4 0.000000 0.000000 0.000000 0.040886 0.000000 -0.005447
# 5 0.007308 -0.002160 0.004238 0.000000 0.032740 0.000000
# 6 0.000000 0.000000 0.000000 -0.005447 0.000000 0.058855
#
#
# Mechanical properties :
#
#
# Convention : Reuss Voigt Hill
#
# Bulk Modulus (GPa) = 45.71634 55.19576 50.45605
# Shear Modulus (GPa) = 23.72271 26.69484 25.20877
#
# Velocity S-wave (km/s) = 3.43229 3.64095 3.53816
# Velocity P-wave (km/s) = 6.19758 6.71456 6.46124
#
# Compressibility (1/GPa) = 0.02187402
#
# Stress axis : x y z
#
# Youngs Moduli (GPa) = 56.96943 67.93521 70.61363
#
# Poissons Ratio (x) = 0.31152 0.07055
# Poissons Ratio (y) = 0.26124 0.47281
# Poissons Ratio (z) = 0.05692 0.45488
#
# Static dielectric constant tensor:
#      x y z
#    x 3.589360 0.000000 -0.061630 
#    y 0.000000 3.502170 0.000000 
#    z -0.061630 0.000000 3.616300 
# 
# 
# High freq. dielectric constant tensor:
#      x y z
#    x 1.783430 0.000000 -0.002860 
#    y 0.000000 1.783100 0.000000 
#    z -0.002860 0.000000 1.778330 
# 
# From -- ./inp_files/9395.got.cif
#   From: 2010.03.12/outbox.cif.g09.slc.cpg/sg3_5_cif.got.tgz:9395.got - 2010.03.31 09:20:49.
