data_PCOD8045239
_publ_section_title
;
Structure prediction by ZEFSAII (Michael W. Deem and Ramdas Pophale) SiO2 
 PCOD8045239
Probable space group: P 2
;
_chemical_formula_sum "Si O2"
_cell_formula_units_Z 16
_cell_length_a 10.707392
_cell_length_b 13.039068
_cell_length_c 8.296726
_cell_angle_alpha 90.000000
_cell_angle_beta 138.317704
_cell_angle_gamma 90.000000
_cell_volume 770.297335
_symmetry_space_group_name_H-M "P 2"
_symmetry_group_IT_number 3
_symmetry_cell_setting 'monoclinic'
loop_
_space_group_symop_operation_xyz
x,y,z
-x,y,-z
loop_
_atom_site_type_symbol
_atom_site_label
_atom_site_fract_x
_atom_site_fract_y
_atom_site_fract_z
Si Si1 0.146482 0.402280 0.322567
Si Si2 0.876455 0.899995 0.656965
Si Si3 0.766158 0.809273 0.872204
Si Si4 0.305277 0.611738 0.386706
Si Si5 0.579646 0.766639 0.249656
Si Si6 0.929961 0.132301 0.614665
Si Si7 0.418867 0.272213 0.745366
Si Si8 0.812412 0.287245 0.963780
O O1 0.165179 0.516714 0.274284
O O2 0.295848 0.377152 0.607706
O O3 0.929166 0.380736 0.166800
O O4 0.183592 0.313905 0.222224
O O5 0.773535 0.890993 0.732203
O O6 0.744748 0.850618 0.391892
O O7 0.923057 0.014662 0.656438
O O8 0.065834 0.832099 0.842911
O O9 0.789343 0.694322 0.823579
O O10 0.571845 0.818815 0.778244
O O11 0.500000 0.569969 0.500000
O O12 0.342869 0.662394 0.597025
O O13 0.500000 0.737716 0.000000
O O14 0.718834 0.177016 0.425679
O O15 0.000000 0.147520 0.500000
O O16 0.079096 0.182943 0.881590
O O17 0.500000 0.263583 0.000000
O O18 0.595128 0.277517 0.796698
#
# Coordination Sequence:
#
# PCOD8045239 Si02
#       8
#     2   2   2   2   2   2   2   2
#     4  10  22  37  65  93 119 164 213 256 306 377
#     4  10  22  38  63  86 118 168 213 255 311 368
#     4   9  21  41  61  90 126 161 207 268 303 362
#     4   9  18  39  63  89 126 165 211 255 310 367
#     4  10  22  38  62  92 132 166 202 257 312 368
#     4  11  24  40  61  90 123 163 215 267 323 383
#     4  11  22  40  63  86 128 165 199 261 324 368
#     4  10  22  41  60  90 123 157 209 263 313 369
#
# _framework density 20.771198999999999
#
# number of rings (size 3 to 8) (size 9 to 14) (size 15 to 20)
#    0.000    2.000    1.250    2.250    1.750   10.000 
#    0.000    3.750    0.000    4.500    0.000    0.000 
#    0.000    0.000    0.000    0.000    0.000    0.000 
#
# Total GULP energy -198278.789301 kJ/mol
# GULP energy per Si atom -12392.424331 kJ/mol
# Density = 2.072392 g / cm^3
# Si number density = 20.771199 Si / 1000 Ang^3
#
#
#
# Elastic Constant Matrix: (Units=GPa)
#
#
# Indices 1 2 3 4 5 6 
#
# 1 65.8730 34.0938 20.8173 0.0000 17.2911 0.0000
# 2 34.0938 136.4254 51.4140 0.0000 10.4787 0.0000
# 3 20.8173 51.4140 116.8000 0.0000 15.5949 0.0000
# 4 0.0000 0.0000 0.0000 22.6454 0.0000 3.0221
# 5 17.2911 10.4787 15.5949 0.0000 38.8854 0.0000
# 6 0.0000 0.0000 0.0000 3.0221 0.0000 21.3866
#
#
#
# Elastic Compliance Matrix: (Units=1/GPa)
#
#
# Indices 1 2 3 4 5 6 
#
# 1 0.019391 -0.004018 -0.000719 0.000000 -0.007251 0.000000
# 2 -0.004018 0.009648 -0.003616 0.000000 0.000637 0.000000
# 3 -0.000719 -0.003616 0.010681 0.000000 -0.002989 0.000000
# 4 0.000000 0.000000 0.000000 0.045008 0.000000 -0.006360
# 5 -0.007251 0.000637 -0.002989 0.000000 0.029968 0.000000
# 6 0.000000 0.000000 0.000000 -0.006360 0.000000 0.047657
#
#
# Mechanical properties :
#
#
# Convention : Reuss Voigt Hill
#
# Bulk Modulus (GPa) = 43.45270 59.08319 51.26794
# Shear Modulus (GPa) = 26.77670 30.76837 28.77253
#
# Velocity S-wave (km/s) = 3.59434 3.85294 3.72588
# Velocity P-wave (km/s) = 6.17987 6.94982 6.57612
#
# Compressibility (1/GPa) = 0.02301353
#
# Stress axis : x y z
#
# Youngs Moduli (GPa) = 51.57023 103.64965 93.62782
#
# Poissons Ratio (x) = 0.41646 0.06734
# Poissons Ratio (y) = 0.20721 0.33854
# Poissons Ratio (z) = 0.03709 0.37478
#
# Static dielectric constant tensor:
#      x y z
#    x 3.928110 0.000000 0.255930 
#    y 0.000000 3.536840 0.000000 
#    z 0.255930 0.000000 4.157150 
# 
# 
# High freq. dielectric constant tensor:
#      x y z
#    x 1.801660 0.000000 0.015520 
#    y 0.000000 1.794970 0.000000 
#    z 0.015520 0.000000 1.833230 
# 
# From -- ./inp_files/7777.got.cif
#   From: 2010.03.12/outbox.cif.g09.slc.cpg/sg3_4_cif.got.tgz:7777.got - 2010.03.31 09:20:49.
