data_PCOD8045771
_publ_section_title
;
Structure prediction by ZEFSAII (Michael W. Deem and Ramdas Pophale) SiO2 
 PCOD8045771
Probable space group: P 21
;
_chemical_formula_sum "Si O2"
_cell_formula_units_Z 14
_cell_length_a 17.250958
_cell_length_b 5.059680
_cell_length_c 9.759998
_cell_angle_alpha 90.000000
_cell_angle_beta 131.435548
_cell_angle_gamma 90.000000
_cell_volume 638.666110
_symmetry_space_group_name_H-M "P 21"
_symmetry_group_IT_number 4
_symmetry_cell_setting 'monoclinic'
loop_
_space_group_symop_operation_xyz
x,y,z
-x,1/2+y,-z
loop_
_atom_site_type_symbol
_atom_site_label
_atom_site_fract_x
_atom_site_fract_y
_atom_site_fract_z
Si Si1 0.471495 0.755670 0.381655
Si Si2 0.137280 0.258156 0.913207
Si Si3 0.737230 0.253699 0.009874
Si Si4 0.910431 0.348104 0.665708
Si Si5 0.299559 0.845454 0.727411
Si Si6 0.637764 0.842287 0.357133
Si Si7 0.151953 0.345359 0.250465
O O1 0.502530 0.466966 0.471047
O O2 0.349306 0.763254 0.209542
O O3 0.529748 0.814748 0.308239
O O4 0.211527 0.465340 0.924708
O O5 0.135387 0.305476 0.072118
O O6 0.175027 0.965977 0.922044
O O7 0.020113 0.291518 0.721442
O O8 0.683602 0.306761 0.092362
O O9 0.823088 0.335050 0.446593
O O10 0.914216 0.634002 0.741142
O O11 0.887340 0.135609 0.757095
O O12 0.360199 0.625054 0.712801
O O13 0.349686 0.123707 0.745694
O O14 0.727185 0.810717 0.574995
#
# Coordination Sequence:
#
# PCOD8045771 Si02
#       7
#     2   2   2   2   2   2   2
#     4  12  25  43  66  94 120 152 195 247 310 360
#     4  12  23  38  60  89 125 162 194 248 302 340
#     4  12  26  40  60  89 124 157 202 247 287 361
#     4  10  21  37  61  87 121 160 200 244 292 356
#     4  10  23  41  60  90 119 160 207 238 288 352
#     4  10  21  39  64  84 119 159 196 252 294 343
#     4  10  19  36  59  89 116 152 206 248 295 354
#
# _framework density 21.920687000000001
#
# number of rings (size 3 to 8) (size 9 to 14) (size 15 to 20)
#    0.000    1.143    0.000    6.857    0.000    4.571 
#    0.000    0.000    0.000    0.000    0.000    0.000 
#    0.000    0.000    0.000    0.000    0.000    0.000 
#
# Total GULP energy -173723.624352 kJ/mol
# GULP energy per Si atom -12408.830311 kJ/mol
# Density = 2.187079 g / cm^3
# Si number density = 21.920687 Si / 1000 Ang^3
#
#
#
# Elastic Constant Matrix: (Units=GPa)
#
#
# Indices 1 2 3 4 5 6 
#
# 1 75.8431 -1.0986 19.1328 0.0000 12.8364 0.0000
# 2 -1.0986 75.9519 14.0869 0.0000 9.8624 0.0000
# 3 19.1328 14.0869 52.2420 0.0000 -6.5455 0.0000
# 4 0.0000 0.0000 0.0000 18.5642 0.0000 0.7428
# 5 12.8364 9.8624 -6.5455 0.0000 32.4513 0.0000
# 6 0.0000 0.0000 0.0000 0.7428 0.0000 29.9350
#
#
#
# Elastic Compliance Matrix: (Units=1/GPa)
#
#
# Indices 1 2 3 4 5 6 
#
# 1 0.016827 0.002939 -0.008106 0.000000 -0.009184 0.000000
# 2 0.002939 0.015246 -0.006067 0.000000 -0.007020 0.000000
# 3 -0.008106 -0.006067 0.025011 0.000000 0.010095 0.000000
# 4 0.000000 0.000000 0.000000 0.053921 0.000000 -0.001338
# 5 -0.009184 -0.007020 0.010095 0.000000 0.038618 0.000000
# 6 0.000000 0.000000 0.000000 -0.001338 0.000000 0.033439
#
#
# Mechanical properties :
#
#
# Convention : Reuss Voigt Hill
#
# Bulk Modulus (GPa) = 28.88779 29.80880 29.34829
# Shear Modulus (GPa) = 23.03437 27.65116 25.34277
#
# Velocity S-wave (km/s) = 3.24513 3.55550 3.40385
# Velocity P-wave (km/s) = 5.21997 5.52118 5.37269
#
# Compressibility (1/GPa) = 0.03461670
#
# Stress axis : x y z
#
# Youngs Moduli (GPa) = 59.42818 65.59304 39.98225
#
# Poissons Ratio (x) = -0.19281 0.32409
# Poissons Ratio (y) = -0.17469 0.24257
# Poissons Ratio (z) = 0.48172 0.39795
#
# Static dielectric constant tensor:
#      x y z
#    x 3.811280 0.000000 0.182110 
#    y 0.000000 4.152070 0.000000 
#    z 0.182110 0.000000 3.924260 
# 
# 
# High freq. dielectric constant tensor:
#      x y z
#    x 1.859750 0.000000 0.007560 
#    y 0.000000 1.878950 0.000000 
#    z 0.007560 0.000000 1.857740 
# 
# From -- ./inp_files/7281.got.cif
#   From: 2010.03.12/outbox.cif.g09.slc.cpg/sg4_4_cif.got.tgz:7281.got - 2010.03.31 09:31:35.
