data_PCOD8045754
_publ_section_title
;
Structure prediction by ZEFSAII (Michael W. Deem and Ramdas Pophale) SiO2 
 PCOD8045754
Probable space group: P 21
;
_chemical_formula_sum "Si O2"
_cell_formula_units_Z 16
_cell_length_a 8.368586
_cell_length_b 5.046841
_cell_length_c 18.703738
_cell_angle_alpha 90.000000
_cell_angle_beta 69.334885
_cell_angle_gamma 90.000000
_cell_volume 739.124758
_symmetry_space_group_name_H-M "P 21"
_symmetry_group_IT_number 4
_symmetry_cell_setting 'monoclinic'
loop_
_space_group_symop_operation_xyz
x,y,z
-x,1/2+y,-z
loop_
_atom_site_type_symbol
_atom_site_label
_atom_site_fract_x
_atom_site_fract_y
_atom_site_fract_z
Si Si1 0.391656 0.717510 0.210530
Si Si2 0.103373 0.368404 0.468413
Si Si3 0.468208 0.300217 0.959755
Si Si4 0.768080 0.723072 0.212809
Si Si5 0.314403 0.219077 0.302949
Si Si6 0.609632 0.087642 0.474622
Si Si7 0.905069 0.684789 0.040949
Si Si8 0.308306 0.721743 0.694001
O O1 0.393575 0.763709 0.125357
O O2 0.583398 0.722179 0.207402
O O3 0.309354 0.434975 0.240669
O O4 0.282658 0.939453 0.269384
O O5 0.160445 0.276008 0.381021
O O6 0.260756 0.485479 0.486907
O O7 0.967196 0.605924 0.480977
O O8 0.277293 0.257074 0.962714
O O9 0.484236 0.599777 0.984553
O O10 0.904055 0.687734 0.127602
O O11 0.783098 0.494441 0.269909
O O12 0.798963 0.999227 0.247576
O O13 0.492117 0.223234 0.317800
O O14 0.482285 0.844929 0.476840
O O15 0.708615 0.176938 0.387850
O O16 0.953356 0.390735 0.008339
#
# Coordination Sequence:
#
# PCOD8045754 Si02
#       8
#     2   2   2   2   2   2   2   2
#     4   9  19  34  61  90 115 154 212 253 292 356
#     4  12  26  42  63  91 131 168 200 250 319 382
#     4  11  22  39  65  96 125 159 206 264 306 353
#     4   9  19  34  58  92 119 153 203 252 304 350
#     4  10  19  37  61  88 115 160 208 253 295 361
#     4  12  24  40  67  97 119 159 214 259 307 360
#     4  11  22  39  65  93 126 168 205 245 307 386
#     4  10  19  35  62  91 116 149 208 272 288 340
#
# _framework density 21.647224999999999
#
# number of rings (size 3 to 8) (size 9 to 14) (size 15 to 20)
#    0.000    1.500    1.250    4.500    3.500    4.000 
#    0.000    0.000   27.500    0.000    0.000    0.000 
#    0.000    0.000    0.000    0.000    0.000    0.000 
#
# Total GULP energy -198458.244932 kJ/mol
# GULP energy per Si atom -12403.640308 kJ/mol
# Density = 2.159795 g / cm^3
# Si number density = 21.647225 Si / 1000 Ang^3
#
#
#
# Elastic Constant Matrix: (Units=GPa)
#
#
# Indices 1 2 3 4 5 6 
#
# 1 31.7330 4.2825 16.0183 0.0000 -3.7857 0.0000
# 2 4.2825 123.2478 42.9309 0.0000 -6.6239 0.0000
# 3 16.0183 42.9309 154.6842 0.0000 -3.0215 0.0000
# 4 0.0000 0.0000 0.0000 46.4784 0.0000 -2.7191
# 5 -3.7857 -6.6239 -3.0215 0.0000 21.1725 0.0000
# 6 0.0000 0.0000 0.0000 -2.7191 0.0000 29.4263
#
#
#
# Elastic Compliance Matrix: (Units=1/GPa)
#
#
# Indices 1 2 3 4 5 6 
#
# 1 0.033908 0.000344 -0.003496 0.000000 0.005672 0.000000
# 2 0.000344 0.009115 -0.002516 0.000000 0.002554 0.000000
# 3 -0.003496 -0.002516 0.007518 0.000000 -0.000339 0.000000
# 4 0.000000 0.000000 0.000000 0.021632 0.000000 0.001999
# 5 0.005672 0.002554 -0.000339 0.000000 0.048996 0.000000
# 6 0.000000 0.000000 0.000000 0.001999 0.000000 0.034168
#
#
# Mechanical properties :
#
#
# Convention : Reuss Voigt Hill
#
# Bulk Modulus (GPa) = 25.50569 48.45872 36.98221
# Shear Modulus (GPa) = 27.81774 35.84432 31.83103
#
# Velocity S-wave (km/s) = 3.58865 4.07361 3.83880
# Velocity P-wave (km/s) = 5.38323 6.67533 6.06380
#
# Compressibility (1/GPa) = 0.03920693
#
# Stress axis : x y z
#
# Youngs Moduli (GPa) = 29.49164 109.70547 133.00730
#
# Poissons Ratio (x) = -0.03779 0.46501
# Poissons Ratio (y) = -0.01016 0.33460
# Poissons Ratio (z) = 0.10311 0.27598
#
# Static dielectric constant tensor:
#      x y z
#    x 3.455450 0.000000 -0.085360 
#    y 0.000000 4.336610 0.000000 
#    z -0.085360 0.000000 4.223920 
# 
# 
# High freq. dielectric constant tensor:
#      x y z
#    x 1.807890 0.000000 -0.000680 
#    y 0.000000 1.871200 0.000000 
#    z -0.000680 0.000000 1.865700 
# 
# From -- ./inp_files/14786.got.cif
#   From: 2010.03.12/outbox.cif.g09.slc.cpg/sg4_8_cif.got.tgz:14786.got - 2010.03.31 09:31:35.
