data_PCOD8045903
_publ_section_title
;
Structure prediction by ZEFSAII (Michael W. Deem and Ramdas Pophale) SiO2 
 PCOD8045903
Probable space group: P 21
;
_chemical_formula_sum "Si O2"
_cell_formula_units_Z 16
_cell_length_a 9.581329
_cell_length_b 13.366444
_cell_length_c 9.392245
_cell_angle_alpha 90.000000
_cell_angle_beta 46.366773
_cell_angle_gamma 90.000000
_cell_volume 870.588079
_symmetry_space_group_name_H-M "P 21"
_symmetry_group_IT_number 4
_symmetry_cell_setting 'monoclinic'
loop_
_space_group_symop_operation_xyz
x,y,z
-x,1/2+y,-z
loop_
_atom_site_type_symbol
_atom_site_label
_atom_site_fract_x
_atom_site_fract_y
_atom_site_fract_z
Si Si1 0.911145 0.055780 0.334157
Si Si2 0.565797 0.343512 0.271454
Si Si3 0.863067 0.497537 0.095964
Si Si4 0.115609 0.535428 0.185569
Si Si5 0.513073 0.018106 0.499483
Si Si6 0.476174 0.623748 0.788114
Si Si7 0.805406 0.890810 0.619448
Si Si8 0.894794 0.667331 0.561189
O O1 0.694540 0.078286 0.434915
O O2 0.983113 0.144492 0.383934
O O3 0.914159 0.954203 0.422285
O O4 0.049859 0.052139 0.100950
O O5 0.784160 0.387323 0.102064
O O6 0.475057 0.397065 0.478251
O O7 0.570717 0.223683 0.272093
O O8 0.425190 0.380048 0.242203
O O9 0.679102 0.560184 0.285705
O O10 0.022777 0.490764 0.107324
O O11 0.167771 0.440421 0.245437
O O12 0.973923 0.611758 0.365535
O O13 0.307131 0.598942 0.016702
O O14 0.499780 0.033116 0.340126
O O15 0.671946 0.635444 0.739987
O O16 0.912392 0.785451 0.530967
#
# Coordination Sequence:
#
# PCOD8045903 Si02
#       8
#     2   2   2   2   2   2   2   2
#     4  10  20  36  60  81 112 154 185 237 285 331
#     4   8  20  36  57  79 115 149 185 229 282 336
#     4  10  20  37  58  84 111 149 188 233 284 328
#     4  11  22  37  61  87 113 152 191 236 282 338
#     4   9  19  37  55  84 117 142 186 237 280 333
#     4  11  20  37  59  86 114 149 193 233 282 339
#     4   9  21  40  55  83 118 148 192 234 283 340
#     4  10  22  38  57  84 118 149 188 237 284 341
#
# _framework density 18.378381999999998
#
# number of rings (size 3 to 8) (size 9 to 14) (size 15 to 20)
#    0.750    1.500    2.500    0.000    3.500    1.000 
#    0.000    1.250    0.000    0.000    0.000    0.000 
#    0.000    0.000    0.000    0.000    0.000    0.000 
#
# Total GULP energy -198260.432227 kJ/mol
# GULP energy per Si atom -12391.277014 kJ/mol
# Density = 1.833655 g / cm^3
# Si number density = 18.378382 Si / 1000 Ang^3
#
#
#
# Elastic Constant Matrix: (Units=GPa)
#
#
# Indices 1 2 3 4 5 6 
#
# 1 71.7451 27.7004 29.3636 0.0000 -2.1518 0.0000
# 2 27.7004 76.5672 15.5285 0.0000 2.5145 0.0000
# 3 29.3636 15.5285 93.0952 0.0000 -7.5950 0.0000
# 4 0.0000 0.0000 0.0000 17.9012 0.0000 -1.2502
# 5 -2.1518 2.5145 -7.5950 0.0000 34.1141 0.0000
# 6 0.0000 0.0000 0.0000 -1.2502 0.0000 25.2242
#
#
#
# Elastic Compliance Matrix: (Units=1/GPa)
#
#
# Indices 1 2 3 4 5 6 
#
# 1 0.018041 -0.005586 -0.004718 0.000000 0.000499 0.000000
# 2 -0.005586 0.015326 -0.000932 0.000000 -0.001690 0.000000
# 3 -0.004718 -0.000932 0.012595 0.000000 0.002575 0.000000
# 4 0.000000 0.000000 0.000000 0.056056 0.000000 0.002778
# 5 0.000499 -0.001690 0.002575 0.000000 0.030043 0.000000
# 6 0.000000 0.000000 0.000000 0.002778 0.000000 0.039782
#
#
# Mechanical properties :
#
#
# Convention : Reuss Voigt Hill
#
# Bulk Modulus (GPa) = 42.57232 42.95471 42.76352
# Shear Modulus (GPa) = 24.73455 26.70222 25.71839
#
# Velocity S-wave (km/s) = 3.67256 3.81585 3.74489
# Velocity P-wave (km/s) = 6.41859 6.54503 6.48212
#
# Compressibility (1/GPa) = 0.02348944
#
# Stress axis : x y z
#
# Youngs Moduli (GPa) = 55.42925 65.24846 79.39432
#
# Poissons Ratio (x) = 0.36451 0.37457
# Poissons Ratio (y) = 0.30965 0.07401
# Poissons Ratio (z) = 0.26151 0.06083
#
# Static dielectric constant tensor:
#      x y z
#    x 3.531220 0.000000 -0.114910 
#    y 0.000000 3.179280 0.000000 
#    z -0.114910 0.000000 3.237740 
# 
# 
# High freq. dielectric constant tensor:
#      x y z
#    x 1.726300 0.000000 -0.008090 
#    y 0.000000 1.690180 0.000000 
#    z -0.008090 0.000000 1.702490 
# 
# From -- ./inp_files/6601.got.cif
#   From: 2010.03.12/outbox.cif.g09.slc.cpg/sg4_4_cif.got.tgz:6601.got - 2010.03.31 09:31:35.
