data_PCOD8045351
_publ_section_title
;
Structure prediction by ZEFSAII (Michael W. Deem and Ramdas Pophale) SiO2 
 PCOD8045351
Probable space group: P 2
;
_chemical_formula_sum "Si O2"
_cell_formula_units_Z 14
_cell_length_a 17.909540
_cell_length_b 6.623556
_cell_length_c 8.808013
_cell_angle_alpha 90.000000
_cell_angle_beta 37.683015
_cell_angle_gamma 90.000000
_cell_volume 638.708402
_symmetry_space_group_name_H-M "P 2"
_symmetry_group_IT_number 3
_symmetry_cell_setting 'monoclinic'
loop_
_space_group_symop_operation_xyz
x,y,z
-x,y,-z
loop_
_atom_site_type_symbol
_atom_site_label
_atom_site_fract_x
_atom_site_fract_y
_atom_site_fract_z
Si Si1 0.500000 0.924300 0.000000
Si Si2 0.319445 0.043840 0.761777
Si Si3 0.608596 0.732299 0.115521
Si Si4 0.044748 0.066307 0.276782
Si Si5 0.919954 0.354873 0.258947
Si Si6 0.734299 0.028782 0.487878
Si Si7 0.850495 0.739019 0.539121
Si Si8 0.500000 0.397292 0.500000
O O1 0.525568 0.784439 0.104657
O O2 0.388334 0.071164 0.219011
O O3 0.295356 0.950150 0.633933
O O4 0.386035 0.258675 0.631036
O O5 0.403001 0.901028 0.733355
O O6 0.189832 0.054643 0.054446
O O7 0.553222 0.526517 0.273828
O O8 0.749831 0.721446 0.834500
O O9 0.000000 0.184010 0.500000
O O10 0.008256 0.185306 0.185766
O O11 0.973625 0.850161 0.396320
O O12 0.803951 0.241455 0.373400
O O13 0.880571 0.510206 0.449451
O O14 0.000000 0.464529 0.000000
O O15 0.804037 0.849197 0.461572
#
# Coordination Sequence:
#
# PCOD8045351 Si02
#       8
#     1   2   2   2   2   2   2   1
#     4  10  22  46  72  90 132 178 222 274 334 398
#     4  12  25  45  69 100 137 177 224 276 336 402
#     4  11  25  47  66 101 134 174 229 272 336 404
#     4  11  24  45  69  97 139 180 221 277 337 394
#     4  11  24  41  65 105 134 173 227 270 333 398
#     4  10  23  43  66  97 133 178 218 278 329 392
#     4  10  25  42  70  98 137 181 222 277 330 395
#     4  12  28  42  70 102 136 174 224 282 334 398
#
# _framework density 21.919236999999999
#
# number of rings (size 3 to 8) (size 9 to 14) (size 15 to 20)
#    0.000    1.143    2.857    2.143    4.000    6.286 
#    0.000    1.429    0.000    0.000    0.000    0.000 
#    0.000    0.000    0.000    0.000    0.000    0.000 
#
# Total GULP energy -173565.543696 kJ/mol
# GULP energy per Si atom -12397.538835 kJ/mol
# Density = 2.186935 g / cm^3
# Si number density = 21.919237 Si / 1000 Ang^3
#
#
#
# Elastic Constant Matrix: (Units=GPa)
#
#
# Indices 1 2 3 4 5 6 
#
# 1 119.3944 35.4806 36.6333 0.0000 4.9483 0.0000
# 2 35.4806 100.9866 56.0363 0.0000 -2.9554 0.0000
# 3 36.6333 56.0363 153.7000 0.0000 -6.8378 0.0000
# 4 0.0000 0.0000 0.0000 39.8323 0.0000 4.6485
# 5 4.9483 -2.9554 -6.8378 0.0000 40.9670 0.0000
# 6 0.0000 0.0000 0.0000 4.6485 0.0000 15.8920
#
#
#
# Elastic Compliance Matrix: (Units=1/GPa)
#
#
# Indices 1 2 3 4 5 6 
#
# 1 0.009664 -0.002663 -0.001403 0.000000 -0.001594 0.000000
# 2 -0.002663 0.013148 -0.004133 0.000000 0.000580 0.000000
# 3 -0.001403 -0.004133 0.008404 0.000000 0.001274 0.000000
# 4 0.000000 0.000000 0.000000 0.025993 0.000000 -0.007603
# 5 -0.001594 0.000580 0.001274 0.000000 0.024857 0.000000
# 6 0.000000 0.000000 0.000000 -0.007603 0.000000 0.065149
#
#
# Mechanical properties :
#
#
# Convention : Reuss Voigt Hill
#
# Bulk Modulus (GPa) = 67.48941 70.04241 68.76591
# Shear Modulus (GPa) = 29.66435 35.73362 32.69899
#
# Velocity S-wave (km/s) = 3.68278 4.04200 3.86657
# Velocity P-wave (km/s) = 6.99576 7.33538 7.16758
#
# Compressibility (1/GPa) = 0.01481714
#
# Stress axis : x y z
#
# Youngs Moduli (GPa) = 103.48093 76.05495 118.98885
#
# Poissons Ratio (x) = 0.20255 0.16696
# Poissons Ratio (y) = 0.27559 0.49179
# Poissons Ratio (z) = 0.14520 0.31434
#
# Static dielectric constant tensor:
#      x y z
#    x 4.080550 0.000000 -0.032940 
#    y 0.000000 3.565780 0.000000 
#    z -0.032940 0.000000 4.204010 
# 
# 
# High freq. dielectric constant tensor:
#      x y z
#    x 1.872840 0.000000 0.001390 
#    y 0.000000 1.831130 0.000000 
#    z 0.001390 0.000000 1.891700 
# 
# From -- ./inp_files/8831.got.cif
#   From: 2010.03.12/outbox.cif.g09.slc.cpg/sg3_5_cif.got.tgz:8831.got - 2010.03.31 09:20:49.
