data_PCOD8045377
_publ_section_title
;
Structure prediction by ZEFSAII (Michael W. Deem and Ramdas Pophale) SiO2 
 PCOD8045377
Probable space group: P 2
;
_chemical_formula_sum "Si O2"
_cell_formula_units_Z 14
_cell_length_a 8.344148
_cell_length_b 5.847520
_cell_length_c 19.883953
_cell_angle_alpha 90.000000
_cell_angle_beta 144.081842
_cell_angle_gamma 90.000000
_cell_volume 569.141171
_symmetry_space_group_name_H-M "P 2"
_symmetry_group_IT_number 3
_symmetry_cell_setting 'monoclinic'
loop_
_space_group_symop_operation_xyz
x,y,z
-x,y,-z
loop_
_atom_site_type_symbol
_atom_site_label
_atom_site_fract_x
_atom_site_fract_y
_atom_site_fract_z
Si Si1 0.035617 0.142910 0.604888
Si Si2 0.772480 0.382801 0.203734
Si Si3 0.110398 0.138795 0.215653
Si Si4 0.425636 0.768495 0.782537
Si Si5 0.483280 0.843711 0.573844
Si Si6 0.583110 0.458242 0.339526
Si Si7 0.217981 0.117239 0.023984
O O1 0.038351 0.246893 0.679824
O O2 0.128293 0.336991 0.582581
O O3 0.239207 0.929517 0.673127
O O4 0.732282 0.050344 0.485108
O O5 0.754597 0.647817 0.219563
O O6 0.465313 0.288773 0.094497
O O7 0.931142 0.340445 0.188790
O O8 0.374407 0.253412 0.275083
O O9 0.217664 0.932366 0.300199
O O10 0.922256 0.035223 0.092903
O O11 0.536817 0.589321 0.766072
O O12 0.677739 0.890524 0.903293
O O13 0.500000 0.780506 0.500000
O O14 0.393145 0.616429 0.585207
O O15 0.000000 0.236844 0.000000
#
# Coordination Sequence:
#
# PCOD8045377 Si02
#       7
#     2   2   2   2   2   2   2
#     4  10  23  48  72 106 147 191 251 313 367 444
#     4  10  23  44  72 105 144 189 240 307 386 447
#     4  12  26  45  71 110 150 193 245 316 381 449
#     4  10  23  45  75 104 142 196 244 310 372 457
#     4  12  27  47  76 110 154 204 252 317 385 449
#     4  11  26  45  76 110 146 197 259 306 378 462
#     4  11  23  44  71 102 144 191 246 308 370 453
#
# _framework density 24.598469000000001
#
# number of rings (size 3 to 8) (size 9 to 14) (size 15 to 20)
#    0.000    1.143    1.429    4.714    2.000    9.143 
#    0.000    5.714    0.000    0.000    0.000    0.000 
#    0.000    0.000    0.000    0.000    0.000    0.000 
#
# Total GULP energy -173540.420149 kJ/mol
# GULP energy per Si atom -12395.744296 kJ/mol
# Density = 2.454248 g / cm^3
# Si number density = 24.598469 Si / 1000 Ang^3
#
#
#
# Elastic Constant Matrix: (Units=GPa)
#
#
# Indices 1 2 3 4 5 6 
#
# 1 112.0785 21.2217 35.5926 0.0000 -16.1706 0.0000
# 2 21.2217 81.4588 38.3380 0.0000 -9.4400 0.0000
# 3 35.5926 38.3380 171.2139 0.0000 -17.0365 0.0000
# 4 0.0000 0.0000 0.0000 20.7363 0.0000 -4.4041
# 5 -16.1706 -9.4400 -17.0365 0.0000 32.9581 0.0000
# 6 0.0000 0.0000 0.0000 -4.4041 0.0000 41.0436
#
#
#
# Elastic Compliance Matrix: (Units=1/GPa)
#
#
# Indices 1 2 3 4 5 6 
#
# 1 0.010214 -0.001561 -0.001391 0.000000 0.003845 0.000000
# 2 -0.001561 0.014154 -0.002654 0.000000 0.001916 0.000000
# 3 -0.001391 -0.002654 0.006937 0.000000 0.002143 0.000000
# 4 0.000000 0.000000 0.000000 0.049349 0.000000 0.005295
# 5 0.003845 0.001916 0.002143 0.000000 0.033885 0.000000
# 6 0.000000 0.000000 0.000000 0.005295 0.000000 0.024933
#
#
# Mechanical properties :
#
#
# Convention : Reuss Voigt Hill
#
# Bulk Modulus (GPa) = 49.76718 61.67287 55.72002
# Shear Modulus (GPa) = 31.76966 36.92087 34.34527
#
# Velocity S-wave (km/s) = 3.59769 3.87840 3.74068
# Velocity P-wave (km/s) = 6.12646 6.72178 6.43101
#
# Compressibility (1/GPa) = 0.02009356
#
# Stress axis : x y z
#
# Youngs Moduli (GPa) = 97.90028 70.65141 144.14469
#
# Poissons Ratio (x) = 0.11026 0.20055
# Poissons Ratio (y) = 0.15279 0.38259
# Poissons Ratio (z) = 0.13621 0.18753
#
# Static dielectric constant tensor:
#      x y z
#    x 4.494330 0.000000 -0.133810 
#    y 0.000000 4.443400 0.000000 
#    z -0.133810 0.000000 4.526250 
# 
# 
# High freq. dielectric constant tensor:
#      x y z
#    x 1.982240 0.000000 -0.008000 
#    y 0.000000 1.968720 0.000000 
#    z -0.008000 0.000000 1.993600 
# 
# From -- ./inp_files/15678.got.cif
#   From: 2010.03.12/outbox.cif.g09.slc.cpg/sg3_8_cif.got.tgz:15678.got - 2010.03.31 09:20:49.
