data_PCOD8045639
_publ_section_title
;
Structure prediction by ZEFSAII (Michael W. Deem and Ramdas Pophale) SiO2 
 PCOD8045639
Probable space group: P 21
;
_chemical_formula_sum "Si O2"
_cell_formula_units_Z 16
_cell_length_a 12.149607
_cell_length_b 8.258251
_cell_length_c 9.522328
_cell_angle_alpha 90.000000
_cell_angle_beta 129.113930
_cell_angle_gamma 90.000000
_cell_volume 741.302233
_symmetry_space_group_name_H-M "P 21"
_symmetry_group_IT_number 4
_symmetry_cell_setting 'monoclinic'
loop_
_space_group_symop_operation_xyz
x,y,z
-x,1/2+y,-z
loop_
_atom_site_type_symbol
_atom_site_label
_atom_site_fract_x
_atom_site_fract_y
_atom_site_fract_z
Si Si1 0.182607 0.772400 0.447498
Si Si2 0.032117 0.848252 0.867980
Si Si3 0.121877 0.146905 0.789640
Si Si4 0.693370 0.775127 0.825829
Si Si5 0.382592 0.161614 0.793981
Si Si6 0.825623 0.083887 0.837679
Si Si7 0.234847 0.144006 0.406845
Si Si8 0.444462 0.798497 0.829018
O O1 0.222218 0.657747 0.349078
O O2 0.289372 0.730112 0.662359
O O3 0.024683 0.732673 0.374865
O O4 0.202346 0.958551 0.418934
O O5 0.909744 0.743440 0.698345
O O6 0.106287 0.954214 0.806008
O O7 0.145977 0.729413 0.031219
O O8 0.966570 0.972782 0.930549
O O9 0.234971 0.166605 0.758740
O O10 0.168393 0.234748 0.970518
O O11 0.694954 0.661036 0.689850
O O12 0.553715 0.730792 0.800736
O O13 0.700304 0.966424 0.792088
O O14 0.344558 0.224815 0.607344
O O15 0.449268 0.988296 0.828363
O O16 0.506825 0.257826 0.973410
#
# Coordination Sequence:
#
# PCOD8045639 Si02
#       8
#     2   2   2   2   2   2   2   2
#     4  10  20  36  59  87 119 152 195 246 291 343
#     4  10  18  31  55  88 119 150 191 245 296 343
#     4  10  21  38  60  88 118 153 194 240 292 348
#     4  10  21  38  60  88 118 153 194 240 292 348
#     4  10  24  43  60  83 120 157 195 241 291 348
#     4  10  18  31  55  88 119 150 191 245 296 343
#     4  10  20  36  59  87 119 152 195 246 291 343
#     4  10  24  43  60  83 120 157 195 241 291 348
#
# _framework density 21.583638000000001
#
# number of rings (size 3 to 8) (size 9 to 14) (size 15 to 20)
#    0.000    2.000    0.000    5.250    0.000    8.000 
#    0.000    5.000    0.000    1.500    0.000    0.000 
#    0.000    0.000    0.000    0.000    0.000    0.000 
#
# Total GULP energy -198351.918433 kJ/mol
# GULP energy per Si atom -12396.994902 kJ/mol
# Density = 2.153451 g / cm^3
# Si number density = 21.583638 Si / 1000 Ang^3
#
#
#
# Elastic Constant Matrix: (Units=GPa)
#
#
# Indices 1 2 3 4 5 6 
#
# 1 50.9305 6.8973 34.6515 0.0000 9.4401 0.0000
# 2 6.8973 69.6086 7.3557 0.0000 7.5384 0.0000
# 3 34.6515 7.3557 109.0662 0.0000 15.4816 0.0000
# 4 0.0000 0.0000 0.0000 34.7935 0.0000 1.8167
# 5 9.4401 7.5384 15.4816 0.0000 27.9193 0.0000
# 6 0.0000 0.0000 0.0000 1.8167 0.0000 24.4915
#
#
#
# Elastic Compliance Matrix: (Units=1/GPa)
#
#
# Indices 1 2 3 4 5 6 
#
# 1 0.025672 -0.001301 -0.007475 0.000000 -0.004184 0.000000
# 2 -0.001301 0.014887 -0.000090 0.000000 -0.003530 0.000000
# 3 -0.007475 -0.000090 0.012143 0.000000 -0.004182 0.000000
# 4 0.000000 0.000000 0.000000 0.028853 0.000000 -0.002140
# 5 -0.004184 -0.003530 -0.004182 0.000000 0.040504 0.000000
# 6 0.000000 0.000000 0.000000 -0.002140 0.000000 0.040989
#
#
# Mechanical properties :
#
#
# Convention : Reuss Voigt Hill
#
# Bulk Modulus (GPa) = 28.59456 36.37936 32.48696
# Shear Modulus (GPa) = 25.98279 29.48758 27.73518
#
# Velocity S-wave (km/s) = 3.47337 3.70022 3.58859
# Velocity P-wave (km/s) = 5.41874 5.92851 5.67935
#
# Compressibility (1/GPa) = 0.03497169
#
# Stress axis : x y z
#
# Youngs Moduli (GPa) = 38.95339 67.17412 82.35105
#
# Poissons Ratio (x) = 0.08738 0.61553
# Poissons Ratio (y) = 0.05067 0.00738
# Poissons Ratio (z) = 0.29116 0.00602
#
# Static dielectric constant tensor:
#      x y z
#    x 3.648300 0.000000 -0.039670 
#    y 0.000000 4.045340 0.000000 
#    z -0.039670 0.000000 4.379580 
# 
# 
# High freq. dielectric constant tensor:
#      x y z
#    x 1.826500 0.000000 0.001450 
#    y 0.000000 1.848690 0.000000 
#    z 0.001450 0.000000 1.857130 
# 
# From -- ./inp_files/7897.got.cif
#   From: 2010.03.12/outbox.cif.g09.slc.cpg/sg4_4_cif.got.tgz:7897.got - 2010.03.31 09:31:35.
