data_PCOD8045734
_publ_section_title
;
Structure prediction by ZEFSAII (Michael W. Deem and Ramdas Pophale) SiO2 
 PCOD8045734
Probable space group: P 21
;
_chemical_formula_sum "Si O2"
_cell_formula_units_Z 14
_cell_length_a 16.545907
_cell_length_b 5.136502
_cell_length_c 12.263342
_cell_angle_alpha 90.000000
_cell_angle_beta 44.308903
_cell_angle_gamma 90.000000
_cell_volume 728.030809
_symmetry_space_group_name_H-M "P 21"
_symmetry_group_IT_number 4
_symmetry_cell_setting 'monoclinic'
loop_
_space_group_symop_operation_xyz
x,y,z
-x,1/2+y,-z
loop_
_atom_site_type_symbol
_atom_site_label
_atom_site_fract_x
_atom_site_fract_y
_atom_site_fract_z
Si Si1 0.595877 0.801700 0.195096
Si Si2 0.360542 0.801413 0.527760
Si Si3 0.253465 0.573788 0.435501
Si Si4 0.976803 0.203055 0.954429
Si Si5 0.472105 0.665534 0.092325
Si Si6 0.285128 0.782129 0.840391
Si Si7 0.166960 0.071103 0.600067
O O1 0.494851 0.867902 0.379592
O O2 0.545786 0.759793 0.123794
O O3 0.670603 0.557226 0.160159
O O4 0.678172 0.054213 0.112066
O O5 0.329096 0.566601 0.474671
O O6 0.340114 0.714497 0.670415
O O7 0.275847 0.044698 0.578943
O O8 0.338018 0.614005 0.251484
O O9 0.159218 0.807929 0.534654
O O10 0.187086 0.301040 0.493303
O O11 0.050588 0.117885 0.778908
O O12 0.963792 0.953881 0.046391
O O13 0.852510 0.294740 0.033827
O O14 0.526019 0.396657 0.997383
#
# Coordination Sequence:
#
# PCOD8045734 Si02
#       7
#     2   2   2   2   2   2   2
#     4  11  25  36  56  86 122 149 198 234 306 380
#     4   9  21  34  56  78 124 159 192 225 281 351
#     4   9  20  33  57  86 113 139 201 238 292 345
#     4  12  22  37  56  82 120 169 221 238 268 338
#     4  11  22  40  64  87 114 149 191 258 317 365
#     4  12  23  36  54  86 124 167 185 240 291 334
#     4  10  19  34  55  81 115 156 202 245 259 333
#
# _framework density 19.229956000000001
#
# number of rings (size 3 to 8) (size 9 to 14) (size 15 to 20)
#    0.857    0.571    1.429    5.143    6.000    0.000 
#    0.000    0.000    0.000    0.000    0.000   20.000 
#    0.000    0.000    0.000    0.000    0.000    0.000 
#
# Total GULP energy -173549.673594 kJ/mol
# GULP energy per Si atom -12396.405257 kJ/mol
# Density = 1.918619 g / cm^3
# Si number density = 19.229956 Si / 1000 Ang^3
#
#
#
# Elastic Constant Matrix: (Units=GPa)
#
#
# Indices 1 2 3 4 5 6 
#
# 1 47.4426 15.4799 32.6471 0.0000 -17.7080 0.0000
# 2 15.4799 113.7446 37.1927 0.0000 -7.8462 0.0000
# 3 32.6471 37.1927 120.8762 0.0000 -7.5056 0.0000
# 4 0.0000 0.0000 0.0000 32.0606 0.0000 0.0992
# 5 -17.7080 -7.8462 -7.5056 0.0000 25.0772 0.0000
# 6 0.0000 0.0000 0.0000 0.0992 0.0000 27.8723
#
#
#
# Elastic Compliance Matrix: (Units=1/GPa)
#
#
# Indices 1 2 3 4 5 6 
#
# 1 0.034967 -0.000660 -0.007867 0.000000 0.022131 0.000000
# 2 -0.000660 0.009908 -0.002758 0.000000 0.001809 0.000000
# 3 -0.007867 -0.002758 0.011053 0.000000 -0.003110 0.000000
# 4 0.000000 0.000000 0.000000 0.031191 0.000000 -0.000111
# 5 0.022131 0.001809 -0.003110 0.000000 0.055139 0.000000
# 6 0.000000 0.000000 0.000000 -0.000111 0.000000 0.035878
#
#
# Mechanical properties :
#
#
# Convention : Reuss Voigt Hill
#
# Bulk Modulus (GPa) = 29.97718 50.30031 40.13875
# Shear Modulus (GPa) = 23.60415 30.11827 26.86121
#
# Velocity S-wave (km/s) = 3.50732 3.96184 3.74149
# Velocity P-wave (km/s) = 5.65901 6.86602 6.29153
#
# Compressibility (1/GPa) = 0.03335871
#
# Stress axis : x y z
#
# Youngs Moduli (GPa) = 28.59808 100.92806 90.47108
#
# Poissons Ratio (x) = 0.06660 0.71174
# Poissons Ratio (y) = 0.01887 0.24953
# Poissons Ratio (z) = 0.22498 0.27837
#
# Static dielectric constant tensor:
#      x y z
#    x 3.140160 0.000000 -0.067190 
#    y 0.000000 3.584950 0.000000 
#    z -0.067190 0.000000 3.477130 
# 
# 
# High freq. dielectric constant tensor:
#      x y z
#    x 1.703460 0.000000 -0.009080 
#    y 0.000000 1.763590 0.000000 
#    z -0.009080 0.000000 1.749330 
# 
# From -- ./inp_files/12418.got.cif
#   From: 2010.03.12/outbox.cif.g09.slc.cpg/sg4_7_cif.got.tgz:12418.got - 2010.03.31 09:31:35.
