data_PCOD8045508
_publ_section_title
;
Structure prediction by ZEFSAII (Michael W. Deem and Ramdas Pophale) SiO2 
 PCOD8045508
Probable space group: P 2
;
_chemical_formula_sum "Si O2"
_cell_formula_units_Z 16
_cell_length_a 12.388363
_cell_length_b 8.447692
_cell_length_c 9.335250
_cell_angle_alpha 90.000000
_cell_angle_beta 132.686651
_cell_angle_gamma 90.000000
_cell_volume 718.138428
_symmetry_space_group_name_H-M "P 2"
_symmetry_group_IT_number 3
_symmetry_cell_setting 'monoclinic'
loop_
_space_group_symop_operation_xyz
x,y,z
-x,y,-z
loop_
_atom_site_type_symbol
_atom_site_label
_atom_site_fract_x
_atom_site_fract_y
_atom_site_fract_z
Si Si1 0.657868 0.641190 0.682868
Si Si2 0.067458 0.329207 0.710033
Si Si3 0.335522 0.807520 0.842352
Si Si4 0.641079 0.157825 0.033019
Si Si5 0.136993 0.660037 0.876673
Si Si6 0.108672 0.127341 0.221796
Si Si7 0.634730 0.279185 0.708017
Si Si8 0.178483 0.802580 0.403485
O O1 0.500000 0.723464 0.500000
O O2 0.621032 0.467608 0.708119
O O3 0.756106 0.656166 0.628728
O O4 0.760088 0.719044 0.898935
O O5 0.217325 0.252353 0.787564
O O6 0.093363 0.474465 0.843845
O O7 0.000000 0.390243 0.500000
O O8 0.969903 0.201938 0.708896
O O9 0.230883 0.678375 0.818338
O O10 0.277651 0.824832 0.631116
O O11 0.329272 0.972385 0.921853
O O12 0.500000 0.739612 0.000000
O O13 0.500000 0.211233 0.000000
O O14 0.623233 0.195158 0.850029
O O15 0.993766 0.769497 0.729848
O O16 0.217164 0.252187 0.246845
O O17 0.197557 0.970665 0.343520
O O18 0.000000 0.073649 0.000000
O O19 0.500000 0.206275 0.500000
#
# Coordination Sequence:
#
# PCOD8045508 Si02
#       8
#     2   2   2   2   2   2   2   2
#     4  11  24  46  69 101 138 181 230 286 355 418
#     4  12  25  43  70 101 138 187 236 293 350 422
#     4  11  26  45  67  99 141 184 235 289 349 424
#     4  11  25  47  69 100 141 183 237 294 355 420
#     4  12  24  46  67 101 139 182 235 286 353 417
#     4  12  24  44  69 103 137 181 236 291 358 419
#     4  11  26  45  71 105 139 184 232 298 356 422
#     4  12  26  43  69 103 138 186 228 290 355 421
#
# _framework density 22.279827000000001
#
# number of rings (size 3 to 8) (size 9 to 14) (size 15 to 20)
#    0.000    0.500    2.500    5.250    7.000    1.000 
#    2.250    0.000    0.000    0.000    0.000    0.000 
#    0.000    0.000    0.000    0.000    0.000    0.000 
#
# Total GULP energy -198370.940423 kJ/mol
# GULP energy per Si atom -12398.183776 kJ/mol
# Density = 2.222912 g / cm^3
# Si number density = 22.279827 Si / 1000 Ang^3
#
#
#
# Elastic Constant Matrix: (Units=GPa)
#
#
# Indices 1 2 3 4 5 6 
#
# 1 132.1065 22.1406 54.4711 0.0000 2.9137 0.0000
# 2 22.1406 60.6007 17.6624 0.0000 -8.6255 0.0000
# 3 54.4711 17.6624 179.1353 0.0000 0.9308 0.0000
# 4 0.0000 0.0000 0.0000 35.4976 0.0000 -18.8590
# 5 2.9137 -8.6255 0.9308 0.0000 43.0637 0.0000
# 6 0.0000 0.0000 0.0000 -18.8590 0.0000 55.0693
#
#
#
# Elastic Compliance Matrix: (Units=1/GPa)
#
#
# Indices 1 2 3 4 5 6 
#
# 1 0.009079 -0.002752 -0.002484 0.000000 -0.001112 0.000000
# 2 -0.002752 0.018349 -0.000993 0.000000 0.003883 0.000000
# 3 -0.002484 -0.000993 0.006436 0.000000 -0.000170 0.000000
# 4 0.000000 0.000000 0.000000 0.034436 0.000000 0.011793
# 5 -0.001112 0.003883 -0.000170 0.000000 0.024078 0.000000
# 6 0.000000 0.000000 0.000000 0.011793 0.000000 0.022198
#
#
# Mechanical properties :
#
#
# Convention : Reuss Voigt Hill
#
# Bulk Modulus (GPa) = 46.71015 62.26564 54.48789
# Shear Modulus (GPa) = 37.26657 45.23068 41.24863
#
# Velocity S-wave (km/s) = 4.09425 4.51057 4.30745
# Velocity P-wave (km/s) = 6.58493 7.42528 7.01769
#
# Compressibility (1/GPa) = 0.02140862
#
# Stress axis : x y z
#
# Youngs Moduli (GPa) = 110.13888 54.49981 155.36657
#
# Poissons Ratio (x) = 0.14996 0.38590
# Poissons Ratio (y) = 0.30305 0.15422
# Poissons Ratio (z) = 0.27356 0.05410
#
# Static dielectric constant tensor:
#      x y z
#    x 4.126760 0.000000 0.247310 
#    y 0.000000 3.769320 0.000000 
#    z 0.247310 0.000000 4.384560 
# 
# 
# High freq. dielectric constant tensor:
#      x y z
#    x 1.883580 0.000000 0.006810 
#    y 0.000000 1.868420 0.000000 
#    z 0.006810 0.000000 1.902720 
# 
# From -- ./inp_files/7506.got.cif
#   From: 2010.03.12/outbox.cif.g09.slc.cpg/sg3_4_cif.got.tgz:7506.got - 2010.03.31 09:20:49.
