data_PCOD8045484
_publ_section_title
;
Structure prediction by ZEFSAII (Michael W. Deem and Ramdas Pophale) SiO2 
 PCOD8045484
Probable space group: P 2
;
_chemical_formula_sum "Si O2"
_cell_formula_units_Z 16
_cell_length_a 9.493579
_cell_length_b 6.534699
_cell_length_c 26.315982
_cell_angle_alpha 90.000000
_cell_angle_beta 150.935999
_cell_angle_gamma 90.000000
_cell_volume 793.086201
_symmetry_space_group_name_H-M "P 2"
_symmetry_group_IT_number 3
_symmetry_cell_setting 'monoclinic'
loop_
_space_group_symop_operation_xyz
x,y,z
-x,y,-z
loop_
_atom_site_type_symbol
_atom_site_label
_atom_site_fract_x
_atom_site_fract_y
_atom_site_fract_z
Si Si1 0.776276 0.595660 0.120470
Si Si2 0.237024 0.894262 0.218750
Si Si3 0.257476 0.283676 0.294160
Si Si4 0.723724 0.050426 0.879530
Si Si5 0.262975 0.751824 0.781250
Si Si6 0.698622 0.560413 0.381314
Si Si7 0.242524 0.362410 0.705840
Si Si8 0.198622 0.085673 0.381314
O O1 0.667828 0.671958 0.140874
O O2 0.959853 0.770602 0.150576
O O3 0.955880 0.386618 0.182395
O O4 0.500000 0.538870 0.000000
O O5 0.526292 0.757891 0.307421
O O6 0.305700 0.078627 0.278013
O O7 0.167828 0.974128 0.140874
O O8 0.518401 0.442052 0.367556
O O9 0.253429 0.240066 0.352459
O O10 0.544120 0.259469 0.817605
O O11 0.540147 0.875484 0.849424
O O12 0.000000 0.107216 0.000000
O O13 0.194300 0.567459 0.721987
O O14 0.973708 0.888195 0.692579
O O15 0.753429 0.406021 0.352459
O O16 0.000000 0.636575 0.500000
O O17 0.981599 0.204035 0.632444
O O18 0.500000 0.009511 0.500000
#
# Coordination Sequence:
#
# PCOD8045484 Si02
#       8
#     2   2   2   2   2   2   2   2
#     4  11  24  42  66  92 124 165 204 256 311 360
#     4  11  23  43  64  93 127 159 211 255 300 375
#     4  11  23  43  64  93 127 159 211 255 300 375
#     4  11  24  42  66  92 124 165 204 256 311 360
#     4  11  23  43  64  93 127 159 211 255 300 375
#     4  11  24  42  66  92 124 165 204 256 311 360
#     4  11  23  43  64  93 127 159 211 255 300 375
#     4  11  24  42  66  92 124 165 204 256 311 360
#
# _framework density 20.174351999999999
#
# number of rings (size 3 to 8) (size 9 to 14) (size 15 to 20)
#    0.000    1.000    5.000    1.500    0.000    4.000 
#    0.000    0.000    0.000    0.000    0.000    0.000 
#    0.000    0.000    0.000    0.000    0.000    0.000 
#
# Total GULP energy -198523.304076 kJ/mol
# GULP energy per Si atom -12407.706505 kJ/mol
# Density = 2.012843 g / cm^3
# Si number density = 20.174352 Si / 1000 Ang^3
#
#
#
# Elastic Constant Matrix: (Units=GPa)
#
#
# Indices 1 2 3 4 5 6 
#
# 1 86.7583 8.9561 6.6518 0.0000 1.6500 0.0000
# 2 8.9561 64.9602 4.8850 0.0000 -2.1116 0.0000
# 3 6.6518 4.8850 102.0141 0.0001 1.3534 0.0000
# 4 0.0000 0.0000 0.0001 13.9817 0.0000 -7.3792
# 5 1.6500 -2.1116 1.3534 0.0000 17.4471 0.0000
# 6 0.0000 0.0000 0.0000 -7.3792 0.0000 23.6080
#
#
#
# Elastic Compliance Matrix: (Units=1/GPa)
#
#
# Indices 1 2 3 4 5 6 
#
# 1 0.011768 -0.001613 -0.000673 0.000000 -0.001256 0.000000
# 2 -0.001613 0.015736 -0.000676 0.000000 0.002109 0.000000
# 3 -0.000673 -0.000676 0.009889 0.000000 -0.000785 0.000000
# 4 0.000000 0.000000 0.000000 0.085652 0.000000 0.026773
# 5 -0.001256 0.002109 -0.000785 0.000000 0.057751 0.000000
# 6 0.000000 0.000000 0.000000 0.026773 0.000000 0.050727
#
#
# Mechanical properties :
#
#
# Convention : Reuss Voigt Hill
#
# Bulk Modulus (GPa) = 31.77793 32.74650 32.26222
# Shear Modulus (GPa) = 20.16632 26.55666 23.36149
#
# Velocity S-wave (km/s) = 3.16508 3.63210 3.40660
# Velocity P-wave (km/s) = 5.39841 5.81864 5.61246
#
# Compressibility (1/GPa) = 0.03146838
#
# Stress axis : x y z
#
# Youngs Moduli (GPa) = 84.97421 63.54933 101.11957
#
# Poissons Ratio (x) = 0.10248 0.06810
# Poissons Ratio (y) = 0.13704 0.06839
# Poissons Ratio (z) = 0.05723 0.04298
#
# Static dielectric constant tensor:
#      x y z
#    x 3.899830 0.000000 0.094410 
#    y 0.000000 3.687880 0.000000 
#    z 0.094410 0.000000 3.506120 
# 
# 
# High freq. dielectric constant tensor:
#      x y z
#    x 1.808880 0.000000 0.002940 
#    y 0.000000 1.794910 0.000000 
#    z 0.002940 0.000000 1.782210 
# 
# From -- ./inp_files/12756.got.cif
#   From: 2010.03.12/outbox.cif.g09.slc.cpg/sg3_7_cif.got.tgz:12756.got - 2010.03.31 09:20:49.
