data_PCOD8045835
_publ_section_title
;
Structure prediction by ZEFSAII (Michael W. Deem and Ramdas Pophale) SiO2 
 PCOD8045835
Probable space group: P 21
;
_chemical_formula_sum "Si O2"
_cell_formula_units_Z 12
_cell_length_a 7.536662
_cell_length_b 7.822118
_cell_length_c 8.483164
_cell_angle_alpha 90.000000
_cell_angle_beta 66.596362
_cell_angle_gamma 90.000000
_cell_volume 458.961137
_symmetry_space_group_name_H-M "P 21"
_symmetry_group_IT_number 4
_symmetry_cell_setting 'monoclinic'
loop_
_space_group_symop_operation_xyz
x,y,z
-x,1/2+y,-z
loop_
_atom_site_type_symbol
_atom_site_label
_atom_site_fract_x
_atom_site_fract_y
_atom_site_fract_z
Si Si1 0.433191 0.161690 0.025646
Si Si2 0.718172 0.367774 0.746640
Si Si3 0.897362 0.985070 0.246259
Si Si4 0.585626 0.209880 0.475102
Si Si5 0.709681 0.513972 0.247812
Si Si6 0.917584 0.835464 0.914700
O O1 0.646225 0.223806 0.899863
O O2 0.331088 0.054245 0.919719
O O3 0.288396 0.325857 0.105718
O O4 0.422346 0.035667 0.180100
O O5 0.696996 0.306566 0.576925
O O6 0.942519 0.409989 0.691175
O O7 0.696518 0.028841 0.405947
O O8 0.861686 0.849323 0.119591
O O9 0.967380 0.160835 0.145427
O O10 0.592528 0.335918 0.322740
O O11 0.367225 0.161749 0.605825
O O12 0.940438 0.487381 0.194164
#
# Coordination Sequence:
#
# PCOD8045835 Si02
#       6
#     2   2   2   2   2   2
#     4  10  22  41  67  96 123 173 217 261 316 380
#     4  10  22  44  62  98 136 163 214 265 332 375
#     4  10  22  41  67  98 128 173 213 267 318 384
#     4  10  24  40  66  96 136 163 210 269 331 374
#     4  10  21  42  62  99 122 171 217 258 318 379
#     4  10  19  40  70  91 125 165 229 252 307 388
#
# _framework density 26.146006
#
# number of rings (size 3 to 8) (size 9 to 14) (size 15 to 20)
#    0.000    2.000    3.333    0.000    4.667    2.667 
#    3.000    8.333    0.000    0.000    0.000    0.000 
#    0.000    0.000    0.000    0.000    0.000    0.000 
#
# Total GULP energy -148746.767964 kJ/mol
# GULP energy per Si atom -12395.563997 kJ/mol
# Density = 2.608650 g / cm^3
# Si number density = 26.146006 Si / 1000 Ang^3
#
#
#
# Elastic Constant Matrix: (Units=GPa)
#
#
# Indices 1 2 3 4 5 6 
#
# 1 62.6648 11.2669 28.7296 0.0000 -13.0206 0.0000
# 2 11.2669 51.6111 17.1130 0.0000 8.8110 0.0000
# 3 28.7296 17.1130 75.1837 0.0000 -25.4402 0.0000
# 4 0.0000 0.0000 0.0000 61.0261 0.0000 -8.4923
# 5 -13.0206 8.8110 -25.4402 0.0000 25.6361 0.0000
# 6 0.0000 0.0000 0.0000 -8.4923 0.0000 44.8296
#
#
#
# Elastic Compliance Matrix: (Units=1/GPa)
#
#
# Indices 1 2 3 4 5 6 
#
# 1 0.020233 -0.004344 -0.004156 0.000000 0.007645 0.000000
# 2 -0.004344 0.029346 -0.013819 0.000000 -0.026006 0.000000
# 3 -0.004156 -0.013819 0.028496 0.000000 0.030917 0.000000
# 4 0.000000 0.000000 0.000000 0.016830 0.000000 0.003188
# 5 0.007645 -0.026006 0.030917 0.000000 0.082509 0.000000
# 6 0.000000 0.000000 0.000000 0.003188 0.000000 0.022911
#
#
# Mechanical properties :
#
#
# Convention : Reuss Voigt Hill
#
# Bulk Modulus (GPa) = 29.90789 33.74207 31.82498
# Shear Modulus (GPa) = 19.52298 35.12171 27.32235
#
# Velocity S-wave (km/s) = 2.73553 3.66907 3.23614
# Velocity P-wave (km/s) = 4.63046 5.55722 5.11487
#
# Compressibility (1/GPa) = 0.03343599
#
# Stress axis : x y z
#
# Youngs Moduli (GPa) = 49.42470 34.07622 35.09298
#
# Poissons Ratio (x) = 0.14803 0.14583
# Poissons Ratio (y) = 0.21471 0.48496
# Poissons Ratio (z) = 0.20539 0.47091
#
# Static dielectric constant tensor:
#      x y z
#    x 4.608540 0.000000 -0.603130 
#    y 0.000000 5.120630 0.000000 
#    z -0.603130 0.000000 4.783520 
# 
# 
# High freq. dielectric constant tensor:
#      x y z
#    x 2.023630 0.000000 -0.035810 
#    y 0.000000 2.063920 0.000000 
#    z -0.035810 0.000000 2.041370 
# 
# From -- ./inp_files/5325.got.cif
#   From: 2010.03.12/outbox.cif.g09.slc.cpg/sg4_3_cif.got.tgz:5325.got - 2010.03.31 09:31:35.
