data_PCOD8045285
_publ_section_title
;
Structure prediction by ZEFSAII (Michael W. Deem and Ramdas Pophale) SiO2 
 PCOD8045285
Probable space group: P 2
;
_chemical_formula_sum "Si O2"
_cell_formula_units_Z 10
_cell_length_a 12.152333
_cell_length_b 7.700363
_cell_length_c 11.196712
_cell_angle_alpha 90.000000
_cell_angle_beta 156.201773
_cell_angle_gamma 90.000000
_cell_volume 422.788519
_symmetry_space_group_name_H-M "P 2"
_symmetry_group_IT_number 3
_symmetry_cell_setting 'monoclinic'
loop_
_space_group_symop_operation_xyz
x,y,z
-x,y,-z
loop_
_atom_site_type_symbol
_atom_site_label
_atom_site_fract_x
_atom_site_fract_y
_atom_site_fract_z
Si Si1 0.257046 0.873980 0.175244
Si Si2 0.266463 0.484371 0.183850
Si Si3 0.000000 0.794181 0.500000
Si Si4 0.994530 0.065335 0.296843
Si Si5 0.526733 0.285629 0.831164
Si Si6 0.500000 0.556615 0.000000
O O1 0.500000 0.950768 0.500000
O O2 0.330673 0.680619 0.201300
O O3 0.000000 0.842843 0.000000
O O4 0.175500 0.001703 0.987850
O O5 0.500000 0.415720 0.500000
O O6 0.283306 0.359187 0.086873
O O7 0.000000 0.462368 0.000000
O O8 0.248719 0.675532 0.787876
O O9 0.090741 0.908372 0.476348
O O10 0.265211 0.172835 0.529443
O O11 0.758360 0.174079 0.132828
O O12 0.413678 0.438589 0.801981
#
# Coordination Sequence:
#
# PCOD8045285 Si02
#       6
#     2   2   1   2   2   1
#     4  10  22  41  66  95 131 178 229 274 324 397
#     4  10  22  41  66  95 131 178 229 274 324 397
#     4  12  26  46  72 100 136 182 232 278 340 418
#     4  12  25  43  68 101 140 176 224 287 348 403
#     4  12  25  43  68 101 140 176 224 287 348 403
#     4  12  26  46  72 100 136 182 232 278 340 418
#
# _framework density 23.652488000000002
#
# number of rings (size 3 to 8) (size 9 to 14) (size 15 to 20)
#    0.000    0.800    0.000    7.200    0.000    8.000 
#    0.000    0.000    0.000    0.000    0.000    0.000 
#    0.000    0.000    0.000    0.000    0.000    0.000 
#
# Total GULP energy -123967.388513 kJ/mol
# GULP energy per Si atom -12396.738851 kJ/mol
# Density = 2.359865 g / cm^3
# Si number density = 23.652488 Si / 1000 Ang^3
#
#
#
# Elastic Constant Matrix: (Units=GPa)
#
#
# Indices 1 2 3 4 5 6 
#
# 1 99.0761 52.7664 38.7106 0.0000 -1.0455 0.0000
# 2 52.7664 115.1693 50.9627 0.0000 -2.8397 0.0000
# 3 38.7106 50.9627 157.8692 0.0000 4.7402 0.0000
# 4 0.0000 0.0000 0.0000 48.8197 0.0000 5.3353
# 5 -1.0455 -2.8397 4.7402 0.0000 37.6841 0.0000
# 6 0.0000 0.0000 0.0000 5.3353 0.0000 32.1561
#
#
#
# Elastic Compliance Matrix: (Units=1/GPa)
#
#
# Indices 1 2 3 4 5 6 
#
# 1 0.013670 -0.005570 -0.001559 0.000000 0.000156 0.000000
# 2 -0.005570 0.012452 -0.002688 0.000000 0.001122 0.000000
# 3 -0.001559 -0.002688 0.007620 0.000000 -0.001204 0.000000
# 4 0.000000 0.000000 0.000000 0.020862 0.000000 -0.003461
# 5 0.000156 0.001122 -0.001204 0.000000 0.026777 0.000000
# 6 0.000000 0.000000 0.000000 -0.003461 0.000000 0.031673
#
#
# Mechanical properties :
#
#
# Convention : Reuss Voigt Hill
#
# Bulk Modulus (GPa) = 70.87023 72.99935 71.93479
# Shear Modulus (GPa) = 36.39316 39.04364 37.71840
#
# Velocity S-wave (km/s) = 3.92683 4.06731 3.99769
# Velocity P-wave (km/s) = 7.11254 7.27926 7.19638
#
# Compressibility (1/GPa) = 0.01411030
#
# Stress axis : x y z
#
# Youngs Moduli (GPa) = 73.15177 80.31111 131.22814
#
# Poissons Ratio (x) = 0.44730 0.20455
# Poissons Ratio (y) = 0.40743 0.35268
# Poissons Ratio (z) = 0.11402 0.21584
#
# Static dielectric constant tensor:
#      x y z
#    x 3.908460 0.000000 -0.019550 
#    y 0.000000 4.583630 0.000000 
#    z -0.019550 0.000000 4.023990 
# 
# 
# High freq. dielectric constant tensor:
#      x y z
#    x 1.924040 0.000000 0.005780 
#    y 0.000000 1.954830 0.000000 
#    z 0.005780 0.000000 1.952030 
# 
# From -- ./inp_files/11775.got.cif
#   From: 2010.03.12/outbox.cif.g09.slc.cpg/sg3_6_cif.got.tgz:11775.got - 2010.03.31 09:20:49.
