data_PCOD8045915
_publ_section_title
;
Structure prediction by ZEFSAII (Michael W. Deem and Ramdas Pophale) SiO2 
 PCOD8045915
Probable space group: P 21
;
_chemical_formula_sum "Si O2"
_cell_formula_units_Z 16
_cell_length_a 12.774444
_cell_length_b 9.508517
_cell_length_c 16.010893
_cell_angle_alpha 90.000000
_cell_angle_beta 24.066546
_cell_angle_gamma 90.000000
_cell_volume 793.075995
_symmetry_space_group_name_H-M "P 21"
_symmetry_group_IT_number 4
_symmetry_cell_setting 'monoclinic'
loop_
_space_group_symop_operation_xyz
x,y,z
-x,1/2+y,-z
loop_
_atom_site_type_symbol
_atom_site_label
_atom_site_fract_x
_atom_site_fract_y
_atom_site_fract_z
Si Si1 0.149161 0.929260 0.657040
Si Si2 0.888540 0.234687 0.173452
Si Si3 0.409614 0.234489 0.706679
Si Si4 0.508435 0.000527 0.893726
Si Si5 0.973175 0.972393 0.232398
Si Si6 0.658770 0.705017 0.428883
Si Si7 0.251199 0.275333 0.161383
Si Si8 0.804770 0.086352 0.525751
O O1 0.140402 0.882718 0.759270
O O2 0.416234 0.875363 0.421428
O O3 0.889606 0.873148 0.804241
O O4 0.159278 0.098535 0.652694
O O5 0.617686 0.210622 0.322426
O O6 0.934067 0.117322 0.211642
O O7 0.112087 0.256659 0.944019
O O8 0.414217 0.158368 0.612957
O O9 0.531349 0.141146 0.691157
O O10 0.752010 0.016308 0.654061
O O11 0.576219 0.883023 0.912490
O O12 0.429861 0.153040 0.990473
O O13 0.274720 0.936452 0.009896
O O14 0.802697 0.852783 0.314828
O O15 0.907069 0.982620 0.379221
O O16 0.023648 0.204690 0.381687
#
# Coordination Sequence:
#
# PCOD8045915 Si02
#       8
#     2   2   2   2   2   2   2   2
#     4  10  21  41  57  88 127 163 199 258 311 364
#     4  11  19  39  62  85 119 170 210 243 307 370
#     4  10  20  36  65  86 119 168 208 242 308 369
#     4  11  23  43  71  91 123 161 209 258 316 372
#     4  11  22  40  61  90 127 164 205 256 308 361
#     4  11  24  35  59  94 132 158 204 261 299 364
#     4  10  23  42  67  93 119 165 206 258 317 363
#     4  10  20  42  64  89 122 163 203 254 312 367
#
# _framework density 20.174610000000001
#
# number of rings (size 3 to 8) (size 9 to 14) (size 15 to 20)
#    0.000    1.500    6.250    1.500    1.750    5.000 
#    0.000    0.000    0.000    0.000    0.000    0.000 
#    0.000    0.000    0.000    0.000    0.000    0.000 
#
# Total GULP energy -198246.417576 kJ/mol
# GULP energy per Si atom -12390.401099 kJ/mol
# Density = 2.012869 g / cm^3
# Si number density = 20.174610 Si / 1000 Ang^3
#
#
#
# Elastic Constant Matrix: (Units=GPa)
#
#
# Indices 1 2 3 4 5 6 
#
# 1 56.2192 27.5058 18.6432 0.0000 -11.3162 0.0000
# 2 27.5058 62.8553 22.8203 0.0000 -7.7022 0.0000
# 3 18.6432 22.8203 108.0515 0.0000 0.6818 0.0000
# 4 0.0000 0.0000 0.0000 19.0785 0.0000 -11.0949
# 5 -11.3162 -7.7022 0.6818 0.0000 33.8526 0.0000
# 6 0.0000 0.0000 0.0000 -11.0949 0.0000 28.4940
#
#
#
# Elastic Compliance Matrix: (Units=1/GPa)
#
#
# Indices 1 2 3 4 5 6 
#
# 1 0.024180 -0.008997 -0.002310 0.000000 0.006082 0.000000
# 2 -0.008997 0.021136 -0.002923 0.000000 0.001860 0.000000
# 3 -0.002310 -0.002923 0.010281 0.000000 -0.001644 0.000000
# 4 0.000000 0.000000 0.000000 0.067758 0.000000 0.026384
# 5 0.006082 0.001860 -0.001644 0.000000 0.032029 0.000000
# 6 0.000000 0.000000 0.000000 0.026384 0.000000 0.045368
#
#
# Mechanical properties :
#
#
# Convention : Reuss Voigt Hill
#
# Bulk Modulus (GPa) = 36.85160 40.56274 38.70717
# Shear Modulus (GPa) = 20.98552 26.82880 23.90716
#
# Velocity S-wave (km/s) = 3.22870 3.65064 3.44614
# Velocity P-wave (km/s) = 5.67498 6.15784 5.92133
#
# Compressibility (1/GPa) = 0.02713587
#
# Stress axis : x y z
#
# Youngs Moduli (GPa) = 41.35668 47.31252 97.26486
#
# Poissons Ratio (x) = 0.42568 0.22470
# Poissons Ratio (y) = 0.37209 0.28433
# Poissons Ratio (z) = 0.09554 0.13831
#
# Static dielectric constant tensor:
#      x y z
#    x 3.456480 0.000000 -0.171830 
#    y 0.000000 3.439840 0.000000 
#    z -0.171830 0.000000 3.805310 
# 
# 
# High freq. dielectric constant tensor:
#      x y z
#    x 1.769300 0.000000 -0.013710 
#    y 0.000000 1.770510 0.000000 
#    z -0.013710 0.000000 1.798040 
# 
# From -- ./inp_files/15229.got.cif
#   From: 2010.03.12/outbox.cif.g09.slc.cpg/sg4_8_cif.got.tgz:15229.got - 2010.03.31 09:31:35.
