data_PCOD8045251
_publ_section_title
;
Structure prediction by ZEFSAII (Michael W. Deem and Ramdas Pophale) SiO2 
 PCOD8045251
Probable space group: P 2
;
_chemical_formula_sum "Si O2"
_cell_formula_units_Z 9
_cell_length_a 8.354710
_cell_length_b 6.966646
_cell_length_c 7.022294
_cell_angle_alpha 90.000000
_cell_angle_beta 97.809204
_cell_angle_gamma 90.000000
_cell_volume 404.937225
_symmetry_space_group_name_H-M "P 2"
_symmetry_group_IT_number 3
_symmetry_cell_setting 'monoclinic'
loop_
_space_group_symop_operation_xyz
x,y,z
-x,y,-z
loop_
_atom_site_type_symbol
_atom_site_label
_atom_site_fract_x
_atom_site_fract_y
_atom_site_fract_z
Si Si1 0.128967 0.185170 0.766553
Si Si2 0.357827 0.521988 0.851426
Si Si3 0.224942 0.113026 0.373457
Si Si4 0.500000 0.398822 0.500000
Si Si5 0.818437 0.848574 0.958586
O O1 0.199960 0.393106 0.817494
O O2 0.204437 0.076407 0.595465
O O3 0.937812 0.218284 0.723240
O O4 0.178816 0.057741 0.950908
O O5 0.419557 0.540515 0.642889
O O6 0.500000 0.427226 0.000000
O O7 0.309780 0.719264 0.949531
O O8 0.373636 0.259647 0.368644
O O9 0.241184 0.904974 0.266901
O O10 0.000000 0.758160 0.000000
#
# Coordination Sequence:
#
# PCOD8045251 Si02
#       5
#     2   2   2   1   2
#     4   9  20  41  62  85 120 162 204 249 301 359
#     4  11  24  38  60  93 124 160 203 249 303 362
#     4   9  19  39  65  87 118 162 204 249 303 359
#     4  10  22  40  64  92 124 164 202 248 308 364
#     4  10  22  39  62  90 120 158 203 251 303 359
#
# _framework density 22.225666
#
# number of rings (size 3 to 8) (size 9 to 14) (size 15 to 20)
#    0.000    2.222    0.000    1.333    0.000   10.667 
#    0.000   16.667    0.000    0.000    0.000    0.000 
#    0.000    0.000    0.000    0.000    0.000    0.000 
#
# Total GULP energy -111517.994693 kJ/mol
# GULP energy per Si atom -12390.888299 kJ/mol
# Density = 2.217508 g / cm^3
# Si number density = 22.225666 Si / 1000 Ang^3
#
#
#
# Elastic Constant Matrix: (Units=GPa)
#
#
# Indices 1 2 3 4 5 6 
#
# 1 124.8405 52.3049 45.2592 0.0000 -8.2859 0.0000
# 2 52.3049 63.0447 42.6447 0.0000 -10.2432 0.0000
# 3 45.2592 42.6447 97.0016 0.0000 -5.1271 0.0000
# 4 0.0000 0.0000 0.0000 41.4794 0.0000 -12.7887
# 5 -8.2859 -10.2432 -5.1271 0.0000 35.2203 0.0000
# 6 0.0000 0.0000 0.0000 -12.7887 0.0000 24.4353
#
#
#
# Elastic Compliance Matrix: (Units=1/GPa)
#
#
# Indices 1 2 3 4 5 6 
#
# 1 0.012498 -0.009140 -0.001812 0.000000 0.000018 0.000000
# 2 -0.009140 0.030230 -0.008742 0.000000 0.005369 0.000000
# 3 -0.001812 -0.008742 0.014956 0.000000 -0.000792 0.000000
# 4 0.000000 0.000000 0.000000 0.028747 0.000000 0.015045
# 5 0.000018 0.005369 -0.000792 0.000000 0.029843 0.000000
# 6 0.000000 0.000000 0.000000 0.015045 0.000000 0.048799
#
#
# Mechanical properties :
#
#
# Convention : Reuss Voigt Hill
#
# Bulk Modulus (GPa) = 54.65614 62.81160 58.73387
# Shear Modulus (GPa) = 23.74626 29.87219 26.80922
#
# Velocity S-wave (km/s) = 3.27221 3.67009 3.47685
# Velocity P-wave (km/s) = 6.23869 6.80306 6.52698
#
# Compressibility (1/GPa) = 0.01829621
#
# Stress axis : x y z
#
# Youngs Moduli (GPa) = 80.01380 33.07941 66.86354
#
# Poissons Ratio (x) = 0.30235 0.12116
# Poissons Ratio (y) = 0.73134 0.58450
# Poissons Ratio (z) = 0.14499 0.28917
#
# Static dielectric constant tensor:
#      x y z
#    x 4.314850 0.000000 -0.092320 
#    y 0.000000 3.403270 0.000000 
#    z -0.092320 0.000000 4.355830 
# 
# 
# High freq. dielectric constant tensor:
#      x y z
#    x 1.889450 0.000000 -0.007400 
#    y 0.000000 1.828860 0.000000 
#    z -0.007400 0.000000 1.895550 
# 
# From -- ./inp_files/4768.got.cif
#   From: 2010.03.12/outbox.cif.g09.slc.cpg/sg3_3_cif.got.tgz:4768.got - 2010.03.31 09:20:49.
