data_PCOD8045241
_publ_section_title
;
Structure prediction by ZEFSAII (Michael W. Deem and Ramdas Pophale) SiO2 
 PCOD8045241
Probable space group: P 2
;
_chemical_formula_sum "Si O2"
_cell_formula_units_Z 14
_cell_length_a 7.461085
_cell_length_b 5.197219
_cell_length_c 13.223032
_cell_angle_alpha 90.000000
_cell_angle_beta 91.935084
_cell_angle_gamma 90.000000
_cell_volume 512.455687
_symmetry_space_group_name_H-M "P 2"
_symmetry_group_IT_number 3
_symmetry_cell_setting 'monoclinic'
loop_
_space_group_symop_operation_xyz
x,y,z
-x,y,-z
loop_
_atom_site_type_symbol
_atom_site_label
_atom_site_fract_x
_atom_site_fract_y
_atom_site_fract_z
Si Si1 0.094425 0.902900 0.698320
Si Si2 0.041841 0.560770 0.139805
Si Si3 0.759266 0.066707 0.577960
Si Si4 0.292544 0.241075 0.854061
Si Si5 0.314717 0.818878 0.027162
Si Si6 0.204342 0.571697 0.532656
Si Si7 0.663562 0.176281 0.793293
O O1 0.208393 0.665282 0.650427
O O2 0.956767 0.795443 0.780394
O O3 0.230736 0.101933 0.750373
O O4 0.972748 0.052233 0.612222
O O5 0.140072 0.635358 0.035177
O O6 0.147878 0.321570 0.189129
O O7 0.831790 0.485360 0.120544
O O8 0.716266 0.290847 0.493930
O O9 0.639028 0.119547 0.674434
O O10 0.696119 0.793820 0.531116
O O11 0.494128 0.340304 0.834284
O O12 0.275747 0.049648 0.949330
O O13 0.341470 0.915947 0.142194
O O14 0.500000 0.671166 0.000000
O O15 0.000000 0.563572 0.500000
#
# Coordination Sequence:
#
# PCOD8045241 Si02
#       7
#     2   2   2   2   2   2   2
#     4  11  24  42  72 111 151 193 258 318 386 461
#     4  12  24  46  75 102 147 199 257 312 388 460
#     4  11  21  42  72 108 143 206 246 316 377 464
#     4  11  27  46  72 112 153 191 257 324 382 465
#     4  10  25  47  71 106 150 201 249 313 389 471
#     4  10  22  37  73 106 147 194 259 303 387 453
#     4  11  24  45  73 104 150 198 252 306 390 459
#
# _framework density 27.319434999999999
#
# number of rings (size 3 to 8) (size 9 to 14) (size 15 to 20)
#    0.000    1.143    2.857    3.000    2.000    8.571 
#    0.000    2.143    0.000    0.000    0.000    0.000 
#    0.000    0.000    0.000    0.000    0.000    0.000 
#
# Total GULP energy -173549.480651 kJ/mol
# GULP energy per Si atom -12396.391475 kJ/mol
# Density = 2.725725 g / cm^3
# Si number density = 27.319435 Si / 1000 Ang^3
#
#
#
# Elastic Constant Matrix: (Units=GPa)
#
#
# Indices 1 2 3 4 5 6 
#
# 1 112.9577 -3.8887 13.8001 0.0000 -31.8642 0.0000
# 2 -3.8887 92.7979 15.9937 0.0000 -18.2085 0.0000
# 3 13.8001 15.9937 110.0256 0.0000 -17.0634 0.0000
# 4 0.0000 0.0000 0.0000 50.5543 0.0000 -16.9884
# 5 -31.8642 -18.2085 -17.0634 0.0000 31.1932 0.0000
# 6 0.0000 0.0000 0.0000 -16.9884 0.0000 18.4413
#
#
#
# Elastic Compliance Matrix: (Units=1/GPa)
#
#
# Indices 1 2 3 4 5 6 
#
# 1 0.013475 0.003668 0.000266 0.000000 0.016051 0.000000
# 2 0.003668 0.013222 -0.000660 0.000000 0.011105 0.000000
# 3 0.000266 -0.000660 0.009980 0.000000 0.005346 0.000000
# 4 0.000000 0.000000 0.000000 0.028650 0.000000 0.026392
# 5 0.016051 0.011105 0.005346 0.000000 0.057861 0.000000
# 6 0.000000 0.000000 0.000000 0.026392 0.000000 0.078539
#
#
# Mechanical properties :
#
#
# Convention : Reuss Voigt Hill
#
# Bulk Modulus (GPa) = 23.13410 40.84348 31.98879
# Shear Modulus (GPa) = 23.85637 39.36283 31.60960
#
# Velocity S-wave (km/s) = 2.95827 3.79995 3.40521
# Velocity P-wave (km/s) = 4.48941 5.85112 5.21491
#
# Compressibility (1/GPa) = 0.04322622
#
# Stress axis : x y z
#
# Youngs Moduli (GPa) = 74.21398 75.62867 100.19577
#
# Poissons Ratio (x) = -0.27743 -0.02665
# Poissons Ratio (y) = -0.27224 0.06613
# Poissons Ratio (z) = -0.01974 0.04991
#
# Static dielectric constant tensor:
#      x y z
#    x 4.961170 0.000000 -0.375520 
#    y 0.000000 4.912510 0.000000 
#    z -0.375520 0.000000 5.509220 
# 
# 
# High freq. dielectric constant tensor:
#      x y z
#    x 2.083760 0.000000 -0.018310 
#    y 0.000000 2.087740 0.000000 
#    z -0.018310 0.000000 2.124690 
# 
# From -- ./inp_files/13198.got.cif
#   From: 2010.03.12/outbox.cif.g09.slc.cpg/sg3_7_cif.got.tgz:13198.got - 2010.03.31 09:20:49.
