data_PCOD8045618
_publ_section_title
;
Structure prediction by ZEFSAII (Michael W. Deem and Ramdas Pophale) SiO2 
 PCOD8045618
Probable space group: P 21
;
_chemical_formula_sum "Si O2"
_cell_formula_units_Z 14
_cell_length_a 12.059789
_cell_length_b 7.745450
_cell_length_c 11.466273
_cell_angle_alpha 90.000000
_cell_angle_beta 35.368455
_cell_angle_gamma 90.000000
_cell_volume 619.956764
_symmetry_space_group_name_H-M "P 21"
_symmetry_group_IT_number 4
_symmetry_cell_setting 'monoclinic'
loop_
_space_group_symop_operation_xyz
x,y,z
-x,1/2+y,-z
loop_
_atom_site_type_symbol
_atom_site_label
_atom_site_fract_x
_atom_site_fract_y
_atom_site_fract_z
Si Si1 0.320620 0.873400 0.069621
Si Si2 0.384126 0.639677 0.224485
Si Si3 0.555985 0.705103 0.299303
Si Si4 0.169035 0.825941 0.736671
Si Si5 0.398484 0.803496 0.748892
Si Si6 0.783478 0.709006 0.315861
Si Si7 0.057924 0.527313 0.681133
O O1 0.284929 0.755921 0.212372
O O2 0.140770 0.001120 0.214299
O O3 0.350834 0.764182 0.924787
O O4 0.510250 0.984618 0.932487
O O5 0.542297 0.740870 0.170938
O O6 0.219847 0.562417 0.447641
O O7 0.383422 0.806507 0.505091
O O8 0.527876 0.498677 0.334687
O O9 0.749363 0.757275 0.205950
O O10 0.196994 0.778477 0.850313
O O11 0.028833 0.691511 0.792254
O O12 0.105884 0.024916 0.769332
O O13 0.572266 0.682452 0.555863
O O14 0.902335 0.856234 0.277566
#
# Coordination Sequence:
#
# PCOD8045618 Si02
#       7
#     2   2   2   2   2   2   2
#     4  11  24  44  68  90 134 176 215 275 321 377
#     4  10  23  47  64  91 133 174 223 265 319 388
#     4   8  16  34  62  91 125 169 209 256 319 384
#     4   9  18  34  65  99 127 168 211 260 334 387
#     4   9  17  37  62  96 135 165 213 264 322 390
#     4  10  17  35  70  94 129 166 207 267 332 387
#     4  11  23  45  65  95 133 166 218 279 319 387
#
# _framework density 22.582221000000001
#
# number of rings (size 3 to 8) (size 9 to 14) (size 15 to 20)
#    0.000    2.286    4.286    0.000    2.000    3.429 
#   15.429    0.000    0.000    0.000    0.000    0.000 
#    0.000    0.000    0.000    0.000    0.000    0.000 
#
# Total GULP energy -173453.002256 kJ/mol
# GULP energy per Si atom -12389.500161 kJ/mol
# Density = 2.253082 g / cm^3
# Si number density = 22.582221 Si / 1000 Ang^3
#
#
#
# Elastic Constant Matrix: (Units=GPa)
#
#
# Indices 1 2 3 4 5 6 
#
# 1 133.1850 69.6914 38.2595 0.0000 19.8563 0.0000
# 2 69.6914 111.6375 26.3964 0.0000 14.7732 0.0000
# 3 38.2595 26.3964 53.2995 0.0000 10.5038 0.0000
# 4 0.0000 0.0000 0.0000 19.2549 0.0000 0.0465
# 5 19.8563 14.7732 10.5038 0.0000 25.2399 0.0000
# 6 0.0000 0.0000 0.0000 0.0465 0.0000 51.5596
#
#
#
# Elastic Compliance Matrix: (Units=1/GPa)
#
#
# Indices 1 2 3 4 5 6 
#
# 1 0.012963 -0.006255 -0.005358 0.000000 -0.004307 0.000000
# 2 -0.006255 0.013588 -0.001788 0.000000 -0.002288 0.000000
# 3 -0.005358 -0.001788 0.024463 0.000000 -0.004918 0.000000
# 4 0.000000 0.000000 0.000000 0.051935 0.000000 -0.000047
# 5 -0.004307 -0.002288 -0.004918 0.000000 0.046394 0.000000
# 6 0.000000 0.000000 0.000000 -0.000047 0.000000 0.019395
#
#
# Mechanical properties :
#
#
# Convention : Reuss Voigt Hill
#
# Bulk Modulus (GPa) = 41.30520 62.97963 52.14241
# Shear Modulus (GPa) = 24.55644 30.12919 27.34282
#
# Velocity S-wave (km/s) = 3.30119 3.65663 3.48345
# Velocity P-wave (km/s) = 5.73247 6.76591 6.27051
#
# Compressibility (1/GPa) = 0.02421003
#
# Stress axis : x y z
#
# Youngs Moduli (GPa) = 77.14277 73.59299 40.87778
#
# Poissons Ratio (x) = 0.46036 0.21904
# Poissons Ratio (y) = 0.48256 0.07310
# Poissons Ratio (z) = 0.41336 0.13161
#
# Static dielectric constant tensor:
#      x y z
#    x 4.401590 0.000000 0.160630 
#    y 0.000000 3.883610 0.000000 
#    z 0.160630 0.000000 3.808390 
# 
# 
# High freq. dielectric constant tensor:
#      x y z
#    x 1.891390 0.000000 0.005010 
#    y 0.000000 1.869800 0.000000 
#    z 0.005010 0.000000 1.878540 
# 
# From -- ./inp_files/11832.got.cif
#   From: 2010.03.12/outbox.cif.g09.slc.cpg/sg4_6_cif.got.tgz:11832.got - 2010.03.31 09:31:35.
