data_PCOD8045328
_publ_section_title
;
Structure prediction by ZEFSAII (Michael W. Deem and Ramdas Pophale) SiO2 
 PCOD8045328
Probable space group: P 2
;
_chemical_formula_sum "Si O2"
_cell_formula_units_Z 12
_cell_length_a 15.124002
_cell_length_b 6.160168
_cell_length_c 6.178337
_cell_angle_alpha 90.000000
_cell_angle_beta 112.980432
_cell_angle_gamma 90.000000
_cell_volume 529.931686
_symmetry_space_group_name_H-M "P 2"
_symmetry_group_IT_number 3
_symmetry_cell_setting 'monoclinic'
loop_
_space_group_symop_operation_xyz
x,y,z
-x,y,-z
loop_
_atom_site_type_symbol
_atom_site_label
_atom_site_fract_x
_atom_site_fract_y
_atom_site_fract_z
Si Si1 0.500000 0.802021 0.500000
Si Si2 0.828898 0.521012 0.558464
Si Si3 0.000000 0.439835 0.000000
Si Si4 0.751301 0.845395 0.164957
Si Si5 0.672527 0.513267 0.743120
Si Si6 0.905823 0.185873 0.286153
Si Si7 0.577560 0.126445 0.912971
O O1 0.592270 0.652016 0.540893
O O2 0.517503 0.948894 0.724546
O O3 0.785408 0.743426 0.424059
O O4 0.749489 0.422241 0.645074
O O5 0.847760 0.351012 0.384908
O O6 0.928454 0.579702 0.779436
O O7 0.932001 0.294651 0.084856
O O8 0.840087 0.983490 0.157600
O O9 0.727252 0.658336 0.971303
O O10 0.661315 0.002750 0.123625
O O11 0.622654 0.308161 0.805059
O O12 0.000000 0.100925 0.500000
O O13 0.500000 0.236337 0.000000
#
# Coordination Sequence:
#
# PCOD8045328 Si02
#       7
#     1   2   1   2   2   2   2
#     4  10  24  42  64  96 128 170 214 258 316 374
#     4  11  23  42  65  94 129 165 212 262 316 376
#     4  10  22  44  66  92 130 168 208 262 320 372
#     4  11  24  41  65  96 127 168 213 260 317 377
#     4  11  25  42  66  96 129 168 212 263 316 374
#     4  10  24  43  65  93 128 167 210 263 318 375
#     4  11  24  43  65  93 131 169 211 263 316 374
#
# _framework density 22.644425999999999
#
# number of rings (size 3 to 8) (size 9 to 14) (size 15 to 20)
#    0.000    1.333    0.000    4.500    0.000   16.667 
#    0.000    1.667    0.000    0.000    0.000    0.000 
#    0.000    0.000    0.000    0.000    0.000    0.000 
#
# Total GULP energy -148826.871312 kJ/mol
# GULP energy per Si atom -12402.239276 kJ/mol
# Density = 2.259289 g / cm^3
# Si number density = 22.644426 Si / 1000 Ang^3
#
#
#
# Elastic Constant Matrix: (Units=GPa)
#
#
# Indices 1 2 3 4 5 6 
#
# 1 177.3497 71.5373 69.2262 0.0000 -12.8472 0.0000
# 2 71.5373 112.1174 59.1707 0.0000 9.4759 0.0000
# 3 69.2262 59.1707 119.5120 0.0000 18.4927 0.0000
# 4 0.0000 0.0000 0.0000 25.6074 0.0000 12.4090
# 5 -12.8472 9.4759 18.4927 0.0000 54.7072 0.0000
# 6 0.0000 0.0000 0.0000 12.4090 0.0000 42.3248
#
#
#
# Elastic Compliance Matrix: (Units=1/GPa)
#
#
# Indices 1 2 3 4 5 6 
#
# 1 0.009120 -0.004119 -0.003888 0.000000 0.004170 0.000000
# 2 -0.004119 0.013935 -0.004210 0.000000 -0.001958 0.000000
# 3 -0.003888 -0.004210 0.013435 0.000000 -0.004725 0.000000
# 4 0.000000 0.000000 0.000000 0.045518 0.000000 -0.013345
# 5 0.004170 -0.001958 -0.004725 0.000000 0.021195 0.000000
# 6 0.000000 0.000000 0.000000 -0.013345 0.000000 0.027539
#
#
# Mechanical properties :
#
#
# Convention : Reuss Voigt Hill
#
# Bulk Modulus (GPa) = 82.95652 89.87194 86.41423
# Shear Modulus (GPa) = 31.40767 38.46423 34.93595
#
# Velocity S-wave (km/s) = 3.72828 4.12590 3.93212
# Velocity P-wave (km/s) = 7.43286 7.90392 7.67200
#
# Compressibility (1/GPa) = 0.01205451
#
# Stress axis : x y z
#
# Youngs Moduli (GPa) = 109.64885 71.76137 74.43061
#
# Poissons Ratio (x) = 0.29561 0.28941
# Poissons Ratio (y) = 0.45169 0.31337
# Poissons Ratio (z) = 0.42635 0.30213
#
# Static dielectric constant tensor:
#      x y z
#    x 4.314020 0.000000 0.319690 
#    y 0.000000 3.895940 0.000000 
#    z 0.319690 0.000000 4.228450 
# 
# 
# High freq. dielectric constant tensor:
#      x y z
#    x 1.913320 0.000000 0.016900 
#    y 0.000000 1.878170 0.000000 
#    z 0.016900 0.000000 1.902880 
# 
# From -- ./inp_files/2784.got.cif
#   From: 2010.03.12/outbox.cif.g09.slc.cpg/sg3_2_cif.got.tgz:2784.got - 2010.03.31 09:20:49.
