data_PCOD8045147
_publ_section_title
;
Structure prediction by ZEFSAII (Michael W. Deem and Ramdas Pophale) SiO2 
 PCOD8045147
Probable space group: P 2
;
_chemical_formula_sum "Si O2"
_cell_formula_units_Z 14
_cell_length_a 18.236006
_cell_length_b 6.870115
_cell_length_c 8.959515
_cell_angle_alpha 90.000000
_cell_angle_beta 144.192756
_cell_angle_gamma 90.000000
_cell_volume 656.717819
_symmetry_space_group_name_H-M "P 2"
_symmetry_group_IT_number 3
_symmetry_cell_setting 'monoclinic'
loop_
_space_group_symop_operation_xyz
x,y,z
-x,y,-z
loop_
_atom_site_type_symbol
_atom_site_label
_atom_site_fract_x
_atom_site_fract_y
_atom_site_fract_z
Si Si1 0.319656 0.565160 0.316413
Si Si2 0.240981 0.779190 0.669436
Si Si3 0.593237 0.526256 0.865220
Si Si4 0.250424 0.170215 0.863372
Si Si5 0.141224 0.842344 0.193543
Si Si6 0.839712 0.220260 0.962292
Si Si7 0.055404 0.461525 0.431227
O O1 0.448638 0.587690 0.619702
O O2 0.336246 0.605403 0.167044
O O3 0.208421 0.706770 0.183218
O O4 0.282221 0.341795 0.287249
O O5 0.237689 0.846243 0.492449
O O6 0.106910 0.672006 0.466710
O O7 0.267309 0.962356 0.817471
O O8 0.350485 0.626906 0.893419
O O9 0.617823 0.291195 0.907645
O O10 0.163695 0.300814 0.614844
O O11 0.183768 0.131450 0.912292
O O12 0.129786 0.057425 0.107644
O O13 0.000000 0.770642 0.000000
O O14 0.952773 0.376910 0.148854
O O15 0.000000 0.500796 0.500000
#
# Coordination Sequence:
#
# PCOD8045147 Si02
#       7
#     2   2   2   2   2   2   2
#     4  10  22  43  65  88 121 163 209 258 306 356
#     4  11  22  37  60  90 125 159 199 251 311 368
#     4   9  21  42  68  91 114 156 216 265 302 352
#     4   9  19  37  62  89 115 155 209 261 304 352
#     4  12  26  38  57  92 130 168 201 242 309 382
#     4  10  21  38  59  86 122 163 209 255 303 359
#     4   9  19  35  59  87 116 158 210 258 300 354
#
# _framework density 21.318137
#
# number of rings (size 3 to 8) (size 9 to 14) (size 15 to 20)
#    0.000    2.000    0.000    3.429    0.000    8.571 
#    0.000    2.857    0.000    0.000    0.000    0.000 
#    0.000    0.000    0.000    0.000    0.000    0.000 
#
# Total GULP energy -173516.737796 kJ/mol
# GULP energy per Si atom -12394.052700 kJ/mol
# Density = 2.126962 g / cm^3
# Si number density = 21.318137 Si / 1000 Ang^3
#
#
#
# Elastic Constant Matrix: (Units=GPa)
#
#
# Indices 1 2 3 4 5 6 
#
# 1 70.7191 42.7861 40.5169 0.0000 7.2291 0.0000
# 2 42.7861 112.1549 39.8482 0.0000 -5.1984 0.0000
# 3 40.5169 39.8482 112.5902 0.0000 -5.5339 0.0000
# 4 0.0000 0.0000 0.0000 5.2509 0.0000 -6.6459
# 5 7.2291 -5.1984 -5.5339 0.0000 33.3572 0.0000
# 6 0.0000 0.0000 0.0000 -6.6459 0.0000 26.3218
#
#
#
# Elastic Compliance Matrix: (Units=1/GPa)
#
#
# Indices 1 2 3 4 5 6 
#
# 1 0.022344 -0.006710 -0.006004 0.000000 -0.006884 0.000000
# 2 -0.006710 0.012247 -0.001769 0.000000 0.003069 0.000000
# 3 -0.006004 -0.001769 0.011815 0.000000 0.002986 0.000000
# 4 0.000000 0.000000 0.000000 0.279883 0.000000 0.070667
# 5 -0.006884 0.003069 0.002986 0.000000 0.032444 0.000000
# 6 0.000000 0.000000 0.000000 0.070667 0.000000 0.055834
#
#
# Mechanical properties :
#
#
# Convention : Reuss Voigt Hill
#
# Bulk Modulus (GPa) = 57.34014 60.19628 58.76821
# Shear Modulus (GPa) = 11.12729 24.47351 17.80040
#
# Velocity S-wave (km/s) = 2.28713 3.39191 2.89275
# Velocity P-wave (km/s) = 5.82498 6.60594 6.22771
#
# Compressibility (1/GPa) = 0.01743979
#
# Stress axis : x y z
#
# Youngs Moduli (GPa) = 44.75561 81.65478 84.63609
#
# Poissons Ratio (x) = 0.54788 0.50818
# Poissons Ratio (y) = 0.30029 0.14972
# Poissons Ratio (z) = 0.26872 0.14445
#
# Static dielectric constant tensor:
#      x y z
#    x 3.691820 0.000000 0.022640 
#    y 0.000000 3.742970 0.000000 
#    z 0.022640 0.000000 3.941800 
# 
# 
# High freq. dielectric constant tensor:
#      x y z
#    x 1.814220 0.000000 -0.002760 
#    y 0.000000 1.834190 0.000000 
#    z -0.002760 0.000000 1.843530 
# 
# From -- ./inp_files/8966.got.cif
#   From: 2010.03.12/outbox.cif.g09.slc.cpg/sg3_5_cif.got.tgz:8966.got - 2010.03.31 09:20:49.
