data_PCOD8045160
_publ_section_title
;
Structure prediction by ZEFSAII (Michael W. Deem and Ramdas Pophale) SiO2 
 PCOD8045160
Probable space group: P 2
;
_chemical_formula_sum "Si O2"
_cell_formula_units_Z 16
_cell_length_a 11.301686
_cell_length_b 10.133019
_cell_length_c 8.645954
_cell_angle_alpha 90.000000
_cell_angle_beta 122.047943
_cell_angle_gamma 90.000000
_cell_volume 839.243928
_symmetry_space_group_name_H-M "P 2"
_symmetry_group_IT_number 3
_symmetry_cell_setting 'monoclinic'
loop_
_space_group_symop_operation_xyz
x,y,z
-x,y,-z
loop_
_atom_site_type_symbol
_atom_site_label
_atom_site_fract_x
_atom_site_fract_y
_atom_site_fract_z
Si Si1 0.295855 0.385680 0.463471
Si Si2 0.598440 0.090412 0.794452
Si Si3 0.796525 0.862849 0.985795
Si Si4 0.601310 0.386432 0.800866
Si Si5 0.894177 0.864609 0.703800
Si Si6 0.146043 0.607893 0.523939
Si Si7 0.302822 0.091251 0.488173
Si Si8 0.348412 0.627147 0.948232
O O1 0.443599 0.421144 0.643564
O O2 0.301704 0.399793 0.282450
O O3 0.177040 0.485280 0.434711
O O4 0.250924 0.239357 0.487171
O O5 0.615444 0.237300 0.876992
O O6 0.434255 0.050311 0.688308
O O7 0.644727 0.091639 0.650082
O O8 0.695160 0.986624 0.953033
O O9 0.830890 0.847709 0.829729
O O10 0.717792 0.730674 0.979340
O O11 0.939028 0.883730 0.180171
O O12 0.650159 0.484733 0.968640
O O13 0.853203 0.739124 0.576349
O O14 0.825161 0.991677 0.573681
O O15 0.260932 0.619094 0.733492
O O16 0.000000 0.579731 0.500000
O O17 0.500000 0.674852 0.000000
#
# Coordination Sequence:
#
# PCOD8045160 Si02
#       8
#     2   2   2   2   2   2   2   2
#     4   9  18  37  63  86 112 147 187 233 283 335
#     4   8  16  33  60  88 112 137 185 241 280 325
#     4  10  21  39  59  85 113 148 191 234 279 333
#     4   9  18  37  62  89 112 141 189 240 280 328
#     4  10  21  39  60  82 115 151 188 232 280 336
#     4  12  24  41  55  78 121 157 187 230 282 335
#     4   8  16  33  60  88 110 141 186 234 281 331
#     4  12  24  39  57  82 117 151 193 235 277 331
#
# _framework density 19.064778
#
# number of rings (size 3 to 8) (size 9 to 14) (size 15 to 20)
#    0.000    2.250    2.500    2.250    1.750    0.000 
#    2.250    2.500    0.000    0.000    0.000    0.000 
#    0.000    0.000    0.000    0.000    0.000    0.000 
#
# Total GULP energy -198383.470914 kJ/mol
# GULP energy per Si atom -12398.966932 kJ/mol
# Density = 1.902139 g / cm^3
# Si number density = 19.064778 Si / 1000 Ang^3
#
#
#
# Elastic Constant Matrix: (Units=GPa)
#
#
# Indices 1 2 3 4 5 6 
#
# 1 95.6789 65.5003 36.7364 0.0000 20.6765 0.0000
# 2 65.5003 158.1506 64.6734 0.0000 18.6165 0.0000
# 3 36.7364 64.6734 97.2234 0.0000 23.8439 0.0000
# 4 0.0000 0.0000 0.0000 18.6764 0.0000 15.2924
# 5 20.6765 18.6165 23.8439 0.0000 23.1326 0.0000
# 6 0.0000 0.0000 0.0000 15.2924 0.0000 5.9954
#
#
#
# Elastic Compliance Matrix: (Units=1/GPa)
#
#
# Indices 1 2 3 4 5 6 
#
# 1 0.016523 -0.005648 0.000028 0.000000 -0.010252 0.000000
# 2 -0.005648 0.010650 -0.005469 0.000000 0.002114 0.000000
# 3 0.000028 -0.005469 0.017183 0.000000 -0.013336 0.000000
# 4 0.000000 0.000000 0.000000 -0.049188 0.000000 0.125465
# 5 -0.010252 0.002114 -0.013336 0.000000 0.064437 0.000000
# 6 0.000000 0.000000 0.000000 0.125465 0.000000 -0.153228
#
#
# Mechanical properties :
#
#
# Convention : Reuss Voigt Hill
#
# Bulk Modulus (GPa) = 45.08799 76.09702 60.59251
# Shear Modulus (GPa) = -78.05941 21.83706 -28.11118
#
# Velocity S-wave (km/s) = -6.40572 3.38807 -3.84410
# Velocity P-wave (km/s) = 5.56863 7.43687 3.48549
#
# Compressibility (1/GPa) = 0.02217885
#
# Stress axis : x y z
#
# Youngs Moduli (GPa) = 60.52252 93.89988 58.19585
#
# Poissons Ratio (x) = 0.53033 -0.00163
# Poissons Ratio (y) = 0.34182 0.31826
# Poissons Ratio (z) = -0.00170 0.51351
#
# Static dielectric constant tensor:
#      x y z
#    x 3.512640 0.000000 0.158140 
#    y 0.000000 3.685860 0.000000 
#    z 0.158140 0.000000 3.432530 
# 
# 
# High freq. dielectric constant tensor:
#      x y z
#    x 1.733170 0.000000 0.006400 
#    y 0.000000 1.749670 0.000000 
#    z 0.006400 0.000000 1.731140 
# 
# From -- ./inp_files/7468.got.cif
#   From: 2010.03.12/outbox.cif.g09.slc.cpg/sg3_4_cif.got.tgz:7468.got - 2010.03.31 09:20:49.
