data_PCOD8045049
_publ_section_title
;
Structure prediction by ZEFSAII (Michael W. Deem and Ramdas Pophale) SiO2 
 PCOD8045049
Probable space group: P 2
;
_chemical_formula_sum "Si O2"
_cell_formula_units_Z 16
_cell_length_a 9.609561
_cell_length_b 11.660958
_cell_length_c 10.109181
_cell_angle_alpha 90.000000
_cell_angle_beta 44.621265
_cell_angle_gamma 90.000000
_cell_volume 795.699219
_symmetry_space_group_name_H-M "P 2"
_symmetry_group_IT_number 3
_symmetry_cell_setting 'monoclinic'
loop_
_space_group_symop_operation_xyz
x,y,z
-x,y,-z
loop_
_atom_site_type_symbol
_atom_site_label
_atom_site_fract_x
_atom_site_fract_y
_atom_site_fract_z
Si Si1 0.711698 0.127320 0.106681
Si Si2 0.414428 0.294256 0.410916
Si Si3 0.443753 0.890853 0.886735
Si Si4 0.465396 0.548525 0.369779
Si Si5 0.172712 0.678126 0.990878
Si Si6 0.065234 0.668249 0.598685
Si Si7 0.873618 0.127900 0.280648
Si Si8 0.135048 0.921799 0.522932
O O1 0.547183 0.226905 0.212947
O O2 0.740303 0.101871 0.242504
O O3 0.651206 0.015886 0.064863
O O4 0.911469 0.174182 0.905430
O O5 0.500000 0.300304 0.500000
O O6 0.390904 0.423097 0.371363
O O7 0.208776 0.225166 0.564278
O O8 0.290227 0.796208 0.937568
O O9 0.642459 0.891010 0.667121
O O10 0.500000 0.865314 0.000000
O O11 0.500000 0.546678 0.500000
O O12 0.670614 0.582537 0.161322
O O13 0.295795 0.640137 0.455547
O O14 0.000000 0.700771 0.000000
O O15 0.071979 0.621160 0.189600
O O16 0.029419 0.804136 0.635688
O O17 0.000000 0.620462 0.500000
O O18 0.872938 0.004848 0.348352
O O19 0.000000 0.978967 0.500000
#
# Coordination Sequence:
#
# PCOD8045049 Si02
#       8
#     2   2   2   2   2   2   2   2
#     4  10  21  37  62  93 127 164 206 257 316 381
#     4   9  20  39  62  90 123 164 215 265 315 364
#     4  12  24  40  65  96 133 168 207 261 323 394
#     4  11  23  43  67  94 127 170 222 273 316 379
#     4  12  26  42  67 100 130 170 218 269 325 386
#     4  11  24  43  65  94 132 170 215 267 331 387
#     4  10  20  37  61  93 126 163 206 261 316 375
#     4  11  22  39  62  90 129 171 204 256 325 383
#
# _framework density 20.108101999999999
#
# number of rings (size 3 to 8) (size 9 to 14) (size 15 to 20)
#    0.000    1.250    3.750    3.000    3.500    1.000 
#    2.250    0.625    2.750    0.000    0.000    0.000 
#    0.000    0.000    0.000    0.000    0.000    0.000 
#
# Total GULP energy -198368.255847 kJ/mol
# GULP energy per Si atom -12398.015990 kJ/mol
# Density = 2.006234 g / cm^3
# Si number density = 20.108102 Si / 1000 Ang^3
#
#
#
# Elastic Constant Matrix: (Units=GPa)
#
#
# Indices 1 2 3 4 5 6 
#
# 1 91.9546 36.1942 47.5113 0.0000 -4.8555 0.0000
# 2 36.1942 90.4207 30.1526 0.0000 4.0124 0.0000
# 3 47.5113 30.1526 142.3497 0.0000 -9.0054 0.0000
# 4 0.0000 0.0000 0.0000 20.0806 0.0000 -6.2085
# 5 -4.8555 4.0124 -9.0054 0.0000 30.5543 0.0000
# 6 0.0000 0.0000 0.0000 -6.2085 0.0000 11.6892
#
#
#
# Elastic Compliance Matrix: (Units=1/GPa)
#
#
# Indices 1 2 3 4 5 6 
#
# 1 0.014812 -0.004736 -0.003824 0.000000 0.001849 0.000000
# 2 -0.004736 0.013582 -0.001484 0.000000 -0.002974 0.000000
# 3 -0.003824 -0.001484 0.008753 0.000000 0.002167 0.000000
# 4 0.000000 0.000000 0.000000 0.059584 0.000000 0.031647
# 5 0.001849 -0.002974 0.002167 0.000000 0.034052 0.000000
# 6 0.000000 0.000000 0.000000 0.031647 0.000000 0.102358
#
#
# Mechanical properties :
#
#
# Convention : Reuss Voigt Hill
#
# Bulk Modulus (GPa) = 58.62054 61.38236 60.00145
# Shear Modulus (GPa) = 19.31139 26.52261 22.91700
#
# Velocity S-wave (km/s) = 3.10236 3.63575 3.37959
# Velocity P-wave (km/s) = 6.48451 6.94387 6.71812
#
# Compressibility (1/GPa) = 0.01705887
#
# Stress axis : x y z
#
# Youngs Moduli (GPa) = 67.51110 73.62586 114.25099
#
# Poissons Ratio (x) = 0.34870 0.43686
# Poissons Ratio (y) = 0.31974 0.16959
# Poissons Ratio (z) = 0.25814 0.10929
#
# Static dielectric constant tensor:
#      x y z
#    x 3.663470 0.000000 -0.175490 
#    y 0.000000 3.718500 0.000000 
#    z -0.175490 0.000000 3.898300 
# 
# 
# High freq. dielectric constant tensor:
#      x y z
#    x 1.775180 0.000000 -0.013430 
#    y 0.000000 1.771360 0.000000 
#    z -0.013430 0.000000 1.804070 
# 
# From -- ./inp_files/5975.got.cif
#   From: 2010.03.12/outbox.cif.g09.slc.cpg/sg3_3_cif.got.tgz:5975.got - 2010.03.31 09:20:49.
