data_PCOD8045896
_publ_section_title
;
Structure prediction by ZEFSAII (Michael W. Deem and Ramdas Pophale) SiO2 
 PCOD8045896
Probable space group: P 21
;
_chemical_formula_sum "Si O2"
_cell_formula_units_Z 16
_cell_length_a 11.947312
_cell_length_b 9.182698
_cell_length_c 11.947188
_cell_angle_alpha 90.000000
_cell_angle_beta 39.492509
_cell_angle_gamma 90.000000
_cell_volume 833.581063
_symmetry_space_group_name_H-M "P 21"
_symmetry_group_IT_number 4
_symmetry_cell_setting 'monoclinic'
loop_
_space_group_symop_operation_xyz
x,y,z
-x,1/2+y,-z
loop_
_atom_site_type_symbol
_atom_site_label
_atom_site_fract_x
_atom_site_fract_y
_atom_site_fract_z
Si Si1 0.027985 0.339840 0.820504
Si Si2 0.209697 0.569529 0.021248
Si Si3 0.677665 0.826896 0.234521
Si Si4 0.888027 0.822914 0.494199
Si Si5 0.679491 0.485940 0.472022
Si Si6 0.478758 0.256254 0.290296
Si Si7 0.265473 0.998884 0.822338
Si Si8 0.005814 0.002863 0.611960
O O1 0.220994 0.339483 0.725919
O O2 0.048201 0.384562 0.675250
O O3 0.948194 0.177148 0.895294
O O4 0.907279 0.458318 0.974590
O O5 0.166605 0.502597 0.175870
O O6 0.225650 0.435928 0.924536
O O7 0.389450 0.662891 0.889457
O O8 0.474595 0.867464 0.407274
O O9 0.682906 0.662889 0.182903
O O10 0.675858 0.823187 0.666616
O O11 0.958717 0.662887 0.458741
O O12 0.973181 0.912889 0.526818
O O13 0.604708 0.648634 0.551808
O O14 0.774082 0.486298 0.279008
O O15 0.824741 0.441214 0.451807
O O16 0.575472 0.389852 0.274344
#
# Coordination Sequence:
#
# PCOD8045896 Si02
#       8
#     2   2   2   2   2   2   2   2
#     4  10  20  36  56  80 115 149 179 226 288 332
#     4   9  20  38  56  80 114 147 176 224 290 337
#     4  11  20  33  57  86 112 142 186 231 276 338
#     4  10  21  39  59  78 108 148 188 227 274 329
#     4  10  20  36  56  80 115 149 179 226 288 332
#     4   9  20  38  56  80 114 147 176 224 290 337
#     4  11  20  33  57  86 112 142 186 231 276 338
#     4  10  21  39  59  78 108 148 188 227 274 329
#
# _framework density 19.194296000000001
#
# number of rings (size 3 to 8) (size 9 to 14) (size 15 to 20)
#    0.000    2.000    0.000    5.250    0.000    2.000 
#    0.000   18.750    0.000    0.000    0.000    0.000 
#    0.000    0.000    0.000    0.000    0.000    0.000 
#
# Total GULP energy -198407.039791 kJ/mol
# GULP energy per Si atom -12400.439987 kJ/mol
# Density = 1.915061 g / cm^3
# Si number density = 19.194296 Si / 1000 Ang^3
#
#
#
# Elastic Constant Matrix: (Units=GPa)
#
#
# Indices 1 2 3 4 5 6 
#
# 1 142.9967 68.2996 87.8547 0.0000 4.3677 0.0000
# 2 68.2996 101.0904 53.6100 0.0000 6.1607 0.0000
# 3 87.8547 53.6100 127.1947 0.0000 2.2525 0.0000
# 4 0.0000 0.0000 0.0000 27.5725 0.0000 -0.3852
# 5 4.3677 6.1607 2.2525 0.0000 23.2477 0.0000
# 6 0.0000 0.0000 0.0000 -0.3852 0.0000 26.6526
#
#
#
# Elastic Compliance Matrix: (Units=1/GPa)
#
#
# Indices 1 2 3 4 5 6 
#
# 1 0.014320 -0.005674 -0.007491 0.000000 -0.000461 0.000000
# 2 -0.005674 0.015181 -0.002431 0.000000 -0.002721 0.000000
# 3 -0.007491 -0.002431 0.014049 0.000000 0.000690 0.000000
# 4 0.000000 0.000000 0.000000 0.036275 0.000000 0.000524
# 5 -0.000461 -0.002721 0.000690 0.000000 0.043756 0.000000
# 6 0.000000 0.000000 0.000000 0.000524 0.000000 0.037527
#
#
# Mechanical properties :
#
#
# Convention : Reuss Voigt Hill
#
# Bulk Modulus (GPa) = 80.92848 87.86782 84.39815
# Shear Modulus (GPa) = 25.45574 26.26238 25.85906
#
# Velocity S-wave (km/s) = 3.64567 3.70298 3.67444
# Velocity P-wave (km/s) = 7.74439 8.01001 7.87832
#
# Compressibility (1/GPa) = 0.01235659
#
# Stress axis : x y z
#
# Youngs Moduli (GPa) = 69.83324 65.87272 71.18147
#
# Poissons Ratio (x) = 0.37377 0.53323
# Poissons Ratio (y) = 0.39624 0.17304
# Poissons Ratio (z) = 0.52313 0.16014
#
# Static dielectric constant tensor:
#      x y z
#    x 3.334030 0.000000 -0.174990 
#    y 0.000000 3.531530 0.000000 
#    z -0.174990 0.000000 3.750950 
# 
# 
# High freq. dielectric constant tensor:
#      x y z
#    x 1.730990 0.000000 -0.012240 
#    y 0.000000 1.746950 0.000000 
#    z -0.012240 0.000000 1.760150 
# 
# From -- ./inp_files/7667.got.cif
#   From: 2010.03.12/outbox.cif.g09.slc.cpg/sg4_4_cif.got.tgz:7667.got - 2010.03.31 09:31:35.
