data_PCOD8045869
_publ_section_title
;
Structure prediction by ZEFSAII (Michael W. Deem and Ramdas Pophale) SiO2 
 PCOD8045869
Probable space group: P 21
;
_chemical_formula_sum "Si O2"
_cell_formula_units_Z 16
_cell_length_a 9.229884
_cell_length_b 8.998615
_cell_length_c 11.555688
_cell_angle_alpha 90.000000
_cell_angle_beta 121.657785
_cell_angle_gamma 90.000000
_cell_volume 816.955380
_symmetry_space_group_name_H-M "P 21"
_symmetry_group_IT_number 4
_symmetry_cell_setting 'monoclinic'
loop_
_space_group_symop_operation_xyz
x,y,z
-x,1/2+y,-z
loop_
_atom_site_type_symbol
_atom_site_label
_atom_site_fract_x
_atom_site_fract_y
_atom_site_fract_z
Si Si1 0.945981 0.721750 0.560648
Si Si2 0.594416 0.593011 0.446881
Si Si3 0.303159 0.468533 0.184828
Si Si4 0.472900 0.918502 0.351710
Si Si5 0.202820 0.476507 0.652116
Si Si6 0.147687 0.782006 0.124906
Si Si7 0.870663 0.950513 0.117330
Si Si8 0.959807 0.758028 0.822766
O O1 0.796751 0.596497 0.509271
O O2 0.904436 0.843471 0.448194
O O3 0.981494 0.806043 0.697887
O O4 0.113124 0.633810 0.589947
O O5 0.498180 0.495680 0.307234
O O6 0.536706 0.762655 0.426946
O O7 0.551748 0.529944 0.553772
O O8 0.195885 0.613644 0.176781
O O9 0.224682 0.320531 0.212584
O O10 0.287980 0.459514 0.039111
O O11 0.608591 0.987827 0.319769
O O12 0.297538 0.897866 0.211152
O O13 0.214640 0.444797 0.793541
O O14 0.982043 0.805119 0.136238
O O15 0.102108 0.818778 0.971444
O O16 0.013396 0.080129 0.162920
#
# Coordination Sequence:
#
# PCOD8045869 Si02
#       8
#     2   2   2   2   2   2   2   2
#     4  10  21  36  53  75 106 138 172 214 258 308
#     4  10  20  34  55  78 104 135 174 217 251 300
#     4   9  17  31  54  80 102 133 176 216 252 296
#     4  10  20  34  54  79 104 135 174 217 257 303
#     4  10  21  35  52  76 108 139 169 211 265 312
#     4   9  18  32  55  78 100 134 175 213 252 301
#     4   9  18  33  53  76 106 138 169 211 259 308
#     4   9  17  33  54  76 102 132 171 213 252 298
#
# _framework density 19.584911999999999
#
# number of rings (size 3 to 8) (size 9 to 14) (size 15 to 20)
#    0.000    2.500    0.000    3.000    0.000    4.000 
#    0.000    1.250    0.000   39.000    0.000    0.000 
#    0.000    0.000    0.000    0.000    0.000    0.000 
#
# Total GULP energy -198279.952231 kJ/mol
# GULP energy per Si atom -12392.497014 kJ/mol
# Density = 1.954034 g / cm^3
# Si number density = 19.584912 Si / 1000 Ang^3
#
#
#
# Elastic Constant Matrix: (Units=GPa)
#
#
# Indices 1 2 3 4 5 6 
#
# 1 61.9317 20.7889 40.5656 0.0000 -8.4390 0.0000
# 2 20.7889 31.3436 24.1421 0.0000 -13.9038 0.0000
# 3 40.5656 24.1421 119.5944 0.0000 -9.8291 0.0000
# 4 0.0000 0.0000 0.0000 26.0250 0.0000 -5.4399
# 5 -8.4390 -13.9038 -9.8291 0.0000 29.4801 0.0000
# 6 0.0000 0.0000 0.0000 -5.4399 0.0000 26.9353
#
#
#
# Elastic Compliance Matrix: (Units=1/GPa)
#
#
# Indices 1 2 3 4 5 6 
#
# 1 0.023719 -0.011551 -0.005761 0.000000 -0.000579 0.000000
# 2 -0.011551 0.052105 -0.004989 0.000000 0.019604 0.000000
# 3 -0.005761 -0.004989 0.011304 0.000000 -0.000233 0.000000
# 4 0.000000 0.000000 0.000000 0.040118 0.000000 0.008102
# 5 -0.000579 0.019604 -0.000233 0.000000 0.042924 0.000000
# 6 0.000000 0.000000 0.000000 0.008102 0.000000 0.038762
#
#
# Mechanical properties :
#
#
# Convention : Reuss Voigt Hill
#
# Bulk Modulus (GPa) = 23.51551 42.65144 33.08348
# Shear Modulus (GPa) = 18.67696 24.97960 21.82828
#
# Velocity S-wave (km/s) = 3.09146 3.57522 3.34210
# Velocity P-wave (km/s) = 4.97753 6.23441 5.64109
#
# Compressibility (1/GPa) = 0.04252513
#
# Stress axis : x y z
#
# Youngs Moduli (GPa) = 42.16042 19.19200 88.46708
#
# Poissons Ratio (x) = 0.22169 0.50967
# Poissons Ratio (y) = 0.48700 0.44136
# Poissons Ratio (z) = 0.24289 0.09575
#
# Static dielectric constant tensor:
#      x y z
#    x 3.344110 0.000000 0.146360 
#    y 0.000000 3.500520 0.000000 
#    z 0.146360 0.000000 3.984450 
# 
# 
# High freq. dielectric constant tensor:
#      x y z
#    x 1.731370 0.000000 0.004740 
#    y 0.000000 1.756170 0.000000 
#    z 0.004740 0.000000 1.785740 
# 
# From -- ./inp_files/7818.got.cif
#   From: 2010.03.12/outbox.cif.g09.slc.cpg/sg4_4_cif.got.tgz:7818.got - 2010.03.31 09:31:35.
