data_PCOD8045138
_publ_section_title
;
Structure prediction by ZEFSAII (Michael W. Deem and Ramdas Pophale) SiO2 
 PCOD8045138
Probable space group: P 2
;
_chemical_formula_sum "Si O2"
_cell_formula_units_Z 9
_cell_length_a 8.617044
_cell_length_b 8.502790
_cell_length_c 13.659228
_cell_angle_alpha 90.000000
_cell_angle_beta 150.393754
_cell_angle_gamma 90.000000
_cell_volume 494.430310
_symmetry_space_group_name_H-M "P 2"
_symmetry_group_IT_number 3
_symmetry_cell_setting 'monoclinic'
loop_
_space_group_symop_operation_xyz
x,y,z
-x,y,-z
loop_
_atom_site_type_symbol
_atom_site_label
_atom_site_fract_x
_atom_site_fract_y
_atom_site_fract_z
Si Si1 0.785444 0.774400 0.095145
Si Si2 0.325767 0.560400 0.138384
Si Si3 0.263642 0.560395 0.451011
Si Si4 0.792931 0.334480 0.292925
Si Si5 0.500000 0.075896 0.000000
O O1 0.111640 0.717660 0.321939
O O2 0.756821 0.964406 0.085608
O O3 0.500000 0.696187 0.000000
O O4 0.757475 0.717666 0.967769
O O5 0.558537 0.610379 0.352847
O O6 0.486703 0.431824 0.157256
O O7 0.000000 0.487387 0.000000
O O8 0.500000 0.487367 0.500000
O O9 0.998369 0.431820 0.327808
O O10 0.678987 0.176706 0.179004
O O11 0.000000 0.286821 0.500000
#
# Coordination Sequence:
#
# PCOD8045138 Si02
#       5
#     2   2   2   2   1
#     4  10  21  38  59  85 113 161 188 239 287 343
#     4  11  21  36  64  89 114 148 203 248 281 332
#     4  11  21  36  64  89 114 148 203 248 281 332
#     4  10  21  37  59  89 113 156 192 240 288 344
#     4  10  22  38  62  76 126 158 186 224 308 348
#
# _framework density 18.202767999999999
#
# number of rings (size 3 to 8) (size 9 to 14) (size 15 to 20)
#    0.667    0.889    4.444    1.333    0.000    1.778 
#    0.000    2.222    0.000    0.000    0.000    0.000 
#    0.000    0.000    0.000    0.000    0.000    0.000 
#
# Total GULP energy -111581.130441 kJ/mol
# GULP energy per Si atom -12397.903382 kJ/mol
# Density = 1.816134 g / cm^3
# Si number density = 18.202768 Si / 1000 Ang^3
#
#
#
# Elastic Constant Matrix: (Units=GPa)
#
#
# Indices 1 2 3 4 5 6 
#
# 1 122.5752 59.5144 52.4545 0.0000 12.1890 0.0000
# 2 59.5144 129.3621 69.8709 0.0000 -7.7265 0.0000
# 3 52.4545 69.8709 117.9532 0.0000 -8.7616 0.0000
# 4 0.0000 0.0000 0.0000 29.8129 0.0000 -9.6936
# 5 12.1890 -7.7265 -8.7616 0.0000 42.5235 0.0000
# 6 0.0000 0.0000 0.0000 -9.6936 0.0000 16.8163
#
#
#
# Elastic Compliance Matrix: (Units=1/GPa)
#
#
# Indices 1 2 3 4 5 6 
#
# 1 0.012017 -0.004025 -0.003321 0.000000 -0.004860 0.000000
# 2 -0.004025 0.012735 -0.005582 0.000000 0.002318 0.000000
# 3 -0.003321 -0.005582 0.013462 0.000000 0.002711 0.000000
# 4 0.000000 0.000000 0.000000 0.041279 0.000000 0.023795
# 5 -0.004860 0.002318 0.002711 0.000000 0.025889 0.000000
# 6 0.000000 0.000000 0.000000 0.023795 0.000000 0.073182
#
#
# Mechanical properties :
#
#
# Convention : Reuss Voigt Hill
#
# Bulk Modulus (GPa) = 80.90907 81.50779 81.20843
# Shear Modulus (GPa) = 23.97611 30.36726 27.17168
#
# Velocity S-wave (km/s) = 3.63322 4.08889 3.86777
# Velocity P-wave (km/s) = 7.88325 8.19554 8.04091
#
# Compressibility (1/GPa) = 0.01235955
#
# Stress axis : x y z
#
# Youngs Moduli (GPa) = 83.21551 78.52182 74.28102
#
# Poissons Ratio (x) = 0.31607 0.24666
# Poissons Ratio (y) = 0.33497 0.41461
# Poissons Ratio (z) = 0.27633 0.43828
#
# Static dielectric constant tensor:
#      x y z
#    x 3.551400 0.000000 0.053240 
#    y 0.000000 2.979670 0.000000 
#    z 0.053240 0.000000 3.479770 
# 
# 
# High freq. dielectric constant tensor:
#      x y z
#    x 1.715570 0.000000 -0.005400 
#    y 0.000000 1.668260 0.000000 
#    z -0.005400 0.000000 1.722800 
# 
# From -- ./inp_files/4930.got.cif
#   From: 2010.03.12/outbox.cif.g09.slc.cpg/sg3_3_cif.got.tgz:4930.got - 2010.03.31 09:20:49.
