data_PCOD8045939
_publ_section_title
;
Structure prediction by ZEFSAII (Michael W. Deem and Ramdas Pophale) SiO2 
 PCOD8045939
Probable space group: P 21
;
_chemical_formula_sum "Si O2"
_cell_formula_units_Z 16
_cell_length_a 8.408410
_cell_length_b 13.562081
_cell_length_c 9.667423
_cell_angle_alpha 90.000000
_cell_angle_beta 135.098846
_cell_angle_gamma 90.000000
_cell_volume 778.189567
_symmetry_space_group_name_H-M "P 21"
_symmetry_group_IT_number 4
_symmetry_cell_setting 'monoclinic'
loop_
_space_group_symop_operation_xyz
x,y,z
-x,1/2+y,-z
loop_
_atom_site_type_symbol
_atom_site_label
_atom_site_fract_x
_atom_site_fract_y
_atom_site_fract_z
Si Si1 0.386964 0.854600 0.291546
Si Si2 0.056308 0.560184 0.270792
Si Si3 0.503945 0.487104 0.415463
Si Si4 0.353950 0.184038 0.412635
Si Si5 0.433164 0.976867 0.056471
Si Si6 0.953331 0.735280 0.004087
Si Si7 0.527708 0.847138 0.856517
Si Si8 0.664790 0.152259 0.338481
O O1 0.577117 0.777710 0.455461
O O2 0.480530 0.922271 0.228516
O O3 0.158249 0.806621 0.100847
O O4 0.330551 0.922324 0.388003
O O5 0.259488 0.491075 0.340890
O O6 0.102477 0.608973 0.452344
O O7 0.036115 0.643308 0.142405
O O8 0.828239 0.496896 0.139750
O O9 0.629636 0.591759 0.473331
O O10 0.492544 0.436873 0.261129
O O11 0.511051 0.158127 0.379634
O O12 0.113073 0.202208 0.192899
O O13 0.566400 0.080764 0.157037
O O14 0.534482 0.901699 0.007035
O O15 0.758504 0.789092 0.970563
O O16 0.326441 0.764215 0.719394
#
# Coordination Sequence:
#
# PCOD8045939 Si02
#       8
#     2   2   2   2   2   2   2   2
#     4  12  21  39  68  94 122 169 217 261 306 380
#     4  11  20  42  69  89 124 175 213 261 321 376
#     4  11  20  41  67  92 123 163 223 259 305 379
#     4  10  20  37  63  94 123 158 217 268 300 368
#     4  12  25  40  66  95 132 169 208 264 329 383
#     4  11  20  41  68  91 126 171 212 262 323 370
#     4  11  24  42  64  97 133 166 211 263 325 385
#     4  10  20  44  61  88 133 167 205 264 327 367
#
# _framework density 20.560542000000002
#
# number of rings (size 3 to 8) (size 9 to 14) (size 15 to 20)
#    0.000    1.000   10.000    0.750    0.000    1.000 
#    4.500    1.250    0.000    0.000    0.000    0.000 
#    0.000    0.000    0.000    0.000    0.000    0.000 
#
# Total GULP energy -198285.561221 kJ/mol
# GULP energy per Si atom -12392.847576 kJ/mol
# Density = 2.051375 g / cm^3
# Si number density = 20.560542 Si / 1000 Ang^3
#
#
#
# Elastic Constant Matrix: (Units=GPa)
#
#
# Indices 1 2 3 4 5 6 
#
# 1 -113.5975 -60.6579 -101.1866 0.0000 88.0620 0.0000
# 2 -60.6579 83.2904 -19.0446 0.0000 45.2797 0.0000
# 3 -101.1866 -19.0446 16.9387 0.0000 86.7547 0.0000
# 4 0.0000 0.0000 0.0000 53.7726 0.0000 -1.7584
# 5 88.0620 45.2797 86.7547 0.0000 -34.9503 0.0000
# 6 0.0000 0.0000 0.0000 -1.7584 0.0000 15.2520
#
#
#
# Elastic Compliance Matrix: (Units=1/GPa)
#
#
# Indices 1 2 3 4 5 6 
#
# 1 0.020588 -0.001232 -0.009911 0.000000 0.025677 0.000000
# 2 -0.001232 0.009649 -0.003255 0.000000 0.001317 0.000000
# 3 -0.009911 -0.003255 0.010622 0.000000 -0.002821 0.000000
# 4 0.000000 0.000000 0.000000 0.018667 0.000000 0.002152
# 5 0.025677 0.001317 -0.002821 0.000000 0.030788 0.000000
# 6 0.000000 0.000000 0.000000 0.002152 0.000000 0.065813
#
#
# Mechanical properties :
#
#
# Convention : Reuss Voigt Hill
#
# Bulk Modulus (GPa) = 82.89191 -41.68293 20.60449
# Shear Modulus (GPa) = 26.46292 17.98289 22.22290
#
# Velocity S-wave (km/s) = 3.59147 2.96062 3.29120
# Velocity P-wave (km/s) = 7.58958 2.93772 4.94831
#
# Compressibility (1/GPa) = 0.01206390
#
# Stress axis : x y z
#
# Youngs Moduli (GPa) = 48.57316 103.63926 94.14115
#
# Poissons Ratio (x) = 0.12766 0.93299
# Poissons Ratio (y) = 0.05983 0.30644
# Poissons Ratio (z) = 0.48139 0.33736
#
# Static dielectric constant tensor:
#      x y z
#    x 3.269870 0.000000 0.127080 
#    y 0.000000 4.464360 0.000000 
#    z 0.127080 0.000000 4.238760 
# 
# 
# High freq. dielectric constant tensor:
#      x y z
#    x 1.740440 0.000000 0.002970 
#    y 0.000000 1.830080 0.000000 
#    z 0.002970 0.000000 1.825860 
# 
# From -- ./inp_files/6470.got.cif
#   From: 2010.03.12/outbox.cif.g09.slc.cpg/sg4_4_cif.got.tgz:6470.got - 2010.03.31 09:31:35.
