data_PCOD8045391
_publ_section_title
;
Structure prediction by ZEFSAII (Michael W. Deem and Ramdas Pophale) SiO2 
 PCOD8045391
Probable space group: P 2
;
_chemical_formula_sum "Si O2"
_cell_formula_units_Z 14
_cell_length_a 12.881568
_cell_length_b 7.165758
_cell_length_c 7.934006
_cell_angle_alpha 90.000000
_cell_angle_beta 125.545556
_cell_angle_gamma 90.000000
_cell_volume 595.885630
_symmetry_space_group_name_H-M "P 2"
_symmetry_group_IT_number 3
_symmetry_cell_setting 'monoclinic'
loop_
_space_group_symop_operation_xyz
x,y,z
-x,y,-z
loop_
_atom_site_type_symbol
_atom_site_label
_atom_site_fract_x
_atom_site_fract_y
_atom_site_fract_z
Si Si1 0.945885 0.886520 0.269850
Si Si2 0.491977 0.687069 0.792230
Si Si3 0.477155 0.092399 0.671625
Si Si4 0.287855 0.386556 0.612277
Si Si5 0.766979 0.547562 0.068951
Si Si6 0.752976 0.156105 0.962030
Si Si7 0.112109 0.159354 0.225208
O O1 0.879870 0.695758 0.144427
O O2 0.000000 0.836073 0.500000
O O3 0.062142 0.970910 0.270404
O O4 0.836781 0.044289 0.177601
O O5 0.384881 0.540249 0.627326
O O6 0.450143 0.873594 0.658152
O O7 0.500000 0.712764 0.000000
O O8 0.634229 0.628424 0.871608
O O9 0.500000 0.157491 0.500000
O O10 0.367551 0.193823 0.675965
O O11 0.609322 0.140161 0.891930
O O12 0.246545 0.463086 0.754633
O O13 0.159087 0.332304 0.387288
O O14 0.802269 0.368267 0.992783
O O15 0.773343 0.082061 0.788270
O O16 0.000000 0.238257 0.000000
#
# Coordination Sequence:
#
# PCOD8045391 Si02
#       7
#     2   2   2   2   2   2   2
#     4  11  25  47  72  99 139 190 246 294 349 421
#     4  10  24  40  68 111 142 179 234 297 362 421
#     4  12  24  41  73 105 148 190 227 299 372 430
#     4  11  24  44  70 111 142 183 243 296 366 427
#     4  11  24  43  73 105 140 186 240 302 354 427
#     4  11  23  45  72 101 145 189 236 294 366 425
#     4  10  24  46  70  99 141 195 240 283 356 431
#
# _framework density 23.494440999999998
#
# number of rings (size 3 to 8) (size 9 to 14) (size 15 to 20)
#    0.000    1.143    4.286    0.857    2.000    6.857 
#    0.000    9.286    0.000    0.000    0.000    0.000 
#    0.000    0.000    0.000    0.000    0.000    0.000 
#
# Total GULP energy -173456.933659 kJ/mol
# GULP energy per Si atom -12389.780976 kJ/mol
# Density = 2.344097 g / cm^3
# Si number density = 23.494441 Si / 1000 Ang^3
#
#
#
# Elastic Constant Matrix: (Units=GPa)
#
#
# Indices 1 2 3 4 5 6 
#
# 1 80.5720 39.8926 40.8970 0.0000 9.8085 0.0000
# 2 39.8926 167.1569 42.0010 0.0000 13.9803 0.0000
# 3 40.8970 42.0010 56.6762 0.0000 13.2497 0.0000
# 4 0.0000 0.0000 0.0000 43.2866 0.0000 14.8079
# 5 9.8085 13.9803 13.2497 0.0000 24.6332 0.0000
# 6 0.0000 0.0000 0.0000 14.8079 0.0000 45.0036
#
#
#
# Elastic Compliance Matrix: (Units=1/GPa)
#
#
# Indices 1 2 3 4 5 6 
#
# 1 0.019847 -0.001400 -0.013294 0.000000 0.000042 0.000000
# 2 -0.001400 0.007494 -0.004209 0.000000 -0.001432 0.000000
# 3 -0.013294 -0.004209 0.032668 0.000000 -0.009889 0.000000
# 4 0.000000 0.000000 0.000000 0.026032 0.000000 -0.008566
# 5 0.000042 -0.001432 -0.009889 0.000000 0.046711 0.000000
# 6 0.000000 0.000000 0.000000 -0.008566 0.000000 0.025039
#
#
# Mechanical properties :
#
#
# Convention : Reuss Voigt Hill
#
# Bulk Modulus (GPa) = 45.03742 61.10961 53.07351
# Shear Modulus (GPa) = 24.63111 34.69231 29.66171
#
# Velocity S-wave (km/s) = 3.24138 3.84685 3.55702
# Velocity P-wave (km/s) = 5.76366 6.76740 6.28560
#
# Compressibility (1/GPa) = 0.02220376
#
# Stress axis : x y z
#
# Youngs Moduli (GPa) = 50.38564 133.44565 30.61141
#
# Poissons Ratio (x) = 0.18679 0.40695
# Poissons Ratio (y) = 0.07053 0.12883
# Poissons Ratio (z) = 0.66982 0.56161
#
# Static dielectric constant tensor:
#      x y z
#    x 4.472240 0.000000 0.274150 
#    y 0.000000 4.252130 0.000000 
#    z 0.274150 0.000000 4.231130 
# 
# 
# High freq. dielectric constant tensor:
#      x y z
#    x 1.931690 0.000000 0.015850 
#    y 0.000000 1.927700 0.000000 
#    z 0.015850 0.000000 1.927410 
# 
# From -- ./inp_files/8368.got.cif
#   From: 2010.03.12/outbox.cif.g09.slc.cpg/sg3_5_cif.got.tgz:8368.got - 2010.03.31 09:20:49.
