data_PCOD8045054
_publ_section_title
;
Structure prediction by ZEFSAII (Michael W. Deem and Ramdas Pophale) SiO2 
 PCOD8045054
Probable space group: P 2
;
_chemical_formula_sum "Si O2"
_cell_formula_units_Z 15
_cell_length_a 11.765986
_cell_length_b 6.330885
_cell_length_c 11.131356
_cell_angle_alpha 90.000000
_cell_angle_beta 55.976933
_cell_angle_gamma 90.000000
_cell_volume 687.221997
_symmetry_space_group_name_H-M "P 2"
_symmetry_group_IT_number 3
_symmetry_cell_setting 'monoclinic'
loop_
_space_group_symop_operation_xyz
x,y,z
-x,y,-z
loop_
_atom_site_type_symbol
_atom_site_label
_atom_site_fract_x
_atom_site_fract_y
_atom_site_fract_z
Si Si1 0.876367 0.548350 0.881287
Si Si2 0.795643 0.864108 0.717119
Si Si3 0.697978 0.261800 0.131064
Si Si4 0.000000 0.179770 0.500000
Si Si5 0.775533 0.488235 0.567971
Si Si6 0.811793 0.523753 0.287917
Si Si7 0.425390 0.217076 0.167216
Si Si8 0.855153 0.873313 0.097172
O O1 0.817938 0.705505 0.814708
O O2 0.030483 0.460101 0.770856
O O3 0.769795 0.355357 0.967444
O O4 0.876192 0.665507 0.006904
O O5 0.810638 0.726922 0.586740
O O6 0.648643 0.987544 0.804009
O O7 0.915442 0.038423 0.644966
O O8 0.740104 0.378758 0.229369
O O9 0.536046 0.235801 0.208991
O O10 0.736980 0.018103 0.118033
O O11 0.095422 0.333127 0.520531
O O12 0.720153 0.500896 0.463550
O O13 0.679377 0.397941 0.730013
O O14 0.815183 0.773637 0.250308
O O15 0.500000 0.279051 0.000000
O O16 0.000000 0.000541 0.000000
#
# Coordination Sequence:
#
# PCOD8045054 Si02
#       8
#     2   2   2   1   2   2   2   2
#     4  10  20  37  64  97 126 163 214 269 329 382
#     4  11  23  40  65  93 127 168 216 275 333 394
#     4  11  22  40  63  91 130 172 214 264 320 386
#     4  10  22  40  64  98 126 162 216 274 336 392
#     4  11  24  42  63  91 129 169 213 270 335 393
#     4  10  22  38  62  95 126 163 211 267 333 395
#     4  11  26  43  62  91 123 171 227 268 322 393
#     4   9  19  35  59  92 124 160 209 266 327 384
#
# _framework density 21.827010000000001
#
# number of rings (size 3 to 8) (size 9 to 14) (size 15 to 20)
#    0.000    1.600    0.000    5.600    0.000   11.733 
#    0.000    0.000    0.000    0.000    0.000    0.000 
#    0.000    0.000    0.000    0.000    0.000    0.000 
#
# Total GULP energy -185829.144155 kJ/mol
# GULP energy per Si atom -12388.609610 kJ/mol
# Density = 2.177733 g / cm^3
# Si number density = 21.827010 Si / 1000 Ang^3
#
#
#
# Elastic Constant Matrix: (Units=GPa)
#
#
# Indices 1 2 3 4 5 6 
#
# 1 122.0937 42.3996 41.2717 0.0000 -4.0075 0.0000
# 2 42.3996 88.5851 50.5874 0.0000 -3.8789 0.0000
# 3 41.2717 50.5874 126.6712 0.0000 16.2320 0.0000
# 4 0.0000 0.0000 0.0000 6.4009 0.0000 11.9410
# 5 -4.0075 -3.8789 16.2320 0.0000 31.4292 0.0000
# 6 0.0000 0.0000 0.0000 11.9410 0.0000 39.0305
#
#
#
# Elastic Compliance Matrix: (Units=1/GPa)
#
#
# Indices 1 2 3 4 5 6 
#
# 1 0.010226 -0.003576 -0.002157 0.000000 0.001977 0.000000
# 2 -0.003576 0.016701 -0.006115 0.000000 0.004763 0.000000
# 3 -0.002157 -0.006115 0.011963 0.000000 -0.007208 0.000000
# 4 0.000000 0.000000 0.000000 0.363938 0.000000 -0.111343
# 5 0.001977 0.004763 -0.007208 0.000000 0.036380 0.000000
# 6 0.000000 0.000000 0.000000 -0.111343 0.000000 0.059685
#
#
# Mechanical properties :
#
#
# Convention : Reuss Voigt Hill
#
# Bulk Modulus (GPa) = 65.81583 67.31857 66.56720
# Shear Modulus (GPa) = 9.47590 28.91156 19.19373
#
# Velocity S-wave (km/s) = 2.08585 3.64342 2.96861
# Velocity P-wave (km/s) = 6.00166 6.97196 6.50492
#
# Compressibility (1/GPa) = 0.01519391
#
# Stress axis : x y z
#
# Youngs Moduli (GPa) = 97.78611 59.87742 83.59192
#
# Poissons Ratio (x) = 0.21414 0.18030
# Poissons Ratio (y) = 0.34972 0.51114
# Poissons Ratio (z) = 0.21092 0.36614
#
# Static dielectric constant tensor:
#      x y z
#    x 4.073590 0.000000 -0.165400 
#    y 0.000000 3.947930 0.000000 
#    z -0.165400 0.000000 4.032450 
# 
# 
# High freq. dielectric constant tensor:
#      x y z
#    x 1.853450 0.000000 0.009780 
#    y 0.000000 1.859540 0.000000 
#    z 0.009780 0.000000 1.855250 
# 
# From -- ./inp_files/11271.got.cif
#   From: 2010.03.12/outbox.cif.g09.slc.cpg/sg3_6_cif.got.tgz:11271.got - 2010.03.31 09:20:49.
