data_PCOD8045945
_publ_section_title
;
Structure prediction by ZEFSAII (Michael W. Deem and Ramdas Pophale) SiO2 
 PCOD8045945
Probable space group: P 21
;
_chemical_formula_sum "Si O2"
_cell_formula_units_Z 16
_cell_length_a 20.247027
_cell_length_b 8.513194
_cell_length_c 10.211441
_cell_angle_alpha 90.000000
_cell_angle_beta 26.390098
_cell_angle_gamma 90.000000
_cell_volume 782.336177
_symmetry_space_group_name_H-M "P 21"
_symmetry_group_IT_number 4
_symmetry_cell_setting 'monoclinic'
loop_
_space_group_symop_operation_xyz
x,y,z
-x,1/2+y,-z
loop_
_atom_site_type_symbol
_atom_site_label
_atom_site_fract_x
_atom_site_fract_y
_atom_site_fract_z
Si Si1 0.782128 0.863810 0.614941
Si Si2 0.855856 0.354561 0.637042
Si Si3 0.057509 0.677984 0.757816
Si Si4 0.521073 0.218768 0.841544
Si Si5 0.554312 0.361015 0.050950
Si Si6 0.187060 0.642185 0.794045
Si Si7 0.994975 0.179214 0.623079
Si Si8 0.229520 0.286200 0.651132
O O1 0.792843 0.758168 0.465019
O O2 0.876826 0.801748 0.567935
O O3 0.842343 0.036817 0.475922
O O4 0.607381 0.847143 0.966096
O O5 0.916485 0.323474 0.384200
O O6 0.906600 0.225182 0.650435
O O7 0.922632 0.519861 0.561036
O O8 0.676788 0.350861 0.947694
O O9 0.099206 0.728073 0.831813
O O10 0.874969 0.658088 0.087518
O O11 0.645111 0.211838 0.506908
O O12 0.461348 0.041884 0.963711
O O13 0.600625 0.265924 0.837503
O O14 0.404416 0.279396 0.375058
O O15 0.173866 0.458555 0.788596
O O16 0.121033 0.676937 0.052446
#
# Coordination Sequence:
#
# PCOD8045945 Si02
#       8
#     2   2   2   2   2   2   2   2
#     4  10  21  37  64  97 133 171 217 272 344 396
#     4  12  25  42  65  91 137 180 227 270 345 408
#     4  11  20  39  65 100 129 167 224 284 330 406
#     4  10  20  39  66  98 133 170 221 281 343 402
#     4  10  21  39  65  97 134 173 218 282 347 393
#     4  10  20  37  66  96 126 168 224 276 337 387
#     4  12  24  43  62  92 130 184 222 278 331 410
#     4   9  19  36  65  97 126 165 217 283 331 396
#
# _framework density 20.451564999999999
#
# number of rings (size 3 to 8) (size 9 to 14) (size 15 to 20)
#    0.000    1.500    5.000    1.500    0.000    0.000 
#    4.500    1.250    5.500    0.000    0.000    0.000 
#    0.000    0.000    0.000    0.000    0.000    0.000 
#
# Total GULP energy -198249.698821 kJ/mol
# GULP energy per Si atom -12390.606176 kJ/mol
# Density = 2.040502 g / cm^3
# Si number density = 20.451565 Si / 1000 Ang^3
#
#
#
# Elastic Constant Matrix: (Units=GPa)
#
#
# Indices 1 2 3 4 5 6 
#
# 1 116.3307 30.6768 43.4171 0.0000 -22.6283 0.0000
# 2 30.6768 49.8680 28.4460 0.0000 -20.0396 0.0000
# 3 43.4171 28.4460 123.6382 0.0000 -22.2736 0.0000
# 4 0.0000 0.0000 0.0000 34.6864 0.0000 -6.2531
# 5 -22.6283 -20.0396 -22.2736 0.0000 28.2543 0.0000
# 6 0.0000 0.0000 0.0000 -6.2531 0.0000 30.5363
#
#
#
# Elastic Compliance Matrix: (Units=1/GPa)
#
#
# Indices 1 2 3 4 5 6 
#
# 1 0.011349 -0.003848 -0.002278 0.000000 0.004564 0.000000
# 2 -0.003848 0.030590 -0.002720 0.000000 0.016471 0.000000
# 3 -0.002278 -0.002720 0.010300 0.000000 0.004367 0.000000
# 4 0.000000 0.000000 0.000000 0.029935 0.000000 0.006130
# 5 0.004564 0.016471 0.004367 0.000000 0.054173 0.000000
# 6 0.000000 0.000000 0.000000 0.006130 0.000000 0.034003
#
#
# Mechanical properties :
#
#
# Convention : Reuss Voigt Hill
#
# Bulk Modulus (GPa) = 28.94431 54.99075 41.96753
# Shear Modulus (GPa) = 25.05547 31.18186 28.11866
#
# Velocity S-wave (km/s) = 3.50396 3.90894 3.71197
# Velocity P-wave (km/s) = 5.52753 6.87893 6.23993
#
# Compressibility (1/GPa) = 0.03454911
#
# Stress axis : x y z
#
# Youngs Moduli (GPa) = 88.11496 32.69019 97.08371
#
# Poissons Ratio (x) = 0.12579 0.22113
# Poissons Ratio (y) = 0.33906 0.26402
# Poissons Ratio (z) = 0.20070 0.08890
#
# Static dielectric constant tensor:
#      x y z
#    x 3.554630 0.000000 -0.243390 
#    y 0.000000 3.552190 0.000000 
#    z -0.243390 0.000000 3.942940 
# 
# 
# High freq. dielectric constant tensor:
#      x y z
#    x 1.772840 0.000000 -0.021660 
#    y 0.000000 1.788840 0.000000 
#    z -0.021660 0.000000 1.809650 
# 
# From -- ./inp_files/5432.got.cif
#   From: 2010.03.12/outbox.cif.g09.slc.cpg/sg4_3_cif.got.tgz:5432.got - 2010.03.31 09:31:35.
