data_PCOD8045975
_publ_section_title
;
Structure prediction by ZEFSAII (Michael W. Deem and Ramdas Pophale) SiO2 
 PCOD8045975
Probable space group: P 21
;
_chemical_formula_sum "Si O2"
_cell_formula_units_Z 16
_cell_length_a 9.630300
_cell_length_b 14.968788
_cell_length_c 9.630275
_cell_angle_alpha 90.000000
_cell_angle_beta 149.548361
_cell_angle_gamma 90.000000
_cell_volume 703.576141
_symmetry_space_group_name_H-M "P 21"
_symmetry_group_IT_number 4
_symmetry_cell_setting 'monoclinic'
loop_
_space_group_symop_operation_xyz
x,y,z
-x,1/2+y,-z
loop_
_atom_site_type_symbol
_atom_site_label
_atom_site_fract_x
_atom_site_fract_y
_atom_site_fract_z
Si Si1 0.386791 0.226810 0.630619
Si Si2 0.478498 0.888595 0.928098
Si Si3 0.554361 0.094343 0.549536
Si Si4 0.055381 0.891654 0.354513
Si Si5 0.950532 0.478290 0.945691
Si Si6 0.130472 0.845891 0.886592
Si Si7 0.428293 0.184013 0.978614
Si Si8 0.145293 0.680906 0.444501
O O1 0.374152 0.154950 0.497499
O O2 0.109765 0.286347 0.390418
O O3 0.419365 0.175311 0.804898
O O4 0.657989 0.286354 0.842209
O O5 0.546951 0.786298 0.952923
O O6 0.310016 0.935233 0.657238
O O7 0.304761 0.897345 0.919137
O O8 0.781275 0.931822 0.192673
O O9 0.696977 0.156324 0.558746
O O10 0.339176 0.028586 0.290321
O O11 0.790264 0.044048 0.839239
O O12 0.093331 0.786284 0.406540
O O13 0.058593 0.916193 0.196730
O O14 0.002589 0.417793 0.126043
O O15 0.692859 0.140771 0.281365
O O16 0.157446 0.137345 0.810098
#
# Coordination Sequence:
#
# PCOD8045975 Si02
#       8
#     2   2   2   2   2   2   2   2
#     4  11  22  41  66  91 118 158 204 251 302 360
#     4   9  18  35  62  92 115 143 200 259 296 343
#     4  12  26  42  58  89 130 165 200 247 300 360
#     4  10  20  38  63  88 116 156 202 247 295 355
#     4  12  26  42  58  89 130 165 200 247 300 360
#     4  11  22  41  66  91 118 158 204 251 302 360
#     4   9  18  35  62  92 115 143 200 259 296 343
#     4  10  20  38  63  88 116 156 202 247 295 355
#
# _framework density 22.740964999999999
#
# number of rings (size 3 to 8) (size 9 to 14) (size 15 to 20)
#    0.000    1.500    0.000    7.500    0.000    3.000 
#    0.000    7.500    0.000    0.000    0.000    0.000 
#    0.000    0.000    0.000    0.000    0.000    0.000 
#
# Total GULP energy -198321.931059 kJ/mol
# GULP energy per Si atom -12395.120691 kJ/mol
# Density = 2.268921 g / cm^3
# Si number density = 22.740965 Si / 1000 Ang^3
#
#
#
# Elastic Constant Matrix: (Units=GPa)
#
#
# Indices 1 2 3 4 5 6 
#
# 1 151.7522 31.6023 57.1001 0.0000 -3.9708 0.0000
# 2 31.6023 30.5867 34.3775 0.0000 0.8001 0.0000
# 3 57.1001 34.3775 138.4821 0.0000 0.1310 0.0000
# 4 0.0000 0.0000 0.0000 23.9412 0.0000 6.1255
# 5 -3.9708 0.8001 0.1310 0.0000 41.6446 0.0000
# 6 0.0000 0.0000 0.0000 6.1255 0.0000 2.6506
#
#
#
# Elastic Compliance Matrix: (Units=1/GPa)
#
#
# Indices 1 2 3 4 5 6 
#
# 1 0.008778 -0.006971 -0.001890 0.000000 0.000977 0.000000
# 2 -0.006971 0.050911 -0.009763 0.000000 -0.001612 0.000000
# 3 -0.001890 -0.009763 0.010424 0.000000 -0.000025 0.000000
# 4 0.000000 0.000000 0.000000 0.102194 0.000000 -0.236168
# 5 0.000977 -0.001612 -0.000025 0.000000 0.024137 0.000000
# 6 0.000000 0.000000 0.000000 -0.236168 0.000000 0.923060
#
#
# Mechanical properties :
#
#
# Convention : Reuss Voigt Hill
#
# Bulk Modulus (GPa) = 30.42641 62.99788 46.71214
# Shear Modulus (GPa) = 4.28190 26.83002 15.55596
#
# Velocity S-wave (km/s) = 1.37368 3.43856 2.61827
# Velocity P-wave (km/s) = 3.99056 6.59753 5.45216
#
# Compressibility (1/GPa) = 0.03286618
#
# Stress axis : x y z
#
# Youngs Moduli (GPa) = 113.92041 19.64213 95.93324
#
# Poissons Ratio (x) = 0.13693 0.18130
# Poissons Ratio (y) = 0.79414 0.93655
# Poissons Ratio (z) = 0.21529 0.19176
#
# Static dielectric constant tensor:
#      x y z
#    x 3.908340 0.000000 0.244510 
#    y 0.000000 3.698040 0.000000 
#    z 0.244510 0.000000 4.754940 
# 
# 
# High freq. dielectric constant tensor:
#      x y z
#    x 1.899920 0.000000 0.007670 
#    y 0.000000 1.856850 0.000000 
#    z 0.007670 0.000000 1.926450 
# 
# From -- ./inp_files/6906.got.cif
#   From: 2010.03.12/outbox.cif.g09.slc.cpg/sg4_4_cif.got.tgz:6906.got - 2010.03.31 09:31:35.
