data_PCOD8045472
_publ_section_title
;
Structure prediction by ZEFSAII (Michael W. Deem and Ramdas Pophale) SiO2 
 PCOD8045472
Probable space group: P 2
;
_chemical_formula_sum "Si O2"
_cell_formula_units_Z 13
_cell_length_a 12.079802
_cell_length_b 9.881381
_cell_length_c 9.220663
_cell_angle_alpha 90.000000
_cell_angle_beta 38.138948
_cell_angle_gamma 90.000000
_cell_volume 679.714087
_symmetry_space_group_name_H-M "P 2"
_symmetry_group_IT_number 3
_symmetry_cell_setting 'monoclinic'
loop_
_space_group_symop_operation_xyz
x,y,z
-x,y,-z
loop_
_atom_site_type_symbol
_atom_site_label
_atom_site_fract_x
_atom_site_fract_y
_atom_site_fract_z
Si Si1 0.847601 0.253640 0.272878
Si Si2 0.972851 0.028319 0.360080
Si Si3 0.500000 0.706000 0.500000
Si Si4 0.355798 0.929383 0.863163
Si Si5 0.854289 0.745499 0.526703
Si Si6 0.500000 0.140512 0.500000
Si Si7 0.500000 0.810180 0.000000
Si Si8 0.843161 0.561740 0.275834
O O1 0.882281 0.154873 0.372801
O O2 0.663444 0.233071 0.378221
O O3 0.840020 0.407691 0.334667
O O4 0.000000 0.226033 0.000000
O O5 0.000000 0.071541 0.500000
O O6 0.837031 0.901559 0.491855
O O7 0.148903 0.971792 0.096192
O O8 0.388616 0.795805 0.730738
O O9 0.647547 0.610752 0.424470
O O10 0.456235 0.052752 0.685643
O O11 0.436593 0.908288 0.937750
O O12 0.910256 0.648398 0.341314
O O13 0.000000 0.731170 0.500000
O O14 0.658627 0.708397 0.789629
O O15 0.000000 0.582899 0.000000
#
# Coordination Sequence:
#
# PCOD8045472 Si02
#       8
#     2   2   1   2   2   1   1   2
#     4  11  24  43  62  89 130 165 212 254 308 377
#     4  11  22  40  65  95 125 159 205 264 307 369
#     4  11  23  42  64  98 126 158 216 262 306 374
#     4  11  22  37  67  97 121 160 206 263 316 355
#     4  11  23  39  64  93 125 160 205 257 314 368
#     4  11  23  40  64  92 122 166 204 262 314 368
#     4  12  20  40  60  96 126 156 200 258 316 366
#     4  11  25  41  65  90 125 172 206 257 309 373
#
# _framework density 19.125689999999999
#
# number of rings (size 3 to 8) (size 9 to 14) (size 15 to 20)
#    0.000    0.923    6.154    2.308    2.154    1.231 
#    0.000    0.000    3.385    0.000    0.000    0.000 
#    0.000    0.000    0.000    0.000    0.000    0.000 
#
# Total GULP energy -161175.134396 kJ/mol
# GULP energy per Si atom -12398.087261 kJ/mol
# Density = 1.908216 g / cm^3
# Si number density = 19.125690 Si / 1000 Ang^3
#
#
#
# Elastic Constant Matrix: (Units=GPa)
#
#
# Indices 1 2 3 4 5 6 
#
# 1 106.7377 76.6379 46.7435 0.0000 0.6561 0.0000
# 2 76.6379 131.1624 50.7111 0.0000 14.1006 0.0000
# 3 46.7435 50.7111 100.9712 0.0000 -8.6053 0.0000
# 4 0.0000 0.0000 0.0000 32.6067 0.0000 -7.0150
# 5 0.6561 14.1006 -8.6053 0.0000 40.7692 0.0000
# 6 0.0000 0.0000 0.0000 -7.0150 0.0000 27.2415
#
#
#
# Elastic Compliance Matrix: (Units=1/GPa)
#
#
# Indices 1 2 3 4 5 6 
#
# 1 0.017308 -0.009084 -0.003265 0.000000 0.002174 0.000000
# 2 -0.009084 0.015055 -0.003856 0.000000 -0.005875 0.000000
# 3 -0.003265 -0.003856 0.013717 0.000000 0.004281 0.000000
# 4 0.000000 0.000000 0.000000 0.032467 0.000000 0.008361
# 5 0.002174 -0.005875 0.004281 0.000000 0.027429 0.000000
# 6 0.000000 0.000000 0.000000 0.008361 0.000000 0.038862
#
#
# Mechanical properties :
#
#
# Convention : Reuss Voigt Hill
#
# Bulk Modulus (GPa) = 73.15936 76.33959 74.74948
# Shear Modulus (GPa) = 27.50232 31.10873 29.30553
#
# Velocity S-wave (km/s) = 3.79618 4.03742 3.91866
# Velocity P-wave (km/s) = 7.58614 7.85720 7.72286
#
# Compressibility (1/GPa) = 0.01366879
#
# Stress axis : x y z
#
# Youngs Moduli (GPa) = 57.77783 66.42528 72.90418
#
# Poissons Ratio (x) = 0.60343 0.23800
# Poissons Ratio (y) = 0.52488 0.28112
# Poissons Ratio (z) = 0.18862 0.25614
#
# Static dielectric constant tensor:
#      x y z
#    x 3.456540 0.000000 -0.048330 
#    y 0.000000 3.454090 0.000000 
#    z -0.048330 0.000000 3.708280 
# 
# 
# High freq. dielectric constant tensor:
#      x y z
#    x 1.752700 0.000000 -0.005190 
#    y 0.000000 1.728790 0.000000 
#    z -0.005190 0.000000 1.764860 
# 
# From -- ./inp_files/5376.got.cif
#   From: 2010.03.12/outbox.cif.g09.slc.cpg/sg3_3_cif.got.tgz:5376.got - 2010.03.31 09:20:49.
