data_PCOD8045390
_publ_section_title
;
Structure prediction by ZEFSAII (Michael W. Deem and Ramdas Pophale) SiO2 
 PCOD8045390
Probable space group: P 2
;
_chemical_formula_sum "Si O2"
_cell_formula_units_Z 14
_cell_length_a 14.194265
_cell_length_b 5.225732
_cell_length_c 20.866588
_cell_angle_alpha 90.000000
_cell_angle_beta 158.342154
_cell_angle_gamma 90.000000
_cell_volume 571.231402
_symmetry_space_group_name_H-M "P 2"
_symmetry_group_IT_number 3
_symmetry_cell_setting 'monoclinic'
loop_
_space_group_symop_operation_xyz
x,y,z
-x,y,-z
loop_
_atom_site_type_symbol
_atom_site_label
_atom_site_fract_x
_atom_site_fract_y
_atom_site_fract_z
Si Si1 0.968874 0.592210 0.204313
Si Si2 0.768039 0.700708 0.208356
Si Si3 0.749986 0.928860 0.767534
Si Si4 0.044189 0.217815 0.603929
Si Si5 0.470389 0.191672 0.259480
Si Si6 0.000000 0.533790 0.000000
Si Si7 0.500000 0.678125 0.500000
Si Si8 0.168760 0.114247 0.953115
O O1 0.975135 0.639584 0.284235
O O2 0.803428 0.344265 0.080355
O O3 0.251797 0.512227 0.359299
O O4 0.863260 0.847490 0.103790
O O5 0.780623 0.464032 0.266973
O O6 0.827585 0.962848 0.284265
O O7 0.500000 0.717250 0.000000
O O8 0.952706 0.700864 0.906075
O O9 0.534681 0.869245 0.580636
O O10 0.599117 0.957287 0.738370
O O11 0.932968 0.158094 0.855472
O O12 0.000000 0.187210 0.500000
O O13 0.762974 0.269284 0.455992
O O14 0.431015 0.114520 0.159859
O O15 0.267014 0.397623 0.154930
#
# Coordination Sequence:
#
# PCOD8045390 Si02
#       8
#     2   2   2   2   2   1   1   2
#     4  11  26  42  72 105 144 196 246 300 392 446
#     4  12  29  56  82 109 158 203 263 332 409 462
#     4  11  23  42  64 106 151 200 244 298 387 448
#     4  12  31  52  83 119 151 207 270 338 386 466
#     4  12  25  41  77 103 159 194 260 312 395 447
#     4  12  22  44  68 108 152 208 240 310 392 472
#     4  10  24  40  64  98 148 174 244 300 354 466
#     4  11  23  42  68 108 144 194 240 303 362 478
#
# _framework density 24.508457
#
# number of rings (size 3 to 8) (size 9 to 14) (size 15 to 20)
#    0.000    0.571    2.857    4.286    8.000    3.429 
#    0.000    0.000    0.000    0.000    0.000    0.000 
#    0.000    0.000    0.000    0.000    0.000    0.000 
#
# Total GULP energy -173465.749050 kJ/mol
# GULP energy per Si atom -12390.410646 kJ/mol
# Density = 2.445267 g / cm^3
# Si number density = 24.508457 Si / 1000 Ang^3
#
#
#
# Elastic Constant Matrix: (Units=GPa)
#
#
# Indices 1 2 3 4 5 6 
#
# 1 91.0866 49.0555 41.0124 0.0000 -26.7214 0.0000
# 2 49.0555 151.0755 62.8640 0.0000 -18.0783 0.0000
# 3 41.0124 62.8640 146.9601 0.0000 -19.5616 0.0000
# 4 0.0000 0.0000 0.0000 40.4966 0.0000 -24.8937
# 5 -26.7214 -18.0783 -19.5616 0.0000 51.2600 0.0000
# 6 0.0000 0.0000 0.0000 -24.8937 0.0000 37.2565
#
#
#
# Elastic Compliance Matrix: (Units=1/GPa)
#
#
# Indices 1 2 3 4 5 6 
#
# 1 0.015560 -0.003471 -0.002045 0.000000 0.006107 0.000000
# 2 -0.003471 0.008954 -0.002826 0.000000 0.000270 0.000000
# 3 -0.002045 -0.002826 0.008754 0.000000 0.001278 0.000000
# 4 0.000000 0.000000 0.000000 0.041905 0.000000 0.028000
# 5 0.006107 0.000270 0.001278 0.000000 0.023275 0.000000
# 6 0.000000 0.000000 0.000000 0.028000 0.000000 0.045550
#
#
# Mechanical properties :
#
#
# Convention : Reuss Voigt Hill
#
# Bulk Modulus (GPa) = 60.29273 77.22066 68.75669
# Shear Modulus (GPa) = 30.08241 41.54864 35.81553
#
# Velocity S-wave (km/s) = 3.50727 4.12184 3.82691
# Velocity P-wave (km/s) = 6.40745 7.36403 6.90233
#
# Compressibility (1/GPa) = 0.01658575
#
# Stress axis : x y z
#
# Youngs Moduli (GPa) = 64.26726 111.67702 114.23226
#
# Poissons Ratio (x) = 0.38761 0.23358
# Poissons Ratio (y) = 0.22306 0.32279
# Poissons Ratio (z) = 0.13141 0.31557
#
# Static dielectric constant tensor:
#      x y z
#    x 4.495230 0.000000 -0.457320 
#    y 0.000000 4.253290 0.000000 
#    z -0.457320 0.000000 4.637080 
# 
# 
# High freq. dielectric constant tensor:
#      x y z
#    x 1.982380 0.000000 -0.017690 
#    y 0.000000 1.966430 0.000000 
#    z -0.017690 0.000000 1.986420 
# 
# From -- ./inp_files/16048.got.cif
#   From: 2010.03.12/outbox.cif.g09.slc.cpg/sg3_9_cif.got.tgz:16048.got - 2010.03.31 09:20:49.
