data_PCOD8045742
_publ_section_title
;
Structure prediction by ZEFSAII (Michael W. Deem and Ramdas Pophale) SiO2 
 PCOD8045742
Probable space group: P 21
;
_chemical_formula_sum "Si O2"
_cell_formula_units_Z 16
_cell_length_a 9.623118
_cell_length_b 7.718287
_cell_length_c 21.971564
_cell_angle_alpha 90.000000
_cell_angle_beta 152.435932
_cell_angle_gamma 90.000000
_cell_volume 755.152937
_symmetry_space_group_name_H-M "P 21"
_symmetry_group_IT_number 4
_symmetry_cell_setting 'monoclinic'
loop_
_space_group_symop_operation_xyz
x,y,z
-x,1/2+y,-z
loop_
_atom_site_type_symbol
_atom_site_label
_atom_site_fract_x
_atom_site_fract_y
_atom_site_fract_z
Si Si1 0.508240 0.812050 0.852003
Si Si2 0.357897 0.937134 0.140196
Si Si3 0.064081 0.797847 0.141905
Si Si4 0.622581 0.459552 0.627163
Si Si5 0.355218 0.683528 0.621653
Si Si6 0.832550 0.708564 0.609324
Si Si7 0.034456 0.457728 0.593988
Si Si8 0.801930 0.921063 0.853256
O O1 0.646896 0.639519 0.876603
O O2 0.577563 0.952760 0.824910
O O3 0.157514 0.803433 0.733652
O O4 0.712080 0.841206 0.991777
O O5 0.268019 0.914670 0.176291
O O6 0.698774 0.863361 0.263130
O O7 0.120209 0.846630 0.002673
O O8 0.137331 0.848390 0.240344
O O9 0.155148 0.598046 0.167199
O O10 0.379831 0.542575 0.578298
O O11 0.791714 0.615969 0.658455
O O12 0.437897 0.342411 0.507522
O O13 0.216652 0.605774 0.628661
O O14 0.672906 0.777125 0.757417
O O15 0.122872 0.830243 0.512231
O O16 0.803154 0.556367 0.547783
#
# Coordination Sequence:
#
# PCOD8045742 Si02
#       8
#     2   2   2   2   2   2   2   2
#     4   9  19  39  61  92 126 164 205 259 310 371
#     4   9  18  35  58  91 128 157 199 256 317 363
#     4  10  20  35  64  96 124 160 207 259 316 370
#     4  12  25  44  61  87 125 168 213 255 315 374
#     4  12  23  37  60  93 122 159 211 266 308 363
#     4  11  24  44  61  86 126 172 208 253 314 372
#     4  11  22  38  60  92 124 159 210 262 309 361
#     4  10  19  34  63  93 125 157 197 260 323 364
#
# _framework density 21.187760000000001
#
# number of rings (size 3 to 8) (size 9 to 14) (size 15 to 20)
#    0.000    1.500    3.750    2.250    1.750    0.000 
#    0.000    5.000    0.000    0.000    0.000    0.000 
#    0.000    0.000    0.000    0.000    0.000    0.000 
#
# Total GULP energy -198303.367564 kJ/mol
# GULP energy per Si atom -12393.960473 kJ/mol
# Density = 2.113954 g / cm^3
# Si number density = 21.187760 Si / 1000 Ang^3
#
#
#
# Elastic Constant Matrix: (Units=GPa)
#
#
# Indices 1 2 3 4 5 6 
#
# 1 62.6445 16.3967 22.6899 0.0000 -9.1072 0.0000
# 2 16.3967 48.1693 36.9679 0.0000 -10.6694 0.0000
# 3 22.6899 36.9679 134.0336 0.0000 -7.7326 0.0000
# 4 0.0000 0.0000 0.0000 26.8682 0.0000 -2.7999
# 5 -9.1072 -10.6694 -7.7326 0.0000 25.8054 0.0000
# 6 0.0000 0.0000 0.0000 -2.7999 0.0000 39.9646
#
#
#
# Elastic Compliance Matrix: (Units=1/GPa)
#
#
# Indices 1 2 3 4 5 6 
#
# 1 0.018249 -0.003906 -0.001764 0.000000 0.004297 0.000000
# 2 -0.003906 0.029327 -0.006927 0.000000 0.008671 0.000000
# 3 -0.001764 -0.006927 0.009635 0.000000 -0.000599 0.000000
# 4 0.000000 0.000000 0.000000 0.037492 0.000000 0.002627
# 5 0.004297 0.008671 -0.000599 0.000000 0.043674 0.000000
# 6 0.000000 0.000000 0.000000 0.002627 0.000000 0.025206
#
#
# Mechanical properties :
#
#
# Convention : Reuss Voigt Hill
#
# Bulk Modulus (GPa) = 31.23415 44.10625 37.67020
# Shear Modulus (GPa) = 25.06888 29.78050 27.42469
#
# Velocity S-wave (km/s) = 3.44347 3.75314 3.60163
# Velocity P-wave (km/s) = 5.53024 6.29630 5.92566
#
# Compressibility (1/GPa) = 0.03201623
#
# Stress axis : x y z
#
# Youngs Moduli (GPa) = 54.79705 34.09857 103.78380
#
# Poissons Ratio (x) = 0.13321 0.18307
# Poissons Ratio (y) = 0.21406 0.71892
# Poissons Ratio (z) = 0.09666 0.23620
#
# Static dielectric constant tensor:
#      x y z
#    x 3.484520 0.000000 -0.075020 
#    y 0.000000 3.725550 0.000000 
#    z -0.075020 0.000000 4.287020 
# 
# 
# High freq. dielectric constant tensor:
#      x y z
#    x 1.790940 0.000000 -0.009380 
#    y 0.000000 1.823150 0.000000 
#    z -0.009380 0.000000 1.854630 
# 
# From -- ./inp_files/14561.got.cif
#   From: 2010.03.12/outbox.cif.g09.slc.cpg/sg4_8_cif.got.tgz:14561.got - 2010.03.31 09:31:35.
