data_PCOD8045763
_publ_section_title
;
Structure prediction by ZEFSAII (Michael W. Deem and Ramdas Pophale) SiO2 
 PCOD8045763
Probable space group: P 21
;
_chemical_formula_sum "Si O2"
_cell_formula_units_Z 16
_cell_length_a 9.927196
_cell_length_b 5.111801
_cell_length_c 19.277562
_cell_angle_alpha 90.000000
_cell_angle_beta 123.656506
_cell_angle_gamma 90.000000
_cell_volume 814.276140
_symmetry_space_group_name_H-M "P 21"
_symmetry_group_IT_number 4
_symmetry_cell_setting 'monoclinic'
loop_
_space_group_symop_operation_xyz
x,y,z
-x,1/2+y,-z
loop_
_atom_site_type_symbol
_atom_site_label
_atom_site_fract_x
_atom_site_fract_y
_atom_site_fract_z
Si Si1 0.880465 0.603070 0.705931
Si Si2 0.621555 0.558694 0.110285
Si Si3 0.965998 0.643955 0.579050
Si Si4 0.801962 0.144168 0.473328
Si Si5 0.072988 0.107319 0.988158
Si Si6 0.564550 0.558976 0.930636
Si Si7 0.015893 0.098970 0.810655
Si Si8 0.477405 0.095209 0.447156
O O1 0.946948 0.386452 0.777389
O O2 0.695042 0.539598 0.636074
O O3 0.989081 0.598911 0.667263
O O4 0.892673 0.883861 0.746031
O O5 0.546366 0.301882 0.123791
O O6 0.812500 0.567506 0.179320
O O7 0.531347 0.801723 0.120454
O O8 0.590976 0.565244 0.020003
O O9 0.139083 0.616473 0.589600
O O10 0.841427 0.431330 0.513512
O O11 0.892917 0.931646 0.546807
O O12 0.609364 0.105043 0.422866
O O13 0.034079 0.054840 0.897252
O O14 0.263019 0.070864 0.058303
O O15 0.025843 0.402870 0.993667
O O16 0.472607 0.368223 0.485901
#
# Coordination Sequence:
#
# PCOD8045763 Si02
#       8
#     2   2   2   2   2   2   2   2
#     4  12  22  37  59  89 123 157 200 249 313 360
#     4   9  17  33  54  83 108 132 185 232 284 332
#     4  10  20  34  60  83 113 150 193 250 298 345
#     4  10  19  36  56  87 112 146 203 251 285 336
#     4  11  22  39  63  89 118 158 202 238 289 366
#     4   9  17  31  58  83 104 137 181 240 274 324
#     4  11  24  38  60  88 118 155 192 249 309 359
#     4  12  21  36  60  90 116 159 210 251 286 354
#
# _framework density 19.649353000000001
#
# number of rings (size 3 to 8) (size 9 to 14) (size 15 to 20)
#    0.000    1.500    2.500    3.750    0.000    4.000 
#    0.000    0.000   16.500    0.000    0.000    0.000 
#    0.000    0.000    0.000    0.000    0.000    0.000 
#
# Total GULP energy -198445.324510 kJ/mol
# GULP energy per Si atom -12402.832782 kJ/mol
# Density = 1.960463 g / cm^3
# Si number density = 19.649353 Si / 1000 Ang^3
#
#
#
# Elastic Constant Matrix: (Units=GPa)
#
#
# Indices 1 2 3 4 5 6 
#
# 1 109.5293 15.3352 29.6805 0.0000 4.2697 0.0000
# 2 15.3352 96.7518 7.5739 0.0000 0.3163 0.0000
# 3 29.6805 7.5739 54.5151 0.0000 8.1221 0.0000
# 4 0.0000 0.0000 0.0000 29.8063 0.0000 1.4620
# 5 4.2697 0.3163 8.1221 0.0000 22.5391 0.0000
# 6 0.0000 0.0000 0.0000 1.4620 0.0000 31.3520
#
#
#
# Elastic Compliance Matrix: (Units=1/GPa)
#
#
# Indices 1 2 3 4 5 6 
#
# 1 0.010863 -0.001272 -0.005742 0.000000 0.000029 0.000000
# 2 -0.001272 0.010602 -0.000839 0.000000 0.000395 0.000000
# 3 -0.005742 -0.000839 0.022638 0.000000 -0.007058 0.000000
# 4 0.000000 0.000000 0.000000 0.033627 0.000000 -0.001568
# 5 0.000029 0.000395 -0.007058 0.000000 0.046900 0.000000
# 6 0.000000 0.000000 0.000000 -0.001568 0.000000 0.031969
#
#
# Mechanical properties :
#
#
# Convention : Reuss Voigt Hill
#
# Bulk Modulus (GPa) = 35.21609 40.66396 37.94002
# Shear Modulus (GPa) = 27.50731 30.61993 29.06362
#
# Velocity S-wave (km/s) = 3.74559 3.95184 3.85010
# Velocity P-wave (km/s) = 6.05534 6.44689 6.25418
#
# Compressibility (1/GPa) = 0.02839611
#
# Stress axis : x y z
#
# Youngs Moduli (GPa) = 92.05615 94.32373 44.17384
#
# Poissons Ratio (x) = 0.12002 0.25364
# Poissons Ratio (y) = 0.11713 0.03706
# Poissons Ratio (z) = 0.52857 0.07914
#
# Static dielectric constant tensor:
#      x y z
#    x 3.821530 0.000000 0.128620 
#    y 0.000000 3.750580 0.000000 
#    z 0.128620 0.000000 3.189210 
# 
# 
# High freq. dielectric constant tensor:
#      x y z
#    x 1.771870 0.000000 0.013500 
#    y 0.000000 1.788130 0.000000 
#    z 0.013500 0.000000 1.726140 
# 
# From -- ./inp_files/14856.got.cif
#   From: 2010.03.12/outbox.cif.g09.slc.cpg/sg4_8_cif.got.tgz:14856.got - 2010.03.31 09:31:35.
