data_PCOD8045207
_publ_section_title
;
Structure prediction by ZEFSAII (Michael W. Deem and Ramdas Pophale) SiO2 
 PCOD8045207
Probable space group: P 2
;
_chemical_formula_sum "Si O2"
_cell_formula_units_Z 13
_cell_length_a 15.442701
_cell_length_b 8.143764
_cell_length_c 15.653076
_cell_angle_alpha 90.000000
_cell_angle_beta 18.964994
_cell_angle_gamma 90.000000
_cell_volume 639.762356
_symmetry_space_group_name_H-M "P 2"
_symmetry_group_IT_number 3
_symmetry_cell_setting 'monoclinic'
loop_
_space_group_symop_operation_xyz
x,y,z
-x,y,-z
loop_
_atom_site_type_symbol
_atom_site_label
_atom_site_fract_x
_atom_site_fract_y
_atom_site_fract_z
Si Si1 0.065430 0.888690 0.078350
Si Si2 0.818362 0.835137 0.837483
Si Si3 0.316801 0.632243 0.358116
Si Si4 0.500000 0.388708 0.500000
Si Si5 0.287092 0.359934 0.263074
Si Si6 0.500000 0.047647 0.000000
Si Si7 0.573683 0.678202 0.557896
Si Si8 0.000000 0.160794 0.000000
O O1 0.297434 0.770811 0.828729
O O2 0.073562 0.054953 0.015750
O O3 0.097797 0.926231 0.150845
O O4 0.784999 0.800649 0.315805
O O5 0.070382 0.746270 0.557319
O O6 0.593858 0.704593 0.068520
O O7 0.704872 0.951192 0.868780
O O8 0.311735 0.443603 0.332262
O O9 0.286595 0.621176 0.486536
O O10 0.527487 0.508170 0.554361
O O11 0.245800 0.274550 0.746925
O O12 0.332930 0.162991 0.222316
O O13 0.000000 0.409107 0.500000
O O14 0.500000 0.443631 0.000000
#
# Coordination Sequence:
#
# PCOD8045207 Si02
#       8
#     2   2   2   1   2   1   2   1
#     4  10  21  42  62  88 117 166 196 248 297 360
#     4  10  23  38  64  87 117 153 214 246 296 347
#     4  10  22  40  62  88 113 160 206 252 290 352
#     4  12  24  38  60 100 120 160 196 246 298 362
#     4  10  23  39  55  86 117 157 194 236 315 352
#     4  10  26  38  58  88 122 158 190 256 302 360
#     4  10  21  41  64  86 119 158 208 244 290 354
#     4  12  24  38  62  94 130 156 192 244 312 356
#
# _framework density 20.320045
#
# number of rings (size 3 to 8) (size 9 to 14) (size 15 to 20)
#    0.462    1.231    0.000    3.692    5.385    1.231 
#    2.769    0.000    0.000    0.000    0.000    0.000 
#    0.000    0.000    0.000    0.000    0.000    0.000 
#
# Total GULP energy -161121.628239 kJ/mol
# GULP energy per Si atom -12393.971403 kJ/mol
# Density = 2.027380 g / cm^3
# Si number density = 20.320045 Si / 1000 Ang^3
#
#
#
# Elastic Constant Matrix: (Units=GPa)
#
#
# Indices 1 2 3 4 5 6 
#
# 1 89.7108 59.2218 8.8222 0.0000 -2.1204 0.0000
# 2 59.2218 111.8379 19.7885 0.0000 2.0929 0.0000
# 3 8.8222 19.7885 102.5208 0.0000 -12.4952 0.0000
# 4 0.0000 0.0000 0.0000 57.8708 0.0000 -0.1958
# 5 -2.1204 2.0929 -12.4952 0.0000 19.8980 0.0000
# 6 0.0000 0.0000 0.0000 -0.1958 0.0000 16.6285
#
#
#
# Elastic Compliance Matrix: (Units=1/GPa)
#
#
# Indices 1 2 3 4 5 6 
#
# 1 0.017340 -0.009370 0.000717 0.000000 0.003283 0.000000
# 2 -0.009370 0.014417 -0.002472 0.000000 -0.004067 0.000000
# 3 0.000717 -0.002472 0.011057 0.000000 0.007280 0.000000
# 4 0.000000 0.000000 0.000000 0.017281 0.000000 0.000203
# 5 0.003283 -0.004067 0.007280 0.000000 0.055605 0.000000
# 6 0.000000 0.000000 0.000000 0.000203 0.000000 0.060140
#
#
# Mechanical properties :
#
#
# Convention : Reuss Voigt Hill
#
# Bulk Modulus (GPa) = 48.63305 53.30386 50.96845
# Shear Modulus (GPa) = 24.39683 33.29527 28.84605
#
# Velocity S-wave (km/s) = 3.46877 4.05228 3.77183
# Velocity P-wave (km/s) = 6.32682 6.94145 6.64125
#
# Compressibility (1/GPa) = 0.02056215
#
# Stress axis : x y z
#
# Youngs Moduli (GPa) = 57.67101 69.36313 90.44158
#
# Poissons Ratio (x) = 0.64995 -0.06482
# Poissons Ratio (y) = 0.54039 0.22358
# Poissons Ratio (z) = -0.04133 0.17147
#
# Static dielectric constant tensor:
#      x y z
#    x 3.912170 0.000000 -0.148210 
#    y 0.000000 3.556580 0.000000 
#    z -0.148210 0.000000 3.986370 
# 
# 
# High freq. dielectric constant tensor:
#      x y z
#    x 1.799540 0.000000 -0.007540 
#    y 0.000000 1.783830 0.000000 
#    z -0.007540 0.000000 1.815120 
# 
# From -- ./inp_files/13985.got.cif
#   From: 2010.03.12/outbox.cif.g09.slc.cpg/sg3_7_cif.got.tgz:13985.got - 2010.03.31 09:20:49.
