data_PCOD8045617
_publ_section_title
;
Structure prediction by ZEFSAII (Michael W. Deem and Ramdas Pophale) SiO2 
 PCOD8045617
Probable space group: P 21
;
_chemical_formula_sum "Si O2"
_cell_formula_units_Z 14
_cell_length_a 7.438521
_cell_length_b 9.177823
_cell_length_c 16.207748
_cell_angle_alpha 90.000000
_cell_angle_beta 33.323338
_cell_angle_gamma 90.000000
_cell_volume 607.866941
_symmetry_space_group_name_H-M "P 21"
_symmetry_group_IT_number 4
_symmetry_cell_setting 'monoclinic'
loop_
_space_group_symop_operation_xyz
x,y,z
-x,1/2+y,-z
loop_
_atom_site_type_symbol
_atom_site_label
_atom_site_fract_x
_atom_site_fract_y
_atom_site_fract_z
Si Si1 0.047211 0.419270 0.080007
Si Si2 0.715919 0.643605 0.103486
Si Si3 0.312281 0.163567 0.586021
Si Si4 0.063653 0.625106 0.455530
Si Si5 0.718928 0.991587 0.845723
Si Si6 0.126088 0.854282 0.556837
Si Si7 0.412652 0.409414 0.430992
O O1 0.328610 0.438577 0.041877
O O2 0.002085 0.567839 0.046242
O O3 0.709367 0.380621 0.255117
O O4 0.146281 0.296049 0.978575
O O5 0.393396 0.668334 0.281524
O O6 0.627693 0.537935 0.059927
O O7 0.535532 0.266812 0.558726
O O8 0.278589 0.249021 0.510082
O O9 0.947032 0.139450 0.761167
O O10 0.464688 0.997618 0.532498
O O11 0.933052 0.769373 0.554588
O O12 0.130332 0.506664 0.501221
O O13 0.824671 0.528390 0.485730
O O14 0.883761 0.858922 0.728940
#
# Coordination Sequence:
#
# PCOD8045617 Si02
#       7
#     2   2   2   2   2   2   2
#     4  10  21  45  64  85 126 168 212 255 303 365
#     4  10  23  43  65  87 125 170 208 260 301 365
#     4  10  17  35  60  90 120 158 194 249 316 364
#     4   9  21  35  57  91 123 159 202 249 311 367
#     4  10  22  41  67  90 129 157 210 263 309 363
#     4  10  19  37  59  89 127 162 196 257 317 367
#     4   9  19  34  58  86 120 156 196 251 305 361
#
# _framework density 23.031355000000001
#
# number of rings (size 3 to 8) (size 9 to 14) (size 15 to 20)
#    0.000    2.286    2.857    0.857    4.000    1.143 
#    2.571    2.857    0.000    0.000    0.000    0.000 
#    0.000    0.000    0.000    0.000    0.000    0.000 
#
# Total GULP energy -173453.424700 kJ/mol
# GULP energy per Si atom -12389.530336 kJ/mol
# Density = 2.297893 g / cm^3
# Si number density = 23.031355 Si / 1000 Ang^3
#
#
#
# Elastic Constant Matrix: (Units=GPa)
#
#
# Indices 1 2 3 4 5 6 
#
# 1 70.5696 25.2010 23.2653 0.0000 26.2055 0.0000
# 2 25.2010 137.2315 44.9497 0.0000 21.7021 0.0000
# 3 23.2653 44.9497 40.9546 0.0000 13.9566 0.0000
# 4 0.0000 0.0000 0.0000 31.0933 0.0000 6.5202
# 5 26.2055 21.7021 13.9566 0.0000 25.4962 0.0000
# 6 0.0000 0.0000 0.0000 6.5202 0.0000 51.3775
#
#
#
# Elastic Compliance Matrix: (Units=1/GPa)
#
#
# Indices 1 2 3 4 5 6 
#
# 1 0.024490 0.001698 -0.008243 0.000000 -0.022104 0.000000
# 2 0.001698 0.011755 -0.012123 0.000000 -0.005115 0.000000
# 3 -0.008243 -0.012123 0.044258 0.000000 -0.005435 0.000000
# 4 0.000000 0.000000 0.000000 0.033041 0.000000 -0.004193
# 5 -0.022104 -0.005115 -0.005435 0.000000 0.069270 0.000000
# 6 0.000000 0.000000 0.000000 -0.004193 0.000000 0.019996
#
#
# Mechanical properties :
#
#
# Convention : Reuss Voigt Hill
#
# Bulk Modulus (GPa) = 23.16611 48.39863 35.78237
# Shear Modulus (GPa) = 19.64365 31.94938 25.79651
#
# Velocity S-wave (km/s) = 2.92363 3.72857 3.35036
# Velocity P-wave (km/s) = 4.63434 6.29255 5.52600
#
# Compressibility (1/GPa) = 0.04316651
#
# Stress axis : x y z
#
# Youngs Moduli (GPa) = 40.83318 85.07068 22.59458
#
# Poissons Ratio (x) = -0.14449 0.18626
# Poissons Ratio (y) = -0.06935 0.27392
# Poissons Ratio (z) = 0.33661 1.03134
#
# Static dielectric constant tensor:
#      x y z
#    x 5.235230 0.000000 0.246340 
#    y 0.000000 4.386690 0.000000 
#    z 0.246340 0.000000 3.420070 
# 
# 
# High freq. dielectric constant tensor:
#      x y z
#    x 1.968050 0.000000 0.017660 
#    y 0.000000 1.928700 0.000000 
#    z 0.017660 0.000000 1.831440 
# 
# From -- ./inp_files/9192.got.cif
#   From: 2010.03.12/outbox.cif.g09.slc.cpg/sg4_5_cif.got.tgz:9192.got - 2010.03.31 09:31:35.
