data_PCOD8045474
_publ_section_title
;
Structure prediction by ZEFSAII (Michael W. Deem and Ramdas Pophale) SiO2 
 PCOD8045474
Probable space group: P 2
;
_chemical_formula_sum "Si O2"
_cell_formula_units_Z 12
_cell_length_a 10.745610
_cell_length_b 10.929788
_cell_length_c 11.126377
_cell_angle_alpha 90.000000
_cell_angle_beta 154.209888
_cell_angle_gamma 90.000000
_cell_volume 568.540528
_symmetry_space_group_name_H-M "P 2"
_symmetry_group_IT_number 3
_symmetry_cell_setting 'monoclinic'
loop_
_space_group_symop_operation_xyz
x,y,z
-x,y,-z
loop_
_atom_site_type_symbol
_atom_site_label
_atom_site_fract_x
_atom_site_fract_y
_atom_site_fract_z
Si Si1 0.496442 0.017020 0.352492
Si Si2 0.550558 0.741294 0.402005
Si Si3 0.913398 0.599519 0.140945
Si Si4 0.000000 0.447160 0.000000
Si Si5 0.004167 0.164409 0.211712
Si Si6 0.810095 0.376608 0.219861
Si Si7 0.500000 0.301891 0.500000
O O1 0.500000 0.025066 0.500000
O O2 0.805384 0.055974 0.562390
O O3 0.451782 0.876379 0.275914
O O4 0.241929 0.103978 0.083747
O O5 0.500000 0.722310 0.500000
O O6 0.879911 0.714547 0.650665
O O7 0.376452 0.645129 0.171316
O O8 0.848543 0.511456 0.196467
O O9 0.087314 0.521976 0.193491
O O10 0.702883 0.375046 0.771448
O O11 0.262139 0.226090 0.362556
O O12 0.872265 0.264372 0.184620
O O13 0.000000 0.364107 0.500000
O O14 0.500000 0.358587 0.000000
#
# Coordination Sequence:
#
# PCOD8045474 Si02
#       7
#     2   2   2   1   2   2   1
#     4  11  24  39  65 102 142 175 210 261 340 414
#     4  11  22  40  64 102 141 172 206 261 335 418
#     4  12  23  40  68  95 135 173 215 271 337 402
#     4  12  22  36  62 100 138 164 206 268 354 410
#     4  12  24  42  66  95 137 176 219 276 333 404
#     4  12  28  47  67  94 130 180 232 280 331 382
#     4  12  24  36  60 102 136 166 208 272 348 410
#
# _framework density 21.106676
#
# number of rings (size 3 to 8) (size 9 to 14) (size 15 to 20)
#    0.000    0.333    4.167    5.500    2.333    2.667 
#    0.000    0.833    0.000   20.000    0.000    0.000 
#    0.000    0.000    0.000    0.000    0.000    0.000 
#
# Total GULP energy -148668.406558 kJ/mol
# GULP energy per Si atom -12389.033880 kJ/mol
# Density = 2.105864 g / cm^3
# Si number density = 21.106676 Si / 1000 Ang^3
#
#
#
# Elastic Constant Matrix: (Units=GPa)
#
#
# Indices 1 2 3 4 5 6 
#
# 1 96.0771 57.7168 45.1630 0.0000 12.2248 0.0000
# 2 57.7168 134.9516 58.5911 0.0000 0.6592 0.0000
# 3 45.1630 58.5911 165.5686 0.0000 9.2641 0.0000
# 4 0.0000 0.0000 0.0000 43.0466 0.0000 -0.5528
# 5 12.2248 0.6592 9.2641 0.0000 33.6273 0.0000
# 6 0.0000 0.0000 0.0000 -0.5528 0.0000 17.7933
#
#
#
# Elastic Compliance Matrix: (Units=1/GPa)
#
#
# Indices 1 2 3 4 5 6 
#
# 1 0.015367 -0.005729 -0.001887 0.000000 -0.004954 0.000000
# 2 -0.005729 0.010907 -0.002439 0.000000 0.002541 0.000000
# 3 -0.001887 -0.002439 0.007492 0.000000 -0.001330 0.000000
# 4 0.000000 0.000000 0.000000 0.023240 0.000000 0.000722
# 5 -0.004954 0.002541 -0.001330 0.000000 0.031855 0.000000
# 6 0.000000 0.000000 0.000000 0.000722 0.000000 0.056224
#
#
# Mechanical properties :
#
#
# Convention : Reuss Voigt Hill
#
# Bulk Modulus (GPa) = 73.22914 79.94881 76.58897
# Shear Modulus (GPa) = 29.45549 34.56851 32.01200
#
# Velocity S-wave (km/s) = 3.73976 4.05136 3.89868
# Velocity P-wave (km/s) = 7.30875 7.73598 7.52540
#
# Compressibility (1/GPa) = 0.01365577
#
# Stress axis : x y z
#
# Youngs Moduli (GPa) = 65.07305 91.68624 133.47212
#
# Poissons Ratio (x) = 0.52525 0.25191
# Poissons Ratio (y) = 0.37279 0.32556
# Poissons Ratio (z) = 0.12281 0.22364
#
# Static dielectric constant tensor:
#      x y z
#    x 4.144370 0.000000 1.200400 
#    y 0.000000 4.708910 0.000000 
#    z 1.200400 0.000000 6.013560 
# 
# 
# High freq. dielectric constant tensor:
#      x y z
#    x 1.778220 0.000000 0.014010 
#    y 0.000000 1.850560 0.000000 
#    z 0.014010 0.000000 1.856780 
# 
# From -- ./inp_files/11877.got.cif
#   From: 2010.03.12/outbox.cif.g09.slc.cpg/sg3_6_cif.got.tgz:11877.got - 2010.03.31 09:20:49.
