data_PCOD8045749
_publ_section_title
;
Structure prediction by ZEFSAII (Michael W. Deem and Ramdas Pophale) SiO2 
 PCOD8045749
Probable space group: P 21
;
_chemical_formula_sum "Si O2"
_cell_formula_units_Z 12
_cell_length_a 17.014375
_cell_length_b 5.033521
_cell_length_c 10.111605
_cell_angle_alpha 90.000000
_cell_angle_beta 36.564289
_cell_angle_gamma 90.000000
_cell_volume 515.885543
_symmetry_space_group_name_H-M "P 21"
_symmetry_group_IT_number 4
_symmetry_cell_setting 'monoclinic'
loop_
_space_group_symop_operation_xyz
x,y,z
-x,1/2+y,-z
loop_
_atom_site_type_symbol
_atom_site_label
_atom_site_fract_x
_atom_site_fract_y
_atom_site_fract_z
Si Si1 0.091267 0.729920 0.882757
Si Si2 0.040743 0.334628 0.377492
Si Si3 0.424716 0.303625 0.758162
Si Si4 0.326183 0.803397 0.747228
Si Si5 0.289506 0.233753 0.186118
Si Si6 0.196096 0.735813 0.465729
O O1 0.175900 0.756365 0.902721
O O2 0.198583 0.764207 0.619718
O O3 0.026242 0.441285 0.962217
O O4 0.192086 0.246140 0.188097
O O5 0.031296 0.651431 0.412549
O O6 0.962157 0.257793 0.350749
O O7 0.364578 0.591468 0.807249
O O8 0.576263 0.276840 0.510120
O O9 0.337052 0.091376 0.796894
O O10 0.425527 0.261507 0.918917
O O11 0.259031 0.459476 0.334141
O O12 0.280607 0.959475 0.276480
#
# Coordination Sequence:
#
# PCOD8045749 Si02
#       6
#     2   2   2   2   2   2
#     4  12  26  42  62  87 128 170 200 242 308 378
#     4   8  16  28  46  73 107 142 175 230 278 333
#     4  10  21  41  67  91 119 157 209 261 301 347
#     4  10  23  41  63  92 122 160 210 252 293 367
#     4  10  19  35  60  84 117 151 198 255 304 344
#     4  10  21  37  52  87 121 152 200 244 298 369
#
# _framework density 23.260974000000001
#
# number of rings (size 3 to 8) (size 9 to 14) (size 15 to 20)
#    0.000    2.000    0.000    3.000    4.667    0.000 
#    6.000    1.667    0.000    0.000    0.000    0.000 
#    0.000    0.000    0.000    0.000    0.000    0.000 
#
# Total GULP energy -148711.581031 kJ/mol
# GULP energy per Si atom -12392.631753 kJ/mol
# Density = 2.320803 g / cm^3
# Si number density = 23.260974 Si / 1000 Ang^3
#
#
#
# Elastic Constant Matrix: (Units=GPa)
#
#
# Indices 1 2 3 4 5 6 
#
# 1 43.7728 1.1832 0.7427 0.0000 -1.7571 0.0000
# 2 1.1832 91.1061 11.4144 0.0000 -1.2398 0.0000
# 3 0.7427 11.4144 97.5586 0.0000 26.0135 0.0000
# 4 0.0000 0.0000 0.0000 32.5698 0.0000 -1.7671
# 5 -1.7571 -1.2398 26.0135 0.0000 30.2111 0.0000
# 6 0.0000 0.0000 0.0000 -1.7671 0.0000 16.2161
#
#
#
# Elastic Compliance Matrix: (Units=1/GPa)
#
#
# Indices 1 2 3 4 5 6 
#
# 1 0.022937 -0.000190 -0.000657 0.000000 0.001892 0.000000
# 2 -0.000190 0.011240 -0.001861 0.000000 0.002053 0.000000
# 3 -0.000657 -0.001861 0.013634 0.000000 -0.011854 0.000000
# 4 0.000000 0.000000 0.000000 0.030886 0.000000 0.003366
# 5 0.001892 0.002053 -0.011854 0.000000 0.043502 0.000000
# 6 0.000000 0.000000 0.000000 0.003366 0.000000 0.062034
#
#
# Mechanical properties :
#
#
# Convention : Reuss Voigt Hill
#
# Bulk Modulus (GPa) = 23.58725 28.79090 26.18907
# Shear Modulus (GPa) = 24.53628 30.40586 27.47107
#
# Velocity S-wave (km/s) = 3.25133 3.61939 3.44029
# Velocity P-wave (km/s) = 4.92516 5.46543 5.20231
#
# Compressibility (1/GPa) = 0.04239579
#
# Stress axis : x y z
#
# Youngs Moduli (GPa) = 43.59680 88.96990 73.34698
#
# Poissons Ratio (x) = 0.01689 0.04818
# Poissons Ratio (y) = 0.00828 0.13649
# Poissons Ratio (z) = 0.02864 0.16557
#
# Static dielectric constant tensor:
#      x y z
#    x 3.850630 0.000000 -0.032650 
#    y 0.000000 4.172960 0.000000 
#    z -0.032650 0.000000 4.184130 
# 
# 
# High freq. dielectric constant tensor:
#      x y z
#    x 1.888560 0.000000 0.006500 
#    y 0.000000 1.931730 0.000000 
#    z 0.006500 0.000000 1.918950 
# 
# From -- ./inp_files/8976.got.cif
#   From: 2010.03.12/outbox.cif.g09.slc.cpg/sg4_5_cif.got.tgz:8976.got - 2010.03.31 09:31:35.
