data_PCOD8045563
_publ_section_title
;
Structure prediction by ZEFSAII (Michael W. Deem and Ramdas Pophale) SiO2 
 PCOD8045563
Probable space group: P 2
;
_chemical_formula_sum "Si O2"
_cell_formula_units_Z 12
_cell_length_a 13.874630
_cell_length_b 4.870334
_cell_length_c 8.289887
_cell_angle_alpha 90.000000
_cell_angle_beta 66.637420
_cell_angle_gamma 90.000000
_cell_volume 514.254357
_symmetry_space_group_name_H-M "P 2"
_symmetry_group_IT_number 3
_symmetry_cell_setting 'monoclinic'
loop_
_space_group_symop_operation_xyz
x,y,z
-x,y,-z
loop_
_atom_site_type_symbol
_atom_site_label
_atom_site_fract_x
_atom_site_fract_y
_atom_site_fract_z
Si Si1 0.773822 0.865560 0.585310
Si Si2 0.222355 0.041701 0.785817
Si Si3 0.451158 0.224019 0.698885
Si Si4 0.111473 0.368434 0.361685
Si Si5 0.889745 0.536745 0.008648
Si Si6 0.460279 0.730117 0.196455
O O1 0.767083 0.965233 0.407116
O O2 0.859593 0.626432 0.544691
O O3 0.665275 0.728943 0.713620
O O4 0.804244 0.123014 0.677855
O O5 0.326558 0.189775 0.781559
O O6 0.198290 0.770008 0.905841
O O7 0.131721 0.266330 0.870176
O O8 0.500000 0.117546 0.500000
O O9 0.499654 0.039325 0.807846
O O10 0.487127 0.537202 0.702487
O O11 0.107192 0.461958 0.180442
O O12 0.000000 0.257203 0.500000
O O13 0.000000 0.656337 0.000000
O O14 0.500000 0.615604 0.000000
#
# Coordination Sequence:
#
# PCOD8045563 Si02
#       6
#     2   2   2   2   2   2
#     4  12  26  47  73 107 144 191 234 294 360 419
#     4  12  26  46  74 107 143 188 240 295 349 424
#     4  12  26  48  72 105 142 192 237 287 356 420
#     4  12  27  48  74 105 146 187 236 294 362 425
#     4  12  27  48  75 107 142 186 240 297 354 424
#     4  12  28  46  72 105 147 187 237 295 351 425
#
# _framework density 23.334758000000001
#
# number of rings (size 3 to 8) (size 9 to 14) (size 15 to 20)
#    0.000    0.000    1.667    8.000    9.333    0.000 
#    0.000    0.000    0.000    0.000    0.000    0.000 
#    0.000    0.000    0.000    0.000    0.000    0.000 
#
# Total GULP energy -148908.628023 kJ/mol
# GULP energy per Si atom -12409.052335 kJ/mol
# Density = 2.328165 g / cm^3
# Si number density = 23.334758 Si / 1000 Ang^3
#
#
#
# Elastic Constant Matrix: (Units=GPa)
#
#
# Indices 1 2 3 4 5 6 
#
# 1 123.3385 41.2139 61.4077 0.0000 -5.0766 0.0000
# 2 41.2139 129.1715 40.9969 0.0000 -3.3570 0.0000
# 3 61.4077 40.9969 130.4062 0.0000 -8.5675 0.0000
# 4 0.0000 0.0000 0.0000 31.9774 0.0000 -0.1526
# 5 -5.0766 -3.3570 -8.5675 0.0000 27.2788 0.0000
# 6 0.0000 0.0000 0.0000 -0.1526 0.0000 43.8148
#
#
#
# Elastic Compliance Matrix: (Units=1/GPa)
#
#
# Indices 1 2 3 4 5 6 
#
# 1 0.011079 -0.002085 -0.004536 0.000000 0.000380 0.000000
# 2 -0.002085 0.008993 -0.001836 0.000000 0.000142 0.000000
# 3 -0.004536 -0.001836 0.010529 0.000000 0.002237 0.000000
# 4 0.000000 0.000000 0.000000 0.031273 0.000000 0.000109
# 5 0.000380 0.000142 0.002237 0.000000 0.037449 0.000000
# 6 0.000000 0.000000 0.000000 0.000109 0.000000 0.022824
#
#
# Mechanical properties :
#
#
# Convention : Reuss Voigt Hill
#
# Bulk Modulus (GPa) = 73.07009 74.46146 73.76577
# Shear Modulus (GPa) = 34.81322 36.56738 35.69030
#
# Velocity S-wave (km/s) = 3.86671 3.96293 3.91511
# Velocity P-wave (km/s) = 7.16359 7.27455 7.21929
#
# Compressibility (1/GPa) = 0.01368549
#
# Stress axis : x y z
#
# Youngs Moduli (GPa) = 90.26269 111.19282 94.97852
#
# Poissons Ratio (x) = 0.23185 0.43086
# Poissons Ratio (y) = 0.18821 0.17439
# Poissons Ratio (z) = 0.40947 0.20416
#
# Static dielectric constant tensor:
#      x y z
#    x 4.221390 0.000000 -0.124870 
#    y 0.000000 4.212830 0.000000 
#    z -0.124870 0.000000 4.108420 
# 
# 
# High freq. dielectric constant tensor:
#      x y z
#    x 1.931760 0.000000 -0.001950 
#    y 0.000000 1.937430 0.000000 
#    z -0.001950 0.000000 1.929790 
# 
# From -- ./inp_files/8213.got.cif
#   From: 2010.03.12/outbox.cif.g09.slc.cpg/sg3_5_cif.got.tgz:8213.got - 2010.03.31 09:20:49.
