data_PCOD8045050
_publ_section_title
;
Structure prediction by ZEFSAII (Michael W. Deem and Ramdas Pophale) SiO2 
 PCOD8045050
Probable space group: P 2
;
_chemical_formula_sum "Si O2"
_cell_formula_units_Z 15
_cell_length_a 8.986924
_cell_length_b 16.449006
_cell_length_c 5.252302
_cell_angle_alpha 90.000000
_cell_angle_beta 107.333926
_cell_angle_gamma 90.000000
_cell_volume 741.164857
_symmetry_space_group_name_H-M "P 2"
_symmetry_group_IT_number 3
_symmetry_cell_setting 'monoclinic'
loop_
_space_group_symop_operation_xyz
x,y,z
-x,y,-z
loop_
_atom_site_type_symbol
_atom_site_label
_atom_site_fract_x
_atom_site_fract_y
_atom_site_fract_z
Si Si1 0.602968 0.075740 0.802665
Si Si2 0.847887 0.957177 0.782681
Si Si3 0.683617 0.797530 0.588637
Si Si4 0.835618 0.201280 0.057671
Si Si5 0.100817 0.370545 0.799327
Si Si6 0.317029 0.700471 0.909693
Si Si7 0.000000 0.086498 0.500000
Si Si8 0.897198 0.549368 0.200110
O O1 0.500000 0.062809 0.500000
O O2 0.718779 0.998265 0.901162
O O3 0.500000 0.080564 0.000000
O O4 0.699696 0.160284 0.820823
O O5 0.771072 0.882758 0.593133
O O6 0.901756 0.030946 0.636511
O O7 0.000000 0.922128 0.000000
O O8 0.500000 0.813981 0.500000
O O9 0.736655 0.742930 0.378367
O O10 0.736338 0.755234 0.878406
O O11 0.782531 0.293027 0.111968
O O12 0.865310 0.142163 0.310540
O O13 0.000000 0.208274 0.000000
O O14 0.181008 0.459212 0.808870
O O15 0.000000 0.350573 0.500000
O O16 0.000000 0.377926 0.000000
O O17 0.242878 0.612143 0.892069
O O18 0.500000 0.686611 0.000000
O O19 0.000000 0.569202 0.500000
O O20 0.000000 0.556372 0.000000
#
# Coordination Sequence:
#
# PCOD8045050 Si02
#       8
#     2   2   2   2   2   2   1   2
#     4  12  26  41  61  88 125 167 206 255 314 363
#     4  12  26  41  62  91 119 160 212 259 304 362
#     4  10  24  42  62  87 119 159 200 247 305 363
#     4  11  21  39  64  87 122 164 210 251 300 371
#     4   9  19  33  60  91 119 155 193 251 302 354
#     4  10  22  42  63  85 120 164 196 235 306 373
#     4  12  20  40  64  90 122 154 218 248 308 352
#     4  10  20  37  61  94 122 149 200 249 300 350
#
# _framework density 20.238413999999999
#
# number of rings (size 3 to 8) (size 9 to 14) (size 15 to 20)
#    0.000    1.333    3.333    2.000    1.867    3.200 
#    0.000    0.667    0.000    2.400    0.000    0.000 
#    0.000    0.000    0.000    0.000    0.000    0.000 
#
# Total GULP energy -185937.420897 kJ/mol
# GULP energy per Si atom -12395.828060 kJ/mol
# Density = 2.019235 g / cm^3
# Si number density = 20.238414 Si / 1000 Ang^3
#
#
#
# Elastic Constant Matrix: (Units=GPa)
#
#
# Indices 1 2 3 4 5 6 
#
# 1 67.1382 47.3244 30.7380 0.0000 -1.3118 0.0000
# 2 47.3244 160.7743 34.0254 0.0000 9.2651 0.0000
# 3 30.7380 34.0254 106.9403 0.0000 -12.6412 0.0000
# 4 0.0000 0.0000 0.0000 6.8215 0.0000 12.7981
# 5 -1.3118 9.2651 -12.6412 0.0000 27.5847 0.0000
# 6 0.0000 0.0000 0.0000 12.7981 0.0000 -0.2795
#
#
#
# Elastic Compliance Matrix: (Units=1/GPa)
#
#
# Indices 1 2 3 4 5 6 
#
# 1 0.020466 -0.005197 -0.004131 0.000000 0.000826 0.000000
# 2 -0.005197 0.008304 -0.001593 0.000000 -0.003767 0.000000
# 3 -0.004131 -0.001593 0.011720 0.000000 0.005710 0.000000
# 4 0.000000 0.000000 0.000000 0.001687 0.000000 0.077238
# 5 0.000826 -0.003767 0.005710 0.000000 0.040173 0.000000
# 6 0.000000 0.000000 0.000000 0.077238 0.000000 -0.041168
#
#
# Mechanical properties :
#
#
# Convention : Reuss Voigt Hill
#
# Bulk Modulus (GPa) = 53.63077 62.11428 57.87252
# Shear Modulus (GPa) = 72.21100 21.67633 46.94367
#
# Velocity S-wave (km/s) = 5.97977 3.27624 4.82138
# Velocity P-wave (km/s) = 8.61591 6.71339 7.72345
#
# Compressibility (1/GPa) = 0.01864601
#
# Stress axis : x y z
#
# Youngs Moduli (GPa) = 48.86214 120.42282 85.32143
#
# Poissons Ratio (x) = 0.62589 0.35248
# Poissons Ratio (y) = 0.25396 0.13596
# Poissons Ratio (z) = 0.20186 0.19189
#
# Static dielectric constant tensor:
#      x y z
#    x 4.272570 0.000000 -0.408990 
#    y 0.000000 4.110670 0.000000 
#    z -0.408990 0.000000 4.122250 
# 
# 
# High freq. dielectric constant tensor:
#      x y z
#    x 1.765100 0.000000 -0.011210 
#    y 0.000000 1.806910 0.000000 
#    z -0.011210 0.000000 1.800270 
# 
# From -- ./inp_files/1563.got.cif
#   From: 2010.03.12/outbox.cif.g09.slc.cpg/sg3_1_cif.got.tgz:1563.got - 2010.03.31 09:20:49.
