data_PCOD8045730
_publ_section_title
;
Structure prediction by ZEFSAII (Michael W. Deem and Ramdas Pophale) SiO2 
 PCOD8045730
Probable space group: P 21
;
_chemical_formula_sum "Si O2"
_cell_formula_units_Z 16
_cell_length_a 8.594272
_cell_length_b 11.226312
_cell_length_c 11.821153
_cell_angle_alpha 90.000000
_cell_angle_beta 51.723841
_cell_angle_gamma 90.000000
_cell_volume 895.353664
_symmetry_space_group_name_H-M "P 21"
_symmetry_group_IT_number 4
_symmetry_cell_setting 'monoclinic'
loop_
_space_group_symop_operation_xyz
x,y,z
-x,1/2+y,-z
loop_
_atom_site_type_symbol
_atom_site_label
_atom_site_fract_x
_atom_site_fract_y
_atom_site_fract_z
Si Si1 0.935715 0.916250 0.699554
Si Si2 0.824167 0.312132 0.979595
Si Si3 0.379947 0.231838 0.426314
Si Si4 0.109947 0.052902 0.176267
Si Si5 0.960092 0.892859 0.434481
Si Si6 0.013984 0.174007 0.711157
Si Si7 0.170747 0.760315 0.763369
Si Si8 0.392439 0.225113 0.164643
O O1 0.026727 0.916003 0.532508
O O2 0.730580 0.846032 0.798313
O O3 0.095559 0.858520 0.710275
O O4 0.893242 0.051660 0.756312
O O5 0.838070 0.448412 0.933612
O O6 0.994705 0.230111 0.845726
O O7 0.848769 0.313240 0.102514
O O8 0.617492 0.254751 0.032214
O O9 0.277374 0.364021 0.467066
O O10 0.246245 0.151602 0.572655
O O11 0.601806 0.236623 0.372463
O O12 0.375811 0.178037 0.301126
O O13 0.310680 0.123231 0.117889
O O14 0.951664 0.138543 0.187813
O O15 0.010589 0.007432 0.337083
O O16 0.074890 0.774451 0.335492
#
# Coordination Sequence:
#
# PCOD8045730 Si02
#       8
#     2   2   2   2   2   2   2   2
#     4  10  19  33  61  78 109 138 192 223 272 329
#     4  10  22  38  55  81 115 146 183 227 276 329
#     4   8  17  37  52  82 109 137 183 219 277 326
#     4  10  20  37  60  78 116 144 186 230 275 326
#     4   8  18  35  57  81 106 142 178 234 274 316
#     4   9  19  34  56  78 110 139 181 230 267 317
#     4  10  22  35  58  81 110 152 179 219 287 335
#     4   9  19  35  57  83 103 148 186 220 278 326
#
# _framework density 17.870031999999998
#
# number of rings (size 3 to 8) (size 9 to 14) (size 15 to 20)
#    0.750    2.000    0.000    0.750    5.250    1.000 
#    0.000    0.000   11.000    0.000    0.000    0.000 
#    0.000    0.000    0.000    0.000    0.000    0.000 
#
# Total GULP energy -198288.280792 kJ/mol
# GULP energy per Si atom -12393.017550 kJ/mol
# Density = 1.782936 g / cm^3
# Si number density = 17.870032 Si / 1000 Ang^3
#
#
#
# Elastic Constant Matrix: (Units=GPa)
#
#
# Indices 1 2 3 4 5 6 
#
# 1 106.6100 42.1323 43.2086 0.0000 0.6852 0.0000
# 2 42.1323 103.6271 33.7710 0.0000 4.1771 0.0000
# 3 43.2086 33.7710 94.1837 0.0000 3.5838 0.0000
# 4 0.0000 0.0000 0.0000 23.0411 0.0000 2.1283
# 5 0.6852 4.1771 3.5838 0.0000 25.4888 0.0000
# 6 0.0000 0.0000 0.0000 2.1283 0.0000 17.4771
#
#
#
# Elastic Compliance Matrix: (Units=1/GPa)
#
#
# Indices 1 2 3 4 5 6 
#
# 1 0.012674 -0.003718 -0.004516 0.000000 0.000903 0.000000
# 2 -0.003718 0.012057 -0.002560 0.000000 -0.001516 0.000000
# 3 -0.004516 -0.002560 0.013660 0.000000 -0.001380 0.000000
# 4 0.000000 0.000000 0.000000 0.043894 0.000000 -0.005345
# 5 0.000903 -0.001516 -0.001380 0.000000 0.039651 0.000000
# 6 0.000000 0.000000 0.000000 -0.005345 0.000000 0.057869
#
#
# Mechanical properties :
#
#
# Convention : Reuss Voigt Hill
#
# Bulk Modulus (GPa) = 59.51094 60.29386 59.90240
# Shear Modulus (GPa) = 24.15556 25.55534 24.85545
#
# Velocity S-wave (km/s) = 3.68058 3.78572 3.73352
# Velocity P-wave (km/s) = 7.17194 7.27478 7.22354
#
# Compressibility (1/GPa) = 0.01680363
#
# Stress axis : x y z
#
# Youngs Moduli (GPa) = 78.90468 82.94050 73.20866
#
# Poissons Ratio (x) = 0.30834 0.33058
# Poissons Ratio (y) = 0.29333 0.18741
# Poissons Ratio (z) = 0.35630 0.21233
#
# Static dielectric constant tensor:
#      x y z
#    x 3.124400 0.000000 0.037330 
#    y 0.000000 3.181040 0.000000 
#    z 0.037330 0.000000 3.309380 
# 
# 
# High freq. dielectric constant tensor:
#      x y z
#    x 1.671240 0.000000 0.007470 
#    y 0.000000 1.687260 0.000000 
#    z 0.007470 0.000000 1.695100 
# 
# From -- ./inp_files/5927.got.cif
#   From: 2010.03.12/outbox.cif.g09.slc.cpg/sg4_3_cif.got.tgz:5927.got - 2010.03.31 09:31:35.
