data_PCOD8045632
_publ_section_title
;
Structure prediction by ZEFSAII (Michael W. Deem and Ramdas Pophale) SiO2 
 PCOD8045632
Probable space group: P 21
;
_chemical_formula_sum "Si O2"
_cell_formula_units_Z 16
_cell_length_a 7.546745
_cell_length_b 5.364745
_cell_length_c 14.636795
_cell_angle_alpha 90.000000
_cell_angle_beta 85.855917
_cell_angle_gamma 90.000000
_cell_volume 591.041247
_symmetry_space_group_name_H-M "P 21"
_symmetry_group_IT_number 4
_symmetry_cell_setting 'monoclinic'
loop_
_space_group_symop_operation_xyz
x,y,z
-x,1/2+y,-z
loop_
_atom_site_type_symbol
_atom_site_label
_atom_site_fract_x
_atom_site_fract_y
_atom_site_fract_z
Si Si1 0.061373 0.725070 0.280908
Si Si2 0.837336 0.722301 0.784114
Si Si3 0.467961 0.777760 0.323793
Si Si4 0.024369 0.755858 0.056134
Si Si5 0.597043 0.773059 0.614209
Si Si6 0.643820 0.977989 0.936592
Si Si7 0.907153 0.800975 0.471907
Si Si8 0.652660 0.764562 0.129708
O O1 0.907837 0.750882 0.363076
O O2 0.033381 0.463364 0.229005
O O3 0.257000 0.720637 0.319811
O O4 0.048275 0.965954 0.212985
O O5 0.714597 0.710161 0.699548
O O6 0.727084 0.736848 0.882923
O O7 0.533606 0.511254 0.363659
O O8 0.567377 0.855666 0.227121
O O9 0.507011 0.007727 0.392480
O O10 0.862224 0.714138 0.135339
O O11 0.221106 0.710330 0.091548
O O12 0.004891 0.031030 0.015650
O O13 0.709631 0.821911 0.518838
O O14 0.453005 0.016781 0.897275
O O15 0.622343 0.955007 0.046128
O O16 0.999458 0.567012 0.517539
#
# Coordination Sequence:
#
# PCOD8045632 Si02
#       8
#     2   2   2   2   2   2   2   2
#     4  10  18  30  44  75 108 145 181 232 275 337
#     4  10  19  31  47  72 107 138 184 234 272 325
#     4  10  19  31  47  72 107 138 184 234 272 325
#     4  10  24  44  58  84 116 146 202 250 276 344
#     4  10  18  30  44  75 108 145 181 232 275 337
#     4  11  23  37  61  86 113 160 194 237 294 342
#     4  12  16  26  44  66 108 154 172 220 296 326
#     4  11  23  37  61  86 113 160 194 237 294 342
#
# _framework density 27.070865000000001
#
# number of rings (size 3 to 8) (size 9 to 14) (size 15 to 20)
#    0.000    1.500    7.500    0.750    3.500    4.000 
#    0.000    0.000    0.000    0.000    0.000    0.000 
#    0.000    6.000    0.000    0.000    0.000    0.000 
#
# Total GULP energy -198227.570794 kJ/mol
# GULP energy per Si atom -12389.223175 kJ/mol
# Density = 2.700925 g / cm^3
# Si number density = 27.070865 Si / 1000 Ang^3
#
#
#
# Elastic Constant Matrix: (Units=GPa)
#
#
# Indices 1 2 3 4 5 6 
#
# 1 48.3496 14.7423 23.5145 0.0000 -11.7077 0.0000
# 2 14.7423 198.8140 33.7631 0.0000 -13.7252 0.0000
# 3 23.5145 33.7631 159.2709 0.0000 -51.4370 0.0000
# 4 0.0000 0.0000 0.0000 47.9233 0.0000 -2.6003
# 5 -11.7077 -13.7252 -51.4370 0.0000 33.9581 0.0000
# 6 0.0000 0.0000 0.0000 -2.6003 0.0000 17.3332
#
#
#
# Elastic Compliance Matrix: (Units=1/GPa)
#
#
# Indices 1 2 3 4 5 6 
#
# 1 0.023004 -0.001093 -0.001460 0.000000 0.005278 0.000000
# 2 -0.001093 0.005282 -0.000765 0.000000 0.000600 0.000000
# 3 -0.001460 -0.000765 0.012517 0.000000 0.018147 0.000000
# 4 0.000000 0.000000 0.000000 0.021038 0.000000 0.003156
# 5 0.005278 0.000600 0.018147 0.000000 0.058998 0.000000
# 6 0.000000 0.000000 0.000000 0.003156 0.000000 0.058166
#
#
# Mechanical properties :
#
#
# Convention : Reuss Voigt Hill
#
# Bulk Modulus (GPa) = 29.26803 61.16381 45.21592
# Shear Modulus (GPa) = 25.37673 42.13721 33.75697
#
# Velocity S-wave (km/s) = 3.06505 3.94960 3.53510
# Velocity P-wave (km/s) = 4.83334 6.59106 5.77941
#
# Compressibility (1/GPa) = 0.03416698
#
# Stress axis : x y z
#
# Youngs Moduli (GPa) = 43.47037 189.31632 79.89150
#
# Poissons Ratio (x) = 0.20702 0.11665
# Poissons Ratio (y) = 0.04753 0.06108
# Poissons Ratio (z) = 0.06347 0.14475
#
# Static dielectric constant tensor:
#      x y z
#    x 4.659660 0.000000 -0.291710 
#    y 0.000000 5.953120 0.000000 
#    z -0.291710 0.000000 5.043490 
# 
# 
# High freq. dielectric constant tensor:
#      x y z
#    x 2.048060 0.000000 -0.007880 
#    y 0.000000 2.111090 0.000000 
#    z -0.007880 0.000000 2.104920 
# 
# From -- ./inp_files/8646.got.cif
#   From: 2010.03.12/outbox.cif.g09.slc.cpg/sg4_5_cif.got.tgz:8646.got - 2010.03.31 09:31:35.
