data_PCOD8045153
_publ_section_title
;
Structure prediction by ZEFSAII (Michael W. Deem and Ramdas Pophale) SiO2 
 PCOD8045153
Probable space group: P 2
;
_chemical_formula_sum "Si O2"
_cell_formula_units_Z 15
_cell_length_a 9.526171
_cell_length_b 8.614507
_cell_length_c 12.016552
_cell_angle_alpha 90.000000
_cell_angle_beta 135.468964
_cell_angle_gamma 90.000000
_cell_volume 691.559789
_symmetry_space_group_name_H-M "P 2"
_symmetry_group_IT_number 3
_symmetry_cell_setting 'monoclinic'
loop_
_space_group_symop_operation_xyz
x,y,z
-x,y,-z
loop_
_atom_site_type_symbol
_atom_site_label
_atom_site_fract_x
_atom_site_fract_y
_atom_site_fract_z
Si Si1 0.694989 0.352440 0.665207
Si Si2 0.060987 0.981924 0.762731
Si Si3 0.122197 0.326531 0.815960
Si Si4 0.662146 0.004535 0.675875
Si Si5 0.346562 0.475255 0.135372
Si Si6 0.209538 0.501697 0.657268
Si Si7 0.208129 0.812379 0.051006
Si Si8 0.000000 0.801297 0.500000
O O1 0.500000 0.430584 0.500000
O O2 0.622606 0.186515 0.673630
O O3 0.756393 0.459290 0.802955
O O4 0.882833 0.351976 0.688643
O O5 0.997332 0.904838 0.609779
O O6 0.157918 0.150705 0.792863
O O7 0.206298 0.884403 0.925456
O O8 0.872705 0.996483 0.735636
O O9 0.219651 0.457814 0.792942
O O10 0.237076 0.348726 0.996611
O O11 0.500000 0.930977 0.500000
O O12 0.652914 0.916525 0.789012
O O13 0.585328 0.439243 0.280479
O O14 0.310347 0.650392 0.078097
O O15 0.000000 0.417833 0.500000
O O16 0.193085 0.686922 0.621632
O O17 0.000000 0.790745 0.000000
#
# Coordination Sequence:
#
# PCOD8045153 Si02
#       8
#     2   2   2   2   2   2   2   1
#     4  10  21  39  62  96 124 162 213 264 316 372
#     4  10  22  41  64  90 125 170 211 262 315 379
#     4  11  22  41  66  92 126 168 213 262 316 377
#     4   9  20  37  64  92 126 160 208 269 316 374
#     4  12  23  39  64  95 126 167 211 261 319 378
#     4  10  25  43  62  89 126 168 205 265 313 379
#     4  10  21  38  61  96 129 164 209 261 326 375
#     4  10  24  42  64  88 126 172 216 258 318 382
#
# _framework density 21.690097999999999
#
# number of rings (size 3 to 8) (size 9 to 14) (size 15 to 20)
#    0.400    1.333    0.000    4.000    2.800    3.733 
#    0.000    2.667    0.000    0.000    0.000    0.000 
#    0.000    0.000    0.000    0.000    0.000    0.000 
#
# Total GULP energy -185865.081734 kJ/mol
# GULP energy per Si atom -12391.005449 kJ/mol
# Density = 2.164073 g / cm^3
# Si number density = 21.690098 Si / 1000 Ang^3
#
#
#
# Elastic Constant Matrix: (Units=GPa)
#
#
# Indices 1 2 3 4 5 6 
#
# 1 56.2244 20.0737 17.7738 0.0000 -11.3172 0.0000
# 2 20.0737 103.5285 45.5665 0.0000 -17.7158 0.0000
# 3 17.7738 45.5665 113.9259 0.0000 -19.2405 0.0000
# 4 0.0000 0.0000 0.0000 41.9699 0.0000 -7.4889
# 5 -11.3172 -17.7158 -19.2405 0.0000 46.7989 0.0000
# 6 0.0000 0.0000 0.0000 -7.4889 0.0000 7.2000
#
#
#
# Elastic Compliance Matrix: (Units=1/GPa)
#
#
# Indices 1 2 3 4 5 6 
#
# 1 0.019844 -0.002642 -0.001502 0.000000 0.003181 0.000000
# 2 -0.002642 0.012400 -0.004151 0.000000 0.002349 0.000000
# 3 -0.001502 -0.004151 0.011117 0.000000 0.002636 0.000000
# 4 0.000000 0.000000 0.000000 0.029256 0.000000 0.030430
# 5 0.003181 0.002349 0.002636 0.000000 0.024110 0.000000
# 6 0.000000 0.000000 0.000000 0.030430 0.000000 0.170539
#
#
# Mechanical properties :
#
#
# Convention : Reuss Voigt Hill
#
# Bulk Modulus (GPa) = 37.35247 48.94521 43.14884
# Shear Modulus (GPa) = 17.07755 31.87808 24.47781
#
# Velocity S-wave (km/s) = 2.80901 3.83783 3.36300
# Velocity P-wave (km/s) = 5.27058 6.50025 5.91745
#
# Compressibility (1/GPa) = 0.02677199
#
# Stress axis : x y z
#
# Youngs Moduli (GPa) = 50.39215 80.64298 89.94948
#
# Poissons Ratio (x) = 0.21309 0.13509
# Poissons Ratio (y) = 0.13315 0.37336
# Poissons Ratio (z) = 0.07568 0.33474
#
# Static dielectric constant tensor:
#      x y z
#    x 3.544280 0.000000 -0.040390 
#    y 0.000000 3.904810 0.000000 
#    z -0.040390 0.000000 4.144010 
# 
# 
# High freq. dielectric constant tensor:
#      x y z
#    x 1.830780 0.000000 -0.004360 
#    y 0.000000 1.844550 0.000000 
#    z -0.004360 0.000000 1.867130 
# 
# From -- ./inp_files/9139.got.cif
#   From: 2010.03.12/outbox.cif.g09.slc.cpg/sg3_5_cif.got.tgz:9139.got - 2010.03.31 09:20:49.
