data_PCOD8045186
_publ_section_title
;
Structure prediction by ZEFSAII (Michael W. Deem and Ramdas Pophale) SiO2 
 PCOD8045186
Probable space group: P 2
;
_chemical_formula_sum "Si O2"
_cell_formula_units_Z 14
_cell_length_a 12.910482
_cell_length_b 7.963072
_cell_length_c 6.795355
_cell_angle_alpha 90.000000
_cell_angle_beta 76.484556
_cell_angle_gamma 90.000000
_cell_volume 679.264071
_symmetry_space_group_name_H-M "P 2"
_symmetry_group_IT_number 3
_symmetry_cell_setting 'monoclinic'
loop_
_space_group_symop_operation_xyz
x,y,z
-x,y,-z
loop_
_atom_site_type_symbol
_atom_site_label
_atom_site_fract_x
_atom_site_fract_y
_atom_site_fract_z
Si Si1 0.194414 0.330390 0.433513
Si Si2 0.904715 0.723840 0.899538
Si Si3 0.694943 0.539543 0.949497
Si Si4 0.800276 0.054003 0.865807
Si Si5 0.674983 0.247084 0.241758
Si Si6 0.405575 0.861175 0.170693
Si Si7 0.500000 0.011024 0.500000
Si Si8 0.000000 0.540608 0.500000
O O1 0.265754 0.437997 0.254945
O O2 0.152156 0.171230 0.326773
O O3 0.271187 0.285897 0.576099
O O4 0.090150 0.425309 0.562816
O O5 0.794071 0.634798 0.012734
O O6 0.937255 0.659748 0.673048
O O7 0.890436 0.924191 0.895888
O O8 0.000000 0.674248 0.000000
O O9 0.609057 0.670256 0.899926
O O10 0.641083 0.416935 0.137707
O O11 0.702227 0.959491 0.811841
O O12 0.764051 0.154626 0.073518
O O13 0.573420 0.129628 0.330153
O O14 0.433983 0.884132 0.388747
O O15 0.500000 0.942951 0.000000
#
# Coordination Sequence:
#
# PCOD8045186 Si02
#       8
#     2   2   2   2   2   2   1   1
#     4  10  21  40  62  91 125 157 210 259 307 382
#     4  10  21  40  62  90 124 162 206 253 308 382
#     4   9  23  41  63  89 127 165 205 257 322 365
#     4  10  22  39  61  89 124 162 200 259 318 365
#     4  11  22  40  64  90 120 171 206 258 314 380
#     4  11  22  42  61  89 126 162 207 266 312 377
#     4  12  24  38  70  92 126 166 220 262 318 374
#     4  10  22  38  60  90 122 162 204 260 308 362
#
# _framework density 20.610538999999999
#
# number of rings (size 3 to 8) (size 9 to 14) (size 15 to 20)
#    0.000    1.714    2.857    0.857    0.000    5.143 
#    2.571    1.429    0.000    0.000    0.000    0.000 
#    0.000    0.000    0.000    0.000    0.000    0.000 
#
# Total GULP energy -173559.827224 kJ/mol
# GULP energy per Si atom -12397.130516 kJ/mol
# Density = 2.056363 g / cm^3
# Si number density = 20.610539 Si / 1000 Ang^3
#
#
#
# Elastic Constant Matrix: (Units=GPa)
#
#
# Indices 1 2 3 4 5 6 
#
# 1 76.3857 29.2084 27.7958 0.0000 13.0545 0.0000
# 2 29.2084 112.7770 45.7616 0.0000 6.1767 0.0000
# 3 27.7958 45.7616 88.0144 0.0000 13.6730 0.0000
# 4 0.0000 0.0000 0.0000 23.5280 0.0000 12.9043
# 5 13.0545 6.1767 13.6730 0.0000 37.6851 0.0000
# 6 0.0000 0.0000 0.0000 12.9043 0.0000 -19.9929
#
#
#
# Elastic Compliance Matrix: (Units=1/GPa)
#
#
# Indices 1 2 3 4 5 6 
#
# 1 0.015889 -0.002677 -0.003009 0.000000 -0.003974 0.000000
# 2 -0.002677 0.011692 -0.005384 0.000000 0.000964 0.000000
# 3 -0.003009 -0.005384 0.015697 0.000000 -0.003770 0.000000
# 4 0.000000 0.000000 0.000000 0.031390 0.000000 0.020261
# 5 -0.003974 0.000964 -0.003770 0.000000 0.029122 0.000000
# 6 0.000000 0.000000 0.000000 0.020261 0.000000 -0.036941
#
#
# Mechanical properties :
#
#
# Convention : Reuss Voigt Hill
#
# Bulk Modulus (GPa) = 47.30435 53.63430 50.46932
# Shear Modulus (GPa) = 52.06484 19.87146 35.96815
#
# Velocity S-wave (km/s) = 5.03151 3.10843 4.18201
# Velocity P-wave (km/s) = 7.53367 6.24198 6.91804
#
# Compressibility (1/GPa) = 0.02113970
#
# Stress axis : x y z
#
# Youngs Moduli (GPa) = 62.93693 85.52911 63.70711
#
# Poissons Ratio (x) = 0.22892 0.19169
# Poissons Ratio (y) = 0.16845 0.34297
# Poissons Ratio (z) = 0.18937 0.46045
#
# Static dielectric constant tensor:
#      x y z
#    x 3.851830 0.000000 -0.071850 
#    y 0.000000 4.072320 0.000000 
#    z -0.071850 0.000000 3.652280 
# 
# 
# High freq. dielectric constant tensor:
#      x y z
#    x 1.803810 0.000000 0.002980 
#    y 0.000000 1.814400 0.000000 
#    z 0.002980 0.000000 1.803930 
# 
# From -- ./inp_files/2207.got.cif
#   From: 2010.03.12/outbox.cif.g09.slc.cpg/sg3_2_cif.got.tgz:2207.got - 2010.03.31 09:20:49.
