data_PCOD8045716
_publ_section_title
;
Structure prediction by ZEFSAII (Michael W. Deem and Ramdas Pophale) SiO2 
 PCOD8045716
Probable space group: P 21
;
_chemical_formula_sum "Si O2"
_cell_formula_units_Z 12
_cell_length_a 9.258684
_cell_length_b 9.224447
_cell_length_c 7.982816
_cell_angle_alpha 90.000000
_cell_angle_beta 110.375783
_cell_angle_gamma 90.000000
_cell_volume 639.122658
_symmetry_space_group_name_H-M "P 21"
_symmetry_group_IT_number 4
_symmetry_cell_setting 'monoclinic'
loop_
_space_group_symop_operation_xyz
x,y,z
-x,1/2+y,-z
loop_
_atom_site_type_symbol
_atom_site_label
_atom_site_fract_x
_atom_site_fract_y
_atom_site_fract_z
Si Si1 0.384242 0.893890 0.972129
Si Si2 0.521505 0.788278 0.712954
Si Si3 0.619192 0.532246 0.543866
Si Si4 0.163540 0.282178 0.979348
Si Si5 0.874829 0.477105 0.897783
Si Si6 0.372795 0.190170 0.796703
O O1 0.386829 0.802232 0.799072
O O2 0.431132 0.060046 0.944439
O O3 0.502047 0.819965 0.151394
O O4 0.216277 0.893496 0.989941
O O5 0.528230 0.624443 0.647977
O O6 0.683833 0.834712 0.860617
O O7 0.489022 0.898618 0.548692
O O8 0.776999 0.472158 0.686486
O O9 0.657941 0.635097 0.402316
O O10 0.090907 0.141648 0.037045
O O11 0.211330 0.248975 0.806307
O O12 0.039162 0.407860 0.930837
#
# Coordination Sequence:
#
# PCOD8045716 Si02
#       6
#     2   2   2   2   2   2
#     4   9  18  33  55  77 103 137 175 208 253 314
#     4   9  19  35  55  79 105 137 174 214 256 306
#     4  10  19  33  55  82 106 130 172 225 260 294
#     4   9  20  36  53  75 106 141 175 207 256 318
#     4  10  20  35  54  77 104 137 175 216 257 307
#     4   9  18  34  54  78 106 136 173 216 256 307
#
# _framework density 18.775739000000002
#
# number of rings (size 3 to 8) (size 9 to 14) (size 15 to 20)
#    0.000    2.667    0.000    2.000    0.000    5.333 
#    0.000   10.000    0.000    6.000    0.000    0.000 
#    0.000    0.000    0.000    0.000    0.000    0.000 
#
# Total GULP energy -148750.675672 kJ/mol
# GULP energy per Si atom -12395.889639 kJ/mol
# Density = 1.873300 g / cm^3
# Si number density = 18.775739 Si / 1000 Ang^3
#
#
#
# Elastic Constant Matrix: (Units=GPa)
#
#
# Indices 1 2 3 4 5 6 
#
# 1 43.3958 10.3160 15.3196 0.0000 -0.4211 0.0000
# 2 10.3160 36.8080 10.1085 0.0000 9.0230 0.0000
# 3 15.3196 10.1085 80.5621 0.0000 -2.5240 0.0000
# 4 0.0000 0.0000 0.0000 35.0429 0.0000 5.0412
# 5 -0.4211 9.0230 -2.5240 0.0000 18.8865 0.0000
# 6 0.0000 0.0000 0.0000 5.0412 0.0000 37.7331
#
#
#
# Elastic Compliance Matrix: (Units=1/GPa)
#
#
# Indices 1 2 3 4 5 6 
#
# 1 0.026165 -0.007083 -0.003979 0.000000 0.003435 0.000000
# 2 -0.007083 0.034278 -0.003487 0.000000 -0.017000 0.000000
# 3 -0.003979 -0.003487 0.013714 0.000000 0.003410 0.000000
# 4 0.000000 0.000000 0.000000 0.029096 0.000000 -0.003887
# 5 0.003435 -0.017000 0.003410 0.000000 0.061602 0.000000
# 6 0.000000 0.000000 0.000000 -0.003887 0.000000 0.027021
#
#
# Mechanical properties :
#
#
# Convention : Reuss Voigt Hill
#
# Bulk Modulus (GPa) = 22.19267 25.80601 23.99934
# Shear Modulus (GPa) = 21.18702 26.66729 23.92715
#
# Velocity S-wave (km/s) = 3.36285 3.77278 3.57370
# Velocity P-wave (km/s) = 5.18882 5.72300 5.46244
#
# Compressibility (1/GPa) = 0.04505992
#
# Stress axis : x y z
#
# Youngs Moduli (GPa) = 38.21827 29.17327 72.91917
#
# Poissons Ratio (x) = 0.20662 0.29017
# Poissons Ratio (y) = 0.27068 0.25425
# Poissons Ratio (z) = 0.15208 0.10172
#
# Static dielectric constant tensor:
#      x y z
#    x 3.247060 0.000000 -0.299990 
#    y 0.000000 3.536160 0.000000 
#    z -0.299990 0.000000 3.552020 
# 
# 
# High freq. dielectric constant tensor:
#      x y z
#    x 1.706450 0.000000 -0.024590 
#    y 0.000000 1.736650 0.000000 
#    z -0.024590 0.000000 1.726080 
# 
# From -- ./inp_files/5201.got.cif
#   From: 2010.03.12/outbox.cif.g09.slc.cpg/sg4_3_cif.got.tgz:5201.got - 2010.03.31 09:31:35.
