data_PCOD8045267
_publ_section_title
;
Structure prediction by ZEFSAII (Michael W. Deem and Ramdas Pophale) SiO2 
 PCOD8045267
Probable space group: P 2
;
_chemical_formula_sum "Si O2"
_cell_formula_units_Z 15
_cell_length_a 10.132658
_cell_length_b 5.812076
_cell_length_c 17.696956
_cell_angle_alpha 90.000000
_cell_angle_beta 37.387086
_cell_angle_gamma 90.000000
_cell_volume 632.823637
_symmetry_space_group_name_H-M "P 2"
_symmetry_group_IT_number 3
_symmetry_cell_setting 'monoclinic'
loop_
_space_group_symop_operation_xyz
x,y,z
-x,y,-z
loop_
_atom_site_type_symbol
_atom_site_label
_atom_site_fract_x
_atom_site_fract_y
_atom_site_fract_z
Si Si1 0.179810 0.399520 0.974725
Si Si2 0.122304 0.401507 0.672322
Si Si3 0.413272 0.382947 0.314419
Si Si4 0.607595 0.081860 0.356774
Si Si5 0.000000 0.079124 0.500000
Si Si6 0.989700 0.766159 0.159761
Si Si7 0.251115 0.142451 0.096382
Si Si8 0.244018 0.750523 0.490756
O O1 0.417701 0.410559 0.830234
O O2 0.097458 0.655375 0.036269
O O3 0.191627 0.237869 0.041360
O O4 0.000000 0.295258 0.000000
O O5 0.309058 0.207174 0.603141
O O6 0.152959 0.535001 0.580025
O O7 0.138334 0.575037 0.734679
O O8 0.886415 0.278874 0.777531
O O9 0.521438 0.269292 0.338124
O O10 0.346627 0.642037 0.368071
O O11 0.204746 0.235890 0.382666
O O12 0.421679 0.891538 0.458754
O O13 0.812756 0.962060 0.221620
O O14 0.055527 0.924234 0.548599
O O15 0.181244 0.874492 0.125364
O O16 0.500000 0.174129 0.000000
#
# Coordination Sequence:
#
# PCOD8045267 Si02
#       8
#     2   2   2   2   1   2   2   2
#     4  11  23  42  69  99 131 172 223 282 340 404
#     4  10  23  42  65  96 133 170 222 282 336 403
#     4  11  24  43  67  97 137 179 226 280 333 404
#     4  10  22  41  65 101 135 171 223 280 342 403
#     4  10  26  44  62 100 138 184 236 272 328 404
#     4  10  22  40  64  96 133 171 220 274 341 407
#     4  10  24  43  65  96 133 175 222 276 338 404
#     4  11  24  43  69  96 135 182 224 275 340 403
#
# _framework density 23.703288000000001
#
# number of rings (size 3 to 8) (size 9 to 14) (size 15 to 20)
#    0.000    1.600    0.000    4.400    0.000   16.533 
#    0.000    1.333    0.000    1.600    0.000    0.000 
#    0.000    0.000    0.000    0.000    0.000    0.000 
#
# Total GULP energy -185995.784509 kJ/mol
# GULP energy per Si atom -12399.718967 kJ/mol
# Density = 2.364934 g / cm^3
# Si number density = 23.703288 Si / 1000 Ang^3
#
#
#
# Elastic Constant Matrix: (Units=GPa)
#
#
# Indices 1 2 3 4 5 6 
#
# 1 108.1421 47.1432 51.8250 0.0000 -30.9811 0.0000
# 2 47.1432 107.0392 46.0460 0.0000 -14.8363 0.0000
# 3 51.8250 46.0460 138.6394 0.0000 -17.3988 0.0000
# 4 0.0000 0.0000 0.0000 36.9993 0.0000 -1.6924
# 5 -30.9811 -14.8363 -17.3988 0.0000 45.5755 0.0000
# 6 0.0000 0.0000 0.0000 -1.6924 0.0000 33.0723
#
#
#
# Elastic Compliance Matrix: (Units=1/GPa)
#
#
# Indices 1 2 3 4 5 6 
#
# 1 0.014683 -0.004056 -0.003208 0.000000 0.007436 0.000000
# 2 -0.004056 0.012249 -0.002518 0.000000 0.000269 0.000000
# 3 -0.003208 -0.002518 0.009319 0.000000 0.000557 0.000000
# 4 0.000000 0.000000 0.000000 0.027091 0.000000 0.001386
# 5 0.007436 0.000269 0.000557 0.000000 0.027297 0.000000
# 6 0.000000 0.000000 0.000000 0.001386 0.000000 0.030308
#
#
# Mechanical properties :
#
#
# Convention : Reuss Voigt Hill
#
# Bulk Modulus (GPa) = 59.93250 71.53880 65.73565
# Shear Modulus (GPa) = 34.22925 37.04985 35.63955
#
# Velocity S-wave (km/s) = 3.80422 3.95785 3.88180
# Velocity P-wave (km/s) = 6.68098 7.15071 6.91983
#
# Compressibility (1/GPa) = 0.01668544
#
# Stress axis : x y z
#
# Youngs Moduli (GPa) = 68.10521 81.63653 107.31229
#
# Poissons Ratio (x) = 0.33112 0.34430
# Poissons Ratio (y) = 0.27624 0.27026
# Poissons Ratio (z) = 0.21851 0.20560
#
# Static dielectric constant tensor:
#      x y z
#    x 4.056010 0.000000 -0.227630 
#    y 0.000000 4.548130 0.000000 
#    z -0.227630 0.000000 4.443730 
# 
# 
# High freq. dielectric constant tensor:
#      x y z
#    x 1.922700 0.000000 -0.011910 
#    y 0.000000 1.954460 0.000000 
#    z -0.011910 0.000000 1.946750 
# 
# From -- ./inp_files/11339.got.cif
#   From: 2010.03.12/outbox.cif.g09.slc.cpg/sg3_6_cif.got.tgz:11339.got - 2010.03.31 09:20:49.
