data_PCOD8045332
_publ_section_title
;
Structure prediction by ZEFSAII (Michael W. Deem and Ramdas Pophale) SiO2 
 PCOD8045332
Probable space group: P 2
;
_chemical_formula_sum "Si O2"
_cell_formula_units_Z 16
_cell_length_a 10.703619
_cell_length_b 5.158905
_cell_length_c 14.612926
_cell_angle_alpha 90.000000
_cell_angle_beta 56.122043
_cell_angle_gamma 90.000000
_cell_volume 669.918709
_symmetry_space_group_name_H-M "P 2"
_symmetry_group_IT_number 3
_symmetry_cell_setting 'monoclinic'
loop_
_space_group_symop_operation_xyz
x,y,z
-x,y,-z
loop_
_atom_site_type_symbol
_atom_site_label
_atom_site_fract_x
_atom_site_fract_y
_atom_site_fract_z
Si Si1 0.089636 0.176650 0.555885
Si Si2 0.431809 0.891999 0.671940
Si Si3 0.836347 0.799173 0.324405
Si Si4 0.633210 0.448277 0.502529
Si Si5 0.466051 0.189209 0.209361
Si Si6 0.367555 0.699920 0.883525
Si Si7 0.848564 0.816803 0.872735
Si Si8 0.819443 0.329335 0.773810
O O1 0.260279 0.286235 0.470884
O O2 0.000000 0.119023 0.500000
O O3 0.984995 0.363071 0.661866
O O4 0.100463 0.905453 0.605105
O O5 0.300495 0.984888 0.656339
O O6 0.563033 0.708617 0.576576
O O7 0.340472 0.726107 0.785878
O O8 0.507610 0.146949 0.690233
O O9 0.753743 0.526619 0.375011
O O10 0.971494 0.772217 0.196523
O O11 0.500000 0.292408 0.500000
O O12 0.570543 0.412662 0.123043
O O13 0.293575 0.259208 0.262336
O O14 0.508168 0.920775 0.140314
O O15 0.215184 0.761654 0.000302
O O16 0.773792 0.603739 0.835975
O O17 0.811768 0.106119 0.854144
#
# Coordination Sequence:
#
# PCOD8045332 Si02
#       8
#     2   2   2   2   2   2   2   2
#     4  11  26  40  68 104 138 187 234 295 363 429
#     4   9  24  42  70  99 138 182 241 296 353 425
#     4  10  23  46  66  98 138 186 234 294 363 424
#     4  10  22  44  69  97 133 185 237 292 355 425
#     4  10  23  42  65 105 132 181 236 284 360 411
#     4  10  23  41  67 105 135 184 236 294 344 432
#     4  11  23  43  68  98 141 185 235 283 364 422
#     4  11  24  42  67  98 144 183 225 301 351 431
#
# _framework density 23.883496000000001
#
# number of rings (size 3 to 8) (size 9 to 14) (size 15 to 20)
#    0.750    1.000    1.250    1.500    3.500    7.500 
#    0.000    0.000    2.750    0.000    0.000    0.000 
#    0.000    0.000    0.000    0.000    0.000    0.000 
#
# Total GULP energy -198214.677339 kJ/mol
# GULP energy per Si atom -12388.417334 kJ/mol
# Density = 2.382914 g / cm^3
# Si number density = 23.883496 Si / 1000 Ang^3
#
#
#
# Elastic Constant Matrix: (Units=GPa)
#
#
# Indices 1 2 3 4 5 6 
#
# 1 156.0526 32.1490 53.1945 0.0000 -21.2950 0.0000
# 2 32.1490 94.0314 9.1696 0.0000 -9.5831 0.0000
# 3 53.1945 9.1696 99.3619 0.0000 -12.8504 0.0000
# 4 0.0000 0.0000 0.0000 4.8989 0.0000 -26.5450
# 5 -21.2950 -9.5831 -12.8504 0.0000 26.7565 0.0000
# 6 0.0000 0.0000 0.0000 -26.5450 0.0000 18.7162
#
#
#
# Elastic Compliance Matrix: (Units=1/GPa)
#
#
# Indices 1 2 3 4 5 6 
#
# 1 0.008792 -0.002181 -0.003947 0.000000 0.004321 0.000000
# 2 -0.002181 0.011606 0.000437 0.000000 0.002631 0.000000
# 3 -0.003947 0.000437 0.012529 0.000000 0.003032 0.000000
# 4 0.000000 0.000000 0.000000 -0.030535 0.000000 -0.043307
# 5 0.004321 0.002631 0.003032 0.000000 0.043212 0.000000
# 6 0.000000 0.000000 0.000000 -0.043307 0.000000 -0.007992
#
#
# Mechanical properties :
#
#
# Convention : Reuss Voigt Hill
#
# Bulk Modulus (GPa) = 46.41397 59.83023 53.12210
# Shear Modulus (GPa) = 89.00525 27.06982 58.03754
#
# Velocity S-wave (km/s) = 6.11125 3.37027 4.93488
# Velocity P-wave (km/s) = 8.32299 6.34430 7.40008
#
# Compressibility (1/GPa) = 0.02154524
#
# Stress axis : x y z
#
# Youngs Moduli (GPa) = 113.73341 86.16316 79.81348
#
# Poissons Ratio (x) = 0.18791 0.31503
# Poissons Ratio (y) = 0.24803 -0.03486
# Poissons Ratio (z) = 0.44891 -0.03763
#
# Static dielectric constant tensor:
#      x y z
#    x 4.399080 0.000000 -0.186710 
#    y 0.000000 4.069170 0.000000 
#    z -0.186710 0.000000 4.246020 
# 
# 
# High freq. dielectric constant tensor:
#      x y z
#    x 1.941360 0.000000 -0.016150 
#    y 0.000000 1.942420 0.000000 
#    z -0.016150 0.000000 1.946580 
# 
# From -- ./inp_files/13664.got.cif
#   From: 2010.03.12/outbox.cif.g09.slc.cpg/sg3_7_cif.got.tgz:13664.got - 2010.03.31 09:20:49.
