data_PCOD8045948
_publ_section_title
;
Structure prediction by ZEFSAII (Michael W. Deem and Ramdas Pophale) SiO2 
 PCOD8045948
Probable space group: P 21
;
_chemical_formula_sum "Si O2"
_cell_formula_units_Z 16
_cell_length_a 9.044007
_cell_length_b 8.888140
_cell_length_c 9.802519
_cell_angle_alpha 90.000000
_cell_angle_beta 78.827444
_cell_angle_gamma 90.000000
_cell_volume 773.036074
_symmetry_space_group_name_H-M "P 21"
_symmetry_group_IT_number 4
_symmetry_cell_setting 'monoclinic'
loop_
_space_group_symop_operation_xyz
x,y,z
-x,1/2+y,-z
loop_
_atom_site_type_symbol
_atom_site_label
_atom_site_fract_x
_atom_site_fract_y
_atom_site_fract_z
Si Si1 0.845570 0.396790 0.692235
Si Si2 0.264935 0.047023 0.542724
Si Si3 0.616112 0.532260 0.940059
Si Si4 0.621265 0.816078 0.100380
Si Si5 0.581483 0.112071 0.383354
Si Si6 0.413703 0.905052 0.765701
Si Si7 0.380771 0.662356 0.326740
Si Si8 0.183033 0.348955 0.702534
O O1 0.854557 0.466405 0.537181
O O2 0.744727 0.500964 0.807828
O O3 0.776549 0.225661 0.705858
O O4 0.010675 0.395914 0.724039
O O5 0.418044 0.037849 0.427048
O O6 0.213056 0.215950 0.588879
O O7 0.287137 0.961764 0.681613
O O8 0.448302 0.480242 0.920845
O O9 0.615158 0.711643 0.967159
O O10 0.650555 0.441225 0.073286
O O11 0.520064 0.750443 0.239096
O O12 0.786235 0.815328 0.141231
O O13 0.571354 0.225776 0.256694
O O14 0.619064 0.204552 0.513946
O O15 0.710112 0.988890 0.348167
O O16 0.578715 0.986101 0.709365
#
# Coordination Sequence:
#
# PCOD8045948 Si02
#       8
#     2   2   2   2   2   2   2   2
#     4  11  25  40  63  95 139 176 208 272 342 401
#     4  11  21  41  66  93 126 172 215 277 317 388
#     4  10  22  42  65  95 125 168 223 270 321 385
#     4  10  21  42  65  94 121 171 220 272 316 379
#     4  11  20  37  66  96 123 165 224 262 322 380
#     4  10  20  37  70  96 118 167 224 275 310 377
#     4   9  18  38  62  92 123 163 211 274 319 369
#     4  12  25  41  63  97 139 172 209 276 339 391
#
# _framework density 20.697610999999998
#
# number of rings (size 3 to 8) (size 9 to 14) (size 15 to 20)
#    0.000    1.500    5.000    3.000    5.250    0.000 
#    2.250    0.000    0.000    0.000    0.000    0.000 
#    0.000    0.000    0.000    0.000    0.000    0.000 
#
# Total GULP energy -198279.561770 kJ/mol
# GULP energy per Si atom -12392.472611 kJ/mol
# Density = 2.065050 g / cm^3
# Si number density = 20.697611 Si / 1000 Ang^3
#
#
#
# Elastic Constant Matrix: (Units=GPa)
#
#
# Indices 1 2 3 4 5 6 
#
# 1 120.9642 34.2239 24.6529 0.0000 27.1984 0.0000
# 2 34.2239 89.3962 11.7332 0.0000 8.9264 0.0000
# 3 24.6529 11.7332 71.9220 0.0000 12.7954 0.0000
# 4 0.0000 0.0000 0.0000 29.5214 0.0000 8.4642
# 5 27.1984 8.9264 12.7954 0.0000 27.7902 0.0000
# 6 0.0000 0.0000 0.0000 8.4642 0.0000 20.7289
#
#
#
# Elastic Compliance Matrix: (Units=1/GPa)
#
#
# Indices 1 2 3 4 5 6 
#
# 1 0.011717 -0.003295 -0.001772 0.000000 -0.009594 0.000000
# 2 -0.003295 0.012602 -0.000850 0.000000 -0.000432 0.000000
# 3 -0.001772 -0.000850 0.015568 0.000000 -0.005161 0.000000
# 4 0.000000 0.000000 0.000000 0.038365 0.000000 -0.015666
# 5 -0.009594 -0.000432 -0.005161 0.000000 0.047888 0.000000
# 6 0.000000 0.000000 0.000000 -0.015666 0.000000 0.054638
#
#
# Mechanical properties :
#
#
# Convention : Reuss Voigt Hill
#
# Bulk Modulus (GPa) = 35.64566 47.05583 41.35075
# Shear Modulus (GPa) = 24.75676 29.71958 27.23817
#
# Velocity S-wave (km/s) = 3.46224 3.79343 3.63161
# Velocity P-wave (km/s) = 5.76562 6.47851 6.13243
#
# Compressibility (1/GPa) = 0.02805391
#
# Stress axis : x y z
#
# Youngs Moduli (GPa) = 85.34257 79.35038 64.23395
#
# Poissons Ratio (x) = 0.26149 0.11383
# Poissons Ratio (y) = 0.28123 0.05457
# Poissons Ratio (z) = 0.15123 0.06741
#
# Static dielectric constant tensor:
#      x y z
#    x 3.507770 0.000000 0.336500 
#    y 0.000000 3.969660 0.000000 
#    z 0.336500 0.000000 4.027030 
# 
# 
# High freq. dielectric constant tensor:
#      x y z
#    x 1.766930 0.000000 0.024120 
#    y 0.000000 1.816900 0.000000 
#    z 0.024120 0.000000 1.822550 
# 
# From -- ./inp_files/5815.got.cif
#   From: 2010.03.12/outbox.cif.g09.slc.cpg/sg4_3_cif.got.tgz:5815.got - 2010.03.31 09:31:35.
