data_PCOD8045750
_publ_section_title
;
Structure prediction by ZEFSAII (Michael W. Deem and Ramdas Pophale) SiO2 
 PCOD8045750
Probable space group: P 21
;
_chemical_formula_sum "Si O2"
_cell_formula_units_Z 10
_cell_length_a 10.983082
_cell_length_b 5.097853
_cell_length_c 10.790046
_cell_angle_alpha 90.000000
_cell_angle_beta 120.670742
_cell_angle_gamma 90.000000
_cell_volume 519.625284
_symmetry_space_group_name_H-M "P 21"
_symmetry_group_IT_number 4
_symmetry_cell_setting 'monoclinic'
loop_
_space_group_symop_operation_xyz
x,y,z
-x,1/2+y,-z
loop_
_atom_site_type_symbol
_atom_site_label
_atom_site_fract_x
_atom_site_fract_y
_atom_site_fract_z
Si Si1 0.455383 0.243000 0.906222
Si Si2 0.318867 0.162572 0.365448
Si Si3 0.958210 0.740765 0.638274
Si Si4 0.442180 0.662807 0.313928
Si Si5 0.130472 0.240244 0.685994
O O1 0.534071 0.203686 0.817852
O O2 0.289552 0.189498 0.809358
O O3 0.480695 0.540254 0.962064
O O4 0.370794 0.380716 0.295611
O O5 0.408330 0.183590 0.538299
O O6 0.154555 0.202338 0.311046
O O7 0.335351 0.880484 0.311004
O O8 0.078813 0.520187 0.709030
O O9 0.876820 0.723430 0.465877
O O10 0.031294 0.020450 0.695736
#
# Coordination Sequence:
#
# PCOD8045750 Si02
#       5
#     2   2   2   2   2
#     4  12  24  40  60  82 122 158 194 232 270 354
#     4  10  19  35  60  85 118 140 182 256 287 337
#     4  10  19  35  60  85 118 140 182 256 287 337
#     4  10  21  35  56  88 113 149 193 227 298 332
#     4  10  21  35  56  88 113 149 193 227 298 332
#
# _framework density 19.244637000000001
#
# number of rings (size 3 to 8) (size 9 to 14) (size 15 to 20)
#    0.000    1.600    2.000    3.600    0.000    0.000 
#    0.000    0.000    0.000   24.000    0.000    0.000 
#    0.000    0.000    0.000    0.000    0.000    0.000 
#
# Total GULP energy -124060.737088 kJ/mol
# GULP energy per Si atom -12406.073709 kJ/mol
# Density = 1.920083 g / cm^3
# Si number density = 19.244637 Si / 1000 Ang^3
#
#
#
# Elastic Constant Matrix: (Units=GPa)
#
#
# Indices 1 2 3 4 5 6 
#
# 1 91.0906 -6.0431 26.7605 0.0000 2.0531 0.0000
# 2 -6.0431 74.9881 7.1356 0.0000 1.5305 0.0000
# 3 26.7605 7.1356 56.6926 0.0000 -1.4538 0.0000
# 4 0.0000 0.0000 0.0000 22.5325 0.0000 0.5739
# 5 2.0531 1.5305 -1.4538 0.0000 32.8094 0.0000
# 6 0.0000 0.0000 0.0000 0.5739 0.0000 10.5797
#
#
#
# Elastic Compliance Matrix: (Units=1/GPa)
#
#
# Indices 1 2 3 4 5 6 
#
# 1 0.012988 0.001677 -0.006372 0.000000 -0.001173 0.000000
# 2 0.001677 0.013730 -0.002542 0.000000 -0.000858 0.000000
# 3 -0.006372 -0.002542 0.021004 0.000000 0.001448 0.000000
# 4 0.000000 0.000000 0.000000 0.044442 0.000000 -0.002411
# 5 -0.001173 -0.000858 0.001448 0.000000 0.030657 0.000000
# 6 0.000000 0.000000 0.000000 -0.002411 0.000000 0.094651
#
#
# Mechanical properties :
#
#
# Convention : Reuss Voigt Hill
#
# Bulk Modulus (GPa) = 30.07671 30.94193 30.50932
# Shear Modulus (GPa) = 20.57388 26.17889 23.37639
#
# Velocity S-wave (km/s) = 3.27321 3.69226 3.48903
# Velocity P-wave (km/s) = 5.47246 5.85578 5.66736
#
# Compressibility (1/GPa) = 0.03324832
#
# Stress axis : x y z
#
# Youngs Moduli (GPa) = 76.99632 72.83347 47.61084
#
# Poissons Ratio (x) = -0.12213 0.30336
# Poissons Ratio (y) = -0.12912 0.12101
# Poissons Ratio (z) = 0.49060 0.18512
#
# Static dielectric constant tensor:
#      x y z
#    x 3.413160 0.000000 -0.004290 
#    y 0.000000 3.703350 0.000000 
#    z -0.004290 0.000000 3.221880 
# 
# 
# High freq. dielectric constant tensor:
#      x y z
#    x 1.758290 0.000000 -0.000040 
#    y 0.000000 1.768170 0.000000 
#    z -0.000040 0.000000 1.716000 
# 
# From -- ./inp_files/5048.got.cif
#   From: 2010.03.12/outbox.cif.g09.slc.cpg/sg4_3_cif.got.tgz:5048.got - 2010.03.31 09:31:35.
