data_PCOD8045821
_publ_section_title
;
Structure prediction by ZEFSAII (Michael W. Deem and Ramdas Pophale) SiO2 
 PCOD8045821
Probable space group: P 21
;
_chemical_formula_sum "Si O2"
_cell_formula_units_Z 16
_cell_length_a 19.024143
_cell_length_b 8.921235
_cell_length_c 18.399519
_cell_angle_alpha 90.000000
_cell_angle_beta 164.355056
_cell_angle_gamma 90.000000
_cell_volume 842.127135
_symmetry_space_group_name_H-M "P 21"
_symmetry_group_IT_number 4
_symmetry_cell_setting 'monoclinic'
loop_
_space_group_symop_operation_xyz
x,y,z
-x,1/2+y,-z
loop_
_atom_site_type_symbol
_atom_site_label
_atom_site_fract_x
_atom_site_fract_y
_atom_site_fract_z
Si Si1 0.749414 0.681830 0.603448
Si Si2 0.744799 0.355374 0.665909
Si Si3 0.752645 0.353838 0.845703
Si Si4 0.786046 0.832850 0.073360
Si Si5 0.248302 0.192713 0.107320
Si Si6 0.713146 0.523462 0.424172
Si Si7 0.257239 0.321433 0.804809
Si Si8 0.756343 0.522179 0.302127
O O1 0.743063 0.526501 0.639951
O O2 0.496024 0.774466 0.369328
O O3 0.762707 0.658199 0.529643
O O4 0.995914 0.774569 0.872892
O O5 0.751859 0.344726 0.758861
O O6 0.488536 0.276083 0.382397
O O7 0.991972 0.273619 0.879698
O O8 0.753141 0.522900 0.871661
O O9 0.747376 0.769307 0.115798
O O10 0.078610 0.892461 0.353414
O O11 0.738257 0.701990 0.967123
O O12 0.578750 0.964881 0.852366
O O13 0.744982 0.581319 0.373647
O O14 0.016886 0.428679 0.545787
O O15 0.248375 0.169447 0.751074
O O16 0.516988 0.413518 0.044689
#
# Coordination Sequence:
#
# PCOD8045821 Si02
#       8
#     2   2   2   2   2   2   2   2
#     4  12  23  42  61  86 119 155 201 240 299 351
#     4  12  23  41  65  80 114 164 200 235 296 372
#     4  12  26  38  57  93 121 145 194 264 301 331
#     4  10  19  39  63  86 115 161 202 233 280 364
#     4  12  23  42  61  86 119 154 201 241 300 351
#     4  10  20  39  63  86 116 161 202 233 280 363
#     4  10  21  38  63  91 123 155 198 240 289 350
#     4  10  21  39  63  92 123 155 198 240 289 350
#
# _framework density 18.999506
#
# number of rings (size 3 to 8) (size 9 to 14) (size 15 to 20)
#    0.000    1.000    2.500    5.250    0.000    0.000 
#    4.500    0.000    0.000    0.000    0.000    0.000 
#    0.000    0.000    0.000    0.000    0.000    0.000 
#
# Total GULP energy -198461.468162 kJ/mol
# GULP energy per Si atom -12403.841760 kJ/mol
# Density = 1.895626 g / cm^3
# Si number density = 18.999506 Si / 1000 Ang^3
#
#
#
# Elastic Constant Matrix: (Units=GPa)
#
#
# Indices 1 2 3 4 5 6 
#
# 1 156.8566 101.0043 69.4644 0.0000 -20.8771 0.0000
# 2 101.0043 202.4295 99.2303 0.0000 -9.0399 0.0000
# 3 69.4644 99.2303 174.6070 0.0000 1.3781 0.0000
# 4 0.0000 0.0000 0.0000 36.5849 0.0000 -2.7947
# 5 -20.8771 -9.0399 1.3781 0.0000 32.2886 0.0000
# 6 0.0000 0.0000 0.0000 -2.7947 0.0000 27.3544
#
#
#
# Elastic Compliance Matrix: (Units=1/GPa)
#
#
# Indices 1 2 3 4 5 6 
#
# 1 0.010656 -0.004097 -0.001957 0.000000 0.005826 0.000000
# 2 -0.004097 0.008566 -0.003237 0.000000 -0.000113 0.000000
# 3 -0.001957 -0.003237 0.008365 0.000000 -0.002528 0.000000
# 4 0.000000 0.000000 0.000000 0.027549 0.000000 0.002815
# 5 0.005826 -0.000113 -0.002528 0.000000 0.034814 0.000000
# 6 0.000000 0.000000 0.000000 0.002815 0.000000 0.036845
#
#
# Mechanical properties :
#
#
# Convention : Reuss Voigt Hill
#
# Bulk Modulus (GPa) = 111.05423 119.25456 115.15439
# Shear Modulus (GPa) = 33.69756 36.85852 35.27804
#
# Velocity S-wave (km/s) = 4.21598 4.40929 4.31372
# Velocity P-wave (km/s) = 9.07069 9.42475 9.24941
#
# Compressibility (1/GPa) = 0.00900461
#
# Stress axis : x y z
#
# Youngs Moduli (GPa) = 93.84744 116.73579 119.54217
#
# Poissons Ratio (x) = 0.47832 0.23388
# Poissons Ratio (y) = 0.38454 0.38700
# Poissons Ratio (z) = 0.18361 0.37791
#
# Static dielectric constant tensor:
#      x y z
#    x 3.839680 0.000000 -0.049330 
#    y 0.000000 3.242350 0.000000 
#    z -0.049330 0.000000 3.846010 
# 
# 
# High freq. dielectric constant tensor:
#      x y z
#    x 1.755300 0.000000 -0.000140 
#    y 0.000000 1.726330 0.000000 
#    z -0.000140 0.000000 1.768180 
# 
# From -- ./inp_files/14211.got.cif
#   From: 2010.03.12/outbox.cif.g09.slc.cpg/sg4_8_cif.got.tgz:14211.got - 2010.03.31 09:31:35.
