data_PCOD8045583
_publ_section_title
;
Structure prediction by ZEFSAII (Michael W. Deem and Ramdas Pophale) SiO2 
 PCOD8045583
Probable space group: P 21
;
_chemical_formula_sum "Si O2"
_cell_formula_units_Z 14
_cell_length_a 13.446904
_cell_length_b 5.321541
_cell_length_c 15.295942
_cell_angle_alpha 90.000000
_cell_angle_beta 43.907572
_cell_angle_gamma 90.000000
_cell_volume 759.067787
_symmetry_space_group_name_H-M "P 21"
_symmetry_group_IT_number 4
_symmetry_cell_setting 'monoclinic'
loop_
_space_group_symop_operation_xyz
x,y,z
-x,1/2+y,-z
loop_
_atom_site_type_symbol
_atom_site_label
_atom_site_fract_x
_atom_site_fract_y
_atom_site_fract_z
Si Si1 0.182203 0.452610 0.464405
Si Si2 0.228270 0.952639 0.502372
Si Si3 0.983968 0.445656 0.896276
Si Si4 0.852077 0.445637 0.162778
Si Si5 0.592353 0.470425 0.437891
Si Si6 0.100837 0.952549 0.243813
Si Si7 0.893206 0.952567 0.686321
O O1 0.278568 0.702664 0.417525
O O2 0.107956 0.451846 0.417398
O O3 0.060285 0.452830 0.616060
O O4 0.278868 0.202996 0.417692
O O5 0.293817 0.949009 0.556517
O O6 0.056316 0.953074 0.616743
O O7 0.083922 0.690355 0.837582
O O8 0.895968 0.452698 0.862572
O O9 0.075531 0.190786 0.840468
O O10 0.869228 0.449073 0.047462
O O11 0.682858 0.452991 0.290906
O O12 0.517287 0.740454 0.489096
O O13 0.182798 0.703243 0.227502
O O14 0.182747 0.202193 0.227252
#
# Coordination Sequence:
#
# PCOD8045583 Si02
#       7
#     2   2   2   2   2   2   2
#     4  10  17  28  46  71 101 127 155 201 263 324
#     4  10  18  30  46  64  95 132 163 200 248 296
#     4  10  19  32  54  75  99 136 171 214 271 315
#     4  10  20  35  51  73 100 132 180 224 256 300
#     4  12  24  37  52  74 106 146 186 214 244 295
#     4  10  16  25  40  66  98 126 151 182 244 314
#     4  10  18  27  45  71 103 127 154 201 260 326
#
# _framework density 18.443677000000001
#
# number of rings (size 3 to 8) (size 9 to 14) (size 15 to 20)
#    0.000    1.714    0.000   10.286    0.000    0.000 
#    0.000    0.000    0.000    0.000    0.000    0.000 
#    0.000   38.857    0.000    0.000    0.000    0.000 
#
# Total GULP energy -173518.029767 kJ/mol
# GULP energy per Si atom -12394.144983 kJ/mol
# Density = 1.840170 g / cm^3
# Si number density = 18.443677 Si / 1000 Ang^3
#
#
#
# Elastic Constant Matrix: (Units=GPa)
#
#
# Indices 1 2 3 4 5 6 
#
# 1 82.2313 25.0735 24.4177 0.0000 26.4980 0.0000
# 2 25.0735 188.0561 19.3489 0.0000 15.0515 0.0000
# 3 24.4177 19.3489 69.7233 0.0000 12.7287 0.0000
# 4 0.0000 0.0000 0.0000 12.1941 0.0000 3.5164
# 5 26.4980 15.0515 12.7287 0.0000 24.0151 0.0000
# 6 0.0000 0.0000 0.0000 3.5164 0.0000 31.0573
#
#
#
# Elastic Compliance Matrix: (Units=1/GPa)
#
#
# Indices 1 2 3 4 5 6 
#
# 1 0.019593 -0.000732 -0.003095 0.000000 -0.019520 0.000000
# 2 -0.000732 0.005691 -0.000907 0.000000 -0.002279 0.000000
# 3 -0.003095 -0.000907 0.016552 0.000000 -0.004790 0.000000
# 4 0.000000 0.000000 0.000000 0.084775 0.000000 -0.009599
# 5 -0.019520 -0.002279 -0.004790 0.000000 0.067145 0.000000
# 6 0.000000 0.000000 0.000000 -0.009599 0.000000 0.033285
#
#
# Mechanical properties :
#
#
# Convention : Reuss Voigt Hill
#
# Bulk Modulus (GPa) = 30.89396 53.07676 41.98536
# Shear Modulus (GPa) = 20.21849 31.53135 25.87492
#
# Velocity S-wave (km/s) = 3.31453 4.13922 3.74961
# Velocity P-wave (km/s) = 5.60668 7.18919 6.44668
#
# Compressibility (1/GPa) = 0.03236879
#
# Stress axis : x y z
#
# Youngs Moduli (GPa) = 51.03897 175.72186 60.41399
#
# Poissons Ratio (x) = 0.12855 0.18699
# Poissons Ratio (y) = 0.03734 0.05480
# Poissons Ratio (z) = 0.15797 0.15939
#
# Static dielectric constant tensor:
#      x y z
#    x 3.160610 0.000000 0.324700 
#    y 0.000000 5.507300 0.000000 
#    z 0.324700 0.000000 2.952540 
# 
# 
# High freq. dielectric constant tensor:
#      x y z
#    x 1.697190 0.000000 0.045310 
#    y 0.000000 1.765570 0.000000 
#    z 0.045310 0.000000 1.648190 
# 
# From -- ./inp_files/7179.got.cif
#   From: 2010.03.12/outbox.cif.g09.slc.cpg/sg4_4_cif.got.tgz:7179.got - 2010.03.31 09:31:35.
