data_PCOD8045365
_publ_section_title
;
Structure prediction by ZEFSAII (Michael W. Deem and Ramdas Pophale) SiO2 
 PCOD8045365
Probable space group: P 2
;
_chemical_formula_sum "Si O2"
_cell_formula_units_Z 12
_cell_length_a 25.662135
_cell_length_b 5.108368
_cell_length_c 13.344028
_cell_angle_alpha 90.000000
_cell_angle_beta 163.559431
_cell_angle_gamma 90.000000
_cell_volume 495.085281
_symmetry_space_group_name_H-M "P 2"
_symmetry_group_IT_number 3
_symmetry_cell_setting 'monoclinic'
loop_
_space_group_symop_operation_xyz
x,y,z
-x,y,-z
loop_
_atom_site_type_symbol
_atom_site_label
_atom_site_fract_x
_atom_site_fract_y
_atom_site_fract_z
Si Si1 0.170790 0.763600 0.609756
Si Si2 0.607837 0.068582 0.599269
Si Si3 0.220034 0.447253 0.395220
Si Si4 0.005535 0.251912 0.394953
Si Si5 0.556099 0.557389 0.379573
Si Si6 0.171775 0.941889 0.391974
O O1 0.108914 0.886384 0.389217
O O2 0.048912 0.512190 0.411734
O O3 0.379681 0.662575 0.994136
O O4 0.146881 0.006801 0.642806
O O5 0.500000 0.989035 0.500000
O O6 0.500916 0.310971 0.348352
O O7 0.633539 0.805185 0.582524
O O8 0.809944 0.161751 0.996342
O O9 0.289216 0.434290 0.408755
O O10 0.304599 0.709697 0.599627
O O11 0.288050 0.208568 0.591139
O O12 0.000000 0.487598 0.000000
O O13 0.000000 0.335509 0.500000
O O14 0.000000 0.988090 0.000000
#
# Coordination Sequence:
#
# PCOD8045365 Si02
#       6
#     2   2   2   2   2   2
#     4  12  26  46  74 110 150 196 246 312 378 437
#     4  12  27  47  76 108 149 195 251 308 374 449
#     4  10  23  41  70 100 144 184 250 291 358 436
#     4  12  27  47  76 108 149 195 251 308 374 449
#     4  12  26  46  74 110 150 196 246 312 378 437
#     4  10  23  41  70 100 144 184 250 291 358 436
#
# _framework density 24.238246
#
# number of rings (size 3 to 8) (size 9 to 14) (size 15 to 20)
#    0.000    0.667    0.000    7.000   14.000    0.667 
#    0.000    1.667    0.000    0.000    0.000    0.000 
#    0.000    0.000    0.000    0.000    0.000    0.000 
#
# Total GULP energy -148754.526990 kJ/mol
# GULP energy per Si atom -12396.210583 kJ/mol
# Density = 2.418308 g / cm^3
# Si number density = 24.238246 Si / 1000 Ang^3
#
#
#
# Elastic Constant Matrix: (Units=GPa)
#
#
# Indices 1 2 3 4 5 6 
#
# 1 159.1336 59.4027 46.9461 0.0000 4.1775 0.0000
# 2 59.4027 196.3093 12.1844 0.0000 7.0563 0.0000
# 3 46.9461 12.1844 72.8984 0.0000 2.4728 0.0000
# 4 0.0000 0.0000 0.0000 -594.3153 0.0000 -340.2338
# 5 4.1775 7.0563 2.4728 0.0000 24.4884 0.0000
# 6 0.0000 0.0000 0.0000 -340.2338 0.0000 -141.6903
#
#
#
# Elastic Compliance Matrix: (Units=1/GPa)
#
#
# Indices 1 2 3 4 5 6 
#
# 1 0.008681 -0.002294 -0.005197 0.000000 -0.000295 0.000000
# 2 -0.002294 0.005802 0.000553 0.000000 -0.001336 0.000000
# 3 -0.005197 0.000553 0.017006 0.000000 -0.000990 0.000000
# 4 0.000000 0.000000 0.000000 0.004491 0.000000 -0.010784
# 5 -0.000295 -0.001336 -0.000990 0.000000 0.041371 0.000000
# 6 0.000000 0.000000 0.000000 -0.010784 0.000000 0.018837
#
#
# Mechanical properties :
#
#
# Convention : Reuss Voigt Hill
#
# Bulk Modulus (GPa) = 56.77800 73.93421 65.35610
# Shear Modulus (GPa) = 43.12746 -121.64958 -39.26106
#
# Velocity S-wave (km/s) = 4.22277 -7.09211 -4.02904
# Velocity P-wave (km/s) = 6.87397 6.04109 2.31913
#
# Compressibility (1/GPa) = 0.01761245
#
# Stress axis : x y z
#
# Youngs Moduli (GPa) = 115.19073 172.36010 58.80307
#
# Poissons Ratio (x) = 0.39535 0.30562
# Poissons Ratio (y) = 0.26422 -0.03250
# Poissons Ratio (z) = 0.59868 -0.09527
#
# Static dielectric constant tensor:
#      x y z
#    x 6.658250 0.000000 -2.148780 
#    y 0.000000 5.974930 0.000000 
#    z -2.148780 0.000000 7.368930 
# 
# 
# High freq. dielectric constant tensor:
#      x y z
#    x 1.964990 0.000000 -0.000510 
#    y 0.000000 2.001570 0.000000 
#    z -0.000510 0.000000 1.945200 
# 
# From -- ./inp_files/12700.got.cif
#   From: 2010.03.12/outbox.cif.g09.slc.cpg/sg3_7_cif.got.tgz:12700.got - 2010.03.31 09:20:49.
