data_PCOD8045806
_publ_section_title
;
Structure prediction by ZEFSAII (Michael W. Deem and Ramdas Pophale) SiO2 
 PCOD8045806
Probable space group: P 21
;
_chemical_formula_sum "Si O2"
_cell_formula_units_Z 16
_cell_length_a 11.979518
_cell_length_b 8.863440
_cell_length_c 11.636438
_cell_angle_alpha 90.000000
_cell_angle_beta 141.690322
_cell_angle_gamma 90.000000
_cell_volume 765.934204
_symmetry_space_group_name_H-M "P 21"
_symmetry_group_IT_number 4
_symmetry_cell_setting 'monoclinic'
loop_
_space_group_symop_operation_xyz
x,y,z
-x,1/2+y,-z
loop_
_atom_site_type_symbol
_atom_site_label
_atom_site_fract_x
_atom_site_fract_y
_atom_site_fract_z
Si Si1 0.782143 0.734330 0.262364
Si Si2 0.892311 0.073497 0.386237
Si Si3 0.226280 0.817720 0.088135
Si Si4 0.087588 0.806420 0.223308
Si Si5 0.269668 0.143499 0.032959
Si Si6 0.031786 0.128972 0.265320
Si Si7 0.657989 0.121697 0.402609
Si Si8 0.618272 0.771565 0.365555
O O1 0.632591 0.729580 0.241858
O O2 0.926585 0.600532 0.394449
O O3 0.876843 0.896911 0.346539
O O4 0.697351 0.700796 0.070163
O O5 0.728232 0.142108 0.328105
O O6 0.915053 0.165657 0.285452
O O7 0.184995 0.859998 0.186213
O O8 0.415720 0.727699 0.238402
O O9 0.241089 0.963397 0.018156
O O10 0.064302 0.710916 0.917551
O O11 0.217573 0.701659 0.403547
O O12 0.033212 0.950752 0.251790
O O13 0.901788 0.719691 0.045421
O O14 0.454963 0.186830 0.248415
O O15 0.239013 0.178396 0.444308
O O16 0.660295 0.944317 0.429772
#
# Coordination Sequence:
#
# PCOD8045806 Si02
#       8
#     2   2   2   2   2   2   2   2
#     4  10  20  38  66  93 132 161 211 263 323 386
#     4  10  19  38  63  96 130 160 204 263 326 380
#     4  11  26  42  65  90 132 176 218 260 320 387
#     4  12  24  44  63  95 130 172 219 265 319 384
#     4  11  23  43  66  97 125 175 219 260 325 383
#     4  11  23  40  64  95 129 165 216 269 317 380
#     4  10  22  41  68  92 127 170 208 266 326 382
#     4   9  23  42  61  98 123 167 211 262 326 380
#
# _framework density 20.889523000000001
#
# number of rings (size 3 to 8) (size 9 to 14) (size 15 to 20)
#    0.000    1.500    2.500    1.500    5.250    4.000 
#    0.000    0.000    0.000    0.000    0.000    0.000 
#    0.000    0.000    0.000    0.000    0.000    0.000 
#
# Total GULP energy -198376.217549 kJ/mol
# GULP energy per Si atom -12398.513597 kJ/mol
# Density = 2.084198 g / cm^3
# Si number density = 20.889523 Si / 1000 Ang^3
#
#
#
# Elastic Constant Matrix: (Units=GPa)
#
#
# Indices 1 2 3 4 5 6 
#
# 1 104.9639 18.7665 51.6569 0.0000 12.0780 0.0000
# 2 18.7665 68.0882 40.2372 0.0000 5.0788 0.0000
# 3 51.6569 40.2372 92.1417 0.0000 14.1823 0.0000
# 4 0.0000 0.0000 0.0000 22.2396 0.0000 -0.9537
# 5 12.0780 5.0788 14.1823 0.0000 36.4514 0.0000
# 6 0.0000 0.0000 0.0000 -0.9537 0.0000 26.4676
#
#
#
# Elastic Compliance Matrix: (Units=1/GPa)
#
#
# Indices 1 2 3 4 5 6 
#
# 1 0.013290 0.000963 -0.007630 0.000000 -0.001569 0.000000
# 2 0.000963 0.019879 -0.009303 0.000000 0.000531 0.000000
# 3 -0.007630 -0.009303 0.019789 0.000000 -0.003875 0.000000
# 4 0.000000 0.000000 0.000000 0.045034 0.000000 0.001623
# 5 -0.001569 0.000531 -0.003875 0.000000 0.029388 0.000000
# 6 0.000000 0.000000 0.000000 0.001623 0.000000 0.037841
#
#
# Mechanical properties :
#
#
# Convention : Reuss Voigt Hill
#
# Bulk Modulus (GPa) = 47.57424 54.05724 50.81574
# Shear Modulus (GPa) = 24.48976 27.33394 25.91185
#
# Velocity S-wave (km/s) = 3.42767 3.62124 3.52578
# Velocity P-wave (km/s) = 6.20394 6.58926 6.39950
#
# Compressibility (1/GPa) = 0.02101978
#
# Stress axis : x y z
#
# Youngs Moduli (GPa) = 75.24175 50.30369 50.53285
#
# Poissons Ratio (x) = -0.04844 0.38556
# Poissons Ratio (y) = -0.07245 0.47008
# Poissons Ratio (z) = 0.57409 0.46795
#
# Static dielectric constant tensor:
#      x y z
#    x 3.901380 0.000000 0.107420 
#    y 0.000000 3.615900 0.000000 
#    z 0.107420 0.000000 3.714120 
# 
# 
# High freq. dielectric constant tensor:
#      x y z
#    x 1.827150 0.000000 0.004900 
#    y 0.000000 1.809860 0.000000 
#    z 0.004900 0.000000 1.813260 
# 
# From -- ./inp_files/9578.got.cif
#   From: 2010.03.12/outbox.cif.g09.slc.cpg/sg4_5_cif.got.tgz:9578.got - 2010.03.31 09:31:35.
