data_PCOD8045926
_publ_section_title
;
Structure prediction by ZEFSAII (Michael W. Deem and Ramdas Pophale) SiO2 
 PCOD8045926
Probable space group: P 21
;
_chemical_formula_sum "Si O2"
_cell_formula_units_Z 14
_cell_length_a 15.974043
_cell_length_b 5.000976
_cell_length_c 22.064697
_cell_angle_alpha 90.000000
_cell_angle_beta 21.916745
_cell_angle_gamma 90.000000
_cell_volume 657.927132
_symmetry_space_group_name_H-M "P 21"
_symmetry_group_IT_number 4
_symmetry_cell_setting 'monoclinic'
loop_
_space_group_symop_operation_xyz
x,y,z
-x,1/2+y,-z
loop_
_atom_site_type_symbol
_atom_site_label
_atom_site_fract_x
_atom_site_fract_y
_atom_site_fract_z
Si Si1 0.976458 0.038370 0.055452
Si Si2 0.772497 0.336977 0.601381
Si Si3 0.891080 0.294432 0.868501
Si Si4 0.732983 0.789146 0.040841
Si Si5 0.653613 0.950102 0.385372
Si Si6 0.357483 0.756378 0.087468
Si Si7 0.997973 0.336960 0.579428
O O1 0.765093 0.993242 0.243378
O O2 0.930081 0.254882 0.033116
O O3 0.179911 0.175829 0.954403
O O4 0.515200 0.399670 0.785319
O O5 0.878607 0.562146 0.486925
O O6 0.903961 0.340257 0.575492
O O7 0.809872 0.059663 0.541794
O O8 0.797966 0.201300 0.866354
O O9 0.151217 0.386515 0.696359
O O10 0.736745 0.546043 0.990525
O O11 0.879643 0.042164 0.921371
O O12 0.470238 0.715700 0.507829
O O13 0.205931 0.896759 0.239494
O O14 0.444503 0.472373 0.054985
#
# Coordination Sequence:
#
# PCOD8045926 Si02
#       7
#     2   2   2   2   2   2   2
#     4  11  23  43  67  98 130 164 227 278 323 399
#     4  10  20  37  58  82 120 159 197 245 317 359
#     4  11  23  41  66  94 126 167 224 255 310 410
#     4  11  22  41  67  89 123 168 213 257 322 382
#     4  11  23  44  69  96 132 181 215 274 345 396
#     4  12  24  40  63  91 128 166 212 263 315 365
#     4  10  21  36  56  86 121 153 200 254 296 373
#
# _framework density 21.278949999999998
#
# number of rings (size 3 to 8) (size 9 to 14) (size 15 to 20)
#    0.000    1.143    0.000    8.571    0.000    2.286 
#    7.714    0.000    0.000    0.000    0.000    0.000 
#    0.000    0.000    0.000    0.000    0.000    0.000 
#
# Total GULP energy -173570.521400 kJ/mol
# GULP energy per Si atom -12397.894386 kJ/mol
# Density = 2.123052 g / cm^3
# Si number density = 21.278950 Si / 1000 Ang^3
#
#
#
# Elastic Constant Matrix: (Units=GPa)
#
#
# Indices 1 2 3 4 5 6 
#
# 1 410.3971 -371.0446 280.8973 0.0000 -56.7984 0.0000
# 2 -371.0446 606.4439 -235.5732 0.0000 59.4342 0.0000
# 3 280.8973 -235.5732 284.6836 0.0000 -33.9626 0.0000
# 4 0.0000 0.0000 0.0000 48.0583 0.0000 5.7701
# 5 -56.7984 59.4342 -33.9626 0.0000 39.1940 0.0000
# 6 0.0000 0.0000 0.0000 5.7701 0.0000 26.9222
#
#
#
# Elastic Compliance Matrix: (Units=1/GPa)
#
#
# Indices 1 2 3 4 5 6 
#
# 1 0.012255 0.003765 -0.008408 0.000000 0.004764 0.000000
# 2 0.003765 0.003764 -0.000703 0.000000 -0.000861 0.000000
# 3 -0.008408 -0.000703 0.011042 0.000000 -0.001550 0.000000
# 4 0.000000 0.000000 0.000000 0.021358 0.000000 -0.004577
# 5 0.004764 -0.000861 -0.001550 0.000000 0.032380 0.000000
# 6 0.000000 0.000000 0.000000 -0.004577 0.000000 0.038125
#
#
# Mechanical properties :
#
#
# Convention : Reuss Voigt Hill
#
# Bulk Modulus (GPa) = 61.09350 72.23150 66.66250
# Shear Modulus (GPa) = 37.01726 131.31791 84.16759
#
# Velocity S-wave (km/s) = 4.17540 7.86426 6.29605
# Velocity P-wave (km/s) = 7.21238 10.79263 9.17876
#
# Compressibility (1/GPa) = 0.01636835
#
# Stress axis : x y z
#
# Youngs Moduli (GPa) = 81.60012 265.69508 90.56214
#
# Poissons Ratio (x) = -1.00033 0.76145
# Poissons Ratio (y) = -0.30722 0.06368
# Poissons Ratio (z) = 0.68610 0.18681
#
# Static dielectric constant tensor:
#      x y z
#    x 3.662710 0.000000 0.045690 
#    y 0.000000 2.822810 0.000000 
#    z 0.045690 0.000000 3.801380 
# 
# 
# High freq. dielectric constant tensor:
#      x y z
#    x 1.814690 0.000000 -0.001660 
#    y 0.000000 1.861830 0.000000 
#    z -0.001660 0.000000 1.833550 
# 
# From -- ./inp_files/8945.got.cif
#   From: 2010.03.12/outbox.cif.g09.slc.cpg/sg4_5_cif.got.tgz:8945.got - 2010.03.31 09:31:35.
