data_PCOD8045339
_publ_section_title
;
Structure prediction by ZEFSAII (Michael W. Deem and Ramdas Pophale) SiO2 
 PCOD8045339
Probable space group: P 2
;
_chemical_formula_sum "Si O2"
_cell_formula_units_Z 12
_cell_length_a 15.984500
_cell_length_b 5.393793
_cell_length_c 8.991186
_cell_angle_alpha 90.000000
_cell_angle_beta 38.138989
_cell_angle_gamma 90.000000
_cell_volume 478.737414
_symmetry_space_group_name_H-M "P 2"
_symmetry_group_IT_number 3
_symmetry_cell_setting 'monoclinic'
loop_
_space_group_symop_operation_xyz
x,y,z
-x,y,-z
loop_
_atom_site_type_symbol
_atom_site_label
_atom_site_fract_x
_atom_site_fract_y
_atom_site_fract_z
Si Si1 0.105131 0.359300 0.732562
Si Si2 0.365780 0.082662 0.423286
Si Si3 0.500000 0.337228 0.000000
Si Si4 0.259293 0.703626 0.334857
Si Si5 0.077035 0.134138 0.237311
Si Si6 0.237712 0.658497 0.027855
Si Si7 0.500000 0.791985 0.500000
O O1 0.242631 0.274359 0.627333
O O2 0.124235 0.595949 0.598773
O O3 0.041064 0.142686 0.721591
O O4 0.000000 0.455184 0.000000
O O5 0.315455 0.920663 0.355603
O O6 0.410448 0.952875 0.511589
O O7 0.500639 0.195679 0.158730
O O8 0.637987 0.478979 0.808389
O O9 0.239015 0.771510 0.192594
O O10 0.163833 0.392267 0.118173
O O11 0.000000 0.090418 0.500000
O O12 0.161715 0.894647 0.060763
O O13 0.389969 0.627881 0.744902
#
# Coordination Sequence:
#
# PCOD8045339 Si02
#       7
#     2   2   1   2   2   2   1
#     4  11  26  46  73 106 151 201 255 314 387 462
#     4  11  25  46  73 104 150 201 252 322 381 460
#     4  10  22  44  72 104 142 200 252 302 384 466
#     4  11  24  46  72 107 144 203 249 311 387 461
#     4  12  26  49  77 116 152 206 259 315 384 465
#     4  12  28  47  79 114 159 201 255 326 381 463
#     4  12  28  48  76 118 154 200 268 324 398 454
#
# _framework density 25.065935
#
# number of rings (size 3 to 8) (size 9 to 14) (size 15 to 20)
#    0.000    0.667    1.667    5.000    9.333    1.333 
#    0.000    0.000    0.000    0.000    0.000    0.000 
#    0.000    0.000    0.000    0.000    0.000    0.000 
#
# Total GULP energy -148687.020315 kJ/mol
# GULP energy per Si atom -12390.585026 kJ/mol
# Density = 2.500888 g / cm^3
# Si number density = 25.065935 Si / 1000 Ang^3
#
#
#
# Elastic Constant Matrix: (Units=GPa)
#
#
# Indices 1 2 3 4 5 6 
#
# 1 71.1103 -22.3400 1.4513 0.0000 2.2318 0.0000
# 2 -22.3400 80.0295 20.5607 0.0000 -12.7891 0.0000
# 3 1.4513 20.5607 174.3766 0.0000 -1.2914 0.0000
# 4 0.0000 0.0000 0.0000 14.4508 0.0000 20.4490
# 5 2.2318 -12.7891 -1.2914 0.0000 32.1039 0.0000
# 6 0.0000 0.0000 0.0000 20.4490 0.0000 87.7598
#
#
#
# Elastic Compliance Matrix: (Units=1/GPa)
#
#
# Indices 1 2 3 4 5 6 
#
# 1 0.015504 0.004617 -0.000668 0.000000 0.000735 0.000000
# 2 0.004617 0.015143 -0.001782 0.000000 0.005640 0.000000
# 3 -0.000668 -0.001782 0.005947 0.000000 -0.000424 0.000000
# 4 0.000000 0.000000 0.000000 0.103242 0.000000 -0.024057
# 5 0.000735 0.005640 -0.000424 0.000000 0.033328 0.000000
# 6 0.000000 0.000000 0.000000 -0.024057 0.000000 0.017000
#
#
# Mechanical properties :
#
#
# Convention : Reuss Voigt Hill
#
# Bulk Modulus (GPa) = 24.43345 36.09560 30.26453
# Shear Modulus (GPa) = 25.06599 48.58584 36.82592
#
# Velocity S-wave (km/s) = 3.16571 4.40741 3.83712
# Velocity P-wave (km/s) = 4.80948 6.35074 5.63307
#
# Compressibility (1/GPa) = 0.04092749
#
# Stress axis : x y z
#
# Youngs Moduli (GPa) = 64.50091 66.03574 168.14439
#
# Poissons Ratio (x) = -0.30487 0.11231
# Poissons Ratio (y) = -0.29779 0.29967
# Poissons Ratio (z) = 0.04308 0.11769
#
# Static dielectric constant tensor:
#      x y z
#    x 3.639000 0.000000 -1.385930 
#    y 0.000000 4.463290 0.000000 
#    z -1.385930 0.000000 2.785710 
# 
# 
# High freq. dielectric constant tensor:
#      x y z
#    x 2.000620 0.000000 -0.001330 
#    y 0.000000 1.993170 0.000000 
#    z -0.001330 0.000000 2.025950 
# 
# From -- ./inp_files/8169.got.cif
#   From: 2010.03.12/outbox.cif.g09.slc.cpg/sg3_5_cif.got.tgz:8169.got - 2010.03.31 09:20:49.
