data_PCOD8045500
_publ_section_title
;
Structure prediction by ZEFSAII (Michael W. Deem and Ramdas Pophale) SiO2 
 PCOD8045500
Probable space group: P 2
;
_chemical_formula_sum "Si O2"
_cell_formula_units_Z 16
_cell_length_a 10.746492
_cell_length_b 6.397883
_cell_length_c 26.354445
_cell_angle_alpha 90.000000
_cell_angle_beta 23.041318
_cell_angle_gamma 90.000000
_cell_volume 709.205310
_symmetry_space_group_name_H-M "P 2"
_symmetry_group_IT_number 3
_symmetry_cell_setting 'monoclinic'
loop_
_space_group_symop_operation_xyz
x,y,z
-x,y,-z
loop_
_atom_site_type_symbol
_atom_site_label
_atom_site_fract_x
_atom_site_fract_y
_atom_site_fract_z
Si Si1 0.320858 0.348460 0.018903
Si Si2 0.115767 0.512987 0.333467
Si Si3 0.106258 0.692451 0.784770
Si Si4 0.723332 0.086596 0.222963
Si Si5 0.847883 0.791775 0.347972
Si Si6 0.310524 0.138912 0.203518
Si Si7 0.346444 0.835296 0.854520
Si Si8 0.302543 0.434546 0.418798
O O1 0.224825 0.585184 0.072183
O O2 0.998029 0.255813 0.117724
O O3 0.500000 0.241786 0.000000
O O4 0.559430 0.319229 0.882768
O O5 0.205426 0.271386 0.291655
O O6 0.409949 0.643548 0.247726
O O7 0.022028 0.624348 0.317187
O O8 0.801705 0.484512 0.484978
O O9 0.140902 0.685442 0.711259
O O10 0.398739 0.581907 0.703798
O O11 0.120463 0.929880 0.795733
O O12 0.405294 0.195567 0.366002
O O13 0.653030 0.982486 0.195190
O O14 0.500000 0.836233 0.500000
O O15 0.025953 0.015348 0.282490
O O16 0.560697 0.970054 0.130656
O O17 0.000000 0.744128 0.000000
O O18 0.000000 0.503263 0.500000
#
# Coordination Sequence:
#
# PCOD8045500 Si02
#       8
#     2   2   2   2   2   2   2   2
#     4  11  24  44  66 102 135 176 239 279 347 423
#     4  11  25  43  72 101 141 187 227 293 352 423
#     4  11  25  43  71  97 138 185 226 291 349 416
#     4  11  25  43  71  97 138 185 226 291 349 416
#     4  11  24  45  68 108 143 181 239 289 357 422
#     4  11  25  43  72 101 141 187 227 293 352 423
#     4  11  24  45  68 108 143 181 239 289 357 422
#     4  11  24  44  66 102 135 176 239 279 347 423
#
# _framework density 22.560461
#
# number of rings (size 3 to 8) (size 9 to 14) (size 15 to 20)
#    0.000    1.000    2.500    3.000    3.500    6.000 
#    0.000    0.000    0.000    0.000    0.000    0.000 
#    0.000    0.000    0.000    0.000    0.000    0.000 
#
# Total GULP energy -198270.077780 kJ/mol
# GULP energy per Si atom -12391.879861 kJ/mol
# Density = 2.250911 g / cm^3
# Si number density = 22.560461 Si / 1000 Ang^3
#
#
#
# Elastic Constant Matrix: (Units=GPa)
#
#
# Indices 1 2 3 4 5 6 
#
# 1 96.5148 21.4312 17.2194 0.0000 -7.9877 0.0000
# 2 21.4312 88.7227 40.1255 0.0000 -1.1169 0.0000
# 3 17.2194 40.1255 109.1305 0.0004 -4.6366 0.0002
# 4 0.0000 0.0000 0.0004 34.0741 -0.0001 -0.7940
# 5 -7.9877 -1.1169 -4.6366 -0.0001 38.7627 -0.0001
# 6 0.0000 0.0000 0.0002 -0.7940 -0.0001 33.4723
#
#
#
# Elastic Compliance Matrix: (Units=1/GPa)
#
#
# Indices 1 2 3 4 5 6 
#
# 1 0.011198 -0.002303 -0.000829 0.000000 0.002142 0.000000
# 2 -0.002303 0.013994 -0.004810 0.000000 -0.000647 0.000000
# 3 -0.000829 -0.004810 0.011106 0.000000 0.001019 0.000000
# 4 0.000000 0.000000 0.000000 0.029364 0.000000 0.000697
# 5 0.002142 -0.000647 0.001019 0.000000 0.026343 0.000000
# 6 0.000000 0.000000 0.000000 0.000697 0.000000 0.029892
#
#
# Mechanical properties :
#
#
# Convention : Reuss Voigt Hill
#
# Bulk Modulus (GPa) = 48.98429 50.21333 49.59881
# Shear Modulus (GPa) = 34.58180 35.63461 35.10820
#
# Velocity S-wave (km/s) = 3.91941 3.97862 3.94913
# Velocity P-wave (km/s) = 6.49938 6.58874 6.54421
#
# Compressibility (1/GPa) = 0.02041471
#
# Stress axis : x y z
#
# Youngs Moduli (GPa) = 89.30441 71.45729 90.04242
#
# Poissons Ratio (x) = 0.16456 0.07465
# Poissons Ratio (y) = 0.20566 0.43307
# Poissons Ratio (z) = 0.07404 0.34368
#
# Static dielectric constant tensor:
#      x y z
#    x 4.051620 0.000000 -0.044500 
#    y 0.000000 4.040570 0.000000 
#    z -0.044500 0.000000 4.310700 
# 
# 
# High freq. dielectric constant tensor:
#      x y z
#    x 1.900220 0.000000 -0.005270 
#    y 0.000000 1.883410 0.000000 
#    z -0.005270 0.000000 1.898550 
# 
# From -- ./inp_files/12754.got.cif
#   From: 2010.03.12/outbox.cif.g09.slc.cpg/sg3_7_cif.got.tgz:12754.got - 2010.03.31 09:20:49.
