data_PCOD8045907
_publ_section_title
;
Structure prediction by ZEFSAII (Michael W. Deem and Ramdas Pophale) SiO2 
 PCOD8045907
Probable space group: P 21
;
_chemical_formula_sum "Si O2"
_cell_formula_units_Z 10
_cell_length_a 12.281443
_cell_length_b 8.191739
_cell_length_c 11.901728
_cell_angle_alpha 90.000000
_cell_angle_beta 155.296601
_cell_angle_gamma 90.000000
_cell_volume 500.414271
_symmetry_space_group_name_H-M "P 21"
_symmetry_group_IT_number 4
_symmetry_cell_setting 'monoclinic'
loop_
_space_group_symop_operation_xyz
x,y,z
-x,1/2+y,-z
loop_
_atom_site_type_symbol
_atom_site_label
_atom_site_fract_x
_atom_site_fract_y
_atom_site_fract_z
Si Si1 0.985744 0.962030 0.339398
Si Si2 0.209862 0.982361 0.312652
Si Si3 0.281648 0.156599 0.972897
Si Si4 0.272444 0.266214 0.203083
Si Si5 0.175150 0.648455 0.604190
O O1 0.737231 0.853148 0.067325
O O2 0.174224 0.844688 0.590208
O O3 0.889901 0.109729 0.327456
O O4 0.139510 0.027560 0.375273
O O5 0.258967 0.155701 0.300967
O O6 0.465238 0.870997 0.548368
O O7 0.975830 0.885137 0.033411
O O8 0.035683 0.069888 0.680864
O O9 0.274275 0.137850 0.100517
O O10 0.542875 0.079651 0.165765
#
# Coordination Sequence:
#
# PCOD8045907 Si02
#       5
#     2   2   2   2   2
#     4   9  22  38  60  83 122 149 196 240 299 344
#     4  11  23  41  64  89 125 160 203 253 301 362
#     4   9  20  36  58  79 119 152 188 237 296 339
#     4  11  21  43  63  87 124 163 200 255 304 352
#     4  10  20  36  61  82 116 156 187 241 292 353
#
# _framework density 19.983443000000001
#
# number of rings (size 3 to 8) (size 9 to 14) (size 15 to 20)
#    1.200    0.800    2.000    1.200    2.800    0.000 
#    7.200    0.000    0.000    0.000    0.000    0.000 
#    0.000    0.000    0.000    0.000    0.000    0.000 
#
# Total GULP energy -123909.624477 kJ/mol
# GULP energy per Si atom -12390.962448 kJ/mol
# Density = 1.993796 g / cm^3
# Si number density = 19.983443 Si / 1000 Ang^3
#
#
#
# Elastic Constant Matrix: (Units=GPa)
#
#
# Indices 1 2 3 4 5 6 
#
# 1 132.7914 42.9106 41.1091 0.0000 -0.9262 0.0000
# 2 42.9106 30.8971 15.5895 0.0000 -3.0003 0.0000
# 3 41.1091 15.5895 133.2920 0.0000 24.9385 0.0000
# 4 0.0000 0.0000 0.0000 21.2321 0.0000 -0.6795
# 5 -0.9262 -3.0003 24.9385 0.0000 30.0142 0.0000
# 6 0.0000 0.0000 0.0000 -0.6795 0.0000 45.3254
#
#
#
# Elastic Compliance Matrix: (Units=1/GPa)
#
#
# Indices 1 2 3 4 5 6 
#
# 1 0.014256 -0.018579 -0.002319 0.000000 0.000510 0.000000
# 2 -0.018579 0.060325 -0.002778 0.000000 0.007765 0.000000
# 3 -0.002319 -0.002778 0.010192 0.000000 -0.008818 0.000000
# 4 0.000000 0.000000 0.000000 0.047121 0.000000 0.000706
# 5 0.000510 0.007765 -0.008818 0.000000 0.041436 0.000000
# 6 0.000000 0.000000 0.000000 0.000706 0.000000 0.022073
#
#
# Mechanical properties :
#
#
# Convention : Reuss Voigt Hill
#
# Bulk Modulus (GPa) = 26.72377 55.13319 40.92848
# Shear Modulus (GPa) = 19.59019 32.47242 26.03131
#
# Velocity S-wave (km/s) = 3.13440 4.03546 3.61313
# Velocity P-wave (km/s) = 5.14794 7.02585 6.15889
#
# Compressibility (1/GPa) = 0.03741987
#
# Stress axis : x y z
#
# Youngs Moduli (GPa) = 70.14664 16.57696 98.11342
#
# Poissons Ratio (x) = 0.30799 0.22753
# Poissons Ratio (y) = 1.30327 0.27257
# Poissons Ratio (z) = 0.16267 0.04605
#
# Static dielectric constant tensor:
#      x y z
#    x 3.614010 0.000000 -0.008360 
#    y 0.000000 3.106580 0.000000 
#    z -0.008360 0.000000 3.690520 
# 
# 
# High freq. dielectric constant tensor:
#      x y z
#    x 1.788380 0.000000 0.002800 
#    y 0.000000 1.730570 0.000000 
#    z 0.002800 0.000000 1.789910 
# 
# From -- ./inp_files/2336.got.cif
#   From: 2010.03.12/outbox.cif.g09.slc.cpg/sg4_2_cif.got.tgz:2336.got - 2010.03.31 09:31:35.
