data_PCOD8045364
_publ_section_title
;
Structure prediction by ZEFSAII (Michael W. Deem and Ramdas Pophale) SiO2 
 PCOD8045364
Probable space group: P 2
;
_chemical_formula_sum "Si O2"
_cell_formula_units_Z 15
_cell_length_a 17.026611
_cell_length_b 9.218948
_cell_length_c 8.507678
_cell_angle_alpha 90.000000
_cell_angle_beta 32.934169
_cell_angle_gamma 90.000000
_cell_volume 726.039155
_symmetry_space_group_name_H-M "P 2"
_symmetry_group_IT_number 3
_symmetry_cell_setting 'monoclinic'
loop_
_space_group_symop_operation_xyz
x,y,z
-x,y,-z
loop_
_atom_site_type_symbol
_atom_site_label
_atom_site_fract_x
_atom_site_fract_y
_atom_site_fract_z
Si Si1 0.151802 0.500000 0.833611
Si Si2 0.033603 0.998391 0.262675
Si Si3 0.123811 0.309092 0.181833
Si Si4 0.737683 0.817427 0.311163
Si Si5 0.500000 0.904324 0.500000
Si Si6 0.380832 0.293506 0.334188
Si Si7 0.256834 0.022316 0.416906
Si Si8 0.382552 0.144190 0.899076
O O1 0.177597 0.670161 0.801304
O O2 0.291186 0.440174 0.506828
O O3 0.160153 0.430441 0.992943
O O4 0.000000 0.469373 0.000000
O O5 0.000000 0.954143 0.500000
O O6 0.063571 0.168416 0.195538
O O7 0.163005 0.910309 0.971117
O O8 0.896073 0.968220 0.386878
O O9 0.000000 0.377673 0.500000
O O10 0.256896 0.258845 0.069308
O O11 0.585015 0.799035 0.476803
O O12 0.694369 0.895184 0.547063
O O13 0.384870 0.014670 0.770866
O O14 0.256214 0.174397 0.511144
O O15 0.468260 0.236559 0.341760
O O16 0.500000 0.321498 0.000000
O O17 0.365175 0.055852 0.091699
#
# Coordination Sequence:
#
# PCOD8045364 Si02
#       8
#     2   2   2   2   1   2   2   2
#     4  12  27  46  64  96 143 184 228 270 339 421
#     4  11  20  39  67  97 125 169 227 283 330 385
#     4  11  22  41  70 101 131 173 229 285 339 391
#     4  12  26  41  64  97 135 185 220 275 342 409
#     4  12  22  42  64  98 132 166 230 276 348 392
#     4  10  23  41  69  98 128 171 219 283 337 388
#     4  11  20  40  67  95 129 165 229 278 334 384
#     4  11  21  41  70 102 130 163 230 294 334 398
#
# _framework density 20.660041
#
# number of rings (size 3 to 8) (size 9 to 14) (size 15 to 20)
#    0.000    0.800    5.333    3.600    1.867    1.600 
#    2.400    1.333    0.000    0.000    0.000    0.000 
#    0.000    0.000    0.000    0.000    0.000    0.000 
#
# Total GULP energy -185902.741895 kJ/mol
# GULP energy per Si atom -12393.516126 kJ/mol
# Density = 2.061302 g / cm^3
# Si number density = 20.660041 Si / 1000 Ang^3
#
#
#
# Elastic Constant Matrix: (Units=GPa)
#
#
# Indices 1 2 3 4 5 6 
#
# 1 135.5898 31.7691 46.0810 0.0000 -13.1850 0.0000
# 2 31.7691 78.0183 41.5967 0.0000 13.6611 0.0000
# 3 46.0810 41.5967 91.0004 0.0000 -0.4802 0.0000
# 4 0.0000 0.0000 0.0000 23.2300 0.0000 -6.3202
# 5 -13.1850 13.6611 -0.4802 0.0000 37.6650 0.0000
# 6 0.0000 0.0000 0.0000 -6.3202 0.0000 25.8644
#
#
#
# Elastic Compliance Matrix: (Units=1/GPa)
#
#
# Indices 1 2 3 4 5 6 
#
# 1 0.009675 -0.002778 -0.003606 0.000000 0.004348 0.000000
# 2 -0.002778 0.019355 -0.007483 0.000000 -0.008088 0.000000
# 3 -0.003606 -0.007483 0.016244 0.000000 0.001659 0.000000
# 4 0.000000 0.000000 0.000000 0.046113 0.000000 0.011268
# 5 0.004348 -0.008088 0.001659 0.000000 0.031027 0.000000
# 6 0.000000 0.000000 0.000000 0.011268 0.000000 0.041417
#
#
# Mechanical properties :
#
#
# Convention : Reuss Voigt Hill
#
# Bulk Modulus (GPa) = 57.01614 60.38912 58.70263
# Shear Modulus (GPa) = 25.32786 29.69600 27.51193
#
# Velocity S-wave (km/s) = 3.50513 3.79537 3.65314
# Velocity P-wave (km/s) = 6.63615 6.96418 6.80214
#
# Compressibility (1/GPa) = 0.01753889
#
# Stress axis : x y z
#
# Youngs Moduli (GPa) = 103.36408 51.66718 61.56010
#
# Poissons Ratio (x) = 0.14354 0.22199
# Poissons Ratio (y) = 0.28717 0.46065
# Poissons Ratio (z) = 0.37275 0.38662
#
# Static dielectric constant tensor:
#      x y z
#    x 4.089440 0.000000 -0.012820 
#    y 0.000000 3.418860 0.000000 
#    z -0.012820 0.000000 3.849730 
# 
# 
# High freq. dielectric constant tensor:
#      x y z
#    x 1.831610 0.000000 -0.005790 
#    y 0.000000 1.773770 0.000000 
#    z -0.005790 0.000000 1.815930 
# 
# From -- ./inp_files/9143.got.cif
#   From: 2010.03.12/outbox.cif.g09.slc.cpg/sg3_5_cif.got.tgz:9143.got - 2010.03.31 09:20:49.
