data_PCOD8045904
_publ_section_title
;
Structure prediction by ZEFSAII (Michael W. Deem and Ramdas Pophale) SiO2 
 PCOD8045904
Probable space group: P 21
;
_chemical_formula_sum "Si O2"
_cell_formula_units_Z 16
_cell_length_a 8.716927
_cell_length_b 7.847811
_cell_length_c 21.096610
_cell_angle_alpha 90.000000
_cell_angle_beta 146.620404
_cell_angle_gamma 90.000000
_cell_volume 794.021209
_symmetry_space_group_name_H-M "P 21"
_symmetry_group_IT_number 4
_symmetry_cell_setting 'monoclinic'
loop_
_space_group_symop_operation_xyz
x,y,z
-x,1/2+y,-z
loop_
_atom_site_type_symbol
_atom_site_label
_atom_site_fract_x
_atom_site_fract_y
_atom_site_fract_z
Si Si1 0.971811 0.117890 0.334879
Si Si2 0.189754 0.451675 0.256467
Si Si3 0.389986 0.541981 0.460385
Si Si4 0.315860 0.082933 0.643878
Si Si5 0.798917 0.150252 0.136855
Si Si6 0.158487 0.245933 0.713388
Si Si7 0.228402 0.255808 0.879293
Si Si8 0.163053 0.357249 0.496336
O O1 0.304664 0.117281 0.439491
O O2 0.924099 0.252211 0.374849
O O3 0.815715 0.178726 0.217992
O O4 0.849301 0.938016 0.314692
O O5 0.309180 0.436409 0.369173
O O6 0.437688 0.455138 0.290416
O O7 0.016575 0.281167 0.179768
O O8 0.016261 0.625909 0.186740
O O9 0.385484 0.428639 0.522511
O O10 0.164387 0.691906 0.391752
O O11 0.335431 0.134381 0.724657
O O12 0.339149 0.246133 0.606187
O O13 0.011886 0.000021 0.526499
O O14 0.862633 0.953282 0.139819
O O15 0.491640 0.206873 0.011891
O O16 0.309468 0.232181 0.833342
#
# Coordination Sequence:
#
# PCOD8045904 Si02
#       8
#     2   2   2   2   2   2   2   2
#     4  11  20  35  62  95 117 159 210 259 315 377
#     4  11  22  40  64  92 126 165 213 266 310 380
#     4  10  20  36  60  90 122 157 211 262 308 369
#     4  11  24  38  58  89 132 174 200 247 326 385
#     4  11  22  38  71  95 118 161 217 273 323 357
#     4   9  22  38  58  84 127 163 200 259 311 375
#     4  10  22  42  67  93 121 160 220 276 312 361
#     4  11  22  37  56  86 131 165 195 252 309 390
#
# _framework density 20.150597000000001
#
# number of rings (size 3 to 8) (size 9 to 14) (size 15 to 20)
#    0.000    1.500    3.750    1.500    3.500    1.000 
#    2.250    0.000    5.500    0.000    0.000    0.000 
#    0.000    0.000    0.000    0.000    0.000    0.000 
#
# Total GULP energy -198369.838352 kJ/mol
# GULP energy per Si atom -12398.114897 kJ/mol
# Density = 2.010473 g / cm^3
# Si number density = 20.150597 Si / 1000 Ang^3
#
#
#
# Elastic Constant Matrix: (Units=GPa)
#
#
# Indices 1 2 3 4 5 6 
#
# 1 89.9689 26.8790 29.0801 0.0000 9.4215 0.0000
# 2 26.8790 95.5073 17.0919 0.0000 -0.7943 0.0000
# 3 29.0801 17.0919 97.0184 0.0000 -8.3446 0.0000
# 4 0.0000 0.0000 0.0000 32.0466 0.0000 -5.6210
# 5 9.4215 -0.7943 -8.3446 0.0000 19.0940 0.0000
# 6 0.0000 0.0000 0.0000 -5.6210 0.0000 22.9394
#
#
#
# Elastic Compliance Matrix: (Units=1/GPa)
#
#
# Indices 1 2 3 4 5 6 
#
# 1 0.014577 -0.003360 -0.004580 0.000000 -0.009334 0.000000
# 2 -0.003360 0.011589 -0.000884 0.000000 0.001754 0.000000
# 3 -0.004580 -0.000884 0.012497 0.000000 0.007685 0.000000
# 4 0.000000 0.000000 0.000000 0.032606 0.000000 0.007990
# 5 -0.009334 0.001754 0.007685 0.000000 0.060409 0.000000
# 6 0.000000 0.000000 0.000000 0.007990 0.000000 0.045551
#
#
# Mechanical properties :
#
#
# Convention : Reuss Voigt Hill
#
# Bulk Modulus (GPa) = 47.58628 47.62184 47.60406
# Shear Modulus (GPa) = 24.76706 28.77892 26.77299
#
# Velocity S-wave (km/s) = 3.50965 3.78324 3.64901
# Velocity P-wave (km/s) = 6.33168 6.53974 6.43655
#
# Compressibility (1/GPa) = 0.02101446
#
# Stress axis : x y z
#
# Youngs Moduli (GPa) = 68.60259 86.28997 80.02086
#
# Poissons Ratio (x) = 0.28997 0.36650
# Poissons Ratio (y) = 0.23053 0.07070
# Poissons Ratio (z) = 0.31420 0.07624
#
# Static dielectric constant tensor:
#      x y z
#    x 3.481890 0.000000 -0.163950 
#    y 0.000000 4.046020 0.000000 
#    z -0.163950 0.000000 3.515380 
# 
# 
# High freq. dielectric constant tensor:
#      x y z
#    x 1.766620 0.000000 -0.012530 
#    y 0.000000 1.808350 0.000000 
#    z -0.012530 0.000000 1.766280 
# 
# From -- ./inp_files/7531.got.cif
#   From: 2010.03.12/outbox.cif.g09.slc.cpg/sg4_4_cif.got.tgz:7531.got - 2010.03.31 09:31:35.
