data_PCOD8045183
_publ_section_title
;
Structure prediction by ZEFSAII (Michael W. Deem and Ramdas Pophale) SiO2 
 PCOD8045183
Probable space group: P 2
;
_chemical_formula_sum "Si O2"
_cell_formula_units_Z 16
_cell_length_a 9.150282
_cell_length_b 9.169968
_cell_length_c 9.054396
_cell_angle_alpha 90.000000
_cell_angle_beta 94.355491
_cell_angle_gamma 90.000000
_cell_volume 757.540311
_symmetry_space_group_name_H-M "P 2"
_symmetry_group_IT_number 3
_symmetry_cell_setting 'monoclinic'
loop_
_space_group_symop_operation_xyz
x,y,z
-x,y,-z
loop_
_atom_site_type_symbol
_atom_site_label
_atom_site_fract_x
_atom_site_fract_y
_atom_site_fract_z
Si Si1 0.144444 0.964870 0.597594
Si Si2 0.640860 0.627407 0.728226
Si Si3 0.416784 0.927731 0.141424
Si Si4 0.347725 0.453259 0.769259
Si Si5 0.414396 0.150166 0.638461
Si Si6 0.836102 0.575013 0.006982
Si Si7 0.853331 0.904944 0.066125
Si Si8 0.167575 0.629079 0.536240
O O1 0.143148 0.982382 0.774671
O O2 0.172499 0.800888 0.553205
O O3 0.000000 0.023075 0.500000
O O4 0.282681 0.058305 0.556291
O O5 0.587431 0.794296 0.742824
O O6 0.507368 0.521451 0.757815
O O7 0.706928 0.590835 0.573868
O O8 0.781763 0.603466 0.838982
O O9 0.490040 0.060979 0.234342
O O10 0.500000 0.874652 0.000000
O O11 0.261522 0.972792 0.059925
O O12 0.349770 0.286939 0.720682
O O13 0.284541 0.465020 0.931284
O O14 0.218759 0.542572 0.681725
O O15 0.500000 0.203783 0.500000
O O16 0.837759 0.731090 0.091621
O O17 0.000000 0.509178 0.000000
O O18 0.000000 0.948706 0.000000
O O19 0.000000 0.577047 0.500000
#
# Coordination Sequence:
#
# PCOD8045183 Si02
#       8
#     2   2   2   2   2   2   2   2
#     4  11  24  42  66  98 129 168 218 274 329 388
#     4  11  22  38  66  99 125 166 215 272 325 381
#     4  11  22  41  67  95 130 166 214 275 328 388
#     4  12  24  44  63  93 132 173 219 263 318 390
#     4  12  27  44  63  91 135 181 219 266 322 387
#     4  10  21  40  68  98 130 160 209 271 331 384
#     4  10  21  39  69 101 128 161 210 276 334 384
#     4  11  23  39  67  96 128 167 217 270 328 385
#
# _framework density 21.120989000000002
#
# number of rings (size 3 to 8) (size 9 to 14) (size 15 to 20)
#    0.000    1.000    2.500    5.250   10.500    1.500 
#    0.000    1.875    0.000    0.000    0.000    0.000 
#    0.000    0.000    0.000    0.000    0.000    0.000 
#
# Total GULP energy -198316.344868 kJ/mol
# GULP energy per Si atom -12394.771554 kJ/mol
# Density = 2.107292 g / cm^3
# Si number density = 21.120989 Si / 1000 Ang^3
#
#
#
# Elastic Constant Matrix: (Units=GPa)
#
#
# Indices 1 2 3 4 5 6 
#
# 1 143.3894 30.4790 14.3441 0.0000 5.5664 0.0000
# 2 30.4790 48.0625 2.1342 0.0000 10.1796 0.0000
# 3 14.3441 2.1342 50.3545 0.0000 -2.1720 0.0000
# 4 0.0000 0.0000 0.0000 10.8315 0.0000 -10.0733
# 5 5.5664 10.1796 -2.1720 0.0000 47.3253 0.0000
# 6 0.0000 0.0000 0.0000 -10.0733 0.0000 11.8203
#
#
#
# Elastic Compliance Matrix: (Units=1/GPa)
#
#
# Indices 1 2 3 4 5 6 
#
# 1 0.008285 -0.005167 -0.002139 0.000000 0.000039 0.000000
# 2 -0.005167 0.025086 0.000203 0.000000 -0.004779 0.000000
# 3 -0.002139 0.000203 0.020510 0.000000 0.001149 0.000000
# 4 0.000000 0.000000 0.000000 0.445042 0.000000 0.379266
# 5 0.000039 -0.004779 0.001149 0.000000 0.022207 0.000000
# 6 0.000000 0.000000 0.000000 0.379266 0.000000 0.407811
#
#
# Mechanical properties :
#
#
# Convention : Reuss Voigt Hill
#
# Bulk Modulus (GPa) = 25.20619 37.30234 31.25426
# Shear Modulus (GPa) = 5.22809 26.98535 16.10672
#
# Velocity S-wave (km/s) = 1.57502 3.57831 2.76450
# Velocity P-wave (km/s) = 3.90739 5.89678 5.00198
#
# Compressibility (1/GPa) = 0.03967280
#
# Stress axis : x y z
#
# Youngs Moduli (GPa) = 120.70224 39.86264 48.75763
#
# Poissons Ratio (x) = 0.20597 0.10431
# Poissons Ratio (y) = 0.62368 -0.00988
# Poissons Ratio (z) = 0.25823 -0.00807
#
# Static dielectric constant tensor:
#      x y z
#    x 3.971030 0.000000 -0.007250 
#    y 0.000000 3.478040 0.000000 
#    z -0.007250 0.000000 3.867830 
# 
# 
# High freq. dielectric constant tensor:
#      x y z
#    x 1.850160 0.000000 0.000790 
#    y 0.000000 1.790500 0.000000 
#    z 0.000790 0.000000 1.841490 
# 
# From -- ./inp_files/5588.got.cif
#   From: 2010.03.12/outbox.cif.g09.slc.cpg/sg3_3_cif.got.tgz:5588.got - 2010.03.31 09:20:49.
