data_PCOD8045919
_publ_section_title
;
Structure prediction by ZEFSAII (Michael W. Deem and Ramdas Pophale) SiO2 
 PCOD8045919
Probable space group: P 21
;
_chemical_formula_sum "Si O2"
_cell_formula_units_Z 16
_cell_length_a 11.047609
_cell_length_b 5.307449
_cell_length_c 13.487714
_cell_angle_alpha 90.000000
_cell_angle_beta 90.011664
_cell_angle_gamma 90.000000
_cell_volume 790.846987
_symmetry_space_group_name_H-M "P 21"
_symmetry_group_IT_number 4
_symmetry_cell_setting 'monoclinic'
loop_
_space_group_symop_operation_xyz
x,y,z
-x,1/2+y,-z
loop_
_atom_site_type_symbol
_atom_site_label
_atom_site_fract_x
_atom_site_fract_y
_atom_site_fract_z
Si Si1 0.741409 0.875000 0.396772
Si Si2 0.378965 0.721576 0.116052
Si Si3 0.999676 0.998928 0.436731
Si Si4 0.576739 0.220108 0.499180
Si Si5 0.646368 0.717499 0.195095
Si Si6 0.624282 0.218677 0.113999
Si Si7 0.640871 0.722747 0.802366
Si Si8 0.260160 0.067285 0.398102
O O1 0.683279 0.708899 0.310056
O O2 0.735249 0.721141 0.499234
O O3 0.880368 0.944784 0.371008
O O4 0.661171 0.130119 0.407458
O O5 0.501825 0.720441 0.180358
O O6 0.302995 0.472246 0.145741
O O7 0.303389 0.971266 0.145907
O O8 0.412603 0.719422 0.000699
O O9 0.019963 0.770676 0.513242
O O10 0.120675 0.009734 0.369178
O O11 0.501276 0.472608 0.468367
O O12 0.665065 0.305525 0.589324
O O13 0.700994 0.468381 0.141895
O O14 0.700778 0.969416 0.142823
O O15 0.503233 0.220968 0.180542
O O16 0.674464 0.728813 0.686651
#
# Coordination Sequence:
#
# PCOD8045919 Si02
#       8
#     2   2   2   2   2   2   2   2
#     4  11  25  41  60  88 126 169 215 256 304 363
#     4  10  20  37  55  82 121 160 194 240 309 382
#     4  10  22  42  64  78 114 174 224 258 294 342
#     4  12  26  36  56  82 132 166 198 250 322 364
#     4  10  21  31  57  82 113 155 197 242 299 356
#     4  10  20  37  55  82 121 160 194 240 309 382
#     4  10  21  31  57  82 113 155 197 242 299 356
#     4  11  25  41  60  88 126 169 215 256 304 363
#
# _framework density 20.231473000000001
#
# number of rings (size 3 to 8) (size 9 to 14) (size 15 to 20)
#    0.000    1.500    2.500    3.750    7.000    2.000 
#    0.000    0.000    0.000    0.000    0.000    5.250 
#    0.000    0.000    0.000    0.000    0.000    0.000 
#
# Total GULP energy -198220.067989 kJ/mol
# GULP energy per Si atom -12388.754249 kJ/mol
# Density = 2.018543 g / cm^3
# Si number density = 20.231473 Si / 1000 Ang^3
#
#
#
# Elastic Constant Matrix: (Units=GPa)
#
#
# Indices 1 2 3 4 5 6 
#
# 1 101.5317 30.2134 51.7192 0.0000 -1.4957 0.0000
# 2 30.2134 190.8771 49.4766 0.0000 2.2831 0.0000
# 3 51.7192 49.4766 126.6909 0.0000 7.9815 0.0000
# 4 0.0000 0.0000 0.0000 33.7153 0.0000 1.6736
# 5 -1.4957 2.2831 7.9815 0.0000 7.0426 0.0000
# 6 0.0000 0.0000 0.0000 1.6736 0.0000 18.2845
#
#
#
# Elastic Compliance Matrix: (Units=1/GPa)
#
#
# Indices 1 2 3 4 5 6 
#
# 1 0.013081 -0.000718 -0.005653 0.000000 0.009417 0.000000
# 2 -0.000718 0.005872 -0.002014 0.000000 0.000227 0.000000
# 3 -0.005653 -0.002014 0.011870 0.000000 -0.013999 0.000000
# 4 0.000000 0.000000 0.000000 0.029796 0.000000 -0.002727
# 5 0.009417 0.000227 -0.013999 0.000000 0.159785 0.000000
# 6 0.000000 0.000000 0.000000 -0.002727 0.000000 0.054941
#
#
# Mechanical properties :
#
#
# Convention : Reuss Voigt Hill
#
# Bulk Modulus (GPa) = 71.16420 75.76868 73.46644
# Shear Modulus (GPa) = 16.84644 30.98785 23.91714
#
# Velocity S-wave (km/s) = 2.88876 3.91790 3.44201
# Velocity P-wave (km/s) = 6.81013 7.61569 7.22415
#
# Compressibility (1/GPa) = 0.01405201
#
# Stress axis : x y z
#
# Youngs Moduli (GPa) = 76.44619 170.29831 84.24856
#
# Poissons Ratio (x) = 0.12226 0.47626
# Poissons Ratio (y) = 0.05488 0.16971
# Poissons Ratio (z) = 0.43215 0.34306
#
# Static dielectric constant tensor:
#      x y z
#    x 3.617340 0.000000 -0.024170 
#    y 0.000000 5.538180 0.000000 
#    z -0.024170 0.000000 3.379490 
# 
# 
# High freq. dielectric constant tensor:
#      x y z
#    x 1.730290 0.000000 0.002920 
#    y 0.000000 1.833290 0.000000 
#    z 0.002920 0.000000 1.763060 
# 
# From -- ./inp_files/11688.got.cif
#   From: 2010.03.12/outbox.cif.g09.slc.cpg/sg4_6_cif.got.tgz:11688.got - 2010.03.31 09:31:35.
