data_PCOD8045591
_publ_section_title
;
Structure prediction by ZEFSAII (Michael W. Deem and Ramdas Pophale) SiO2 
 PCOD8045591
Probable space group: P 21
;
_chemical_formula_sum "Si O2"
_cell_formula_units_Z 16
_cell_length_a 7.367099
_cell_length_b 19.202719
_cell_length_c 5.329198
_cell_angle_alpha 90.000000
_cell_angle_beta 55.372833
_cell_angle_gamma 90.000000
_cell_volume 620.369947
_symmetry_space_group_name_H-M "P 21"
_symmetry_group_IT_number 4
_symmetry_cell_setting 'monoclinic'
loop_
_space_group_symop_operation_xyz
x,y,z
-x,1/2+y,-z
loop_
_atom_site_type_symbol
_atom_site_label
_atom_site_fract_x
_atom_site_fract_y
_atom_site_fract_z
Si Si1 0.509999 0.918280 0.202335
Si Si2 0.472757 0.860860 0.731281
Si Si3 0.959952 0.924049 0.334477
Si Si4 0.992536 0.366691 0.200821
Si Si5 0.618582 0.714733 0.567682
Si Si6 0.106463 0.217432 0.149706
Si Si7 0.090827 0.067486 0.088722
Si Si8 0.368148 0.065050 0.369925
O O1 0.366277 0.884088 0.544972
O O2 0.538914 0.000554 0.234580
O O3 0.378218 0.901389 0.048325
O O4 0.744583 0.880722 0.019069
O O5 0.728846 0.884357 0.521949
O O6 0.451209 0.777191 0.768511
O O7 0.086839 0.914858 0.501657
O O8 0.922043 0.005281 0.292544
O O9 0.106012 0.888130 0.996701
O O10 0.945949 0.284318 0.272459
O O11 0.805011 0.714630 0.635875
O O12 0.504264 0.638047 0.673642
O O13 0.710568 0.726759 0.213963
O O14 0.977900 0.144495 0.192023
O O15 0.276282 0.066647 0.159054
O O16 0.186546 0.054632 0.733625
#
# Coordination Sequence:
#
# PCOD8045591 Si02
#       8
#     2   2   2   2   2   2   2   2
#     4  10  18  30  49  78  96 127 159 212 238 285
#     4  10  17  30  53  76  94 122 173 205 240 276
#     4  10  18  30  49  78  96 127 159 212 238 285
#     4  10  17  30  53  76  94 122 173 205 240 276
#     4  10  16  30  48  75  97 120 164 209 237 276
#     4  10  16  30  48  75  97 120 164 209 237 276
#     4  10  21  32  48  75 107 129 158 198 253 295
#     4  10  21  32  48  75 107 129 158 198 253 295
#
# _framework density 25.791062
#
# number of rings (size 3 to 8) (size 9 to 14) (size 15 to 20)
#    0.000    2.000    5.000    1.500    0.000    0.000 
#    0.000    0.000    0.000    0.000   39.000    0.000 
#    0.000    0.000    0.000    0.000    0.000    0.000 
#
# Total GULP energy -198254.152459 kJ/mol
# GULP energy per Si atom -12390.884529 kJ/mol
# Density = 2.573236 g / cm^3
# Si number density = 25.791062 Si / 1000 Ang^3
#
#
#
# Elastic Constant Matrix: (Units=GPa)
#
#
# Indices 1 2 3 4 5 6 
#
# 1 84.9353 19.6243 48.7513 0.0000 32.3308 0.0000
# 2 19.6243 246.6069 37.1273 0.0000 8.5533 0.0000
# 3 48.7513 37.1273 154.2547 0.0000 35.6955 0.0000
# 4 0.0000 0.0000 0.0000 38.5954 0.0000 14.6548
# 5 32.3308 8.5533 35.6955 0.0000 49.8313 0.0000
# 6 0.0000 0.0000 0.0000 14.6548 0.0000 10.8506
#
#
#
# Elastic Compliance Matrix: (Units=1/GPa)
#
#
# Indices 1 2 3 4 5 6 
#
# 1 0.017063 -0.000568 -0.003257 0.000000 -0.008640 0.000000
# 2 -0.000568 0.004226 -0.000905 0.000000 0.000291 0.000000
# 3 -0.003257 -0.000905 0.008637 0.000000 -0.003918 0.000000
# 4 0.000000 0.000000 0.000000 0.053184 0.000000 -0.071831
# 5 -0.008640 0.000291 -0.003918 0.000000 0.028430 0.000000
# 6 0.000000 0.000000 0.000000 -0.071831 0.000000 0.189176
#
#
# Mechanical properties :
#
#
# Convention : Reuss Voigt Hill
#
# Bulk Modulus (GPa) = 48.85966 77.42253 63.14109
# Shear Modulus (GPa) = 15.77296 45.20838 30.49067
#
# Velocity S-wave (km/s) = 2.47567 4.19127 3.44207
# Velocity P-wave (km/s) = 5.21128 7.31482 6.35075
#
# Compressibility (1/GPa) = 0.02046678
#
# Stress axis : x y z
#
# Youngs Moduli (GPa) = 58.60623 236.60802 115.78610
#
# Poissons Ratio (x) = 0.13436 0.37706
# Poissons Ratio (y) = 0.03328 0.10481
# Poissons Ratio (z) = 0.19085 0.21418
#
# Static dielectric constant tensor:
#      x y z
#    x 4.988560 0.000000 1.310330 
#    y 0.000000 5.273540 0.000000 
#    z 1.310330 0.000000 6.359890 
# 
# 
# High freq. dielectric constant tensor:
#      x y z
#    x 2.027190 0.000000 0.036170 
#    y 0.000000 2.047320 0.000000 
#    z 0.036170 0.000000 2.065570 
# 
# From -- ./inp_files/1986.got.cif
#   From: 2010.03.12/outbox.cif.g09.slc.cpg/sg4_1_cif.got.tgz:1986.got - 2010.03.31 09:31:35.
