data_PCOD8045894
_publ_section_title
;
Structure prediction by ZEFSAII (Michael W. Deem and Ramdas Pophale) SiO2 
 PCOD8045894
Probable space group: P 21
;
_chemical_formula_sum "Si O2"
_cell_formula_units_Z 16
_cell_length_a 22.530004
_cell_length_b 5.237913
_cell_length_c 13.881141
_cell_angle_alpha 90.000000
_cell_angle_beta 150.265114
_cell_angle_gamma 90.000000
_cell_volume 812.485120
_symmetry_space_group_name_H-M "P 21"
_symmetry_group_IT_number 4
_symmetry_cell_setting 'monoclinic'
loop_
_space_group_symop_operation_xyz
x,y,z
-x,1/2+y,-z
loop_
_atom_site_type_symbol
_atom_site_label
_atom_site_fract_x
_atom_site_fract_y
_atom_site_fract_z
Si Si1 0.642247 0.063270 0.148588
Si Si2 0.340849 0.090841 0.150483
Si Si3 0.647436 0.104788 0.938739
Si Si4 0.761979 0.587251 0.787825
Si Si5 0.358530 0.064396 0.745365
Si Si6 0.424372 0.397458 0.580790
Si Si7 0.987785 0.172907 0.920401
Si Si8 0.269666 0.788265 0.447899
O O1 0.691965 0.321493 0.266412
O O2 0.693059 0.822994 0.280586
O O3 0.688481 0.040468 0.104419
O O4 0.500126 0.064756 0.948892
O O5 0.308560 0.373634 0.067730
O O6 0.289304 0.015933 0.181092
O O7 0.485946 0.073080 0.356646
O O8 0.290092 0.869635 0.007236
O O9 0.501784 0.153715 0.729278
O O10 0.747640 0.362612 0.688777
O O11 0.686690 0.826988 0.643091
O O12 0.902452 0.653030 0.000586
O O13 0.312050 0.033143 0.569837
O O14 0.370939 0.564654 0.595114
O O15 0.857320 0.193397 0.686970
O O16 0.014796 0.424950 0.018045
#
# Coordination Sequence:
#
# PCOD8045894 Si02
#       8
#     2   2   2   2   2   2   2   2
#     4  10  20  36  52  80 112 150 179 229 289 343
#     4  10  24  33  56  84 114 156 189 223 287 339
#     4  10  22  37  53  83 115 149 186 232 281 347
#     4  11  23  37  56  81 120 156 195 236 277 339
#     4  10  22  31  56  79 111 150 186 224 284 347
#     4  10  22  32  59  79 121 157 186 235 279 344
#     4  10  22  40  56  78 111 161 198 234 278 326
#     4  11  23  38  56  86 118 155 195 235 287 337
#
# _framework density 19.692667
#
# number of rings (size 3 to 8) (size 9 to 14) (size 15 to 20)
#    0.750    1.000    1.250    3.000   12.250    0.000 
#    0.000    0.000    0.000    0.000    0.000    3.500 
#    0.000    0.000    0.000    0.000    0.000    0.000 
#
# Total GULP energy -198271.830997 kJ/mol
# GULP energy per Si atom -12391.989437 kJ/mol
# Density = 1.964785 g / cm^3
# Si number density = 19.692667 Si / 1000 Ang^3
#
#
#
# Elastic Constant Matrix: (Units=GPa)
#
#
# Indices 1 2 3 4 5 6 
#
# 1 91.7219 25.1227 38.3348 0.0000 -8.7516 0.0000
# 2 25.1227 120.4324 16.8802 0.0000 -11.1108 0.0000
# 3 38.3348 16.8802 34.9839 0.0000 -3.9986 0.0000
# 4 0.0000 0.0000 0.0000 26.9665 0.0000 -8.5738
# 5 -8.7516 -11.1108 -3.9986 0.0000 32.6699 0.0000
# 6 0.0000 0.0000 0.0000 -8.5738 0.0000 24.0573
#
#
#
# Elastic Compliance Matrix: (Units=1/GPa)
#
#
# Indices 1 2 3 4 5 6 
#
# 1 0.020467 -0.001004 -0.021659 0.000000 0.002490 0.000000
# 2 -0.001004 0.009167 -0.003040 0.000000 0.002477 0.000000
# 3 -0.021659 -0.003040 0.053755 0.000000 -0.000257 0.000000
# 4 0.000000 0.000000 0.000000 0.041822 0.000000 0.014905
# 5 0.002490 0.002477 -0.000257 0.000000 0.032087 0.000000
# 6 0.000000 0.000000 0.000000 0.014905 0.000000 0.046879
#
#
# Mechanical properties :
#
#
# Convention : Reuss Voigt Hill
#
# Bulk Modulus (GPa) = 31.26511 45.31261 38.28886
# Shear Modulus (GPa) = 18.77964 27.85878 23.31921
#
# Velocity S-wave (km/s) = 3.09145 3.76530 3.44489
# Velocity P-wave (km/s) = 5.35292 6.47790 5.94209
#
# Compressibility (1/GPa) = 0.03198453
#
# Stress axis : x y z
#
# Youngs Moduli (GPa) = 48.85840 109.08133 18.60280
#
# Poissons Ratio (x) = 0.10952 0.40291
# Poissons Ratio (y) = 0.04906 0.05655
# Poissons Ratio (z) = 1.05821 0.33162
#
# Static dielectric constant tensor:
#      x y z
#    x 3.514340 0.000000 0.044490 
#    y 0.000000 3.731220 0.000000 
#    z 0.044490 0.000000 3.330550 
# 
# 
# High freq. dielectric constant tensor:
#      x y z
#    x 1.748260 0.000000 -0.011110 
#    y 0.000000 1.786870 0.000000 
#    z -0.011110 0.000000 1.720120 
# 
# From -- ./inp_files/13007.got.cif
#   From: 2010.03.12/outbox.cif.g09.slc.cpg/sg4_7_cif.got.tgz:13007.got - 2010.03.31 09:31:35.
