data_PCOD8045895
_publ_section_title
;
Structure prediction by ZEFSAII (Michael W. Deem and Ramdas Pophale) SiO2 
 PCOD8045895
Probable space group: P 21
;
_chemical_formula_sum "Si O2"
_cell_formula_units_Z 16
_cell_length_a 12.015714
_cell_length_b 8.657974
_cell_length_c 7.988366
_cell_angle_alpha 90.000000
_cell_angle_beta 90.757098
_cell_angle_gamma 90.000000
_cell_volume 830.971058
_symmetry_space_group_name_H-M "P 21"
_symmetry_group_IT_number 4
_symmetry_cell_setting 'monoclinic'
loop_
_space_group_symop_operation_xyz
x,y,z
-x,1/2+y,-z
loop_
_atom_site_type_symbol
_atom_site_label
_atom_site_fract_x
_atom_site_fract_y
_atom_site_fract_z
Si Si1 0.255195 0.912270 0.688478
Si Si2 0.275915 0.593023 0.816582
Si Si3 0.119817 0.400049 0.007536
Si Si4 0.503244 0.560352 0.667378
Si Si5 0.267736 0.910439 0.307468
Si Si6 0.289519 0.591065 0.176542
Si Si7 0.507646 0.920641 0.687433
Si Si8 0.875574 0.535638 0.000886
O O1 0.234823 0.726646 0.690035
O O2 0.233439 0.966402 0.495066
O O3 0.381846 0.948154 0.746219
O O4 0.178640 0.999149 0.820163
O O5 0.393783 0.517647 0.770826
O O6 0.183726 0.457106 0.838288
O O7 0.291936 0.678268 0.996860
O O8 0.186316 0.468533 0.171143
O O9 0.117514 0.217685 0.017855
O O10 0.996380 0.463006 0.005045
O O11 0.609298 0.468436 0.739410
O O12 0.471462 0.508092 0.483253
O O13 0.532580 0.740350 0.669376
O O14 0.271827 0.723004 0.314893
O O15 0.184186 0.969519 0.164849
O O16 0.404262 0.496141 0.186074
#
# Coordination Sequence:
#
# PCOD8045895 Si02
#       8
#     2   2   2   2   2   2   2   2
#     4  10  22  40  62  92 123 162 204 250 302 361
#     4   9  20  38  59  89 120 162 200 243 306 349
#     4  10  24  40  65  90 118 160 204 261 301 362
#     4  10  21  35  57  89 129 163 201 255 296 364
#     4  11  23  39  65  92 124 166 201 252 305 361
#     4  10  20  38  60  89 122 160 201 245 306 354
#     4  10  20  36  55  90 127 160 205 245 302 360
#     4  12  22  44  65  85 125 155 206 257 306 365
#
# _framework density 19.254583
#
# number of rings (size 3 to 8) (size 9 to 14) (size 15 to 20)
#    0.750    1.000    1.250    4.500    1.750    3.000 
#    0.000    7.500    0.000    0.000    0.000    0.000 
#    0.000    0.000    0.000    0.000    0.000    0.000 
#
# Total GULP energy -198263.484468 kJ/mol
# GULP energy per Si atom -12391.467779 kJ/mol
# Density = 1.921076 g / cm^3
# Si number density = 19.254583 Si / 1000 Ang^3
#
#
#
# Elastic Constant Matrix: (Units=GPa)
#
#
# Indices 1 2 3 4 5 6 
#
# 1 145.2598 67.1584 54.2577 0.0000 -4.6078 0.0000
# 2 67.1584 134.1628 35.0820 0.0000 -5.6683 0.0000
# 3 54.2577 35.0820 78.0744 0.0000 -17.3815 0.0000
# 4 0.0000 0.0000 0.0000 32.3843 0.0000 -0.1115
# 5 -4.6078 -5.6683 -17.3815 0.0000 7.8469 0.0000
# 6 0.0000 0.0000 0.0000 -0.1115 0.0000 36.1072
#
#
#
# Elastic Compliance Matrix: (Units=1/GPa)
#
#
# Indices 1 2 3 4 5 6 
#
# 1 0.012390 -0.004096 -0.011461 0.000000 -0.021069 0.000000
# 2 -0.004096 0.009883 -0.001067 0.000000 0.002371 0.000000
# 3 -0.011461 -0.001067 0.038634 0.000000 0.078077 0.000000
# 4 0.000000 0.000000 0.000000 0.030879 0.000000 0.000095
# 5 -0.021069 0.002371 0.078077 0.000000 0.289726 0.000000
# 6 0.000000 0.000000 0.000000 0.000095 0.000000 0.027696
#
#
# Mechanical properties :
#
#
# Convention : Reuss Voigt Hill
#
# Bulk Modulus (GPa) = 36.15156 74.49926 55.32541
# Shear Modulus (GPa) = 11.06990 28.66761 19.86875
#
# Velocity S-wave (km/s) = 2.40036 3.86278 3.21580
# Velocity P-wave (km/s) = 5.14768 7.65966 6.52568
#
# Compressibility (1/GPa) = 0.02766132
#
# Stress axis : x y z
#
# Youngs Moduli (GPa) = 80.70849 101.18528 25.88361
#
# Poissons Ratio (x) = 0.41441 0.29665
# Poissons Ratio (y) = 0.33054 0.02761
# Poissons Ratio (z) = 0.92499 0.10793
#
# Static dielectric constant tensor:
#      x y z
#    x 3.550190 0.000000 -0.003810 
#    y 0.000000 3.514280 0.000000 
#    z -0.003810 0.000000 3.411380 
# 
# 
# High freq. dielectric constant tensor:
#      x y z
#    x 1.749850 0.000000 -0.000220 
#    y 0.000000 1.752680 0.000000 
#    z -0.000220 0.000000 1.740630 
# 
# From -- ./inp_files/7704.got.cif
#   From: 2010.03.12/outbox.cif.g09.slc.cpg/sg4_4_cif.got.tgz:7704.got - 2010.03.31 09:31:35.
