data_PCOD8045542
_publ_section_title
;
Structure prediction by ZEFSAII (Michael W. Deem and Ramdas Pophale) SiO2 
 PCOD8045542
Probable space group: P 2
;
_chemical_formula_sum "Si O2"
_cell_formula_units_Z 12
_cell_length_a 9.025970
_cell_length_b 4.801719
_cell_length_c 12.859791
_cell_angle_alpha 90.000000
_cell_angle_beta 68.723292
_cell_angle_gamma 90.000000
_cell_volume 519.356219
_symmetry_space_group_name_H-M "P 2"
_symmetry_group_IT_number 3
_symmetry_cell_setting 'monoclinic'
loop_
_space_group_symop_operation_xyz
x,y,z
-x,y,-z
loop_
_atom_site_type_symbol
_atom_site_label
_atom_site_fract_x
_atom_site_fract_y
_atom_site_fract_z
Si Si1 0.127467 0.763820 0.182454
Si Si2 0.606136 0.942623 0.727190
Si Si3 0.388165 0.435911 0.805151
Si Si4 0.329193 0.062116 0.516393
Si Si5 0.853024 0.273317 0.966029
Si Si6 0.801149 0.557650 0.342859
O O1 0.260665 0.890031 0.221845
O O2 0.171229 0.461096 0.129271
O O3 0.968916 0.715362 0.289872
O O4 0.111386 0.962822 0.085197
O O5 0.452856 0.751251 0.791845
O O6 0.545671 0.258695 0.744080
O O7 0.686496 0.921451 0.593142
O O8 0.254103 0.413606 0.750278
O O9 0.310326 0.314357 0.929522
O O10 0.500000 0.200433 0.500000
O O11 0.199069 0.307595 0.570896
O O12 0.318478 0.803983 0.598002
O O13 0.000000 0.370266 0.000000
#
# Coordination Sequence:
#
# PCOD8045542 Si02
#       6
#     2   2   2   2   2   2
#     4  12  28  47  68 108 147 186 238 307 368 424
#     4  12  27  45  70 107 150 182 238 311 367 425
#     4  12  24  44  74 104 137 193 243 297 363 433
#     4  12  23  43  75 106 136 190 246 293 358 434
#     4  12  26  45  75 103 139 192 247 294 359 443
#     4  12  24  44  74 104 139 189 248 292 355 441
#
# _framework density 23.105526999999999
#
# number of rings (size 3 to 8) (size 9 to 14) (size 15 to 20)
#    0.000    0.000    5.000    5.000    2.333    4.667 
#    0.000    1.667    0.000    0.000    0.000    0.000 
#    0.000    0.000    0.000    0.000    0.000    0.000 
#
# Total GULP energy -148805.611607 kJ/mol
# GULP energy per Si atom -12400.467634 kJ/mol
# Density = 2.305294 g / cm^3
# Si number density = 23.105527 Si / 1000 Ang^3
#
#
#
# Elastic Constant Matrix: (Units=GPa)
#
#
# Indices 1 2 3 4 5 6 
#
# 1 102.1618 11.4385 26.3998 0.0000 7.6461 0.0000
# 2 11.4385 97.2233 33.0736 0.0000 -8.2521 0.0000
# 3 26.3998 33.0736 121.3384 0.0000 -11.9096 0.0000
# 4 0.0000 0.0000 0.0000 57.9981 0.0000 -5.2043
# 5 7.6461 -8.2521 -11.9096 0.0000 27.1092 0.0000
# 6 0.0000 0.0000 0.0000 -5.2043 0.0000 25.9545
#
#
#
# Elastic Compliance Matrix: (Units=1/GPa)
#
#
# Indices 1 2 3 4 5 6 
#
# 1 0.010877 -0.000775 -0.002591 0.000000 -0.004442 0.000000
# 2 -0.000775 0.011518 -0.002723 0.000000 0.002529 0.000000
# 3 -0.002591 -0.002723 0.009967 0.000000 0.004281 0.000000
# 4 0.000000 0.000000 0.000000 0.017558 0.000000 0.003521
# 5 -0.004442 0.002529 0.004281 0.000000 0.040791 0.000000
# 6 0.000000 0.000000 0.000000 0.003521 0.000000 0.039235
#
#
# Mechanical properties :
#
#
# Convention : Reuss Voigt Hill
#
# Bulk Modulus (GPa) = 49.54375 51.39413 50.46894
# Shear Modulus (GPa) = 33.59028 38.86647 36.22837
#
# Velocity S-wave (km/s) = 3.81698 4.10583 3.96403
# Velocity P-wave (km/s) = 6.39646 6.69093 6.54535
#
# Compressibility (1/GPa) = 0.02018418
#
# Stress axis : x y z
#
# Youngs Moduli (GPa) = 91.93461 86.82375 100.32616
#
# Poissons Ratio (x) = 0.06731 0.25997
# Poissons Ratio (y) = 0.07128 0.27314
# Poissons Ratio (z) = 0.23823 0.23638
#
# Static dielectric constant tensor:
#      x y z
#    x 3.729050 0.000000 -0.076010 
#    y 0.000000 4.184410 0.000000 
#    z -0.076010 0.000000 4.468100 
# 
# 
# High freq. dielectric constant tensor:
#      x y z
#    x 1.887610 0.000000 -0.004510 
#    y 0.000000 1.929320 0.000000 
#    z -0.004510 0.000000 1.927800 
# 
# From -- ./inp_files/13237.got.cif
#   From: 2010.03.12/outbox.cif.g09.slc.cpg/sg3_7_cif.got.tgz:13237.got - 2010.03.31 09:20:49.
