data_PCOD8045809
_publ_section_title
;
Structure prediction by ZEFSAII (Michael W. Deem and Ramdas Pophale) SiO2 
 PCOD8045809
Probable space group: P 21
;
_chemical_formula_sum "Si O2"
_cell_formula_units_Z 16
_cell_length_a 10.032591
_cell_length_b 11.424956
_cell_length_c 9.101472
_cell_angle_alpha 90.000000
_cell_angle_beta 134.990286
_cell_angle_gamma 90.000000
_cell_volume 737.798727
_symmetry_space_group_name_H-M "P 21"
_symmetry_group_IT_number 4
_symmetry_cell_setting 'monoclinic'
loop_
_space_group_symop_operation_xyz
x,y,z
-x,1/2+y,-z
loop_
_atom_site_type_symbol
_atom_site_label
_atom_site_fract_x
_atom_site_fract_y
_atom_site_fract_z
Si Si1 0.979870 0.550460 0.568279
Si Si2 0.111435 0.261371 0.306987
Si Si3 0.560995 0.525117 0.141952
Si Si4 0.249157 0.350350 0.868654
Si Si5 0.103648 0.166579 0.986910
Si Si6 0.544081 0.759685 0.251233
Si Si7 0.156012 0.523326 0.402010
Si Si8 0.578299 0.500746 0.817088
O O1 0.000589 0.668523 0.679750
O O2 0.764315 0.512007 0.374511
O O3 0.081158 0.443986 0.730006
O O4 0.081340 0.578692 0.494520
O O5 0.060176 0.239903 0.097722
O O6 0.336842 0.242867 0.506196
O O7 0.060215 0.395584 0.306176
O O8 0.453269 0.638386 0.126852
O O9 0.437412 0.411189 0.081095
O O10 0.573212 0.550144 0.978101
O O11 0.295493 0.301884 0.742323
O O12 0.191426 0.247596 0.930511
O O13 0.254746 0.063661 0.140677
O O14 0.909607 0.107930 0.780906
O O15 0.384886 0.859623 0.146601
O O16 0.381896 0.520694 0.579175
#
# Coordination Sequence:
#
# PCOD8045809 Si02
#       8
#     2   2   2   2   2   2   2   2
#     4  11  21  41  69  97 124 167 218 271 313 377
#     4  10  24  43  64  94 135 168 211 268 326 395
#     4  10  19  38  64  99 118 163 218 265 318 368
#     4  11  22  39  65  92 131 167 214 268 314 382
#     4  12  25  43  61  94 142 170 207 268 332 386
#     4   9  18  41  61  92 122 157 223 265 302 377
#     4  11  23  44  70  95 128 169 223 271 317 381
#     4  10  20  39  66  95 124 169 210 268 324 376
#
# _framework density 21.686133000000002
#
# number of rings (size 3 to 8) (size 9 to 14) (size 15 to 20)
#    0.000    1.500    6.250    0.750    1.750    2.000 
#    9.000    2.500    0.000    0.000    0.000    0.000 
#    0.000    0.000    0.000    0.000    0.000    0.000 
#
# Total GULP energy -198384.292293 kJ/mol
# GULP energy per Si atom -12399.018268 kJ/mol
# Density = 2.163677 g / cm^3
# Si number density = 21.686133 Si / 1000 Ang^3
#
#
#
# Elastic Constant Matrix: (Units=GPa)
#
#
# Indices 1 2 3 4 5 6 
#
# 1 30.8097 2.4151 7.8890 0.0000 -0.7347 0.0000
# 2 2.4151 56.5638 4.2069 0.0000 -9.1988 0.0000
# 3 7.8890 4.2069 59.8440 0.0000 -2.3129 0.0000
# 4 0.0000 0.0000 0.0000 37.4718 0.0000 5.5535
# 5 -0.7347 -9.1988 -2.3129 0.0000 30.3149 0.0000
# 6 0.0000 0.0000 0.0000 5.5535 0.0000 23.8455
#
#
#
# Elastic Compliance Matrix: (Units=1/GPa)
#
#
# Indices 1 2 3 4 5 6 
#
# 1 0.033661 -0.001088 -0.004355 0.000000 0.000153 0.000000
# 2 -0.001088 0.018704 -0.000956 0.000000 0.005576 0.000000
# 3 -0.004355 -0.000956 0.017387 0.000000 0.000931 0.000000
# 4 0.000000 0.000000 0.000000 0.027641 0.000000 -0.006437
# 5 0.000153 0.005576 0.000931 0.000000 0.034754 0.000000
# 6 0.000000 0.000000 0.000000 -0.006437 0.000000 0.043436
#
#
# Mechanical properties :
#
#
# Convention : Reuss Voigt Hill
#
# Bulk Modulus (GPa) = 17.55808 19.58218 18.57013
# Shear Modulus (GPa) = 24.11197 27.17354 25.64275
#
# Velocity S-wave (km/s) = 3.33808 3.54367 3.44241
# Velocity P-wave (km/s) = 4.79281 5.07867 4.93781
#
# Compressibility (1/GPa) = 0.05695383
#
# Stress axis : x y z
#
# Youngs Moduli (GPa) = 29.70763 53.46580 57.51290
#
# Poissons Ratio (x) = 0.05819 0.25047
# Poissons Ratio (y) = 0.03233 0.05497
# Poissons Ratio (z) = 0.12938 0.05110
#
# Static dielectric constant tensor:
#      x y z
#    x 3.447000 0.000000 0.083370 
#    y 0.000000 4.209980 0.000000 
#    z 0.083370 0.000000 3.986280 
# 
# 
# High freq. dielectric constant tensor:
#      x y z
#    x 1.806630 0.000000 0.006610 
#    y 0.000000 1.866700 0.000000 
#    z 0.006610 0.000000 1.860080 
# 
# From -- ./inp_files/8479.got.cif
#   From: 2010.03.12/outbox.cif.g09.slc.cpg/sg4_5_cif.got.tgz:8479.got - 2010.03.31 09:31:35.
