data_PCOD8045674
_publ_section_title
;
Structure prediction by ZEFSAII (Michael W. Deem and Ramdas Pophale) SiO2 
 PCOD8045674
Probable space group: P 21
;
_chemical_formula_sum "Si O2"
_cell_formula_units_Z 16
_cell_length_a 9.232775
_cell_length_b 7.637388
_cell_length_c 16.880089
_cell_angle_alpha 90.000000
_cell_angle_beta 46.182416
_cell_angle_gamma 90.000000
_cell_volume 858.849231
_symmetry_space_group_name_H-M "P 21"
_symmetry_group_IT_number 4
_symmetry_cell_setting 'monoclinic'
loop_
_space_group_symop_operation_xyz
x,y,z
-x,1/2+y,-z
loop_
_atom_site_type_symbol
_atom_site_label
_atom_site_fract_x
_atom_site_fract_y
_atom_site_fract_z
Si Si1 0.771632 0.842300 0.596887
Si Si2 0.057308 0.597943 0.583570
Si Si3 0.292518 0.906085 0.543265
Si Si4 0.007081 0.085564 0.204595
Si Si5 0.256379 0.764275 0.114753
Si Si6 0.150815 0.539753 0.285592
Si Si7 0.700643 0.883327 0.916294
Si Si8 0.425860 0.693151 0.638426
O O1 0.544346 0.782192 0.666191
O O2 0.882355 0.677293 0.594482
O O3 0.878367 0.907052 0.474542
O O4 0.778595 0.013984 0.650862
O O5 0.245329 0.733639 0.508219
O O6 0.991456 0.587376 0.700155
O O7 0.391364 0.846087 0.587909
O O8 0.447038 0.031229 0.441815
O O9 0.086507 0.010459 0.636676
O O10 0.147261 0.234365 0.111708
O O11 0.785958 0.113792 0.252722
O O12 0.094025 0.899816 0.141886
O O13 0.207961 0.729360 0.227254
O O14 0.241192 0.578992 0.072906
O O15 0.476325 0.844445 0.027110
O O16 0.274339 0.392141 0.188740
#
# Coordination Sequence:
#
# PCOD8045674 Si02
#       8
#     2   2   2   2   2   2   2   2
#     4  11  20  34  52  81 117 151 186 227 281 343
#     4  10  21  34  52  76 113 156 190 225 268 339
#     4  10  20  35  49  79 113 156 192 221 274 331
#     4  11  20  38  54  86 114 147 189 235 283 334
#     4  10  20  33  63  87 102 143 190 244 282 324
#     4   9  20  36  52  83 114 142 185 238 275 333
#     4  10  18  36  57  88 103 135 193 246 275 324
#     4  11  21  32  53  80 116 154 183 230 280 346
#
# _framework density 18.629580000000001
#
# number of rings (size 3 to 8) (size 9 to 14) (size 15 to 20)
#    0.750    1.000    5.000    3.000    5.250    0.000 
#    2.250    0.000    0.000    0.000   19.500    0.000 
#    0.000    0.000    0.000    0.000    0.000    0.000 
#
# Total GULP energy -198214.274752 kJ/mol
# GULP energy per Si atom -12388.392172 kJ/mol
# Density = 1.858718 g / cm^3
# Si number density = 18.629580 Si / 1000 Ang^3
#
#
#
# Elastic Constant Matrix: (Units=GPa)
#
#
# Indices 1 2 3 4 5 6 
#
# 1 101.6986 25.3816 22.0879 0.0000 -29.5787 0.0000
# 2 25.3816 99.3876 26.1566 0.0000 -22.2315 0.0000
# 3 22.0879 26.1566 60.0350 0.0000 -29.3262 0.0000
# 4 0.0000 0.0000 0.0000 43.6452 0.0000 -5.5946
# 5 -29.5787 -22.2315 -29.3262 0.0000 22.5066 0.0000
# 6 0.0000 0.0000 0.0000 -5.5946 0.0000 17.1934
#
#
#
# Elastic Compliance Matrix: (Units=1/GPa)
#
#
# Indices 1 2 3 4 5 6 
#
# 1 0.020016 0.001547 0.015290 0.000000 0.047757 0.000000
# 2 0.001547 0.013095 0.002853 0.000000 0.018686 0.000000
# 3 0.015290 0.002853 0.057720 0.000000 0.098122 0.000000
# 4 0.000000 0.000000 0.000000 0.023909 0.000000 0.007780
# 5 0.047757 0.018686 0.098122 0.000000 0.253505 0.000000
# 6 0.000000 0.000000 0.000000 0.007780 0.000000 0.060693
#
#
# Mechanical properties :
#
#
# Convention : Reuss Voigt Hill
#
# Bulk Modulus (GPa) = 7.67983 45.37482 26.52733
# Shear Modulus (GPa) = 11.54834 29.16870 20.35852
#
# Velocity S-wave (km/s) = 2.49247 3.96121 3.30935
# Velocity P-wave (km/s) = 3.52342 6.73281 5.37333
#
# Compressibility (1/GPa) = 0.13021113
#
# Stress axis : x y z
#
# Youngs Moduli (GPa) = 49.96017 76.36231 17.32516
#
# Poissons Ratio (x) = -0.11811 -0.26491
# Poissons Ratio (y) = -0.07727 -0.04943
# Poissons Ratio (z) = -0.76391 -0.21787
#
# Static dielectric constant tensor:
#      x y z
#    x 3.230600 0.000000 -0.158000 
#    y 0.000000 3.618580 0.000000 
#    z -0.158000 0.000000 3.387230 
# 
# 
# High freq. dielectric constant tensor:
#      x y z
#    x 1.687050 0.000000 -0.022940 
#    y 0.000000 1.737570 0.000000 
#    z -0.022940 0.000000 1.709960 
# 
# From -- ./inp_files/14883.got.cif
#   From: 2010.03.12/outbox.cif.g09.slc.cpg/sg4_8_cif.got.tgz:14883.got - 2010.03.31 09:31:35.
