data_PCOD8045248
_publ_section_title
;
Structure prediction by ZEFSAII (Michael W. Deem and Ramdas Pophale) SiO2 
 PCOD8045248
Probable space group: P 2
;
_chemical_formula_sum "Si O2"
_cell_formula_units_Z 12
_cell_length_a 8.949022
_cell_length_b 13.552809
_cell_length_c 11.300867
_cell_angle_alpha 90.000000
_cell_angle_beta 25.893700
_cell_angle_gamma 90.000000
_cell_volume 598.553132
_symmetry_space_group_name_H-M "P 2"
_symmetry_group_IT_number 3
_symmetry_cell_setting 'monoclinic'
loop_
_space_group_symop_operation_xyz
x,y,z
-x,y,-z
loop_
_atom_site_type_symbol
_atom_site_label
_atom_site_fract_x
_atom_site_fract_y
_atom_site_fract_z
Si Si1 0.230530 0.831380 0.092292
Si Si2 0.730530 0.704761 0.592291
Si Si3 0.111657 0.009930 0.786999
Si Si4 0.812186 0.219864 0.364393
Si Si5 0.611656 0.526211 0.286999
Si Si6 0.312187 0.316277 0.864393
O O1 0.889730 0.787429 0.393457
O O2 0.500000 0.863861 0.000000
O O3 0.389727 0.748711 0.893458
O O4 0.142866 0.927136 0.078985
O O5 0.642868 0.609006 0.578985
O O6 0.000000 0.672281 0.500000
O O7 0.500000 0.970839 0.500000
O O8 0.077467 0.106374 0.728774
O O9 0.000000 0.037034 0.000000
O O10 0.500000 0.248867 0.500000
O O11 0.645170 0.245408 0.610809
O O12 0.145170 0.290733 0.110809
O O13 0.500000 0.499109 0.500000
O O14 0.577465 0.429767 0.228776
O O15 0.000000 0.565302 0.000000
O O16 0.000000 0.287274 0.000000
#
# Coordination Sequence:
#
# PCOD8045248 Si02
#       6
#     2   2   2   2   2   2
#     4  10  22  39  55  72 101 140 172 203 255 314
#     4  10  22  39  55  72 101 140 172 203 255 314
#     4  11  21  32  53  82 104 129 170 216 253 288
#     4   9  16  28  46  71 103 133 161 198 247 300
#     4  11  21  32  53  82 104 129 170 216 253 288
#     4   9  16  28  46  71 103 133 161 198 247 300
#
# _framework density 20.048344
#
# number of rings (size 3 to 8) (size 9 to 14) (size 15 to 20)
#    0.000    2.000    0.000    7.000    0.000    4.000 
#    0.000    0.000    0.000    2.000    0.000    0.000 
#    0.000    5.333    0.000    0.000    0.000    0.000 
#
# Total GULP energy -148749.599433 kJ/mol
# GULP energy per Si atom -12395.799953 kJ/mol
# Density = 2.000271 g / cm^3
# Si number density = 20.048344 Si / 1000 Ang^3
#
#
#
# Elastic Constant Matrix: (Units=GPa)
#
#
# Indices 1 2 3 4 5 6 
#
# 1 27.4800 37.4933 13.8608 0.0000 -0.6048 0.0000
# 2 37.4933 114.8846 25.1619 0.0000 -10.4723 0.0000
# 3 13.8608 25.1619 104.7444 0.0000 9.3448 0.0000
# 4 0.0000 0.0000 0.0000 21.0337 0.0000 6.7867
# 5 -0.6048 -10.4723 9.3448 0.0000 16.5952 0.0000
# 6 0.0000 0.0000 0.0000 6.7867 0.0000 1.3192
#
#
#
# Elastic Compliance Matrix: (Units=1/GPa)
#
#
# Indices 1 2 3 4 5 6 
#
# 1 0.068501 -0.022707 -0.002689 0.000000 -0.010318 0.000000
# 2 -0.022707 0.017671 -0.002276 0.000000 0.011605 0.000000
# 3 -0.002689 -0.002276 0.011146 0.000000 -0.007811 0.000000
# 4 0.000000 0.000000 0.000000 -0.072049 0.000000 0.370645
# 5 -0.010318 0.011605 -0.007811 0.000000 0.071604 0.000000
# 6 0.000000 0.000000 0.000000 0.370645 0.000000 -1.148723
#
#
# Mechanical properties :
#
#
# Convention : Reuss Voigt Hill
#
# Bulk Modulus (GPa) = 23.82413 44.46012 34.14213
# Shear Modulus (GPa) = -5.08899 19.16250 7.03676
#
# Velocity S-wave (km/s) = -1.59495 3.09498 1.87550
# Velocity P-wave (km/s) = 2.91844 5.91578 4.66443
#
# Compressibility (1/GPa) = 0.04197425
#
# Stress axis : x y z
#
# Youngs Moduli (GPa) = 14.59837 56.58908 89.71524
#
# Poissons Ratio (x) = 1.28498 0.24128
# Poissons Ratio (y) = 0.33149 0.20415
# Poissons Ratio (z) = 0.03926 0.12877
#
# Static dielectric constant tensor:
#      x y z
#    x 3.146920 0.000000 0.244260 
#    y 0.000000 3.420960 0.000000 
#    z 0.244260 0.000000 4.195510 
# 
# 
# High freq. dielectric constant tensor:
#      x y z
#    x 1.718300 0.000000 0.017980 
#    y 0.000000 1.783920 0.000000 
#    z 0.017980 0.000000 1.815620 
# 
# From -- ./inp_files/10910.got.cif
#   From: 2010.03.12/outbox.cif.g09.slc.cpg/sg3_6_cif.got.tgz:10910.got - 2010.03.31 09:20:49.
