data_PCOD8045853
_publ_section_title
;
Structure prediction by ZEFSAII (Michael W. Deem and Ramdas Pophale) SiO2 
 PCOD8045853
Probable space group: P 21
;
_chemical_formula_sum "Si O2"
_cell_formula_units_Z 14
_cell_length_a 6.339181
_cell_length_b 11.519561
_cell_length_c 9.096519
_cell_angle_alpha 90.000000
_cell_angle_beta 106.982657
_cell_angle_gamma 90.000000
_cell_volume 635.302840
_symmetry_space_group_name_H-M "P 21"
_symmetry_group_IT_number 4
_symmetry_cell_setting 'monoclinic'
loop_
_space_group_symop_operation_xyz
x,y,z
-x,1/2+y,-z
loop_
_atom_site_type_symbol
_atom_site_label
_atom_site_fract_x
_atom_site_fract_y
_atom_site_fract_z
Si Si1 0.353085 0.348730 0.754801
Si Si2 0.019445 0.534653 0.569634
Si Si3 0.487055 0.419220 0.103586
Si Si4 0.879875 0.073286 0.971624
Si Si5 0.719634 0.502422 0.760929
Si Si6 0.838869 0.605114 0.231137
Si Si7 0.352759 0.675081 0.800643
O O1 0.157334 0.418241 0.633640
O O2 0.590292 0.378811 0.728670
O O3 0.303233 0.212250 0.735615
O O4 0.375639 0.389969 0.925974
O O5 0.156070 0.648335 0.647793
O O6 0.784275 0.533336 0.606317
O O7 0.975534 0.544695 0.388590
O O8 0.285632 0.483733 0.146090
O O9 0.688329 0.507615 0.125091
O O10 0.570716 0.306799 0.206621
O O11 0.997660 0.147600 0.866569
O O12 0.733858 0.156054 0.049260
O O13 0.053400 0.998129 0.102015
O O14 0.561787 0.596504 0.804884
#
# Coordination Sequence:
#
# PCOD8045853 Si02
#       7
#     2   2   2   2   2   2   2
#     4  11  23  45  69 100 137 177 230 281 331 407
#     4  10  25  46  68  96 138 183 218 281 351 399
#     4  12  23  42  69 107 132 171 237 282 325 411
#     4  11  21  44  71 103 133 178 226 280 340 403
#     4  10  19  47  69  93 134 180 224 278 342 397
#     4  12  28  43  69 108 135 179 231 277 344 404
#     4  10  23  43  69  99 133 176 228 279 337 405
#
# _framework density 22.036736000000001
#
# number of rings (size 3 to 8) (size 9 to 14) (size 15 to 20)
#    0.000    1.143    5.714    1.714    2.000    8.000 
#    5.143    0.000    0.000    0.000    0.000    0.000 
#    0.000    0.000    0.000    0.000    0.000    0.000 
#
# Total GULP energy -173536.341583 kJ/mol
# GULP energy per Si atom -12395.452970 kJ/mol
# Density = 2.198658 g / cm^3
# Si number density = 22.036736 Si / 1000 Ang^3
#
#
#
# Elastic Constant Matrix: (Units=GPa)
#
#
# Indices 1 2 3 4 5 6 
#
# 1 107.7963 21.1494 17.9370 0.0000 -3.7360 0.0000
# 2 21.1494 98.7391 6.3331 0.0000 15.0421 0.0000
# 3 17.9370 6.3331 83.4562 0.0000 2.3736 0.0000
# 4 0.0000 0.0000 0.0000 24.0577 0.0000 7.9029
# 5 -3.7360 15.0421 2.3736 0.0000 27.2754 0.0000
# 6 0.0000 0.0000 0.0000 7.9029 0.0000 35.0533
#
#
#
# Elastic Compliance Matrix: (Units=1/GPa)
#
#
# Indices 1 2 3 4 5 6 
#
# 1 0.010219 -0.002506 -0.002090 0.000000 0.002964 0.000000
# 2 -0.002506 0.011709 -0.000157 0.000000 -0.006787 0.000000
# 3 -0.002090 -0.000157 0.012480 0.000000 -0.001286 0.000000
# 4 0.000000 0.000000 0.000000 0.044891 0.000000 -0.010121
# 5 0.002964 -0.006787 -0.001286 0.000000 0.040924 0.000000
# 6 0.000000 0.000000 0.000000 -0.010121 0.000000 0.030810
#
#
# Mechanical properties :
#
#
# Convention : Reuss Voigt Hill
#
# Bulk Modulus (GPa) = 40.15979 42.31449 41.23714
# Shear Modulus (GPa) = 29.61386 33.58210 31.59798
#
# Velocity S-wave (km/s) = 3.66982 3.90797 3.79077
# Velocity P-wave (km/s) = 6.01834 6.29337 6.15739
#
# Compressibility (1/GPa) = 0.02490053
#
# Stress axis : x y z
#
# Youngs Moduli (GPa) = 97.85640 85.40799 80.12759
#
# Poissons Ratio (x) = 0.21406 0.16750
# Poissons Ratio (y) = 0.24526 0.01257
# Poissons Ratio (z) = 0.20456 0.01339
#
# Static dielectric constant tensor:
#      x y z
#    x 4.361220 0.000000 0.028240 
#    y 0.000000 3.957990 0.000000 
#    z 0.028240 0.000000 3.739290 
# 
# 
# High freq. dielectric constant tensor:
#      x y z
#    x 1.886640 0.000000 0.009870 
#    y 0.000000 1.849690 0.000000 
#    z 0.009870 0.000000 1.847550 
# 
# From -- ./inp_files/1109.got.cif
#   From: 2010.03.12/outbox.cif.g09.slc.cpg/sg4_1_cif.got.tgz:1109.got - 2010.03.31 09:31:35.
