data_PCOD8045922
_publ_section_title
;
Structure prediction by ZEFSAII (Michael W. Deem and Ramdas Pophale) SiO2 
 PCOD8045922
Probable space group: P 21
;
_chemical_formula_sum "Si O2"
_cell_formula_units_Z 16
_cell_length_a 13.842095
_cell_length_b 8.280418
_cell_length_c 9.379292
_cell_angle_alpha 90.000000
_cell_angle_beta 43.367171
_cell_angle_gamma 90.000000
_cell_volume 738.198071
_symmetry_space_group_name_H-M "P 21"
_symmetry_group_IT_number 4
_symmetry_cell_setting 'monoclinic'
loop_
_space_group_symop_operation_xyz
x,y,z
-x,1/2+y,-z
loop_
_atom_site_type_symbol
_atom_site_label
_atom_site_fract_x
_atom_site_fract_y
_atom_site_fract_z
Si Si1 0.836275 0.831940 0.121949
Si Si2 0.431122 0.531300 0.525140
Si Si3 0.662204 0.283267 0.770017
Si Si4 0.072058 0.056824 0.784844
Si Si5 0.346554 0.878341 0.534893
Si Si6 0.168404 0.192384 0.181080
Si Si7 0.052845 0.933543 0.499910
Si Si8 0.459099 0.038769 0.902157
O O1 0.679302 0.889714 0.322494
O O2 0.897171 0.736798 0.193081
O O3 0.844363 0.714038 0.975535
O O4 0.923804 0.994741 0.002825
O O5 0.364264 0.709539 0.600385
O O6 0.552709 0.518270 0.512839
O O7 0.504216 0.494273 0.297438
O O8 0.614314 0.362520 0.672495
O O9 0.831106 0.288766 0.608397
O O10 0.598314 0.103004 0.835484
O O11 0.588260 0.373380 0.978208
O O12 0.186590 0.932767 0.724803
O O13 0.072028 0.057224 0.612277
O O14 0.100641 0.349685 0.332125
O O15 0.080067 0.033434 0.325650
O O16 0.331653 0.170590 0.048786
#
# Coordination Sequence:
#
# PCOD8045922 Si02
#       8
#     2   2   2   2   2   2   2   2
#     4  11  22  38  59  85 117 153 194 242 292 347
#     4  11  22  37  59  86 116 157 196 239 293 345
#     4   9  20  37  55  81 113 148 190 238 286 341
#     4  10  21  38  58  84 116 152 194 242 291 348
#     4  10  20  37  57  82 115 149 193 242 290 347
#     4  10  21  40  60  85 116 149 191 239 289 346
#     4   9  21  38  59  83 114 149 191 240 291 341
#     4  10  21  37  57  84 115 151 193 236 286 343
#
# _framework density 21.674401
#
# number of rings (size 3 to 8) (size 9 to 14) (size 15 to 20)
#    0.000    2.000    0.000    3.750    0.000    7.000 
#    0.000    5.000    0.000    0.000    0.000    0.000 
#    0.000    0.000    0.000    0.000    0.000    0.000 
#
# Total GULP energy -198376.228340 kJ/mol
# GULP energy per Si atom -12398.514271 kJ/mol
# Density = 2.162507 g / cm^3
# Si number density = 21.674401 Si / 1000 Ang^3
#
#
#
# Elastic Constant Matrix: (Units=GPa)
#
#
# Indices 1 2 3 4 5 6 
#
# 1 59.8450 15.1249 25.0213 0.0000 -4.1955 0.0000
# 2 15.1249 43.7926 26.5547 0.0000 3.8712 0.0000
# 3 25.0213 26.5547 115.5864 0.0000 -6.4162 0.0000
# 4 0.0000 0.0000 0.0000 34.6149 0.0000 6.4606
# 5 -4.1955 3.8712 -6.4162 0.0000 16.7240 0.0000
# 6 0.0000 0.0000 0.0000 6.4606 0.0000 17.9123
#
#
#
# Elastic Compliance Matrix: (Units=1/GPa)
#
#
# Indices 1 2 3 4 5 6 
#
# 1 0.019608 -0.005615 -0.002666 0.000000 0.005196 0.000000
# 2 -0.005615 0.029427 -0.006132 0.000000 -0.010573 0.000000
# 3 -0.002666 -0.006132 0.010912 0.000000 0.004937 0.000000
# 4 0.000000 0.000000 0.000000 0.030974 0.000000 -0.011172
# 5 0.005196 -0.010573 0.004937 0.000000 0.065439 0.000000
# 6 0.000000 0.000000 0.000000 -0.011172 0.000000 0.059857
#
#
# Mechanical properties :
#
#
# Convention : Reuss Voigt Hill
#
# Bulk Modulus (GPa) = 32.13307 39.18064 35.65686
# Shear Modulus (GPa) = 19.57591 24.01845 21.79718
#
# Velocity S-wave (km/s) = 3.00856 3.33250 3.17466
# Velocity P-wave (km/s) = 5.18904 5.73790 5.47036
#
# Compressibility (1/GPa) = 0.03112059
#
# Stress axis : x y z
#
# Youngs Moduli (GPa) = 51.00000 33.98244 91.64635
#
# Poissons Ratio (x) = 0.19080 0.24435
# Poissons Ratio (y) = 0.28634 0.56198
# Poissons Ratio (z) = 0.13598 0.20838
#
# Static dielectric constant tensor:
#      x y z
#    x 3.907400 0.000000 -0.129860 
#    y 0.000000 3.613450 0.000000 
#    z -0.129860 0.000000 4.070530 
# 
# 
# High freq. dielectric constant tensor:
#      x y z
#    x 1.843790 0.000000 -0.007110 
#    y 0.000000 1.830980 0.000000 
#    z -0.007110 0.000000 1.866070 
# 
# From -- ./inp_files/7992.got.cif
#   From: 2010.03.12/outbox.cif.g09.slc.cpg/sg4_4_cif.got.tgz:7992.got - 2010.03.31 09:31:35.
