data_PCOD8045664
_publ_section_title
;
Structure prediction by ZEFSAII (Michael W. Deem and Ramdas Pophale) SiO2 
 PCOD8045664
Probable space group: P 21
;
_chemical_formula_sum "Si O2"
_cell_formula_units_Z 16
_cell_length_a 7.866086
_cell_length_b 4.933193
_cell_length_c 21.343965
_cell_angle_alpha 90.000000
_cell_angle_beta 88.928777
_cell_angle_gamma 90.000000
_cell_volume 828.106108
_symmetry_space_group_name_H-M "P 21"
_symmetry_group_IT_number 4
_symmetry_cell_setting 'monoclinic'
loop_
_space_group_symop_operation_xyz
x,y,z
-x,1/2+y,-z
loop_
_atom_site_type_symbol
_atom_site_label
_atom_site_fract_x
_atom_site_fract_y
_atom_site_fract_z
Si Si1 0.108384 0.827050 0.363910
Si Si2 0.107753 0.882801 0.839377
Si Si3 0.610999 0.423394 0.260736
Si Si4 0.890773 0.437246 0.501863
Si Si5 0.115219 0.846945 0.157995
Si Si6 0.001202 0.616686 0.040797
Si Si7 0.383352 0.926302 0.256457
Si Si8 0.872712 0.326857 0.368125
O O1 0.248935 0.861565 0.310692
O O2 0.201341 0.873579 0.431163
O O3 0.032269 0.527499 0.359735
O O4 0.949326 0.029876 0.355705
O O5 0.006598 0.604533 0.841140
O O6 0.284603 0.850871 0.802514
O O7 0.988445 0.106961 0.804994
O O8 0.141981 0.990664 0.910783
O O9 0.545394 0.730183 0.258608
O O10 0.723995 0.385861 0.321104
O O11 0.447561 0.230971 0.264864
O O12 0.936272 0.755041 0.499004
O O13 0.790250 0.354827 0.438938
O O14 0.147900 0.744437 0.085606
O O15 0.294361 0.902799 0.189275
O O16 0.074330 0.365612 0.999522
#
# Coordination Sequence:
#
# PCOD8045664 Si02
#       8
#     2   2   2   2   2   2   2   2
#     4  10  19  36  58  79 109 144 195 232 275 328
#     4  10  20  36  60  84 107 144 186 221 271 319
#     4  12  24  36  53  83 119 149 181 228 280 323
#     4   8  16  30  54  80 100 140 186 240 274 316
#     4  10  20  36  60  84 107 144 186 221 271 319
#     4  10  18  34  62  92 104 130 184 238 262 310
#     4  12  24  36  53  83 119 149 181 228 280 323
#     4  10  19  36  58  79 109 144 195 232 275 328
#
# _framework density 19.321197000000002
#
# number of rings (size 3 to 8) (size 9 to 14) (size 15 to 20)
#    0.750    1.000    1.250    4.500    0.000    0.000 
#    0.000    1.250    0.000    3.000    0.000    0.000 
#    0.000    0.000    0.000    0.000    0.000    0.000 
#
# Total GULP energy -198239.841938 kJ/mol
# GULP energy per Si atom -12389.990121 kJ/mol
# Density = 1.927722 g / cm^3
# Si number density = 19.321197 Si / 1000 Ang^3
#
#
#
# Elastic Constant Matrix: (Units=GPa)
#
#
# Indices 1 2 3 4 5 6 
#
# 1 54.7743 9.2266 42.5226 0.0000 5.8287 0.0000
# 2 9.2266 88.8467 19.4484 0.0000 1.0150 0.0000
# 3 42.5226 19.4484 134.2732 0.0000 19.8858 0.0000
# 4 0.0000 0.0000 0.0000 21.5070 0.0000 -0.4274
# 5 5.8287 1.0150 19.8858 0.0000 6.5595 0.0000
# 6 0.0000 0.0000 0.0000 -0.4274 0.0000 31.2189
#
#
#
# Elastic Compliance Matrix: (Units=1/GPa)
#
#
# Indices 1 2 3 4 5 6 
#
# 1 0.024299 -0.000807 -0.007984 0.000000 0.002735 0.000000
# 2 -0.000807 0.011782 -0.002336 0.000000 0.005976 0.000000
# 3 -0.007984 -0.002336 0.016714 0.000000 -0.043215 0.000000
# 4 0.000000 0.000000 0.000000 0.046509 0.000000 0.000637
# 5 0.002735 0.005976 -0.043215 0.000000 0.280105 0.000000
# 6 0.000000 0.000000 0.000000 0.000637 0.000000 0.032041
#
#
# Mechanical properties :
#
#
# Convention : Reuss Voigt Hill
#
# Bulk Modulus (GPa) = 32.74104 46.69882 39.71993
# Shear Modulus (GPa) = 11.26418 25.63687 18.45053
#
# Velocity S-wave (km/s) = 2.41715 3.64659 3.09356
# Velocity P-wave (km/s) = 4.97721 6.47706 5.77602
#
# Compressibility (1/GPa) = 0.03054271
#
# Stress axis : x y z
#
# Youngs Moduli (GPa) = 41.15329 84.87358 59.82911
#
# Poissons Ratio (x) = 0.06851 0.47765
# Poissons Ratio (y) = 0.03322 0.13976
# Poissons Ratio (z) = 0.32855 0.19826
#
# Static dielectric constant tensor:
#      x y z
#    x 3.007480 0.000000 0.150110 
#    y 0.000000 3.813980 0.000000 
#    z 0.150110 0.000000 3.855200 
# 
# 
# High freq. dielectric constant tensor:
#      x y z
#    x 1.685620 0.000000 0.012140 
#    y 0.000000 1.782560 0.000000 
#    z 0.012140 0.000000 1.768470 
# 
# From -- ./inp_files/15489.got.cif
#   From: 2010.03.12/outbox.cif.g09.slc.cpg/sg4_8_cif.got.tgz:15489.got - 2010.03.31 09:31:35.
