data_PCOD8045642
_publ_section_title
;
Structure prediction by ZEFSAII (Michael W. Deem and Ramdas Pophale) SiO2 
 PCOD8045642
Probable space group: P 21
;
_chemical_formula_sum "Si O2"
_cell_formula_units_Z 16
_cell_length_a 9.240752
_cell_length_b 19.324264
_cell_length_c 9.677552
_cell_angle_alpha 90.000000
_cell_angle_beta 149.530341
_cell_angle_gamma 90.000000
_cell_volume 876.302395
_symmetry_space_group_name_H-M "P 21"
_symmetry_group_IT_number 4
_symmetry_cell_setting 'monoclinic'
loop_
_space_group_symop_operation_xyz
x,y,z
-x,1/2+y,-z
loop_
_atom_site_type_symbol
_atom_site_label
_atom_site_fract_x
_atom_site_fract_y
_atom_site_fract_z
Si Si1 0.426122 0.233820 0.397532
Si Si2 0.515362 0.017403 0.527149
Si Si3 0.907220 0.454560 0.032100
Si Si4 0.006222 0.170239 0.234992
Si Si5 0.431025 0.088278 0.736119
Si Si6 0.720282 0.125666 0.486136
Si Si7 0.703565 0.563567 0.072922
Si Si8 0.873390 0.297155 0.977269
O O1 0.612091 0.204722 0.422138
O O2 0.625057 0.268436 0.676134
O O3 0.250439 0.166935 0.315225
O O4 0.181828 0.289507 0.151668
O O5 0.408759 0.032623 0.594630
O O6 0.658298 0.084507 0.576019
O O7 0.755109 0.957360 0.719346
O O8 0.241492 0.991406 0.219185
O O9 0.820777 0.492357 0.103982
O O10 0.809015 0.375384 0.966045
O O11 0.178049 0.146448 0.513781
O O12 0.745613 0.120045 0.989481
O O13 0.892441 0.250337 0.135145
O O14 0.383694 0.048755 0.841262
O O15 0.058743 0.124124 0.739682
O O16 0.574307 0.091034 0.233910
#
# Coordination Sequence:
#
# PCOD8045642 Si02
#       8
#     2   2   2   2   2   2   2   2
#     4  10  18  31  57  83  99 136 172 237 258 304
#     4  10  19  31  55  76 105 136 178 219 258 314
#     4  10  21  35  53  80 105 146 181 218 264 319
#     4  10  19  31  56  82 103 138 176 229 263 310
#     4  12  20  35  54  85 110 137 180 221 274 323
#     4  10  18  35  51  80 106 134 170 220 277 308
#     4  10  23  33  53  80 117 140 167 221 276 320
#     4  10  18  33  53  84 103 137 186 227 254 320
#
# _framework density 18.258535999999999
#
# number of rings (size 3 to 8) (size 9 to 14) (size 15 to 20)
#    0.750    1.000    2.500    3.000    3.500    0.000 
#    0.000    0.000    0.000    9.000    0.000    0.000 
#    0.000    0.000    0.000    0.000    0.000    0.000 
#
# Total GULP energy -198230.632423 kJ/mol
# GULP energy per Si atom -12389.414526 kJ/mol
# Density = 1.821698 g / cm^3
# Si number density = 18.258536 Si / 1000 Ang^3
#
#
#
# Elastic Constant Matrix: (Units=GPa)
#
#
# Indices 1 2 3 4 5 6 
#
# 1 87.3618 38.6956 32.4113 0.0000 -18.9029 0.0000
# 2 38.6956 71.1628 19.1335 0.0000 -4.7997 0.0000
# 3 32.4113 19.1335 100.1608 0.0000 6.2536 0.0000
# 4 0.0000 0.0000 0.0000 23.4895 0.0000 3.5707
# 5 -18.9029 -4.7997 6.2536 0.0000 28.4951 0.0000
# 6 0.0000 0.0000 0.0000 3.5707 0.0000 14.1214
#
#
#
# Elastic Compliance Matrix: (Units=1/GPa)
#
#
# Indices 1 2 3 4 5 6 
#
# 1 0.020235 -0.008567 -0.005738 0.000000 0.013239 0.000000
# 2 -0.008567 0.018726 -0.000656 0.000000 -0.002385 0.000000
# 3 -0.005738 -0.000656 0.012380 0.000000 -0.006634 0.000000
# 4 0.000000 0.000000 0.000000 0.044274 0.000000 -0.011195
# 5 0.013239 -0.002385 -0.006634 0.000000 0.044931 0.000000
# 6 0.000000 0.000000 0.000000 -0.011195 0.000000 0.073645
#
#
# Mechanical properties :
#
#
# Convention : Reuss Voigt Hill
#
# Bulk Modulus (GPa) = 46.68739 48.79624 47.74182
# Shear Modulus (GPa) = 19.90027 24.45087 22.17557
#
# Velocity S-wave (km/s) = 3.30497 3.66341 3.48879
# Velocity P-wave (km/s) = 6.33951 6.68410 6.51409
#
# Compressibility (1/GPa) = 0.02141906
#
# Stress axis : x y z
#
# Youngs Moduli (GPa) = 49.41986 53.40075 80.77421
#
# Poissons Ratio (x) = 0.45749 0.46347
# Poissons Ratio (y) = 0.42339 0.05299
# Poissons Ratio (z) = 0.28356 0.03503
#
# Static dielectric constant tensor:
#      x y z
#    x 3.124440 0.000000 0.159380 
#    y 0.000000 3.138240 0.000000 
#    z 0.159380 0.000000 3.615280 
# 
# 
# High freq. dielectric constant tensor:
#      x y z
#    x 1.672440 0.000000 0.016610 
#    y 0.000000 1.675600 0.000000 
#    z 0.016610 0.000000 1.736420 
# 
# From -- ./inp_files/2109.got.cif
#   From: 2010.03.12/outbox.cif.g09.slc.cpg/sg4_2_cif.got.tgz:2109.got - 2010.03.31 09:31:35.
