data_PCOD8045121
_publ_section_title
;
Structure prediction by ZEFSAII (Michael W. Deem and Ramdas Pophale) SiO2 
 PCOD8045121
Probable space group: P 2
;
_chemical_formula_sum "Si O2"
_cell_formula_units_Z 13
_cell_length_a 14.825520
_cell_length_b 6.602690
_cell_length_c 8.609930
_cell_angle_alpha 90.000000
_cell_angle_beta 56.857176
_cell_angle_gamma 90.000000
_cell_volume 705.694779
_symmetry_space_group_name_H-M "P 2"
_symmetry_group_IT_number 3
_symmetry_cell_setting 'monoclinic'
loop_
_space_group_symop_operation_xyz
x,y,z
-x,y,-z
loop_
_atom_site_type_symbol
_atom_site_label
_atom_site_fract_x
_atom_site_fract_y
_atom_site_fract_z
Si Si1 0.803676 0.528680 0.072404
Si Si2 0.189424 0.790021 0.645352
Si Si3 0.006294 0.524977 0.677561
Si Si4 0.903559 0.195056 0.193358
Si Si5 0.500000 0.112859 0.000000
Si Si6 0.599358 0.490421 0.062422
Si Si7 0.607192 0.735055 0.754618
O O1 0.802494 0.723587 0.183670
O O2 0.835092 0.339238 0.147581
O O3 0.686188 0.485783 0.115861
O O4 0.887945 0.571726 0.855662
O O5 0.086450 0.702195 0.653143
O O6 0.298367 0.729049 0.457664
O O7 0.175984 0.030412 0.660433
O O8 0.048198 0.313560 0.705526
O O9 0.000000 0.509540 0.500000
O O10 0.000000 0.097499 0.000000
O O11 0.428411 0.258162 0.956814
O O12 0.576441 0.967478 0.824332
O O13 0.494038 0.611932 0.221677
O O14 0.645949 0.614258 0.871288
#
# Coordination Sequence:
#
# PCOD8045121 Si02
#       7
#     2   2   2   2   1   2   2
#     4  10  21  36  55  79 109 142 177 217 265 318
#     4  11  21  36  55  79 113 142 171 218 269 316
#     4  10  21  37  57  81 105 138 182 220 261 315
#     4   9  20  36  53  78 110 142 175 215 266 319
#     4   8  18  36  56  78 106 138 180 226 262 302
#     4   9  19  38  58  77 107 141 178 224 264 304
#     4   9  20  35  56  82 104 139 184 217 261 320
#
# _framework density 18.421562000000002
#
# number of rings (size 3 to 8) (size 9 to 14) (size 15 to 20)
#    0.000    2.769    0.000    3.231    0.000    9.846 
#    0.000    3.077    0.000    0.000    0.000    0.000 
#    0.000    0.000    0.000    0.000    0.000    0.000 
#
# Total GULP energy -161180.973521 kJ/mol
# GULP energy per Si atom -12398.536425 kJ/mol
# Density = 1.837963 g / cm^3
# Si number density = 18.421562 Si / 1000 Ang^3
#
#
#
# Elastic Constant Matrix: (Units=GPa)
#
#
# Indices 1 2 3 4 5 6 
#
# 1 108.2706 15.5303 11.6285 0.0000 15.3502 0.0000
# 2 15.5303 93.4098 19.1190 0.0000 0.3774 0.0000
# 3 11.6285 19.1190 64.5611 0.0000 10.0149 0.0000
# 4 0.0000 0.0000 0.0000 19.9383 0.0000 -7.7323
# 5 15.3502 0.3774 10.0149 0.0000 30.6018 0.0000
# 6 0.0000 0.0000 0.0000 -7.7323 0.0000 8.2305
#
#
#
# Elastic Compliance Matrix: (Units=1/GPa)
#
#
# Indices 1 2 3 4 5 6 
#
# 1 0.010221 -0.001553 -0.000620 0.000000 -0.004905 0.000000
# 2 -0.001553 0.011662 -0.003447 0.000000 0.001763 0.000000
# 3 -0.000620 -0.003447 0.017453 0.000000 -0.005358 0.000000
# 4 0.000000 0.000000 0.000000 0.078901 0.000000 0.074125
# 5 -0.004905 0.001763 -0.005358 0.000000 0.036870 0.000000
# 6 0.000000 0.000000 0.000000 0.074125 0.000000 0.191137
#
#
# Mechanical properties :
#
#
# Convention : Reuss Voigt Hill
#
# Bulk Modulus (GPa) = 35.59316 39.86636 37.72976
# Shear Modulus (GPa) = 13.62957 26.41836 20.02397
#
# Velocity S-wave (km/s) = 2.72301 3.79106 3.30052
# Velocity P-wave (km/s) = 5.40831 6.39148 5.92034
#
# Compressibility (1/GPa) = 0.02809528
#
# Stress axis : x y z
#
# Youngs Moduli (GPa) = 97.83963 85.74758 57.29664
#
# Poissons Ratio (x) = 0.13312 0.03554
# Poissons Ratio (y) = 0.15190 0.19753
# Poissons Ratio (z) = 0.06069 0.29561
#
# Static dielectric constant tensor:
#      x y z
#    x 3.307710 0.000000 -0.055120 
#    y 0.000000 3.364370 0.000000 
#    z -0.055120 0.000000 3.328650 
# 
# 
# High freq. dielectric constant tensor:
#      x y z
#    x 1.713440 0.000000 -0.005140 
#    y 0.000000 1.717590 0.000000 
#    z -0.005140 0.000000 1.711720 
# 
# From -- ./inp_files/6731.got.cif
#   From: 2010.03.12/outbox.cif.g09.slc.cpg/sg3_4_cif.got.tgz:6731.got - 2010.03.31 09:20:49.
