data_PCOD8045105
_publ_section_title
;
Structure prediction by ZEFSAII (Michael W. Deem and Ramdas Pophale) SiO2 
 PCOD8045105
Probable space group: P 2
;
_chemical_formula_sum "Si O2"
_cell_formula_units_Z 16
_cell_length_a 8.551195
_cell_length_b 10.771257
_cell_length_c 11.348172
_cell_angle_alpha 90.000000
_cell_angle_beta 126.222277
_cell_angle_gamma 90.000000
_cell_volume 843.233106
_symmetry_space_group_name_H-M "P 2"
_symmetry_group_IT_number 3
_symmetry_cell_setting 'monoclinic'
loop_
_space_group_symop_operation_xyz
x,y,z
-x,y,-z
loop_
_atom_site_type_symbol
_atom_site_label
_atom_site_fract_x
_atom_site_fract_y
_atom_site_fract_z
Si Si1 0.785620 0.406400 0.909607
Si Si2 0.396567 0.976694 0.334100
Si Si3 0.960683 0.993531 0.110973
Si Si4 0.795652 0.382416 0.346649
Si Si5 0.583783 0.862637 0.912963
Si Si6 0.534858 0.266438 0.643511
Si Si7 0.273650 0.221472 0.905370
Si Si8 0.479028 0.579882 0.858300
O O1 0.735786 0.331364 0.769218
O O2 0.656877 0.529021 0.861679
O O3 0.745159 0.308133 0.991801
O O4 0.000000 0.457822 0.000000
O O5 0.500000 0.922565 0.500000
O O6 0.444317 0.120051 0.343611
O O7 0.167471 0.952303 0.256664
O O8 0.469561 0.924051 0.238709
O O9 0.853450 0.096704 0.141336
O O10 0.000000 0.052862 0.000000
O O11 0.817834 0.873358 0.032656
O O12 0.643265 0.309121 0.357211
O O13 0.817088 0.296835 0.242462
O O14 0.720066 0.521649 0.281570
O O15 0.000000 0.398533 0.500000
O O16 0.489777 0.727330 0.859078
O O17 0.500000 0.920612 0.000000
O O18 0.500000 0.318767 0.500000
O O19 0.500000 0.184444 0.000000
O O20 0.500000 0.529131 0.000000
#
# Coordination Sequence:
#
# PCOD8045105 Si02
#       8
#     2   2   2   2   2   2   2   2
#     4  11  20  33  58  85 112 155 199 247 300 358
#     4  10  22  41  59  85 132 162 197 254 314 363
#     4  10  22  36  60  93 119 157 203 251 302 369
#     4  11  24  37  60  88 125 161 201 243 309 368
#     4  10  22  40  66  86 117 158 217 258 302 352
#     4  10  22  37  54  85 125 161 190 245 310 368
#     4  12  20  36  60  86 124 152 198 245 307 361
#     4  10  20  43  60  85 115 158 204 267 294 343
#
# _framework density 18.974585999999999
#
# number of rings (size 3 to 8) (size 9 to 14) (size 15 to 20)
#    0.000    1.500    3.750    3.000    7.000    1.500 
#    0.000    5.625    0.000    0.000    0.000    0.000 
#    0.000    0.000    0.000    0.000    0.000    0.000 
#
# Total GULP energy -198221.978708 kJ/mol
# GULP energy per Si atom -12388.873669 kJ/mol
# Density = 1.893140 g / cm^3
# Si number density = 18.974586 Si / 1000 Ang^3
#
#
#
# Elastic Constant Matrix: (Units=GPa)
#
#
# Indices 1 2 3 4 5 6 
#
# 1 82.2831 24.6735 58.1815 0.0000 5.8917 0.0000
# 2 24.6735 68.4597 40.3278 0.0000 2.0684 0.0000
# 3 58.1815 40.3278 163.5821 0.0000 4.1240 0.0000
# 4 0.0000 0.0000 0.0000 25.9334 0.0000 -2.8937
# 5 5.8917 2.0684 4.1240 0.0000 40.3855 0.0000
# 6 0.0000 0.0000 0.0000 -2.8937 0.0000 19.8640
#
#
#
# Elastic Compliance Matrix: (Units=1/GPa)
#
#
# Indices 1 2 3 4 5 6 
#
# 1 0.016858 -0.002944 -0.005225 0.000000 -0.001775 0.000000
# 2 -0.002944 0.017611 -0.003291 0.000000 -0.000136 0.000000
# 3 -0.005225 -0.003291 0.008782 0.000000 0.000034 0.000000
# 4 0.000000 0.000000 0.000000 0.039197 0.000000 0.005710
# 5 -0.001775 -0.000136 0.000034 0.000000 0.025024 0.000000
# 6 0.000000 0.000000 0.000000 0.005710 0.000000 0.051174
#
#
# Mechanical properties :
#
#
# Convention : Reuss Voigt Hill
#
# Bulk Modulus (GPa) = 49.18806 62.29894 55.74350
# Shear Modulus (GPa) = 26.54722 29.97940 28.26331
#
# Velocity S-wave (km/s) = 3.74450 3.97920 3.86364
# Velocity P-wave (km/s) = 6.68390 7.34957 7.02462
#
# Compressibility (1/GPa) = 0.02033014
#
# Stress axis : x y z
#
# Youngs Moduli (GPa) = 59.31969 56.78270 113.86765
#
# Poissons Ratio (x) = 0.16717 0.59499
# Poissons Ratio (y) = 0.17464 0.37475
# Poissons Ratio (z) = 0.30996 0.18688
#
# Static dielectric constant tensor:
#      x y z
#    x 3.626850 0.000000 0.015320 
#    y 0.000000 3.260280 0.000000 
#    z 0.015320 0.000000 3.679160 
# 
# 
# High freq. dielectric constant tensor:
#      x y z
#    x 1.746860 0.000000 -0.005140 
#    y 0.000000 1.718810 0.000000 
#    z -0.005140 0.000000 1.741820 
# 
# From -- ./inp_files/5762.got.cif
#   From: 2010.03.12/outbox.cif.g09.slc.cpg/sg3_3_cif.got.tgz:5762.got - 2010.03.31 09:20:49.
