data_PCOD8045729
_publ_section_title
;
Structure prediction by ZEFSAII (Michael W. Deem and Ramdas Pophale) SiO2 
 PCOD8045729
Probable space group: P 21
;
_chemical_formula_sum "Si O2"
_cell_formula_units_Z 14
_cell_length_a 8.381848
_cell_length_b 17.954036
_cell_length_c 9.665667
_cell_angle_alpha 90.000000
_cell_angle_beta 148.268767
_cell_angle_gamma 90.000000
_cell_volume 765.008176
_symmetry_space_group_name_H-M "P 21"
_symmetry_group_IT_number 4
_symmetry_cell_setting 'monoclinic'
loop_
_space_group_symop_operation_xyz
x,y,z
-x,1/2+y,-z
loop_
_atom_site_type_symbol
_atom_site_label
_atom_site_fract_x
_atom_site_fract_y
_atom_site_fract_z
Si Si1 0.368454 0.700080 0.594411
Si Si2 0.254830 0.380175 0.537281
Si Si3 0.619793 0.457766 0.036969
Si Si4 0.504098 0.852235 0.585157
Si Si5 0.814579 0.758978 0.303394
Si Si6 0.820560 0.884686 0.095764
Si Si7 0.779190 0.626929 0.109899
O O1 0.490741 0.761753 0.575971
O O2 0.180565 0.747460 0.571929
O O3 0.137910 0.642188 0.349791
O O4 0.628354 0.650900 0.854663
O O5 0.352834 0.378120 0.452318
O O6 0.279507 0.296814 0.621762
O O7 0.909907 0.408700 0.295424
O O8 0.484838 0.433454 0.789564
O O9 0.355374 0.452326 0.958146
O O10 0.720327 0.542574 0.103161
O O11 0.730767 0.880156 0.870161
O O12 0.183120 0.893572 0.370398
O O13 0.662446 0.678428 0.154604
O O14 0.720357 0.810844 0.104134
#
# Coordination Sequence:
#
# PCOD8045729 Si02
#       7
#     2   2   2   2   2   2   2
#     4   9  17  32  57  80 102 145 185 228 268 340
#     4  11  23  34  59  86 117 138 193 238 275 321
#     4  11  22  37  56  87 109 153 185 238 274 330
#     4  11  19  36  57  85 108 146 181 232 278 329
#     4   8  19  33  58  81 102 139 192 236 258 321
#     4  10  19  35  59  79 108 146 192 219 272 336
#     4  10  19  33  60  78 110 141 196 227 277 323
#
# _framework density 18.300457000000002
#
# number of rings (size 3 to 8) (size 9 to 14) (size 15 to 20)
#    0.857    1.143    1.429    4.286    2.000    0.000 
#    0.000    0.000    9.429    0.000    0.000    0.000 
#    0.000    0.000    0.000    0.000    0.000    0.000 
#
# Total GULP energy -173448.285941 kJ/mol
# GULP energy per Si atom -12389.163282 kJ/mol
# Density = 1.825880 g / cm^3
# Si number density = 18.300457 Si / 1000 Ang^3
#
#
#
# Elastic Constant Matrix: (Units=GPa)
#
#
# Indices 1 2 3 4 5 6 
#
# 1 67.7008 20.0487 18.5856 0.0000 -13.5632 0.0000
# 2 20.0487 73.0191 22.6857 0.0000 -3.7784 0.0000
# 3 18.5856 22.6857 119.7921 0.0000 -3.1298 0.0000
# 4 0.0000 0.0000 0.0000 20.2706 0.0000 -0.7068
# 5 -13.5632 -3.7784 -3.1298 0.0000 29.8925 0.0000
# 6 0.0000 0.0000 0.0000 -0.7068 0.0000 16.1043
#
#
#
# Elastic Compliance Matrix: (Units=1/GPa)
#
#
# Indices 1 2 3 4 5 6 
#
# 1 0.017943 -0.003970 -0.001837 0.000000 0.007447 0.000000
# 2 -0.003970 0.015502 -0.002322 0.000000 -0.000085 0.000000
# 3 -0.001837 -0.002322 0.009068 0.000000 -0.000178 0.000000
# 4 0.000000 0.000000 0.000000 0.049408 0.000000 0.002168
# 5 0.007447 -0.000085 -0.000178 0.000000 0.036803 0.000000
# 6 0.000000 0.000000 0.000000 0.002168 0.000000 0.062190
#
#
# Mechanical properties :
#
#
# Convention : Reuss Voigt Hill
#
# Bulk Modulus (GPa) = 38.08990 42.57245 40.33117
# Shear Modulus (GPa) = 23.15618 26.53295 24.84456
#
# Velocity S-wave (km/s) = 3.56101 3.81182 3.68855
# Velocity P-wave (km/s) = 6.14545 6.53352 6.34245
#
# Compressibility (1/GPa) = 0.02625368
#
# Stress axis : x y z
#
# Youngs Moduli (GPa) = 55.73206 64.50705 110.27866
#
# Poissons Ratio (x) = 0.25612 0.20262
# Poissons Ratio (y) = 0.22128 0.25606
# Poissons Ratio (z) = 0.10240 0.14978
#
# Static dielectric constant tensor:
#      x y z
#    x 3.044090 0.000000 0.074910 
#    y 0.000000 3.268320 0.000000 
#    z 0.074910 0.000000 3.519770 
# 
# 
# High freq. dielectric constant tensor:
#      x y z
#    x 1.670230 0.000000 0.004130 
#    y 0.000000 1.691620 0.000000 
#    z 0.004130 0.000000 1.733140 
# 
# From -- ./inp_files/2041.got.cif
#   From: 2010.03.12/outbox.cif.g09.slc.cpg/sg4_2_cif.got.tgz:2041.got - 2010.03.31 09:31:35.
