data_PCOD8045127
_publ_section_title
;
Structure prediction by ZEFSAII (Michael W. Deem and Ramdas Pophale) SiO2 
 PCOD8045127
Probable space group: P 2
;
_chemical_formula_sum "Si O2"
_cell_formula_units_Z 14
_cell_length_a 5.790839
_cell_length_b 9.709949
_cell_length_c 11.190951
_cell_angle_alpha 90.000000
_cell_angle_beta 98.265030
_cell_angle_gamma 90.000000
_cell_volume 622.717596
_symmetry_space_group_name_H-M "P 2"
_symmetry_group_IT_number 3
_symmetry_cell_setting 'monoclinic'
loop_
_space_group_symop_operation_xyz
x,y,z
-x,y,-z
loop_
_atom_site_type_symbol
_atom_site_label
_atom_site_fract_x
_atom_site_fract_y
_atom_site_fract_z
Si Si1 0.000000 0.934260 0.500000
Si Si2 0.680281 0.541731 0.272532
Si Si3 0.000000 0.455355 0.500000
Si Si4 0.633821 0.042655 0.625116
Si Si5 0.100726 0.334813 0.880974
Si Si6 0.320259 0.852250 0.725536
Si Si7 0.234222 0.032583 0.934607
Si Si8 0.306127 0.339637 0.334919
O O1 0.818685 0.841403 0.411355
O O2 0.900714 0.030568 0.600803
O O3 0.735733 0.456415 0.156675
O O4 0.619845 0.697015 0.230018
O O5 0.456811 0.472974 0.316588
O O6 0.895859 0.544227 0.382579
O O7 0.203545 0.360054 0.460472
O O8 0.500000 0.989751 0.500000
O O9 0.551721 0.196412 0.654465
O O10 0.563171 0.937027 0.725335
O O11 0.245787 0.193174 0.898897
O O12 0.890146 0.311706 0.776160
O O13 0.000000 0.383252 0.000000
O O14 0.180487 0.931053 0.819795
O O15 0.500000 0.996106 0.000000
O O16 0.000000 0.013223 0.000000
#
# Coordination Sequence:
#
# PCOD8045127 Si02
#       8
#     1   2   1   2   2   2   2   2
#     4  10  22  40  68  94 140 178 232 292 346 426
#     4  11  24  41  65  97 137 180 226 280 349 424
#     4  10  22  40  62  98 132 180 222 284 344 412
#     4  10  21  36  63  99 128 173 222 283 344 411
#     4  10  25  43  69  96 125 177 230 287 345 405
#     4  11  25  42  65 101 138 184 230 284 357 424
#     4  11  27  49  76 107 139 186 238 299 353 415
#     4  11  22  40  66  96 133 173 227 289 340 415
#
# _framework density 22.482102999999999
#
# number of rings (size 3 to 8) (size 9 to 14) (size 15 to 20)
#    0.000    1.429    0.000    3.857   10.000   10.857 
#    2.571    0.000    0.000    0.000    0.000    0.000 
#    0.000    0.000    0.000    0.000    0.000    0.000 
#
# Total GULP energy -173463.067065 kJ/mol
# GULP energy per Si atom -12390.219076 kJ/mol
# Density = 2.243093 g / cm^3
# Si number density = 22.482103 Si / 1000 Ang^3
#
#
#
# Elastic Constant Matrix: (Units=GPa)
#
#
# Indices 1 2 3 4 5 6 
#
# 1 112.5543 55.5522 34.3744 0.0000 -28.7047 0.0000
# 2 55.5522 187.7925 46.1354 0.0000 -42.3113 0.0000
# 3 34.3744 46.1354 99.9126 0.0000 -27.8744 0.0000
# 4 0.0000 0.0000 0.0000 22.1842 0.0000 -1.1272
# 5 -28.7047 -42.3113 -27.8744 0.0000 43.6141 0.0000
# 6 0.0000 0.0000 0.0000 -1.1272 0.0000 13.7127
#
#
#
# Elastic Compliance Matrix: (Units=1/GPa)
#
#
# Indices 1 2 3 4 5 6 
#
# 1 0.011562 -0.001948 -0.001804 0.000000 0.004566 0.000000
# 2 -0.001948 0.007355 -0.001330 0.000000 0.005003 0.000000
# 3 -0.001804 -0.001330 0.012842 0.000000 0.005730 0.000000
# 4 0.000000 0.000000 0.000000 0.045266 0.000000 0.003721
# 5 0.004566 0.005003 0.005730 0.000000 0.034450 0.000000
# 6 0.000000 0.000000 0.000000 0.003721 0.000000 0.073231
#
#
# Mechanical properties :
#
#
# Convention : Reuss Voigt Hill
#
# Bulk Modulus (GPa) = 46.30895 74.70929 60.50912
# Shear Modulus (GPa) = 24.74397 33.51535 29.12966
#
# Velocity S-wave (km/s) = 3.32114 3.86522 3.60346
# Velocity P-wave (km/s) = 5.94554 7.29538 6.65478
#
# Compressibility (1/GPa) = 0.02159410
#
# Stress axis : x y z
#
# Youngs Moduli (GPa) = 86.49286 135.95418 77.86783
#
# Poissons Ratio (x) = 0.26484 0.14049
# Poissons Ratio (y) = 0.16849 0.10359
# Poissons Ratio (z) = 0.15605 0.18086
#
# Static dielectric constant tensor:
#      x y z
#    x 4.647780 0.000000 -0.218580 
#    y 0.000000 3.779530 0.000000 
#    z -0.218580 0.000000 4.272500 
# 
# 
# High freq. dielectric constant tensor:
#      x y z
#    x 1.888550 0.000000 -0.010560 
#    y 0.000000 1.871470 0.000000 
#    z -0.010560 0.000000 1.887570 
# 
# From -- ./inp_files/9890.got.cif
#   From: 2010.03.12/outbox.cif.g09.slc.cpg/sg3_5_cif.got.tgz:9890.got - 2010.03.31 09:20:49.
