data_PCOD8045762
_publ_section_title
;
Structure prediction by ZEFSAII (Michael W. Deem and Ramdas Pophale) SiO2 
 PCOD8045762
Probable space group: P 21
;
_chemical_formula_sum "Si O2"
_cell_formula_units_Z 16
_cell_length_a 21.663861
_cell_length_b 5.017661
_cell_length_c 16.830564
_cell_angle_alpha 90.000000
_cell_angle_beta 153.233622
_cell_angle_gamma 90.000000
_cell_volume 823.928571
_symmetry_space_group_name_H-M "P 21"
_symmetry_group_IT_number 4
_symmetry_cell_setting 'monoclinic'
loop_
_space_group_symop_operation_xyz
x,y,z
-x,1/2+y,-z
loop_
_atom_site_type_symbol
_atom_site_label
_atom_site_fract_x
_atom_site_fract_y
_atom_site_fract_z
Si Si1 0.552563 0.772440 0.462348
Si Si2 0.487118 0.101063 0.038658
Si Si3 0.668605 0.276058 0.679142
Si Si4 0.917277 0.135734 0.496886
Si Si5 0.728417 0.597219 0.531159
Si Si6 0.182103 0.134968 0.713119
Si Si7 0.920690 0.451185 0.897278
Si Si8 0.740119 0.090712 0.439229
O O1 0.631757 0.575793 0.611749
O O2 0.390687 0.737527 0.299278
O O3 0.586124 0.692754 0.410192
O O4 0.606217 0.069113 0.543413
O O5 0.342948 0.129351 0.921026
O O6 0.529350 0.382814 0.049354
O O7 0.606896 0.007254 0.235372
O O8 0.832793 0.281292 0.862080
O O9 0.852345 0.383814 0.379057
O O10 0.874517 0.146289 0.539949
O O11 0.083629 0.136517 0.678208
O O12 0.847371 0.883911 0.376309
O O13 0.840817 0.506634 0.724094
O O14 0.697044 0.352315 0.437950
O O15 0.784338 0.848833 0.546731
O O16 0.959434 0.735781 0.980732
#
# Coordination Sequence:
#
# PCOD8045762 Si02
#       8
#     2   2   2   2   2   2   2   2
#     4   9  17  33  54  81 108 137 179 230 273 326
#     4  12  21  36  59  89 113 148 199 244 274 324
#     4   9  17  31  57  84 103 134 184 232 271 313
#     4  10  20  34  59  83 112 153 190 234 282 332
#     4  11  23  37  57  86 115 148 185 228 291 352
#     4  10  19  36  56  86 111 143 202 242 270 326
#     4  11  21  37  60  85 110 146 191 234 275 335
#     4  12  22  36  58  86 120 153 186 234 294 342
#
# _framework density 19.419160999999999
#
# number of rings (size 3 to 8) (size 9 to 14) (size 15 to 20)
#    0.000    1.500    2.500    5.250    0.000    0.000 
#    0.000    0.000    8.250    0.000    0.000    0.000 
#    0.000    0.000    0.000    0.000    0.000    0.000 
#
# Total GULP energy -198281.135900 kJ/mol
# GULP energy per Si atom -12392.570994 kJ/mol
# Density = 1.937496 g / cm^3
# Si number density = 19.419161 Si / 1000 Ang^3
#
#
#
# Elastic Constant Matrix: (Units=GPa)
#
#
# Indices 1 2 3 4 5 6 
#
# 1 140.1134 34.0395 53.5946 0.0000 9.6462 0.0000
# 2 34.0395 117.3271 17.0103 0.0000 -1.2289 0.0000
# 3 53.5946 17.0103 53.2897 0.0000 14.0915 0.0000
# 4 0.0000 0.0000 0.0000 19.6455 0.0000 3.8049
# 5 9.6462 -1.2289 14.0915 0.0000 24.9979 0.0000
# 6 0.0000 0.0000 0.0000 3.8049 0.0000 29.6102
#
#
#
# Elastic Compliance Matrix: (Units=1/GPa)
#
#
# Indices 1 2 3 4 5 6 
#
# 1 0.012046 -0.001715 -0.012124 0.000000 0.002101 0.000000
# 2 -0.001715 0.009306 -0.001811 0.000000 0.002140 0.000000
# 3 -0.012124 -0.001811 0.035635 0.000000 -0.015498 0.000000
# 4 0.000000 0.000000 0.000000 0.052201 0.000000 -0.006708
# 5 0.002101 0.002140 -0.015498 0.000000 0.048034 0.000000
# 6 0.000000 0.000000 0.000000 -0.006708 0.000000 0.034634
#
#
# Mechanical properties :
#
#
# Convention : Reuss Voigt Hill
#
# Bulk Modulus (GPa) = 38.93072 57.77989 48.35531
# Shear Modulus (GPa) = 21.57781 28.58977 25.08379
#
# Velocity S-wave (km/s) = 3.33702 3.84115 3.59793
# Velocity P-wave (km/s) = 5.91090 7.03500 6.49731
#
# Compressibility (1/GPa) = 0.02568666
#
# Stress axis : x y z
#
# Youngs Moduli (GPa) = 83.01185 107.45911 28.06251
#
# Poissons Ratio (x) = 0.18432 0.34022
# Poissons Ratio (y) = 0.14239 0.05083
# Poissons Ratio (z) = 1.00640 0.19465
#
# Static dielectric constant tensor:
#      x y z
#    x 4.269230 0.000000 0.539640 
#    y 0.000000 3.746070 0.000000 
#    z 0.539640 0.000000 3.247370 
# 
# 
# High freq. dielectric constant tensor:
#      x y z
#    x 1.765640 0.000000 0.030410 
#    y 0.000000 1.786980 0.000000 
#    z 0.030410 0.000000 1.704230 
# 
# From -- ./inp_files/14397.got.cif
#   From: 2010.03.12/outbox.cif.g09.slc.cpg/sg4_8_cif.got.tgz:14397.got - 2010.03.31 09:31:35.
