data_PCOD8045661
_publ_section_title
;
Structure prediction by ZEFSAII (Michael W. Deem and Ramdas Pophale) SiO2 
 PCOD8045661
Probable space group: P 21
;
_chemical_formula_sum "Si O2"
_cell_formula_units_Z 16
_cell_length_a 15.998916
_cell_length_b 6.508226
_cell_length_c 25.095300
_cell_angle_alpha 90.000000
_cell_angle_beta 161.999627
_cell_angle_gamma 90.000000
_cell_volume 807.489049
_symmetry_space_group_name_H-M "P 21"
_symmetry_group_IT_number 4
_symmetry_cell_setting 'monoclinic'
loop_
_space_group_symop_operation_xyz
x,y,z
-x,1/2+y,-z
loop_
_atom_site_type_symbol
_atom_site_label
_atom_site_fract_x
_atom_site_fract_y
_atom_site_fract_z
Si Si1 0.776186 0.995610 0.282807
Si Si2 0.244670 0.212758 0.174018
Si Si3 0.384603 0.998698 0.664843
Si Si4 0.619336 0.807235 0.908330
Si Si5 0.546950 0.809611 0.380475
Si Si6 0.524912 0.111070 0.940594
Si Si7 0.935104 0.083191 0.882339
Si Si8 0.153508 0.791722 0.771154
O O1 0.625771 0.778017 0.187344
O O2 0.625680 0.148005 0.232225
O O3 0.796447 0.099169 0.237172
O O4 0.070697 0.952305 0.485683
O O5 0.502398 0.340015 0.309857
O O6 0.077660 0.335032 0.119153
O O7 0.366717 0.011536 0.273411
O O8 0.034935 0.170804 0.999655
O O9 0.418237 0.226932 0.659677
O O10 0.549059 0.969218 0.819164
O O11 0.673601 0.941502 0.993928
O O12 0.879980 0.665807 0.053476
O O13 0.375408 0.654670 0.313600
O O14 0.837548 0.846675 0.583099
O O15 0.307805 0.997039 0.846439
O O16 0.749799 0.225706 0.111784
#
# Coordination Sequence:
#
# PCOD8045661 Si02
#       8
#     2   2   2   2   2   2   2   2
#     4  10  21  38  57  87 121 158 193 243 303 350
#     4  10  18  34  58  84 120 160 191 238 292 349
#     4   9  21  36  53  90 125 149 194 241 288 365
#     4  10  24  36  56  91 124 160 192 235 307 363
#     4  10  20  36  63  88 115 156 203 246 286 342
#     4  11  21  39  64  84 117 159 194 251 303 347
#     4  10  20  36  55  87 123 158 196 235 290 359
#     4  10  21  39  64  89 111 150 213 253 287 355
#
# _framework density 19.814512000000001
#
# number of rings (size 3 to 8) (size 9 to 14) (size 15 to 20)
#    0.000    2.000    2.500    0.750    1.750    3.000 
#    2.250    0.000    2.750    0.000    0.000    0.000 
#    0.000    0.000    0.000    0.000    0.000    0.000 
#
# Total GULP energy -198368.323961 kJ/mol
# GULP energy per Si atom -12398.020248 kJ/mol
# Density = 1.976941 g / cm^3
# Si number density = 19.814512 Si / 1000 Ang^3
#
#
#
# Elastic Constant Matrix: (Units=GPa)
#
#
# Indices 1 2 3 4 5 6 
#
# 1 65.9900 27.3069 35.2801 0.0000 8.5437 0.0000
# 2 27.3069 101.2847 31.3977 0.0000 -0.1212 0.0000
# 3 35.2801 31.3977 101.4085 0.0000 11.1877 0.0000
# 4 0.0000 0.0000 0.0000 32.6179 0.0000 7.6663
# 5 8.5437 -0.1212 11.1877 0.0000 21.4174 0.0000
# 6 0.0000 0.0000 0.0000 7.6663 0.0000 28.1914
#
#
#
# Elastic Compliance Matrix: (Units=1/GPa)
#
#
# Indices 1 2 3 4 5 6 
#
# 1 0.020248 -0.003832 -0.005268 0.000000 -0.005347 0.000000
# 2 -0.003832 0.011723 -0.002624 0.000000 0.002966 0.000000
# 3 -0.005268 -0.002624 0.013027 0.000000 -0.004718 0.000000
# 4 0.000000 0.000000 0.000000 0.032751 0.000000 -0.008906
# 5 -0.005347 0.002966 -0.004718 0.000000 0.051305 0.000000
# 6 0.000000 0.000000 0.000000 -0.008906 0.000000 0.037894
#
#
# Mechanical properties :
#
#
# Convention : Reuss Voigt Hill
#
# Bulk Modulus (GPa) = 46.40287 50.73918 48.57103
# Shear Modulus (GPa) = 25.30620 28.09192 26.69906
#
# Velocity S-wave (km/s) = 3.57761 3.76938 3.67475
# Velocity P-wave (km/s) = 6.36672 6.67885 6.52465
#
# Compressibility (1/GPa) = 0.02155039
#
# Stress axis : x y z
#
# Youngs Moduli (GPa) = 49.38671 85.30060 76.76584
#
# Poissons Ratio (x) = 0.32691 0.40440
# Poissons Ratio (y) = 0.18927 0.20140
# Poissons Ratio (z) = 0.26016 0.22379
#
# Static dielectric constant tensor:
#      x y z
#    x 3.356500 0.000000 0.228450 
#    y 0.000000 3.786120 0.000000 
#    z 0.228450 0.000000 3.627490 
# 
# 
# High freq. dielectric constant tensor:
#      x y z
#    x 1.740890 0.000000 0.022310 
#    y 0.000000 1.784970 0.000000 
#    z 0.022310 0.000000 1.767210 
# 
# From -- ./inp_files/11700.got.cif
#   From: 2010.03.12/outbox.cif.g09.slc.cpg/sg4_6_cif.got.tgz:11700.got - 2010.03.31 09:31:35.
