data_PCOD8045347
_publ_section_title
;
Structure prediction by ZEFSAII (Michael W. Deem and Ramdas Pophale) SiO2 
 PCOD8045347
Probable space group: P 2
;
_chemical_formula_sum "Si O2"
_cell_formula_units_Z 12
_cell_length_a 13.922161
_cell_length_b 6.577095
_cell_length_c 8.352336
_cell_angle_alpha 90.000000
_cell_angle_beta 44.468198
_cell_angle_gamma 90.000000
_cell_volume 535.753588
_symmetry_space_group_name_H-M "P 2"
_symmetry_group_IT_number 3
_symmetry_cell_setting 'monoclinic'
loop_
_space_group_symop_operation_xyz
x,y,z
-x,y,-z
loop_
_atom_site_type_symbol
_atom_site_label
_atom_site_fract_x
_atom_site_fract_y
_atom_site_fract_z
Si Si1 0.720051 0.222960 0.713141
Si Si2 0.500000 0.885014 0.000000
Si Si3 0.890890 0.549450 0.915083
Si Si4 0.220051 0.222960 0.713141
Si Si5 0.500000 0.306033 0.500000
Si Si6 0.000000 0.885014 0.000000
Si Si7 0.000000 0.306033 0.500000
Si Si8 0.390890 0.549450 0.915083
O O1 0.750000 0.304905 0.500000
O O2 0.862059 0.172736 0.640102
O O3 0.633240 0.018027 0.803469
O O4 0.636081 0.396963 0.905200
O O5 0.468897 0.749449 0.881815
O O6 0.989617 0.443538 0.670082
O O7 0.863919 0.396963 0.094800
O O8 0.750000 0.617103 0.000000
O O9 0.968897 0.749449 0.881815
O O10 0.362059 0.172736 0.640102
O O11 0.133240 0.018027 0.803469
O O12 0.489617 0.443538 0.670082
#
# Coordination Sequence:
#
# PCOD8045347 Si02
#       8
#     2   1   2   2   1   1   1   2
#     4  11  24  42  67  95 129 167 211 263 316 374
#     4  12  24  40  66 100 128 162 214 264 316 374
#     4  10  24  44  65  93 130 170 211 259 316 377
#     4  11  24  42  67  95 129 167 211 263 316 374
#     4  10  22  46  68  88 130 174 208 258 318 376
#     4  12  24  40  66 100 128 162 214 264 316 374
#     4  10  22  46  68  88 130 174 208 258 318 376
#     4  10  24  44  65  93 130 170 211 259 316 377
#
# _framework density 22.398354999999999
#
# number of rings (size 3 to 8) (size 9 to 14) (size 15 to 20)
#    0.000    1.333    0.000    5.000    0.000   13.333 
#    0.000    3.333    0.000    0.000    0.000    0.000 
#    0.000    0.000    0.000    0.000    0.000    0.000 
#
# Total GULP energy -148845.167856 kJ/mol
# GULP energy per Si atom -12403.763988 kJ/mol
# Density = 2.234738 g / cm^3
# Si number density = 22.398355 Si / 1000 Ang^3
#
#
#
# Elastic Constant Matrix: (Units=GPa)
#
#
# Indices 1 2 3 4 5 6 
#
# 1 153.1181 90.5779 63.2486 0.0000 -12.3872 0.0000
# 2 90.5779 127.2924 64.9345 0.0000 -5.8603 0.0000
# 3 63.2486 64.9345 151.5928 0.0000 18.9752 0.0000
# 4 0.0000 0.0000 0.0000 13.4214 0.0000 -3.9382
# 5 -12.3872 -5.8603 18.9752 0.0000 59.4400 0.0000
# 6 0.0000 0.0000 0.0000 -3.9382 0.0000 46.8534
#
#
#
# Elastic Compliance Matrix: (Units=1/GPa)
#
#
# Indices 1 2 3 4 5 6 
#
# 1 0.011924 -0.007264 -0.002172 0.000000 0.002462 0.000000
# 2 -0.007264 0.014836 -0.003456 0.000000 0.001052 0.000000
# 3 -0.002172 -0.003456 0.009461 0.000000 -0.003813 0.000000
# 4 0.000000 0.000000 0.000000 0.076392 0.000000 0.006421
# 5 0.002462 0.001052 -0.003813 0.000000 0.018658 0.000000
# 6 0.000000 0.000000 0.000000 0.006421 0.000000 0.021883
#
#
# Mechanical properties :
#
#
# Convention : Reuss Voigt Hill
#
# Bulk Modulus (GPa) = 95.80915 96.61393 96.21154
# Shear Modulus (GPa) = 27.40995 38.15911 32.78453
#
# Velocity S-wave (km/s) = 3.50201 4.13202 3.82999
# Velocity P-wave (km/s) = 7.69545 8.12359 7.91242
#
# Compressibility (1/GPa) = 0.01043742
#
# Stress axis : x y z
#
# Youngs Moduli (GPa) = 83.86423 67.40374 105.70201
#
# Poissons Ratio (x) = 0.48959 0.22957
# Poissons Ratio (y) = 0.60915 0.36532
# Poissons Ratio (z) = 0.18214 0.23296
#
# Static dielectric constant tensor:
#      x y z
#    x 4.445350 0.000000 -0.096540 
#    y 0.000000 3.670640 0.000000 
#    z -0.096540 0.000000 4.137950 
# 
# 
# High freq. dielectric constant tensor:
#      x y z
#    x 1.918140 0.000000 -0.006480 
#    y 0.000000 1.851180 0.000000 
#    z -0.006480 0.000000 1.892570 
# 
# From -- ./inp_files/2746.got.cif
#   From: 2010.03.12/outbox.cif.g09.slc.cpg/sg3_2_cif.got.tgz:2746.got - 2010.03.31 09:20:49.
