data_PCOD8045902
_publ_section_title
;
Structure prediction by ZEFSAII (Michael W. Deem and Ramdas Pophale) SiO2 
 PCOD8045902
Probable space group: P 21
;
_chemical_formula_sum "Si O2"
_cell_formula_units_Z 16
_cell_length_a 9.455489
_cell_length_b 8.421505
_cell_length_c 12.814468
_cell_angle_alpha 90.000000
_cell_angle_beta 133.613470
_cell_angle_gamma 90.000000
_cell_volume 738.786038
_symmetry_space_group_name_H-M "P 21"
_symmetry_group_IT_number 4
_symmetry_cell_setting 'monoclinic'
loop_
_space_group_symop_operation_xyz
x,y,z
-x,1/2+y,-z
loop_
_atom_site_type_symbol
_atom_site_label
_atom_site_fract_x
_atom_site_fract_y
_atom_site_fract_z
Si Si1 0.523548 0.920170 0.798406
Si Si2 0.567827 0.343251 0.645448
Si Si3 0.142802 0.647125 0.065103
Si Si4 0.519271 0.054137 0.211944
Si Si5 0.125277 0.969027 0.691956
Si Si6 0.051221 0.621008 0.585181
Si Si7 0.328019 0.041572 0.496836
Si Si8 0.132695 0.943868 0.935286
O O1 0.558664 0.733623 0.825349
O O2 0.359442 0.985465 0.795412
O O3 0.725682 0.011906 0.923520
O O4 0.462691 0.954981 0.649336
O O5 0.736522 0.249420 0.790725
O O6 0.467211 0.473680 0.667892
O O7 0.403575 0.222095 0.519160
O O8 0.668044 0.439991 0.604892
O O9 0.960878 0.569071 0.032007
O O10 0.067051 0.765471 0.935004
O O11 0.738470 0.046452 0.278394
O O12 0.368734 0.956433 0.062739
O O13 0.054024 0.807213 0.604139
O O14 0.066636 0.978947 0.783561
O O15 0.009624 0.103351 0.568001
O O16 0.895566 0.538227 0.580766
#
# Coordination Sequence:
#
# PCOD8045902 Si02
#       8
#     2   2   2   2   2   2   2   2
#     4   9  20  38  59  87 122 157 204 260 309 370
#     4  10  21  36  59  90 124 166 208 259 315 367
#     4  10  23  41  60  89 125 162 211 263 308 373
#     4  10  21  40  61  87 122 160 204 257 311 371
#     4  10  23  41  64  91 123 163 204 254 312 370
#     4  10  22  40  62  92 124 158 207 260 307 367
#     4  10  20  36  59  91 125 163 208 258 314 370
#     4  11  24  42  64  91 125 167 208 255 314 374
#
# _framework density 21.657147999999999
#
# number of rings (size 3 to 8) (size 9 to 14) (size 15 to 20)
#    0.000    2.000    0.000    2.250    0.000   13.000 
#    0.000    3.750    0.000    0.000    0.000    0.000 
#    0.000    0.000    0.000    0.000    0.000    0.000 
#
# Total GULP energy -198410.498438 kJ/mol
# GULP energy per Si atom -12400.656152 kJ/mol
# Density = 2.160786 g / cm^3
# Si number density = 21.657148 Si / 1000 Ang^3
#
#
#
# Elastic Constant Matrix: (Units=GPa)
#
#
# Indices 1 2 3 4 5 6 
#
# 1 96.7789 44.6174 48.6771 0.0000 -3.1133 0.0000
# 2 44.6174 86.6634 32.5298 0.0000 -4.4739 0.0000
# 3 48.6771 32.5298 67.7475 0.0000 -4.7234 0.0000
# 4 0.0000 0.0000 0.0000 34.1256 0.0000 0.5362
# 5 -3.1133 -4.4739 -4.7234 0.0000 33.0244 0.0000
# 6 0.0000 0.0000 0.0000 0.5362 0.0000 31.8360
#
#
#
# Elastic Compliance Matrix: (Units=1/GPa)
#
#
# Indices 1 2 3 4 5 6 
#
# 1 0.018043 -0.005412 -0.010402 0.000000 -0.000520 0.000000
# 2 -0.005412 0.015728 -0.003587 0.000000 0.001108 0.000000
# 3 -0.010402 -0.003587 0.024095 0.000000 0.001980 0.000000
# 4 0.000000 0.000000 0.000000 0.029311 0.000000 -0.000494
# 5 -0.000520 0.001108 0.001980 0.000000 0.030665 0.000000
# 6 0.000000 0.000000 0.000000 -0.000494 0.000000 0.031419
#
#
# Mechanical properties :
#
#
# Convention : Reuss Voigt Hill
#
# Bulk Modulus (GPa) = 52.44972 55.87092 54.16032
# Shear Modulus (GPa) = 25.71802 28.15491 26.93647
#
# Velocity S-wave (km/s) = 3.44976 3.60950 3.53054
# Velocity P-wave (km/s) = 6.33550 6.57459 6.45615
#
# Compressibility (1/GPa) = 0.01906588
#
# Stress axis : x y z
#
# Youngs Moduli (GPa) = 55.42407 63.57908 41.50309
#
# Poissons Ratio (x) = 0.34406 0.43170
# Poissons Ratio (y) = 0.29993 0.14886
# Poissons Ratio (z) = 0.57650 0.22804
#
# Static dielectric constant tensor:
#      x y z
#    x 3.979340 0.000000 0.113320 
#    y 0.000000 4.103480 0.000000 
#    z 0.113320 0.000000 3.648140 
# 
# 
# High freq. dielectric constant tensor:
#      x y z
#    x 1.854090 0.000000 0.010970 
#    y 0.000000 1.858970 0.000000 
#    z 0.010970 0.000000 1.832490 
# 
# From -- ./inp_files/7661.got.cif
#   From: 2010.03.12/outbox.cif.g09.slc.cpg/sg4_4_cif.got.tgz:7661.got - 2010.03.31 09:31:35.
