data_PCOD8045107
_publ_section_title
;
Structure prediction by ZEFSAII (Michael W. Deem and Ramdas Pophale) SiO2 
 PCOD8045107
Probable space group: P 2
;
_chemical_formula_sum "Si O2"
_cell_formula_units_Z 13
_cell_length_a 19.351965
_cell_length_b 6.323374
_cell_length_c 14.479503
_cell_angle_alpha 90.000000
_cell_angle_beta 19.461487
_cell_angle_gamma 90.000000
_cell_volume 590.333736
_symmetry_space_group_name_H-M "P 2"
_symmetry_group_IT_number 3
_symmetry_cell_setting 'monoclinic'
loop_
_space_group_symop_operation_xyz
x,y,z
-x,y,-z
loop_
_atom_site_type_symbol
_atom_site_label
_atom_site_fract_x
_atom_site_fract_y
_atom_site_fract_z
Si Si1 0.742499 0.485700 0.420428
Si Si2 0.969383 0.229121 0.643522
Si Si3 0.085717 0.159177 0.027857
Si Si4 0.041135 0.840540 0.241685
Si Si5 0.321869 0.457343 0.859547
Si Si6 0.000000 0.835847 0.000000
Si Si7 0.302325 0.502006 0.313132
O O1 0.569398 0.458095 0.559124
O O2 0.638977 0.491688 0.652320
O O3 0.901319 0.293079 0.213919
O O4 0.867493 0.700221 0.240007
O O5 0.175746 0.294465 0.441227
O O6 0.000000 0.294341 0.500000
O O7 0.915914 0.978655 0.719842
O O8 0.773832 0.359358 0.927345
O O9 0.993791 0.024392 0.227858
O O10 0.262955 0.319920 0.842433
O O11 0.157592 0.988463 0.859971
O O12 0.841232 0.705412 0.517528
O O13 0.233286 0.696841 0.964052
O O14 0.500000 0.532999 0.000000
#
# Coordination Sequence:
#
# PCOD8045107 Si02
#       7
#     2   2   2   2   2   1   2
#     4  12  24  47  72 105 138 183 233 285 352 403
#     4  10  21  39  63  99 143 187 226 277 342 407
#     4  11  22  48  68  98 142 179 228 290 346 407
#     4  10  20  43  65  95 146 179 224 286 336 414
#     4  10  23  43  71  95 141 178 225 293 340 410
#     4  12  26  44  78  98 136 188 232 290 348 412
#     4  11  22  40  68 102 144 181 225 286 339 415
#
# _framework density 22.021442
#
# number of rings (size 3 to 8) (size 9 to 14) (size 15 to 20)
#    0.000    1.231    6.154    1.385    0.000    6.769 
#    2.769   11.538    0.000    0.000    0.000    0.000 
#    0.000    0.000    0.000    0.000    0.000    0.000 
#
# Total GULP energy -161098.731776 kJ/mol
# GULP energy per Si atom -12392.210137 kJ/mol
# Density = 2.197132 g / cm^3
# Si number density = 22.021442 Si / 1000 Ang^3
#
#
#
# Elastic Constant Matrix: (Units=GPa)
#
#
# Indices 1 2 3 4 5 6 
#
# 1 103.0251 62.1538 53.0816 0.0000 -7.8144 0.0000
# 2 62.1538 130.7561 25.8595 0.0000 -13.4490 0.0000
# 3 53.0816 25.8595 56.1791 0.0000 -14.9021 0.0000
# 4 0.0000 0.0000 0.0000 10.6618 0.0000 8.2459
# 5 -7.8144 -13.4490 -14.9021 0.0000 45.0899 0.0000
# 6 0.0000 0.0000 0.0000 8.2459 0.0000 34.9568
#
#
#
# Elastic Compliance Matrix: (Units=1/GPa)
#
#
# Indices 1 2 3 4 5 6 
#
# 1 0.025519 -0.008389 -0.021638 0.000000 -0.005231 0.000000
# 2 -0.008389 0.011247 0.003566 0.000000 0.003079 0.000000
# 3 -0.021638 0.003566 0.039340 0.000000 0.010315 0.000000
# 4 0.000000 0.000000 0.000000 0.114722 0.000000 -0.027062
# 5 -0.005231 0.003079 0.010315 0.000000 0.025599 0.000000
# 6 0.000000 0.000000 0.000000 -0.027062 0.000000 0.034990
#
#
# Mechanical properties :
#
#
# Convention : Reuss Voigt Hill
#
# Bulk Modulus (GPa) = 43.13258 63.57223 53.35240
# Shear Modulus (GPa) = 16.02215 28.06605 22.04410
#
# Velocity S-wave (km/s) = 2.70028 3.57387 3.16734
# Velocity P-wave (km/s) = 5.41767 6.77946 6.13646
#
# Compressibility (1/GPa) = 0.02318433
#
# Stress axis : x y z
#
# Youngs Moduli (GPa) = 39.18599 88.91338 25.41931
#
# Poissons Ratio (x) = 0.74590 0.55003
# Poissons Ratio (y) = 0.32873 -0.09065
# Poissons Ratio (z) = 0.84792 -0.31709
#
# Static dielectric constant tensor:
#      x y z
#    x 4.120940 0.000000 0.161170 
#    y 0.000000 4.293710 0.000000 
#    z 0.161170 0.000000 3.633400 
# 
# 
# High freq. dielectric constant tensor:
#      x y z
#    x 1.872770 0.000000 0.018330 
#    y 0.000000 1.884760 0.000000 
#    z 0.018330 0.000000 1.838070 
# 
# From -- ./inp_files/14270.got.cif
#   From: 2010.03.12/outbox.cif.g09.slc.cpg/sg3_8_cif.got.tgz:14270.got - 2010.03.31 09:20:49.
