data_PCOD8045677
_publ_section_title
;
Structure prediction by ZEFSAII (Michael W. Deem and Ramdas Pophale) SiO2 
 PCOD8045677
Probable space group: P 21
;
_chemical_formula_sum "Si O2"
_cell_formula_units_Z 16
_cell_length_a 8.921343
_cell_length_b 9.363060
_cell_length_c 11.313382
_cell_angle_alpha 90.000000
_cell_angle_beta 106.502041
_cell_angle_gamma 90.000000
_cell_volume 906.093211
_symmetry_space_group_name_H-M "P 21"
_symmetry_group_IT_number 4
_symmetry_cell_setting 'monoclinic'
loop_
_space_group_symop_operation_xyz
x,y,z
-x,1/2+y,-z
loop_
_atom_site_type_symbol
_atom_site_label
_atom_site_fract_x
_atom_site_fract_y
_atom_site_fract_z
Si Si1 0.988326 0.106130 0.356784
Si Si2 0.126462 0.423435 0.079373
Si Si3 0.907450 0.598678 0.874168
Si Si4 0.938864 0.575321 0.231372
Si Si5 0.337793 0.082472 0.001580
Si Si6 0.761474 0.332347 0.325441
Si Si7 0.524029 0.865294 0.890151
Si Si8 0.022474 0.796582 0.436647
O O1 0.827662 0.185799 0.279088
O O2 0.065384 0.206548 0.477712
O O3 0.104439 0.093303 0.270754
O O4 0.943372 0.950261 0.397184
O O5 0.069506 0.259974 0.073245
O O6 0.313350 0.436447 0.110229
O O7 0.076029 0.502245 0.187396
O O8 0.050496 0.499420 0.948430
O O9 0.744653 0.537968 0.892588
O O10 0.801254 0.633615 0.116384
O O11 0.867025 0.464158 0.306694
O O12 0.018783 0.708227 0.315156
O O13 0.432691 0.951637 0.969825
O O14 0.456187 0.211292 0.047359
O O15 0.580525 0.353289 0.252594
O O16 0.796967 0.320622 0.475434
#
# Coordination Sequence:
#
# PCOD8045677 Si02
#       8
#     2   2   2   2   2   2   2   2
#     4  10  20  33  59  83 110 140 191 237 270 318
#     4  10  21  35  56  84 114 148 183 231 281 330
#     4  10  21  35  55  86 109 148 187 231 272 324
#     4  10  18  37  54  81 112 136 194 233 264 322
#     4   9  22  35  54  82 113 146 181 228 279 341
#     4   9  18  35  54  77 110 146 175 229 274 325
#     4  10  21  35  54  77 119 149 173 223 293 332
#     4  10  19  33  58  86 103 143 192 236 271 318
#
# _framework density 17.658225000000002
#
# number of rings (size 3 to 8) (size 9 to 14) (size 15 to 20)
#    0.750    1.500    2.500    0.000    7.000    0.000 
#    0.000    0.000    5.500    0.000    0.000    0.000 
#    0.000    0.000    0.000    0.000    0.000    0.000 
#
# Total GULP energy -198226.341218 kJ/mol
# GULP energy per Si atom -12389.146326 kJ/mol
# Density = 1.761803 g / cm^3
# Si number density = 17.658225 Si / 1000 Ang^3
#
#
#
# Elastic Constant Matrix: (Units=GPa)
#
#
# Indices 1 2 3 4 5 6 
#
# 1 88.6987 34.0781 29.4098 0.0000 5.5326 0.0000
# 2 34.0781 97.7714 30.7480 0.0000 4.1626 0.0000
# 3 29.4098 30.7480 69.0520 0.0000 -5.2637 0.0000
# 4 0.0000 0.0000 0.0000 35.6423 0.0000 2.0733
# 5 5.5326 4.1626 -5.2637 0.0000 19.2211 0.0000
# 6 0.0000 0.0000 0.0000 2.0733 0.0000 27.6721
#
#
#
# Elastic Compliance Matrix: (Units=1/GPa)
#
#
# Indices 1 2 3 4 5 6 
#
# 1 0.014520 -0.003246 -0.005110 0.000000 -0.004876 0.000000
# 2 -0.003246 0.012946 -0.004621 0.000000 -0.003135 0.000000
# 3 -0.005110 -0.004621 0.019308 0.000000 0.007759 0.000000
# 4 0.000000 0.000000 0.000000 0.028179 0.000000 -0.002111
# 5 -0.004876 -0.003135 0.007759 0.000000 0.056233 0.000000
# 6 0.000000 0.000000 0.000000 -0.002111 0.000000 0.036296
#
#
# Mechanical properties :
#
#
# Convention : Reuss Voigt Hill
#
# Bulk Modulus (GPa) = 48.03465 49.33266 48.68366
# Shear Modulus (GPa) = 24.95298 27.25950 26.10624
#
# Velocity S-wave (km/s) = 3.76321 3.93329 3.84919
# Velocity P-wave (km/s) = 6.79292 6.97323 6.88367
#
# Compressibility (1/GPa) = 0.02081830
#
# Stress axis : x y z
#
# Youngs Moduli (GPa) = 68.87117 77.24302 51.79313
#
# Poissons Ratio (x) = 0.25074 0.26468
# Poissons Ratio (y) = 0.22357 0.23934
# Poissons Ratio (z) = 0.35195 0.35695
#
# Static dielectric constant tensor:
#      x y z
#    x 3.094000 0.000000 -0.042340 
#    y 0.000000 3.374220 0.000000 
#    z -0.042340 0.000000 3.364420 
# 
# 
# High freq. dielectric constant tensor:
#      x y z
#    x 1.645700 0.000000 -0.002750 
#    y 0.000000 1.696270 0.000000 
#    z -0.002750 0.000000 1.683180 
# 
# From -- ./inp_files/7526.got.cif
#   From: 2010.03.12/outbox.cif.g09.slc.cpg/sg4_4_cif.got.tgz:7526.got - 2010.03.31 09:31:35.
