data_PCOD8045522
_publ_section_title
;
Structure prediction by ZEFSAII (Michael W. Deem and Ramdas Pophale) SiO2 
 PCOD8045522
Probable space group: P 2
;
_chemical_formula_sum "Si O2"
_cell_formula_units_Z 14
_cell_length_a 11.669017
_cell_length_b 9.274462
_cell_length_c 5.407023
_cell_angle_alpha 90.000000
_cell_angle_beta 78.662242
_cell_angle_gamma 90.000000
_cell_volume 573.749487
_symmetry_space_group_name_H-M "P 2"
_symmetry_group_IT_number 3
_symmetry_cell_setting 'monoclinic'
loop_
_space_group_symop_operation_xyz
x,y,z
-x,y,-z
loop_
_atom_site_type_symbol
_atom_site_label
_atom_site_fract_x
_atom_site_fract_y
_atom_site_fract_z
Si Si1 0.076789 0.521640 0.718850
Si Si2 0.637939 0.053790 0.456452
Si Si3 0.212425 0.276685 0.871961
Si Si4 0.779187 0.775458 0.505781
Si Si5 0.380730 0.298520 0.181465
Si Si6 0.000000 0.092764 0.000000
Si Si7 0.000000 0.927264 0.500000
Si Si8 0.431685 0.596788 0.287779
O O1 0.163413 0.381667 0.676863
O O2 0.157550 0.664332 0.710390
O O3 0.000000 0.521106 0.500000
O O4 0.000000 0.512282 0.000000
O O5 0.500000 0.021026 0.500000
O O6 0.684632 0.162305 0.230019
O O7 0.664821 0.146744 0.690659
O O8 0.710689 0.906451 0.403765
O O9 0.106612 0.190845 0.040660
O O10 0.278534 0.368387 0.053653
O O11 0.685478 0.689194 0.708755
O O12 0.885809 0.835457 0.629107
O O13 0.403536 0.429377 0.364920
O O14 0.500000 0.259446 0.000000
O O15 0.037670 0.009059 0.734676
O O16 0.500000 0.658723 0.500000
O O17 0.500000 0.609286 0.000000
#
# Coordination Sequence:
#
# PCOD8045522 Si02
#       8
#     2   2   2   2   2   1   1   2
#     4  12  31  51  78 119 158 205 264 318 394 465
#     4  12  25  49  76 113 155 204 260 315 385 463
#     4  12  27  47  82 110 156 195 261 325 383 458
#     4  12  28  49  78 109 163 202 260 317 392 463
#     4  11  25  46  76 112 151 201 256 321 379 454
#     4  12  28  50  76 112 148 202 256 314 398 444
#     4  12  28  50  76 112 152 204 252 326 384 460
#     4  11  28  50  77 114 155 205 257 315 392 463
#
# _framework density 24.400893
#
# number of rings (size 3 to 8) (size 9 to 14) (size 15 to 20)
#    0.000    0.286    4.286    2.571   12.000    1.714 
#    7.714    0.000    0.000    0.000    0.000    0.000 
#    0.000    0.000    0.000    0.000    0.000    0.000 
#
# Total GULP energy -173436.246823 kJ/mol
# GULP energy per Si atom -12388.303344 kJ/mol
# Density = 2.434536 g / cm^3
# Si number density = 24.400893 Si / 1000 Ang^3
#
#
#
# Elastic Constant Matrix: (Units=GPa)
#
#
# Indices 1 2 3 4 5 6 
#
# 1 187.6806 64.2979 52.5112 0.0000 1.8106 0.0000
# 2 64.2979 137.5565 31.1690 0.0000 -1.7506 0.0000
# 3 52.5112 31.1690 115.4737 0.0000 9.8934 0.0000
# 4 0.0000 0.0000 0.0000 9.8531 0.0000 -4.9478
# 5 1.8106 -1.7506 9.8934 0.0000 33.4175 0.0000
# 6 0.0000 0.0000 0.0000 -4.9478 0.0000 25.3669
#
#
#
# Elastic Compliance Matrix: (Units=1/GPa)
#
#
# Indices 1 2 3 4 5 6 
#
# 1 0.006929 -0.002682 -0.002445 0.000000 0.000208 0.000000
# 2 -0.002682 0.008818 -0.001244 0.000000 0.000976 0.000000
# 3 -0.002445 -0.001244 0.010365 0.000000 -0.003001 0.000000
# 4 0.000000 0.000000 0.000000 0.112511 0.000000 0.021945
# 5 0.000208 0.000976 -0.003001 0.000000 0.030853 0.000000
# 6 0.000000 0.000000 0.000000 0.021945 0.000000 0.043702
#
#
# Mechanical properties :
#
#
# Convention : Reuss Voigt Hill
#
# Bulk Modulus (GPa) = 74.79691 81.85189 78.32440
# Shear Modulus (GPa) = 21.70369 33.24301 27.47335
#
# Velocity S-wave (km/s) = 2.98562 3.69503 3.35911
# Velocity P-wave (km/s) = 6.52726 7.19874 6.87121
#
# Compressibility (1/GPa) = 0.01336954
#
# Stress axis : x y z
#
# Youngs Moduli (GPa) = 144.31770 113.40701 96.48175
#
# Poissons Ratio (x) = 0.30419 0.23588
# Poissons Ratio (y) = 0.38710 0.12002
# Poissons Ratio (z) = 0.35283 0.14107
#
# Static dielectric constant tensor:
#      x y z
#    x 4.780120 0.000000 -0.203280 
#    y 0.000000 4.601880 0.000000 
#    z -0.203280 0.000000 4.148740 
# 
# 
# High freq. dielectric constant tensor:
#      x y z
#    x 2.001480 0.000000 -0.013570 
#    y 0.000000 1.978050 0.000000 
#    z -0.013570 0.000000 1.943190 
# 
# From -- ./inp_files/2221.got.cif
#   From: 2010.03.12/outbox.cif.g09.slc.cpg/sg3_2_cif.got.tgz:2221.got - 2010.03.31 09:20:49.
