data_PCOD8045675
_publ_section_title
;
Structure prediction by ZEFSAII (Michael W. Deem and Ramdas Pophale) SiO2 
 PCOD8045675
Probable space group: P 21
;
_chemical_formula_sum "Si O2"
_cell_formula_units_Z 14
_cell_length_a 9.007187
_cell_length_b 11.423089
_cell_length_c 9.200547
_cell_angle_alpha 90.000000
_cell_angle_beta 47.914304
_cell_angle_gamma 90.000000
_cell_volume 702.544916
_symmetry_space_group_name_H-M "P 21"
_symmetry_group_IT_number 4
_symmetry_cell_setting 'monoclinic'
loop_
_space_group_symop_operation_xyz
x,y,z
-x,1/2+y,-z
loop_
_atom_site_type_symbol
_atom_site_label
_atom_site_fract_x
_atom_site_fract_y
_atom_site_fract_z
Si Si1 0.976207 0.828590 0.735992
Si Si2 0.190270 0.071236 0.617386
Si Si3 0.126767 0.687068 0.378237
Si Si4 0.707422 0.325389 0.981496
Si Si5 0.409183 0.605564 0.800874
Si Si6 0.990105 0.210775 0.992480
Si Si7 0.626345 0.980077 0.880977
O O1 0.088963 0.732599 0.564217
O O2 0.780700 0.871262 0.777356
O O3 0.121242 0.936949 0.680356
O O4 0.914737 0.758383 0.922026
O O5 0.424779 0.073892 0.426682
O O6 0.070627 0.132293 0.565106
O O7 0.157683 0.144044 0.787398
O O8 0.294667 0.585956 0.269296
O O9 0.209824 0.796178 0.232454
O O10 0.548169 0.227310 0.141918
O O11 0.587412 0.446755 0.049818
O O12 0.898010 0.324140 0.965701
O O13 0.193114 0.618130 0.862272
O O14 0.394866 0.507014 0.934094
#
# Coordination Sequence:
#
# PCOD8045675 Si02
#       7
#     2   2   2   2   2   2   2
#     4  11  20  37  60  84 121 152 191 240 298 332
#     4  10  19  40  61  80 117 161 183 244 292 335
#     4   9  19  34  60  88 113 149 207 230 280 355
#     4   8  17  36  55  82 115 152 189 242 279 336
#     4   9  18  37  60  79 119 144 196 239 285 336
#     4   9  21  40  52  87 120 144 195 244 279 355
#     4  10  18  36  62  84 115 154 199 241 279 345
#
# _framework density 19.92755
#
# number of rings (size 3 to 8) (size 9 to 14) (size 15 to 20)
#    0.857    1.714    2.857    1.714    0.000    0.000 
#    7.714   10.000    0.000    0.000    0.000    0.000 
#    0.000    0.000    0.000    0.000    0.000    0.000 
#
# Total GULP energy -173458.349641 kJ/mol
# GULP energy per Si atom -12389.882117 kJ/mol
# Density = 1.988219 g / cm^3
# Si number density = 19.927550 Si / 1000 Ang^3
#
#
#
# Elastic Constant Matrix: (Units=GPa)
#
#
# Indices 1 2 3 4 5 6 
#
# 1 23.5859 18.7071 22.6060 0.0000 5.6474 0.0000
# 2 18.7071 66.0365 45.2118 0.0000 11.0053 0.0000
# 3 22.6060 45.2118 121.6686 0.0000 3.5696 0.0000
# 4 0.0000 0.0000 0.0000 30.7166 0.0000 -0.4055
# 5 5.6474 11.0053 3.5696 0.0000 33.1428 0.0000
# 6 0.0000 0.0000 0.0000 -0.4055 0.0000 27.1280
#
#
#
# Elastic Compliance Matrix: (Units=1/GPa)
#
#
# Indices 1 2 3 4 5 6 
#
# 1 0.059007 -0.011250 -0.006619 0.000000 -0.005606 0.000000
# 2 -0.011250 0.023696 -0.006561 0.000000 -0.005245 0.000000
# 3 -0.006619 -0.006561 0.011827 0.000000 0.002033 0.000000
# 4 0.000000 0.000000 0.000000 0.032562 0.000000 0.000487
# 5 -0.005606 -0.005245 0.002033 0.000000 0.032650 0.000000
# 6 0.000000 0.000000 0.000000 0.000487 0.000000 0.036870
#
#
# Mechanical properties :
#
#
# Convention : Reuss Voigt Hill
#
# Bulk Modulus (GPa) = 21.89580 42.70453 32.30017
# Shear Modulus (GPa) = 19.17938 26.51524 22.84731
#
# Velocity S-wave (km/s) = 3.10571 3.65167 3.38970
# Velocity P-wave (km/s) = 4.88591 6.26546 5.61819
#
# Compressibility (1/GPa) = 0.04567085
#
# Stress axis : x y z
#
# Youngs Moduli (GPa) = 16.94709 42.20039 84.54989
#
# Poissons Ratio (x) = 0.47476 0.55960
# Poissons Ratio (y) = 0.19066 0.55477
# Poissons Ratio (z) = 0.11217 0.27689
#
# Static dielectric constant tensor:
#      x y z
#    x 3.176620 0.000000 -0.108680 
#    y 0.000000 3.445250 0.000000 
#    z -0.108680 0.000000 3.503840 
# 
# 
# High freq. dielectric constant tensor:
#      x y z
#    x 1.744140 0.000000 -0.006320 
#    y 0.000000 1.765910 0.000000 
#    z -0.006320 0.000000 1.776220 
# 
# From -- ./inp_files/8135.got.cif
#   From: 2010.03.12/outbox.cif.g09.slc.cpg/sg4_5_cif.got.tgz:8135.got - 2010.03.31 09:31:35.
