data_PCOD8045414
_publ_section_title
;
Structure prediction by ZEFSAII (Michael W. Deem and Ramdas Pophale) SiO2 
 PCOD8045414
Probable space group: P 2
;
_chemical_formula_sum "Si O2"
_cell_formula_units_Z 14
_cell_length_a 8.923796
_cell_length_b 6.803061
_cell_length_c 16.739969
_cell_angle_alpha 90.000000
_cell_angle_beta 38.544498
_cell_angle_gamma 90.000000
_cell_volume 633.259783
_symmetry_space_group_name_H-M "P 2"
_symmetry_group_IT_number 3
_symmetry_cell_setting 'monoclinic'
loop_
_space_group_symop_operation_xyz
x,y,z
-x,y,-z
loop_
_atom_site_type_symbol
_atom_site_label
_atom_site_fract_x
_atom_site_fract_y
_atom_site_fract_z
Si Si1 0.948773 0.859790 0.266434
Si Si2 0.000000 0.727713 0.500000
Si Si3 0.481299 0.269647 0.818299
Si Si4 0.427240 0.649530 0.117287
Si Si5 0.500000 0.604958 0.500000
Si Si6 0.157683 0.939951 0.008626
Si Si7 0.018605 0.080499 0.379871
Si Si8 0.335482 0.402519 0.411504
O O1 0.159518 0.733459 0.220314
O O2 0.996906 0.925695 0.155384
O O3 0.704374 0.738184 0.374824
O O4 0.925287 0.062098 0.327215
O O5 0.766275 0.589011 0.594838
O O6 0.988320 0.861194 0.426847
O O7 0.556885 0.462399 0.833703
O O8 0.452852 0.317910 0.734744
O O9 0.701175 0.122215 0.735730
O O10 0.242378 0.164175 0.952817
O O11 0.500000 0.575983 0.000000
O O12 0.604909 0.812278 0.078833
O O13 0.418957 0.460155 0.464063
O O14 0.000000 0.859937 0.000000
O O15 0.868649 0.236638 0.493144
#
# Coordination Sequence:
#
# PCOD8045414 Si02
#       8
#     2   1   2   2   1   2   2   2
#     4  11  25  49  74 103 146 192 239 295 364 423
#     4  12  20  44  68 102 144 180 244 294 356 428
#     4  12  24  42  74 106 137 189 239 295 353 429
#     4  10  24  46  74 102 139 190 238 291 354 426
#     4  12  28  46  72 110 152 192 234 306 366 420
#     4  11  28  47  71 106 142 188 238 298 359 426
#     4  12  23  41  76 105 136 190 243 298 353 429
#     4  12  26  43  70 109 143 186 242 297 361 428
#
# _framework density 22.10783
#
# number of rings (size 3 to 8) (size 9 to 14) (size 15 to 20)
#    0.000    0.571    5.714    1.714    4.000    3.429 
#    2.571    0.000    0.000    0.000    0.000    0.000 
#    0.000    0.000    0.000    0.000    0.000    0.000 
#
# Total GULP energy -173541.849073 kJ/mol
# GULP energy per Si atom -12395.846362 kJ/mol
# Density = 2.205751 g / cm^3
# Si number density = 22.107830 Si / 1000 Ang^3
#
#
#
# Elastic Constant Matrix: (Units=GPa)
#
#
# Indices 1 2 3 4 5 6 
#
# 1 120.2311 40.5295 62.0538 0.0000 22.1928 0.0000
# 2 40.5295 102.7855 60.6044 0.0000 16.9578 0.0000
# 3 62.0538 60.6044 137.1162 0.0000 29.1351 0.0000
# 4 0.0000 0.0000 0.0000 20.4392 0.0000 14.1641
# 5 22.1928 16.9578 29.1351 0.0000 33.8046 0.0000
# 6 0.0000 0.0000 0.0000 14.1641 0.0000 17.3625
#
#
#
# Elastic Compliance Matrix: (Units=1/GPa)
#
#
# Indices 1 2 3 4 5 6 
#
# 1 0.011445 -0.001787 -0.003653 0.000000 -0.003469 0.000000
# 2 -0.001787 0.013542 -0.004876 0.000000 -0.001418 0.000000
# 3 -0.003653 -0.004876 0.012330 0.000000 -0.005783 0.000000
# 4 0.000000 0.000000 0.000000 0.112557 0.000000 -0.091823
# 5 -0.003469 -0.001418 -0.005783 0.000000 0.037555 0.000000
# 6 0.000000 0.000000 0.000000 -0.091823 0.000000 0.132504
#
#
# Mechanical properties :
#
#
# Convention : Reuss Voigt Hill
#
# Bulk Modulus (GPa) = 59.92661 76.27870 68.10265
# Shear Modulus (GPa) = 14.44559 27.45093 20.94826
#
# Velocity S-wave (km/s) = 2.55897 3.52758 3.08157
# Velocity P-wave (km/s) = 5.99137 7.15330 6.59796
#
# Compressibility (1/GPa) = 0.01668708
#
# Stress axis : x y z
#
# Youngs Moduli (GPa) = 87.37194 73.84260 81.10330
#
# Poissons Ratio (x) = 0.13195 0.29625
# Poissons Ratio (y) = 0.15613 0.39543
# Poissons Ratio (z) = 0.31915 0.36003
#
# Static dielectric constant tensor:
#      x y z
#    x 4.063900 0.000000 0.286200 
#    y 0.000000 4.039520 0.000000 
#    z 0.286200 0.000000 4.192590 
# 
# 
# High freq. dielectric constant tensor:
#      x y z
#    x 1.874960 0.000000 0.021890 
#    y 0.000000 1.871890 0.000000 
#    z 0.021890 0.000000 1.880130 
# 
# From -- ./inp_files/14825.got.cif
#   From: 2010.03.12/outbox.cif.g09.slc.cpg/sg3_8_cif.got.tgz:14825.got - 2010.03.31 09:20:49.
