data_PCOD8045873
_publ_section_title
;
Structure prediction by ZEFSAII (Michael W. Deem and Ramdas Pophale) SiO2 
 PCOD8045873
Probable space group: P 21
;
_chemical_formula_sum "Si O2"
_cell_formula_units_Z 14
_cell_length_a 12.775857
_cell_length_b 4.866434
_cell_length_c 10.809472
_cell_angle_alpha 90.000000
_cell_angle_beta 84.621803
_cell_angle_gamma 90.000000
_cell_volume 669.097253
_symmetry_space_group_name_H-M "P 21"
_symmetry_group_IT_number 4
_symmetry_cell_setting 'monoclinic'
loop_
_space_group_symop_operation_xyz
x,y,z
-x,1/2+y,-z
loop_
_atom_site_type_symbol
_atom_site_label
_atom_site_fract_x
_atom_site_fract_y
_atom_site_fract_z
Si Si1 0.312251 0.883110 0.906554
Si Si2 0.791716 0.356620 0.326179
Si Si3 0.442376 0.378362 0.813374
Si Si4 0.666809 0.859183 0.414641
Si Si5 0.264486 0.315863 0.341101
Si Si6 0.933478 0.051648 0.489579
Si Si7 0.685566 0.314324 0.818555
O O1 0.212549 0.857864 0.823482
O O2 0.403311 0.679359 0.852140
O O3 0.367549 0.179177 0.900182
O O4 0.267403 0.834807 0.048813
O O5 0.770300 0.668172 0.374431
O O6 0.897107 0.217904 0.369415
O O7 0.695621 0.176489 0.390415
O O8 0.429207 0.296099 0.668197
O O9 0.562451 0.375844 0.838317
O O10 0.643270 0.811425 0.563040
O O11 0.158581 0.434298 0.413243
O O12 0.300366 0.503186 0.224544
O O13 0.252611 0.012420 0.284405
O O14 0.996849 0.288186 0.558373
#
# Coordination Sequence:
#
# PCOD8045873 Si02
#       7
#     2   2   2   2   2   2   2
#     4  10  20  36  55  79 112 152 195 219 251 313
#     4   9  18  34  57  82 104 136 180 229 270 313
#     4  10  20  34  55  79 108 155 202 224 243 298
#     4   9  18  34  52  76 113 144 180 226 264 315
#     4  11  23  36  52  83 114 140 177 226 295 332
#     4  11  21  38  63  85 104 133 181 236 287 347
#     4  12  22  34  54  80 119 154 179 224 266 316
#
# _framework density 20.923712999999999
#
# number of rings (size 3 to 8) (size 9 to 14) (size 15 to 20)
#    0.000    1.714    0.000    6.857    0.000    1.143 
#    0.000    0.000    0.000    3.429    0.000    2.000 
#    0.000    0.000    0.000    0.000    0.000    0.000 
#
# Total GULP energy -173492.810894 kJ/mol
# GULP energy per Si atom -12392.343635 kJ/mol
# Density = 2.087609 g / cm^3
# Si number density = 20.923713 Si / 1000 Ang^3
#
#
#
# Elastic Constant Matrix: (Units=GPa)
#
#
# Indices 1 2 3 4 5 6 
#
# 1 50.7069 1.9092 20.9131 0.0000 8.9616 0.0000
# 2 1.9092 65.3270 8.0805 0.0000 0.6598 0.0000
# 3 20.9131 8.0805 131.8660 0.0000 21.2754 0.0000
# 4 0.0000 0.0000 0.0000 34.4052 0.0000 -3.5008
# 5 8.9616 0.6598 21.2754 0.0000 14.9101 0.0000
# 6 0.0000 0.0000 0.0000 -3.5008 0.0000 29.8495
#
#
#
# Elastic Compliance Matrix: (Units=1/GPa)
#
#
# Indices 1 2 3 4 5 6 
#
# 1 0.022393 -0.000325 -0.001770 0.000000 -0.010920 0.000000
# 2 -0.000325 0.015438 -0.001060 0.000000 0.001024 0.000000
# 3 -0.001770 -0.001060 0.010068 0.000000 -0.013255 0.000000
# 4 0.000000 0.000000 0.000000 0.029416 0.000000 0.003450
# 5 -0.010920 0.001024 -0.013255 0.000000 0.092500 0.000000
# 6 0.000000 0.000000 0.000000 0.003450 0.000000 0.033906
#
#
# Mechanical properties :
#
#
# Convention : Reuss Voigt Hill
#
# Bulk Modulus (GPa) = 24.04463 34.41172 29.22818
# Shear Modulus (GPa) = 22.33201 30.29944 26.31572
#
# Velocity S-wave (km/s) = 3.27051 3.80951 3.55025
# Velocity P-wave (km/s) = 5.07722 5.98596 5.55022
#
# Compressibility (1/GPa) = 0.04158932
#
# Stress axis : x y z
#
# Youngs Moduli (GPa) = 44.65646 64.77587 99.32811
#
# Poissons Ratio (x) = 0.02107 0.17578
# Poissons Ratio (y) = 0.01452 0.10526
# Poissons Ratio (z) = 0.07903 0.06864
#
# Static dielectric constant tensor:
#      x y z
#    x 3.567260 0.000000 0.514600 
#    y 0.000000 4.063410 0.000000 
#    z 0.514600 0.000000 3.815260 
# 
# 
# High freq. dielectric constant tensor:
#      x y z
#    x 1.777250 0.000000 0.036770 
#    y 0.000000 1.848960 0.000000 
#    z 0.036770 0.000000 1.808090 
# 
# From -- ./inp_files/11679.got.cif
#   From: 2010.03.12/outbox.cif.g09.slc.cpg/sg4_6_cif.got.tgz:11679.got - 2010.03.31 09:31:35.
