data_PCOD8045131
_publ_section_title
;
Structure prediction by ZEFSAII (Michael W. Deem and Ramdas Pophale) SiO2 
 PCOD8045131
Probable space group: P 2
;
_chemical_formula_sum "Si O2"
_cell_formula_units_Z 16
_cell_length_a 9.707422
_cell_length_b 17.395251
_cell_length_c 8.944589
_cell_angle_alpha 90.000000
_cell_angle_beta 149.523583
_cell_angle_gamma 90.000000
_cell_volume 766.055550
_symmetry_space_group_name_H-M "P 2"
_symmetry_group_IT_number 3
_symmetry_cell_setting 'monoclinic'
loop_
_space_group_symop_operation_xyz
x,y,z
-x,y,-z
loop_
_atom_site_type_symbol
_atom_site_label
_atom_site_fract_x
_atom_site_fract_y
_atom_site_fract_z
Si Si1 0.431568 0.822460 0.107222
Si Si2 0.477013 0.367235 0.153892
Si Si3 0.772003 0.980690 0.171291
Si Si4 0.556183 0.212322 0.386776
Si Si5 0.967954 0.462762 0.645637
Si Si6 0.776535 0.590864 0.675428
Si Si7 0.934585 0.111372 0.106576
Si Si8 0.087032 0.764345 0.246043
O O1 0.687917 0.816324 0.459809
O O2 0.500000 0.803728 0.000000
O O3 0.320019 0.909298 0.017952
O O4 0.194141 0.762409 0.925774
O O5 0.453663 0.279962 0.184360
O O6 0.750895 0.397791 0.483002
O O7 0.500000 0.364253 0.000000
O O8 0.238369 0.427433 0.974453
O O9 0.000000 0.950355 0.500000
O O10 0.935111 0.042201 0.224446
O O11 0.500000 0.013343 0.000000
O O12 0.500000 0.243202 0.500000
O O13 0.864160 0.181099 0.655236
O O14 0.372909 0.139470 0.178429
O O15 0.849993 0.542699 0.596893
O O16 0.000000 0.476888 0.500000
O O17 0.500000 0.569112 0.500000
O O18 0.783195 0.680144 0.639601
O O19 0.000000 0.566265 0.000000
O O20 0.000000 0.081977 0.000000
O O21 0.000000 0.795572 0.000000
#
# Coordination Sequence:
#
# PCOD8045131 Si02
#       8
#     2   2   2   2   2   2   2   2
#     4  11  23  41  64  92 126 163 206 258 314 374
#     4  10  21  37  57  85 118 152 194 245 295 355
#     4  11  23  41  63  91 124 160 205 258 309 370
#     4  10  21  37  58  85 117 153 196 246 296 357
#     4  10  22  39  59  86 119 154 197 245 298 358
#     4  11  23  41  62  89 122 158 203 255 303 362
#     4  10  22  40  60  86 119 155 199 248 301 361
#     4  11  23  42  64  92 126 163 208 259 313 373
#
# _framework density 20.886213999999999
#
# number of rings (size 3 to 8) (size 9 to 14) (size 15 to 20)
#    0.000    1.500    0.000    6.000    0.000    4.500 
#    0.000    6.250    0.000    0.000    0.000    0.000 
#    0.000    0.000    0.000    0.000    0.000    0.000 
#
# Total GULP energy -198321.651430 kJ/mol
# GULP energy per Si atom -12395.103214 kJ/mol
# Density = 2.083868 g / cm^3
# Si number density = 20.886214 Si / 1000 Ang^3
#
#
#
# Elastic Constant Matrix: (Units=GPa)
#
#
# Indices 1 2 3 4 5 6 
#
# 1 91.9404 54.3947 52.3979 0.0000 16.6511 0.0000
# 2 54.3947 81.7060 36.9194 0.0000 -6.1762 0.0000
# 3 52.3979 36.9194 137.4404 0.0000 4.0899 0.0000
# 4 0.0000 0.0000 0.0000 24.7891 0.0000 -2.3067
# 5 16.6511 -6.1762 4.0899 0.0000 33.0117 0.0000
# 6 0.0000 0.0000 0.0000 -2.3067 0.0000 27.0670
#
#
#
# Elastic Compliance Matrix: (Units=1/GPa)
#
#
# Indices 1 2 3 4 5 6 
#
# 1 0.026399 -0.016422 -0.005184 0.000000 -0.015746 0.000000
# 2 -0.016422 0.024465 -0.000696 0.000000 0.012947 0.000000
# 3 -0.005184 -0.000696 0.009400 0.000000 0.001320 0.000000
# 4 0.000000 0.000000 0.000000 0.040663 0.000000 0.003465
# 5 -0.015746 0.012947 0.001320 0.000000 0.040493 0.000000
# 6 0.000000 0.000000 0.000000 0.003465 0.000000 0.037241
#
#
# Mechanical properties :
#
#
# Convention : Reuss Voigt Hill
#
# Bulk Modulus (GPa) = 63.86417 66.50121 65.18269
# Shear Modulus (GPa) = 21.88314 28.13189 25.00751
#
# Velocity S-wave (km/s) = 3.24038 3.67401 3.46399
# Velocity P-wave (km/s) = 6.68159 7.06447 6.87569
#
# Compressibility (1/GPa) = 0.01565823
#
# Stress axis : x y z
#
# Youngs Moduli (GPa) = 37.88034 40.87422 106.38142
#
# Poissons Ratio (x) = 0.67125 0.55152
# Poissons Ratio (y) = 0.62209 0.07407
# Poissons Ratio (z) = 0.19639 0.02846
#
# Static dielectric constant tensor:
#      x y z
#    x 3.880890 0.000000 0.117570 
#    y 0.000000 3.536730 0.000000 
#    z 0.117570 0.000000 4.110430 
# 
# 
# High freq. dielectric constant tensor:
#      x y z
#    x 1.819930 0.000000 0.010400 
#    y 0.000000 1.805790 0.000000 
#    z 0.010400 0.000000 1.838790 
# 
# From -- ./inp_files/6301.got.cif
#   From: 2010.03.12/outbox.cif.g09.slc.cpg/sg3_4_cif.got.tgz:6301.got - 2010.03.31 09:20:49.
