data_PCOD8045523
_publ_section_title
;
Structure prediction by ZEFSAII (Michael W. Deem and Ramdas Pophale) SiO2 
 PCOD8045523
Probable space group: P 2
;
_chemical_formula_sum "Si O2"
_cell_formula_units_Z 16
_cell_length_a 8.916798
_cell_length_b 11.770389
_cell_length_c 9.737679
_cell_angle_alpha 90.000000
_cell_angle_beta 132.977033
_cell_angle_gamma 90.000000
_cell_volume 747.730224
_symmetry_space_group_name_H-M "P 2"
_symmetry_group_IT_number 3
_symmetry_cell_setting 'monoclinic'
loop_
_space_group_symop_operation_xyz
x,y,z
-x,y,-z
loop_
_atom_site_type_symbol
_atom_site_label
_atom_site_fract_x
_atom_site_fract_y
_atom_site_fract_z
Si Si1 0.817876 0.736780 0.993026
Si Si2 0.313210 0.510440 0.488100
Si Si3 0.900733 0.289461 0.580663
Si Si4 0.082035 0.729977 0.405549
Si Si5 0.516051 0.142487 0.349082
Si Si6 0.166413 0.282988 0.989936
Si Si7 0.592338 0.510625 0.910862
Si Si8 0.536727 0.878561 0.363409
O O1 0.898418 0.774650 0.193940
O O2 0.743973 0.607228 0.950738
O O3 0.632061 0.817844 0.835140
O O4 0.000000 0.751605 0.000000
O O5 0.500000 0.507267 0.500000
O O6 0.172577 0.400160 0.379090
O O7 0.186050 0.625740 0.387500
O O8 0.394219 0.503429 0.692506
O O9 0.719994 0.204517 0.424875
O O10 0.000000 0.328344 0.500000
O O11 0.059017 0.230165 0.786165
O O12 0.240326 0.830901 0.534997
O O13 0.000000 0.685594 0.500000
O O14 0.500000 0.167054 0.500000
O O15 0.532476 0.010532 0.325158
O O16 0.318140 0.189207 0.146760
O O17 0.289394 0.392595 0.016345
O O18 0.000000 0.316627 0.000000
O O19 0.500000 0.541899 0.000000
O O20 0.500000 0.853618 0.500000
#
# Coordination Sequence:
#
# PCOD8045523 Si02
#       8
#     2   2   2   2   2   2   2   2
#     4  12  24  43  70 101 132 180 225 270 335 402
#     4  12  22  42  70  95 138 182 218 271 338 398
#     4  12  25  43  68 101 139 175 219 279 341 398
#     4  12  25  43  68 101 139 175 219 279 341 398
#     4  11  25  47  71  98 132 176 231 285 329 392
#     4  12  24  43  70 101 132 180 225 270 335 402
#     4  12  24  40  68 101 141 175 213 273 339 401
#     4  11  25  47  71  98 132 176 231 285 329 392
#
# _framework density 21.398091999999998
#
# number of rings (size 3 to 8) (size 9 to 14) (size 15 to 20)
#    0.000    0.250    5.000    5.250    0.000    2.000 
#    0.000    1.250    0.000    0.000    0.000    0.000 
#    0.000    0.000    0.000    0.000    0.000    0.000 
#
# Total GULP energy -198499.685845 kJ/mol
# GULP energy per Si atom -12406.230365 kJ/mol
# Density = 2.134939 g / cm^3
# Si number density = 21.398092 Si / 1000 Ang^3
#
#
#
# Elastic Constant Matrix: (Units=GPa)
#
#
# Indices 1 2 3 4 5 6 
#
# 1 81.8612 41.3254 31.8177 0.0000 -4.2405 0.0000
# 2 41.3254 122.9044 42.4509 0.0000 11.5820 0.0000
# 3 31.8177 42.4509 162.6309 0.0000 7.7371 0.0000
# 4 0.0000 0.0000 0.0000 15.4288 0.0000 -3.4481
# 5 -4.2405 11.5820 7.7371 0.0000 38.0542 0.0000
# 6 0.0000 0.0000 0.0000 -3.4481 0.0000 14.6804
#
#
#
# Elastic Compliance Matrix: (Units=1/GPa)
#
#
# Indices 1 2 3 4 5 6 
#
# 1 0.015652 -0.004933 -0.001948 0.000000 0.003642 0.000000
# 2 -0.004933 0.010696 -0.001662 0.000000 -0.003467 0.000000
# 3 -0.001948 -0.001662 0.007018 0.000000 -0.001138 0.000000
# 4 0.000000 0.000000 0.000000 0.068405 0.000000 0.016067
# 5 0.003642 -0.003467 -0.001138 0.000000 0.027971 0.000000
# 6 0.000000 0.000000 0.000000 0.016067 0.000000 0.071892
#
#
# Mechanical properties :
#
#
# Convention : Reuss Voigt Hill
#
# Bulk Modulus (GPa) = 61.42463 66.50940 63.96701
# Shear Modulus (GPa) = 22.30696 30.41950 26.36323
#
# Velocity S-wave (km/s) = 3.23224 3.77450 3.51385
# Velocity P-wave (km/s) = 6.53436 7.08133 6.81333
#
# Compressibility (1/GPa) = 0.01628011
#
# Stress axis : x y z
#
# Youngs Moduli (GPa) = 63.89004 93.49408 142.49332
#
# Poissons Ratio (x) = 0.46123 0.27754
# Poissons Ratio (y) = 0.31518 0.23679
# Poissons Ratio (z) = 0.12444 0.15537
#
# Static dielectric constant tensor:
#      x y z
#    x 3.869170 0.000000 0.158730 
#    y 0.000000 3.719830 0.000000 
#    z 0.158730 0.000000 4.485170 
# 
# 
# High freq. dielectric constant tensor:
#      x y z
#    x 1.844220 0.000000 0.006310 
#    y 0.000000 1.825980 0.000000 
#    z 0.006310 0.000000 1.864430 
# 
# From -- ./inp_files/6092.got.cif
#   From: 2010.03.12/outbox.cif.g09.slc.cpg/sg3_4_cif.got.tgz:6092.got - 2010.03.31 09:20:49.
