data_PCOD8045504
_publ_section_title
;
Structure prediction by ZEFSAII (Michael W. Deem and Ramdas Pophale) SiO2 
 PCOD8045504
Probable space group: P 2
;
_chemical_formula_sum "Si O2"
_cell_formula_units_Z 14
_cell_length_a 16.414078
_cell_length_b 6.667660
_cell_length_c 6.720532
_cell_angle_alpha 90.000000
_cell_angle_beta 114.444566
_cell_angle_gamma 90.000000
_cell_volume 669.588126
_symmetry_space_group_name_H-M "P 2"
_symmetry_group_IT_number 3
_symmetry_cell_setting 'monoclinic'
loop_
_space_group_symop_operation_xyz
x,y,z
-x,y,-z
loop_
_atom_site_type_symbol
_atom_site_label
_atom_site_fract_x
_atom_site_fract_y
_atom_site_fract_z
Si Si1 0.617863 0.097200 0.260430
Si Si2 0.500000 0.432360 0.000000
Si Si3 0.204944 0.578736 0.851569
Si Si4 0.812013 0.238161 0.471878
Si Si5 0.910460 0.843420 0.531938
Si Si6 0.500000 0.975429 0.500000
Si Si7 0.902670 0.535100 0.860273
Si Si8 0.603456 0.751887 0.913759
O O1 0.588889 0.301543 0.122939
O O2 0.720503 0.120336 0.432132
O O3 0.550835 0.097964 0.380558
O O4 0.603613 0.905244 0.102920
O O5 0.474057 0.584223 0.150586
O O6 0.200043 0.358777 0.746440
O O7 0.172899 0.745426 0.664758
O O8 0.142544 0.586308 0.978849
O O9 0.303689 0.637914 0.016072
O O10 0.838333 0.384022 0.677632
O O11 0.892304 0.079757 0.531049
O O12 0.918530 0.741919 0.756322
O O13 0.000000 0.802764 0.500000
O O14 0.581684 0.856518 0.683770
O O15 0.000000 0.436493 0.000000
#
# Coordination Sequence:
#
# PCOD8045504 Si02
#       8
#     2   1   2   2   2   1   2   2
#     4  12  25  47  65 106 137 174 231 277 333 404
#     4  12  22  46  70  90 138 182 214 282 338 384
#     4  11  25  45  69  97 139 178 220 283 335 395
#     4  11  27  42  73  99 136 179 226 277 335 406
#     4  11  24  44  70  98 136 185 217 272 345 399
#     4  12  26  42  72 100 136 176 228 276 330 410
#     4  11  26  45  66 107 138 170 230 279 330 407
#     4  12  25  45  69  99 139 177 223 282 340 392
#
# _framework density 20.908373999999998
#
# number of rings (size 3 to 8) (size 9 to 14) (size 15 to 20)
#    0.000    0.571    7.143    0.000    4.000    5.714 
#    0.000    0.000    0.000    0.000    0.000    0.000 
#    0.000    0.000    0.000    0.000    0.000    0.000 
#
# Total GULP energy -173584.459544 kJ/mol
# GULP energy per Si atom -12398.889967 kJ/mol
# Density = 2.086079 g / cm^3
# Si number density = 20.908374 Si / 1000 Ang^3
#
#
#
# Elastic Constant Matrix: (Units=GPa)
#
#
# Indices 1 2 3 4 5 6 
#
# 1 105.6377 28.2366 36.0943 0.0000 -0.0626 0.0000
# 2 28.2366 99.7084 26.9867 0.0000 0.9931 0.0000
# 3 36.0943 26.9867 98.8633 0.0000 -3.2602 0.0000
# 4 0.0000 0.0000 0.0000 17.5185 0.0000 9.0166
# 5 -0.0626 0.9931 -3.2602 0.0000 42.3150 0.0000
# 6 0.0000 0.0000 0.0000 9.0166 0.0000 39.0296
#
#
#
# Elastic Compliance Matrix: (Units=1/GPa)
#
#
# Indices 1 2 3 4 5 6 
#
# 1 0.011263 -0.002238 -0.003508 0.000000 -0.000201 0.000000
# 2 -0.002238 0.011284 -0.002278 0.000000 -0.000444 0.000000
# 3 -0.003508 -0.002278 0.012050 0.000000 0.000977 0.000000
# 4 0.000000 0.000000 0.000000 0.064786 0.000000 -0.014967
# 5 -0.000201 -0.000444 0.000977 0.000000 0.023718 0.000000
# 6 0.000000 0.000000 0.000000 -0.014967 0.000000 0.029079
#
#
# Mechanical properties :
#
#
# Convention : Reuss Voigt Hill
#
# Bulk Modulus (GPa) = 53.91019 54.09385 54.00202
# Shear Modulus (GPa) = 28.66816 33.96541 31.31679
#
# Velocity S-wave (km/s) = 3.70690 4.03487 3.87435
# Velocity P-wave (km/s) = 6.64541 6.90180 6.77482
#
# Compressibility (1/GPa) = 0.01854937
#
# Stress axis : x y z
#
# Youngs Moduli (GPa) = 88.78658 88.62130 82.99069
#
# Poissons Ratio (x) = 0.19835 0.29111
# Poissons Ratio (y) = 0.19872 0.18903
# Poissons Ratio (z) = 0.31144 0.20185
#
# Static dielectric constant tensor:
#      x y z
#    x 3.904100 0.000000 0.091100 
#    y 0.000000 3.773100 0.000000 
#    z 0.091100 0.000000 3.755500 
# 
# 
# High freq. dielectric constant tensor:
#      x y z
#    x 1.834450 0.000000 0.006960 
#    y 0.000000 1.821650 0.000000 
#    z 0.006960 0.000000 1.816170 
# 
# From -- ./inp_files/3566.got.cif
#   From: 2010.03.12/outbox.cif.g09.slc.cpg/sg3_2_cif.got.tgz:3566.got - 2010.03.31 09:20:49.
