data_PCOD8045055
_publ_section_title
;
Structure prediction by ZEFSAII (Michael W. Deem and Ramdas Pophale) SiO2 
 PCOD8045055
Probable space group: P 2
;
_chemical_formula_sum "Si O2"
_cell_formula_units_Z 15
_cell_length_a 18.730068
_cell_length_b 7.581260
_cell_length_c 7.965273
_cell_angle_alpha 90.000000
_cell_angle_beta 142.003902
_cell_angle_gamma 90.000000
_cell_volume 696.282580
_symmetry_space_group_name_H-M "P 2"
_symmetry_group_IT_number 3
_symmetry_cell_setting 'monoclinic'
loop_
_space_group_symop_operation_xyz
x,y,z
-x,y,-z
loop_
_atom_site_type_symbol
_atom_site_label
_atom_site_fract_x
_atom_site_fract_y
_atom_site_fract_z
Si Si1 0.675845 0.167940 0.641716
Si Si2 0.785988 0.190761 0.497035
Si Si3 0.124857 0.862073 0.485068
Si Si4 0.549758 0.057199 0.919034
Si Si5 0.137336 0.559250 0.269857
Si Si6 0.324224 0.853899 0.109535
Si Si7 0.000000 0.650643 0.500000
Si Si8 0.770569 0.518215 0.929744
O O1 0.765844 0.154409 0.655831
O O2 0.544331 0.196044 0.328632
O O3 0.713283 0.324713 0.836835
O O4 0.676777 0.983407 0.736030
O O5 0.829480 0.389970 0.554614
O O6 0.887260 0.055681 0.621533
O O7 0.669492 0.161163 0.172347
O O8 0.180559 0.732402 0.449019
O O9 0.008487 0.774075 0.347175
O O10 0.203921 0.880983 0.793548
O O11 0.570132 0.897914 0.822914
O O12 0.500000 0.974110 0.000000
O O13 0.201867 0.557921 0.212829
O O14 0.000000 0.564817 0.000000
O O15 0.327389 0.654270 0.185219
O O16 0.112892 0.527755 0.739562
#
# Coordination Sequence:
#
# PCOD8045055 Si02
#       8
#     2   2   2   2   2   2   1   2
#     4  10  20  40  65  91 125 159 207 260 310 372
#     4   9  21  39  62  91 118 165 210 250 314 360
#     4  10  21  38  57  82 123 163 201 262 299 356
#     4   9  19  39  64  89 124 160 206 261 302 366
#     4  11  21  39  61  88 125 165 212 256 299 372
#     4  10  21  38  61  90 122 164 205 253 314 367
#     4  10  20  38  56  86 126 168 208 256 304 370
#     4  10  22  40  62  90 127 167 203 258 314 365
#
# _framework density 21.542978000000002
#
# number of rings (size 3 to 8) (size 9 to 14) (size 15 to 20)
#    0.000    2.133    1.333    1.200    0.000    4.800 
#    9.600    8.000    0.000   12.800    0.000    0.000 
#    0.000    0.000    0.000    0.000    0.000    0.000 
#
# Total GULP energy -185917.293399 kJ/mol
# GULP energy per Si atom -12394.486227 kJ/mol
# Density = 2.149394 g / cm^3
# Si number density = 21.542978 Si / 1000 Ang^3
#
#
#
# Elastic Constant Matrix: (Units=GPa)
#
#
# Indices 1 2 3 4 5 6 
#
# 1 69.7473 23.6324 21.4264 0.0000 -1.1894 0.0000
# 2 23.6324 112.2122 41.2772 0.0000 -1.6788 0.0000
# 3 21.4264 41.2772 75.6543 0.0000 0.0769 0.0000
# 4 0.0000 0.0000 0.0000 27.5441 0.0000 -4.8869
# 5 -1.1894 -1.6788 0.0769 0.0000 24.0703 0.0000
# 6 0.0000 0.0000 0.0000 -4.8869 0.0000 31.9285
#
#
#
# Elastic Compliance Matrix: (Units=1/GPa)
#
#
# Indices 1 2 3 4 5 6 
#
# 1 0.016116 -0.002133 -0.003401 0.000000 0.000658 0.000000
# 2 -0.002133 0.011447 -0.005642 0.000000 0.000711 0.000000
# 3 -0.003401 -0.005642 0.017260 0.000000 -0.000617 0.000000
# 4 0.000000 0.000000 0.000000 0.037319 0.000000 0.005712
# 5 0.000658 0.000711 -0.000617 0.000000 0.041629 0.000000
# 6 0.000000 0.000000 0.000000 0.005712 0.000000 0.032194
#
#
# Mechanical properties :
#
#
# Convention : Reuss Voigt Hill
#
# Bulk Modulus (GPa) = 44.50244 47.80953 46.15598
# Shear Modulus (GPa) = 26.90936 28.12709 27.51823
#
# Velocity S-wave (km/s) = 3.53810 3.61727 3.57790
# Velocity P-wave (km/s) = 6.11500 6.29976 6.20807
#
# Compressibility (1/GPa) = 0.02247068
#
# Stress axis : x y z
#
# Youngs Moduli (GPa) = 62.04882 87.35895 57.93664
#
# Poissons Ratio (x) = 0.18635 0.19705
# Poissons Ratio (y) = 0.13236 0.32688
# Poissons Ratio (z) = 0.21104 0.49289
#
# Static dielectric constant tensor:
#      x y z
#    x 4.186670 0.000000 -0.091330 
#    y 0.000000 3.992180 0.000000 
#    z -0.091330 0.000000 3.943410 
# 
# 
# High freq. dielectric constant tensor:
#      x y z
#    x 1.851980 0.000000 -0.017340 
#    y 0.000000 1.828670 0.000000 
#    z -0.017340 0.000000 1.843920 
# 
# From -- ./inp_files/9394.got.cif
#   From: 2010.03.12/outbox.cif.g09.slc.cpg/sg3_5_cif.got.tgz:9394.got - 2010.03.31 09:20:49.
