data_PCOD8045673
_publ_section_title
;
Structure prediction by ZEFSAII (Michael W. Deem and Ramdas Pophale) SiO2 
 PCOD8045673
Probable space group: P 21
;
_chemical_formula_sum "Si O2"
_cell_formula_units_Z 14
_cell_length_a 7.046108
_cell_length_b 7.747048
_cell_length_c 17.858759
_cell_angle_alpha 90.000000
_cell_angle_beta 41.398387
_cell_angle_gamma 90.000000
_cell_volume 644.657835
_symmetry_space_group_name_H-M "P 21"
_symmetry_group_IT_number 4
_symmetry_cell_setting 'monoclinic'
loop_
_space_group_symop_operation_xyz
x,y,z
-x,1/2+y,-z
loop_
_atom_site_type_symbol
_atom_site_label
_atom_site_fract_x
_atom_site_fract_y
_atom_site_fract_z
Si Si1 0.856939 0.394140 0.714697
Si Si2 0.134983 0.232005 0.366987
Si Si3 0.194293 0.932638 0.102587
Si Si4 0.970364 0.098408 0.571328
Si Si5 0.828977 0.821831 0.915639
Si Si6 0.768450 0.793643 0.105333
Si Si7 0.613693 0.473498 0.230906
O O1 0.976810 0.585153 0.657288
O O2 0.893103 0.350010 0.791738
O O3 0.018653 0.243771 0.620720
O O4 0.519082 0.403143 0.795015
O O5 0.933059 0.405995 0.427343
O O6 0.459349 0.294927 0.249549
O O7 0.149131 0.148546 0.445622
O O8 0.007389 0.846031 0.094171
O O9 0.145795 0.134327 0.126573
O O10 0.528183 0.906414 0.982797
O O11 0.628422 0.081989 0.650739
O O12 0.100086 0.933440 0.804538
O O13 0.885666 0.819227 0.987734
O O14 0.699775 0.589887 0.133725
#
# Coordination Sequence:
#
# PCOD8045673 Si02
#       7
#     2   2   2   2   2   2   2
#     4  10  20  39  61  97 123 164 212 260 313 372
#     4  10  18  35  66  92 121 162 211 258 322 376
#     4  11  24  37  62  90 131 170 211 259 311 372
#     4   9  19  35  65  93 121 162 210 260 318 379
#     4  11  22  39  58  91 129 169 210 253 312 379
#     4  10  21  39  60  86 135 166 204 257 307 379
#     4   9  20  34  58  91 118 165 206 251 313 369
#
# _framework density 21.716947999999999
#
# number of rings (size 3 to 8) (size 9 to 14) (size 15 to 20)
#    0.857    1.143    1.429    2.571    0.000    4.571 
#    2.571    0.000    0.000   15.429    0.000    0.000 
#    0.000    0.000    0.000    0.000    0.000    0.000 
#
# Total GULP energy -173447.449591 kJ/mol
# GULP energy per Si atom -12389.103542 kJ/mol
# Density = 2.166752 g / cm^3
# Si number density = 21.716948 Si / 1000 Ang^3
#
#
#
# Elastic Constant Matrix: (Units=GPa)
#
#
# Indices 1 2 3 4 5 6 
#
# 1 93.3798 17.8378 19.9610 0.0000 4.6029 0.0000
# 2 17.8378 129.4304 17.5400 0.0000 -0.2066 0.0000
# 3 19.9610 17.5400 43.2713 0.0000 1.0519 0.0000
# 4 0.0000 0.0000 0.0000 39.7612 0.0000 -0.1915
# 5 4.6029 -0.2066 1.0519 0.0000 14.8122 0.0000
# 6 0.0000 0.0000 0.0000 -0.1915 0.0000 25.5385
#
#
#
# Elastic Compliance Matrix: (Units=1/GPa)
#
#
# Indices 1 2 3 4 5 6 
#
# 1 0.012162 -0.000987 -0.005127 0.000000 -0.003429 0.000000
# 2 -0.000987 0.008257 -0.002907 0.000000 0.000628 0.000000
# 3 -0.005127 -0.002907 0.026662 0.000000 -0.000341 0.000000
# 4 0.000000 0.000000 0.000000 0.025151 0.000000 0.000189
# 5 -0.003429 0.000628 -0.000341 0.000000 0.068610 0.000000
# 6 0.000000 0.000000 0.000000 0.000189 0.000000 0.039158
#
#
# Mechanical properties :
#
#
# Convention : Reuss Voigt Hill
#
# Bulk Modulus (GPa) = 34.43610 41.86211 38.14911
# Shear Modulus (GPa) = 24.07055 30.07189 27.07122
#
# Velocity S-wave (km/s) = 3.33284 3.72522 3.53448
# Velocity P-wave (km/s) = 5.54091 6.14989 5.85332
#
# Compressibility (1/GPa) = 0.02903929
#
# Stress axis : x y z
#
# Youngs Moduli (GPa) = 82.21999 121.10754 37.50681
#
# Poissons Ratio (x) = 0.11952 0.19230
# Poissons Ratio (y) = 0.08114 0.10903
# Poissons Ratio (z) = 0.42156 0.35207
#
# Static dielectric constant tensor:
#      x y z
#    x 3.487290 0.000000 -0.070010 
#    y 0.000000 4.124680 0.000000 
#    z -0.070010 0.000000 3.842150 
# 
# 
# High freq. dielectric constant tensor:
#      x y z
#    x 1.806680 0.000000 0.000710 
#    y 0.000000 1.872510 0.000000 
#    z 0.000710 0.000000 1.845320 
# 
# From -- ./inp_files/3433.got.cif
#   From: 2010.03.12/outbox.cif.g09.slc.cpg/sg4_2_cif.got.tgz:3433.got - 2010.03.31 09:31:35.
