data_PCOD8045935
_publ_section_title
;
Structure prediction by ZEFSAII (Michael W. Deem and Ramdas Pophale) SiO2 
 PCOD8045935
Probable space group: P 21
;
_chemical_formula_sum "Si O2"
_cell_formula_units_Z 16
_cell_length_a 12.842696
_cell_length_b 6.209064
_cell_length_c 23.625785
_cell_angle_alpha 90.000000
_cell_angle_beta 25.438055
_cell_angle_gamma 90.000000
_cell_volume 809.221037
_symmetry_space_group_name_H-M "P 21"
_symmetry_group_IT_number 4
_symmetry_cell_setting 'monoclinic'
loop_
_space_group_symop_operation_xyz
x,y,z
-x,1/2+y,-z
loop_
_atom_site_type_symbol
_atom_site_label
_atom_site_fract_x
_atom_site_fract_y
_atom_site_fract_z
Si Si1 0.993530 0.751950 0.121062
Si Si2 0.297006 0.801429 0.336912
Si Si3 0.931737 0.936591 0.609911
Si Si4 0.317719 0.023119 0.635641
Si Si5 0.340363 0.985679 0.792738
Si Si6 0.694622 0.361539 0.479569
Si Si7 0.443666 0.691705 0.838767
Si Si8 0.697757 0.140311 0.280151
O O1 0.890328 0.662652 0.231258
O O2 0.878234 0.631908 0.122783
O O3 0.280140 0.692826 0.976277
O O4 0.946770 0.011659 0.142763
O O5 0.172777 0.681293 0.343486
O O6 0.417016 0.624216 0.319042
O O7 0.098268 0.920807 0.472311
O O8 0.516096 0.955026 0.207733
O O9 0.714000 0.769024 0.716432
O O10 0.056309 0.871423 0.608029
O O11 0.586643 0.124733 0.516172
O O12 0.273807 0.017675 0.590073
O O13 0.287231 0.775442 0.669431
O O14 0.285862 0.856643 0.877256
O O15 0.399718 0.801537 0.718761
O O16 0.499326 0.454049 0.619050
#
# Coordination Sequence:
#
# PCOD8045935 Si02
#       8
#     2   2   2   2   2   2   2   2
#     4  10  23  38  60  87 124 165 204 258 314 363
#     4  11  22  40  57  93 124 169 206 252 301 373
#     4  11  23  37  63  87 128 164 207 251 314 372
#     4  10  21  39  64  92 124 153 209 269 308 366
#     4  10  22  34  62  90 122 166 202 256 299 374
#     4  11  21  38  65  97 119 161 206 264 320 354
#     4  11  24  39  58  86 131 164 210 248 307 376
#     4  10  20  37  61  92 124 154 200 262 313 366
#
# _framework density 19.772100999999999
#
# number of rings (size 3 to 8) (size 9 to 14) (size 15 to 20)
#    0.000    1.500    2.500    3.750    5.250    4.000 
#    0.000    0.000    5.500    0.000    0.000    0.000 
#    0.000    0.000    0.000    0.000    0.000    0.000 
#
# Total GULP energy -198257.556309 kJ/mol
# GULP energy per Si atom -12391.097269 kJ/mol
# Density = 1.972710 g / cm^3
# Si number density = 19.772101 Si / 1000 Ang^3
#
#
#
# Elastic Constant Matrix: (Units=GPa)
#
#
# Indices 1 2 3 4 5 6 
#
# 1 90.2773 33.0336 31.1260 0.0000 1.2496 0.0000
# 2 33.0336 112.9720 39.1383 0.0000 -0.8319 0.0000
# 3 31.1260 39.1383 107.1497 0.0000 6.9461 0.0000
# 4 0.0000 0.0000 0.0000 27.7918 0.0000 1.4403
# 5 1.2496 -0.8319 6.9461 0.0000 14.9169 0.0000
# 6 0.0000 0.0000 0.0000 1.4403 0.0000 27.5689
#
#
#
# Elastic Compliance Matrix: (Units=1/GPa)
#
#
# Indices 1 2 3 4 5 6 
#
# 1 0.013075 -0.002870 -0.002752 0.000000 0.000026 0.000000
# 2 -0.002870 0.010845 -0.003282 0.000000 0.002373 0.000000
# 3 -0.002752 -0.003282 0.011680 0.000000 -0.005391 0.000000
# 4 0.000000 0.000000 0.000000 0.036079 0.000000 -0.001885
# 5 0.000026 0.002373 -0.005391 0.000000 0.069679 0.000000
# 6 0.000000 0.000000 0.000000 -0.001885 0.000000 0.036371
#
#
# Mechanical properties :
#
#
# Convention : Reuss Voigt Hill
#
# Bulk Modulus (GPa) = 56.19664 57.44386 56.82025
# Shear Modulus (GPa) = 24.81775 27.86226 26.34001
#
# Velocity S-wave (km/s) = 3.54671 3.75796 3.65386
# Velocity P-wave (km/s) = 6.72727 6.92429 6.82649
#
# Compressibility (1/GPa) = 0.01779466
#
# Stress axis : x y z
#
# Youngs Moduli (GPa) = 76.47907 92.20608 85.61451
#
# Poissons Ratio (x) = 0.26462 0.23559
# Poissons Ratio (y) = 0.21948 0.28095
# Poissons Ratio (z) = 0.21045 0.30259
#
# Static dielectric constant tensor:
#      x y z
#    x 3.527730 0.000000 0.073620 
#    y 0.000000 3.908570 0.000000 
#    z 0.073620 0.000000 3.450330 
# 
# 
# High freq. dielectric constant tensor:
#      x y z
#    x 1.743390 0.000000 0.007570 
#    y 0.000000 1.787650 0.000000 
#    z 0.007570 0.000000 1.757190 
# 
# From -- ./inp_files/16108.got.cif
#   From: 2010.03.12/outbox.cif.g09.slc.cpg/sg4_9_cif.got.tgz:16108.got - 2010.03.31 09:31:35.
