data_PCOD8045397
_publ_section_title
;
Structure prediction by ZEFSAII (Michael W. Deem and Ramdas Pophale) SiO2 
 PCOD8045397
Probable space group: P 2
;
_chemical_formula_sum "Si O2"
_cell_formula_units_Z 14
_cell_length_a 6.146672
_cell_length_b 5.932564
_cell_length_c 16.493414
_cell_angle_alpha 90.000000
_cell_angle_beta 93.598392
_cell_angle_gamma 90.000000
_cell_volume 600.255254
_symmetry_space_group_name_H-M "P 2"
_symmetry_group_IT_number 3
_symmetry_cell_setting 'monoclinic'
loop_
_space_group_symop_operation_xyz
x,y,z
-x,y,-z
loop_
_atom_site_type_symbol
_atom_site_label
_atom_site_fract_x
_atom_site_fract_y
_atom_site_fract_z
Si Si1 0.546569 0.875000 0.782045
Si Si2 0.096459 0.531551 0.150147
Si Si3 0.000000 0.817287 0.000000
Si Si4 0.525242 0.198422 0.642131
Si Si5 0.643525 0.144320 0.932853
Si Si6 0.500000 0.883244 0.500000
Si Si7 0.808107 0.547898 0.288454
Si Si8 0.856126 0.537664 0.570579
O O1 0.729696 0.686353 0.799100
O O2 0.325846 0.764438 0.744220
O O3 0.630662 0.052429 0.716931
O O4 0.497956 0.008780 0.864168
O O5 0.963433 0.665846 0.078744
O O6 0.213743 0.324129 0.110718
O O7 0.925030 0.439613 0.212273
O O8 0.212507 0.967059 0.014837
O O9 0.341638 0.361822 0.673137
O O10 0.718810 0.333965 0.604360
O O11 0.416037 0.036558 0.572411
O O12 0.500000 0.263441 0.000000
O O13 0.700750 0.734026 0.534787
O O14 0.985856 0.637244 0.356582
O O15 0.000000 0.441903 0.500000
#
# Coordination Sequence:
#
# PCOD8045397 Si02
#       8
#     2   2   1   2   2   1   2   2
#     4  11  25  45  69  99 137 179 224 277 339 399
#     4  11  25  45  69 100 139 179 227 281 334 399
#     4  10  24  42  68 102 134 180 230 276 340 400
#     4  12  26  46  71 101 135 175 225 277 334 400
#     4  11  24  44  69  99 137 180 227 280 337 397
#     4  12  26  48  70 100 138 176 222 274 338 402
#     4  12  25  45  70  99 135 177 225 276 334 401
#     4  12  26  47  72 101 135 175 223 276 335 401
#
# _framework density 23.323409000000002
#
# number of rings (size 3 to 8) (size 9 to 14) (size 15 to 20)
#    0.000    0.571    0.000    8.571    0.000   13.143 
#    0.000    4.286    0.000    0.000    0.000    0.000 
#    0.000    0.000    0.000    0.000    0.000    0.000 
#
# Total GULP energy -173652.216755 kJ/mol
# GULP energy per Si atom -12403.729768 kJ/mol
# Density = 2.327032 g / cm^3
# Si number density = 23.323409 Si / 1000 Ang^3
#
#
#
# Elastic Constant Matrix: (Units=GPa)
#
#
# Indices 1 2 3 4 5 6 
#
# 1 137.0331 74.4719 102.7959 0.0000 -15.7738 0.0000
# 2 74.4719 132.4171 83.9015 0.0000 -1.9645 0.0000
# 3 102.7959 83.9015 196.7082 0.0000 -3.3702 0.0000
# 4 0.0000 0.0000 0.0000 32.3168 0.0000 -14.1190
# 5 -15.7738 -1.9645 -3.3702 0.0000 66.6845 0.0000
# 6 0.0000 0.0000 0.0000 -14.1190 0.0000 13.7540
#
#
#
# Elastic Compliance Matrix: (Units=1/GPa)
#
#
# Indices 1 2 3 4 5 6 
#
# 1 0.014138 -0.004465 -0.005434 0.000000 0.002938 0.000000
# 2 -0.004465 0.011759 -0.002697 0.000000 -0.000846 0.000000
# 3 -0.005434 -0.002697 0.009058 0.000000 -0.000907 0.000000
# 4 0.000000 0.000000 0.000000 0.056107 0.000000 0.057596
# 5 0.002938 -0.000846 -0.000907 0.000000 0.015620 0.000000
# 6 0.000000 0.000000 0.000000 0.057596 0.000000 0.131831
#
#
# Mechanical properties :
#
#
# Convention : Reuss Voigt Hill
#
# Bulk Modulus (GPa) = 102.41114 109.83300 106.12207
# Shear Modulus (GPa) = 18.72948 36.21699 27.47323
#
# Velocity S-wave (km/s) = 2.83686 3.94486 3.43582
# Velocity P-wave (km/s) = 7.39830 8.24274 7.83191
#
# Compressibility (1/GPa) = 0.00976456
#
# Stress axis : x y z
#
# Youngs Moduli (GPa) = 70.72965 85.03959 110.40091
#
# Poissons Ratio (x) = 0.37971 0.59988
# Poissons Ratio (y) = 0.31581 0.29773
# Poissons Ratio (z) = 0.38432 0.22933
#
# Static dielectric constant tensor:
#      x y z
#    x 4.078220 0.000000 0.029730 
#    y 0.000000 4.198420 0.000000 
#    z 0.029730 0.000000 4.888000 
# 
# 
# High freq. dielectric constant tensor:
#      x y z
#    x 1.915290 0.000000 0.000970 
#    y 0.000000 1.921590 0.000000 
#    z 0.000970 0.000000 1.960880 
# 
# From -- ./inp_files/14614.got.cif
#   From: 2010.03.12/outbox.cif.g09.slc.cpg/sg3_8_cif.got.tgz:14614.got - 2010.03.31 09:20:49.
