data_PCOD8045857
_publ_section_title
;
Structure prediction by ZEFSAII (Michael W. Deem and Ramdas Pophale) SiO2 
 PCOD8045857
Probable space group: P 21
;
_chemical_formula_sum "Si O2"
_cell_formula_units_Z 16
_cell_length_a 27.902447
_cell_length_b 5.137589
_cell_length_c 15.509668
_cell_angle_alpha 90.000000
_cell_angle_beta 156.098066
_cell_angle_gamma 90.000000
_cell_volume 900.832520
_symmetry_space_group_name_H-M "P 21"
_symmetry_group_IT_number 4
_symmetry_cell_setting 'monoclinic'
loop_
_space_group_symop_operation_xyz
x,y,z
-x,1/2+y,-z
loop_
_atom_site_type_symbol
_atom_site_label
_atom_site_fract_x
_atom_site_fract_y
_atom_site_fract_z
Si Si1 0.351311 0.872110 0.227151
Si Si2 0.883232 0.753711 0.368843
Si Si3 0.455847 0.371985 0.317963
Si Si4 0.100330 0.021357 0.780040
Si Si5 0.339920 0.590359 0.793874
Si Si6 0.132604 0.738921 0.558110
Si Si7 0.437398 0.363008 0.793056
Si Si8 0.500534 0.373251 0.191442
O O1 0.369170 0.591660 0.213315
O O2 0.416551 0.893148 0.426065
O O3 0.399903 0.089839 0.241786
O O4 0.211574 0.913777 0.016437
O O5 0.849829 0.702456 0.215082
O O6 0.821864 0.023192 0.297414
O O7 0.026920 0.783754 0.614441
O O8 0.840170 0.522165 0.360045
O O9 0.473684 0.415758 0.246835
O O10 0.008460 0.184622 0.690218
O O11 0.208435 0.702824 0.595270
O O12 0.337895 0.433811 0.700207
O O13 0.436824 0.826545 0.948402
O O14 0.378678 0.401759 0.936685
O O15 0.444396 0.590893 0.733795
O O16 0.407954 0.097978 0.692036
#
# Coordination Sequence:
#
# PCOD8045857 Si02
#       8
#     2   2   2   2   2   2   2   2
#     4  10  23  35  57  70 115 136 179 231 257 288
#     4  10  21  32  45  74 102 132 181 195 251 309
#     4  10  22  38  50  85  95 145 187 216 260 310
#     4  10  21  34  50  70 106 139 168 216 255 295
#     4  10  21  33  50  76 110 128 175 204 268 314
#     4  10  22  30  48  71 100 137 167 206 241 328
#     4  10  20  32  51  74 104 138 158 217 271 307
#     4  10  20  32  53  72 104 133 175 207 263 317
#
# _framework density 17.76135
#
# number of rings (size 3 to 8) (size 9 to 14) (size 15 to 20)
#    1.500    0.500    2.500    0.750    7.000    0.000 
#    0.000    0.000    0.000    0.000    0.000    1.750 
#    0.000    0.000    0.000    0.000    0.000    0.000 
#
# Total GULP energy -198236.656356 kJ/mol
# GULP energy per Si atom -12389.791022 kJ/mol
# Density = 1.772092 g / cm^3
# Si number density = 17.761350 Si / 1000 Ang^3
#
#
#
# Elastic Constant Matrix: (Units=GPa)
#
#
# Indices 1 2 3 4 5 6 
#
# 1 67.9129 -3.3949 2.1656 0.0000 1.7129 0.0000
# 2 -3.3949 77.6317 -12.3415 0.0000 -5.6299 0.0000
# 3 2.1656 -12.3415 49.7678 0.0000 0.6720 0.0000
# 4 0.0000 0.0000 0.0000 14.5942 0.0000 0.6799
# 5 1.7129 -5.6299 0.6720 0.0000 18.7612 0.0000
# 6 0.0000 0.0000 0.0000 0.6799 0.0000 21.6388
#
#
#
# Elastic Compliance Matrix: (Units=1/GPa)
#
#
# Indices 1 2 3 4 5 6 
#
# 1 0.014795 0.000480 -0.000509 0.000000 -0.001189 0.000000
# 2 0.000480 0.013718 0.003328 0.000000 0.003954 0.000000
# 3 -0.000509 0.003328 0.020937 0.000000 0.000295 0.000000
# 4 0.000000 0.000000 0.000000 0.068621 0.000000 -0.002156
# 5 -0.001189 0.003954 0.000295 0.000000 0.054586 0.000000
# 6 0.000000 0.000000 0.000000 -0.002156 0.000000 0.046281
#
#
# Mechanical properties :
#
#
# Convention : Reuss Voigt Hill
#
# Bulk Modulus (GPa) = 17.84212 18.68563 18.26388
# Shear Modulus (GPa) = 21.64295 24.92439 23.28367
#
# Velocity S-wave (km/s) = 3.49455 3.75012 3.62459
# Velocity P-wave (km/s) = 5.13320 5.41243 5.27467
#
# Compressibility (1/GPa) = 0.05604716
#
# Stress axis : x y z
#
# Youngs Moduli (GPa) = 67.59069 72.89671 47.76314
#
# Poissons Ratio (x) = -0.03499 0.02430
# Poissons Ratio (y) = -0.03244 -0.15893
# Poissons Ratio (z) = 0.03439 -0.24257
#
# Static dielectric constant tensor:
#      x y z
#    x 3.010180 0.000000 0.125310 
#    y 0.000000 3.401220 0.000000 
#    z 0.125310 0.000000 3.007400 
# 
# 
# High freq. dielectric constant tensor:
#      x y z
#    x 1.665710 0.000000 0.021260 
#    y 0.000000 1.705240 0.000000 
#    z 0.021260 0.000000 1.637660 
# 
# From -- ./inp_files/15434.got.cif
#   From: 2010.03.12/outbox.cif.g09.slc.cpg/sg4_8_cif.got.tgz:15434.got - 2010.03.31 09:31:35.
