data_PCOD8045645
_publ_section_title
;
Structure prediction by ZEFSAII (Michael W. Deem and Ramdas Pophale) SiO2 
 PCOD8045645
Probable space group: P 21
;
_chemical_formula_sum "Si O2"
_cell_formula_units_Z 16
_cell_length_a 21.083353
_cell_length_b 7.239797
_cell_length_c 12.692481
_cell_angle_alpha 90.000000
_cell_angle_beta 154.562612
_cell_angle_gamma 90.000000
_cell_volume 832.147935
_symmetry_space_group_name_H-M "P 21"
_symmetry_group_IT_number 4
_symmetry_cell_setting 'monoclinic'
loop_
_space_group_symop_operation_xyz
x,y,z
-x,1/2+y,-z
loop_
_atom_site_type_symbol
_atom_site_label
_atom_site_fract_x
_atom_site_fract_y
_atom_site_fract_z
Si Si1 0.999988 0.526540 0.509472
Si Si2 0.687300 0.801120 0.786192
Si Si3 0.316938 0.610839 0.050555
Si Si4 0.453722 0.479385 0.049392
Si Si5 0.683059 0.610814 0.099752
Si Si6 0.453715 0.979410 0.311764
Si Si7 0.312710 0.801080 0.724298
Si Si8 0.000002 0.213876 0.682796
O O1 0.000006 0.339732 0.576368
O O2 0.850598 0.639066 0.312849
O O3 0.999978 0.514129 0.378497
O O4 0.149393 0.639066 0.761023
O O5 0.622510 0.909694 0.586837
O O6 0.595251 0.613209 0.666209
O O7 0.666110 0.929129 0.855288
O O8 0.860012 0.750485 0.031731
O O9 0.350819 0.798773 0.162645
O O10 0.433580 0.585419 0.129354
O O11 0.404775 0.613191 0.880489
O O12 0.350813 0.298766 0.889811
O O13 0.622517 0.409657 0.280711
O O14 0.666098 0.429128 0.143051
O O15 0.566406 0.585411 0.828603
O O16 0.139988 0.750465 0.451705
#
# Coordination Sequence:
#
# PCOD8045645 Si02
#       8
#     2   2   2   2   2   2   2   2
#     4  10  18  32  54  84 116 138 172 224 302 347
#     4  11  23  35  56  85 118 145 190 229 281 335
#     4  11  21  34  57  86 115 149 182 229 285 342
#     4  12  21  36  56  84 114 152 186 227 279 343
#     4  11  21  34  57  86 115 149 182 229 285 342
#     4  12  21  36  56  84 114 152 186 227 279 343
#     4  11  23  35  56  85 118 145 190 229 281 335
#     4  10  20  34  52  84 114 146 178 234 280 349
#
# _framework density 19.227350000000001
#
# number of rings (size 3 to 8) (size 9 to 14) (size 15 to 20)
#    0.000    1.000    7.500    1.500    0.000    0.000 
#    0.000    0.000    0.000    1.500    0.000    0.000 
#    0.000    0.000    0.000    0.000    0.000    0.000 
#
# Total GULP energy -198216.934446 kJ/mol
# GULP energy per Si atom -12388.558403 kJ/mol
# Density = 1.918359 g / cm^3
# Si number density = 19.227350 Si / 1000 Ang^3
#
#
#
# Elastic Constant Matrix: (Units=GPa)
#
#
# Indices 1 2 3 4 5 6 
#
# 1 60.3161 11.6031 35.8271 0.0000 19.0712 0.0000
# 2 11.6031 81.1031 24.2612 0.0000 5.3560 0.0000
# 3 35.8271 24.2612 118.1016 0.0000 5.4653 0.0000
# 4 0.0000 0.0000 0.0000 22.5025 0.0000 -2.0767
# 5 19.0712 5.3560 5.4653 0.0000 28.9448 0.0000
# 6 0.0000 0.0000 0.0000 -2.0767 0.0000 27.3777
#
#
#
# Elastic Compliance Matrix: (Units=1/GPa)
#
#
# Indices 1 2 3 4 5 6 
#
# 1 0.025745 -0.000571 -0.006974 0.000000 -0.015541 0.000000
# 2 -0.000571 0.013259 -0.002476 0.000000 -0.001610 0.000000
# 3 -0.006974 -0.002476 0.010953 0.000000 0.002985 0.000000
# 4 0.000000 0.000000 0.000000 0.044753 0.000000 0.003395
# 5 -0.015541 -0.001610 0.002985 0.000000 0.044522 0.000000
# 6 0.000000 0.000000 0.000000 0.003395 0.000000 0.036784
#
#
# Mechanical properties :
#
#
# Convention : Reuss Voigt Hill
#
# Bulk Modulus (GPa) = 33.42678 44.76709 39.09694
# Shear Modulus (GPa) = 24.26847 28.28696 26.27772
#
# Velocity S-wave (km/s) = 3.55658 3.83976 3.70088
# Velocity P-wave (km/s) = 5.85563 6.55682 6.21612
#
# Compressibility (1/GPa) = 0.02991613
#
# Stress axis : x y z
#
# Youngs Moduli (GPa) = 38.84231 75.42250 91.29678
#
# Poissons Ratio (x) = 0.04306 0.63666
# Poissons Ratio (y) = 0.02217 0.22605
# Poissons Ratio (z) = 0.27087 0.18675
#
# Static dielectric constant tensor:
#      x y z
#    x 3.299260 0.000000 0.167980 
#    y 0.000000 3.769100 0.000000 
#    z 0.167980 0.000000 3.694680 
# 
# 
# High freq. dielectric constant tensor:
#      x y z
#    x 1.703070 0.000000 0.015810 
#    y 0.000000 1.770440 0.000000 
#    z 0.015810 0.000000 1.740280 
# 
# From -- ./inp_files/14564.got.cif
#   From: 2010.03.12/outbox.cif.g09.slc.cpg/sg4_8_cif.got.tgz:14564.got - 2010.03.31 09:31:35.
