data_PCOD8045516
_publ_section_title
;
Structure prediction by ZEFSAII (Michael W. Deem and Ramdas Pophale) SiO2 
 PCOD8045516
Probable space group: P 2
;
_chemical_formula_sum "Si O2"
_cell_formula_units_Z 11
_cell_length_a 14.364720
_cell_length_b 6.278055
_cell_length_c 14.442885
_cell_angle_alpha 90.000000
_cell_angle_beta 159.608038
_cell_angle_gamma 90.000000
_cell_volume 453.842255
_symmetry_space_group_name_H-M "P 2"
_symmetry_group_IT_number 3
_symmetry_cell_setting 'monoclinic'
loop_
_space_group_symop_operation_xyz
x,y,z
-x,y,-z
loop_
_atom_site_type_symbol
_atom_site_label
_atom_site_fract_x
_atom_site_fract_y
_atom_site_fract_z
Si Si1 0.606408 0.481660 0.948558
Si Si2 0.214504 0.831901 0.629492
Si Si3 0.500000 0.183279 0.000000
Si Si4 0.602947 0.378500 0.428027
Si Si5 0.066397 0.129423 0.957693
Si Si6 0.952641 0.746743 0.727434
O O1 0.478225 0.689086 0.875358
O O2 0.396788 0.363973 0.683826
O O3 0.685275 0.322619 0.104080
O O4 0.858432 0.546001 0.120916
O O5 0.111163 0.866894 0.428369
O O6 0.000000 0.724776 0.500000
O O7 0.289957 0.056699 0.743074
O O8 0.690957 0.628850 0.530602
O O9 0.807845 0.221786 0.666681
O O10 0.309711 0.298849 0.188113
O O11 0.112263 0.907488 0.944374
O O12 0.000000 0.065330 0.000000
#
# Coordination Sequence:
#
# PCOD8045516 Si02
#       6
#     2   2   1   2   2   2
#     4  11  25  46  71 106 152 202 253 311 383 454
#     4  11  25  41  69 107 149 201 258 308 376 461
#     4  12  24  40  68 104 152 198 252 316 372 450
#     4  11  26  49  79 112 153 201 255 317 390 468
#     4  12  28  51  79 117 153 200 262 323 395 470
#     4  11  26  49  78 110 158 205 256 322 389 462
#
# _framework density 24.237496
#
# number of rings (size 3 to 8) (size 9 to 14) (size 15 to 20)
#    0.000    0.727    1.818    4.364   10.182    4.364 
#    3.273    0.000    0.000    0.000    0.000    0.000 
#    0.000    0.000    0.000    0.000    0.000    0.000 
#
# Total GULP energy -136296.043296 kJ/mol
# GULP energy per Si atom -12390.549391 kJ/mol
# Density = 2.418233 g / cm^3
# Si number density = 24.237496 Si / 1000 Ang^3
#
#
#
# Elastic Constant Matrix: (Units=GPa)
#
#
# Indices 1 2 3 4 5 6 
#
# 1 135.7977 75.4631 49.4065 0.0000 -11.1414 0.0000
# 2 75.4631 97.5011 52.7943 0.0000 -19.0193 0.0000
# 3 49.4065 52.7943 125.0079 0.0000 -4.3679 0.0000
# 4 0.0000 0.0000 0.0000 36.1944 0.0000 4.4902
# 5 -11.1414 -19.0193 -4.3679 0.0000 33.6824 0.0000
# 6 0.0000 0.0000 0.0000 4.4902 0.0000 28.7243
#
#
#
# Elastic Compliance Matrix: (Units=1/GPa)
#
#
# Indices 1 2 3 4 5 6 
#
# 1 0.013103 -0.009821 -0.001078 0.000000 -0.001351 0.000000
# 2 -0.009821 0.022420 -0.005282 0.000000 0.008726 0.000000
# 3 -0.001078 -0.005282 0.010588 0.000000 -0.001966 0.000000
# 4 0.000000 0.000000 0.000000 0.028175 0.000000 -0.004404
# 5 -0.001351 0.008726 -0.001966 0.000000 0.033914 0.000000
# 6 0.000000 0.000000 0.000000 -0.004404 0.000000 0.035502
#
#
# Mechanical properties :
#
#
# Convention : Reuss Voigt Hill
#
# Bulk Modulus (GPa) = 72.73867 79.29273 76.01570
# Shear Modulus (GPa) = 27.67827 31.76307 29.72067
#
# Velocity S-wave (km/s) = 3.38296 3.62400 3.50555
# Velocity P-wave (km/s) = 6.73314 7.09204 6.91492
#
# Compressibility (1/GPa) = 0.01374785
#
# Stress axis : x y z
#
# Youngs Moduli (GPa) = 76.31908 44.60340 94.44967
#
# Poissons Ratio (x) = 0.43805 0.10183
# Poissons Ratio (y) = 0.74954 0.49889
# Poissons Ratio (z) = 0.08228 0.23560
#
# Static dielectric constant tensor:
#      x y z
#    x 4.456750 0.000000 -0.095880 
#    y 0.000000 4.319810 0.000000 
#    z -0.095880 0.000000 4.532440 
# 
# 
# High freq. dielectric constant tensor:
#      x y z
#    x 1.953200 0.000000 -0.014250 
#    y 0.000000 1.958440 0.000000 
#    z -0.014250 0.000000 1.972280 
# 
# From -- ./inp_files/2734.got.cif
#   From: 2010.03.12/outbox.cif.g09.slc.cpg/sg3_2_cif.got.tgz:2734.got - 2010.03.31 09:20:49.
