data_PCOD8045845
_publ_section_title
;
Structure prediction by ZEFSAII (Michael W. Deem and Ramdas Pophale) SiO2 
 PCOD8045845
Probable space group: P 21
;
_chemical_formula_sum "Si O2"
_cell_formula_units_Z 12
_cell_length_a 6.577030
_cell_length_b 11.888243
_cell_length_c 7.748628
_cell_angle_alpha 90.000000
_cell_angle_beta 103.411942
_cell_angle_gamma 90.000000
_cell_volume 589.336754
_symmetry_space_group_name_H-M "P 21"
_symmetry_group_IT_number 4
_symmetry_cell_setting 'monoclinic'
loop_
_space_group_symop_operation_xyz
x,y,z
-x,1/2+y,-z
loop_
_atom_site_type_symbol
_atom_site_label
_atom_site_fract_x
_atom_site_fract_y
_atom_site_fract_z
Si Si1 0.467826 0.345830 0.756603
Si Si2 0.920448 0.973529 0.796910
Si Si3 0.271205 0.796395 0.861382
Si Si4 0.676173 0.049284 0.070549
Si Si5 0.477819 0.923327 0.595968
Si Si6 0.708797 0.610354 0.247710
O O1 0.349187 0.460378 0.780748
O O2 0.580981 0.362214 0.594282
O O3 0.304131 0.242367 0.714327
O O4 0.642739 0.316670 0.930229
O O5 0.050939 0.858846 0.806023
O O6 0.721669 0.956394 0.635035
O O7 0.056555 0.081430 0.765439
O O8 0.846959 0.997410 0.976162
O O9 0.236797 0.663677 0.827602
O O10 0.433048 0.840846 0.749113
O O11 0.454551 0.070945 0.932437
O O12 0.343549 0.037821 0.590789
#
# Coordination Sequence:
#
# PCOD8045845 Si02
#       6
#     2   2   2   2   2   2
#     4  11  21  41  64  86 118 162 198 238 305 354
#     4  10  19  42  59  85 125 152 194 260 290 342
#     4  10  22  42  61  86 120 160 199 247 297 349
#     4  10  21  37  64  88 116 161 201 239 300 356
#     4  10  22  41  59  88 123 151 200 253 291 353
#     4   9  21  41  61  87 122 156 196 251 295 350
#
# _framework density 20.361874
#
# number of rings (size 3 to 8) (size 9 to 14) (size 15 to 20)
#    0.000    2.000    5.000    0.000    4.667    0.000 
#    9.000    0.000    0.000    0.000    0.000    0.000 
#    0.000    0.000    0.000    0.000    0.000    0.000 
#
# Total GULP energy -148797.775082 kJ/mol
# GULP energy per Si atom -12399.814590 kJ/mol
# Density = 2.031553 g / cm^3
# Si number density = 20.361874 Si / 1000 Ang^3
#
#
#
# Elastic Constant Matrix: (Units=GPa)
#
#
# Indices 1 2 3 4 5 6 
#
# 1 90.3508 16.6509 22.2773 0.0000 -15.8758 0.0000
# 2 16.6509 149.7259 32.9100 0.0000 -12.7857 0.0000
# 3 22.2773 32.9100 104.0251 0.0000 -18.6178 0.0000
# 4 0.0000 0.0000 0.0000 26.8880 0.0000 -5.6997
# 5 -15.8758 -12.7857 -18.6178 0.0000 13.9324 0.0000
# 6 0.0000 0.0000 0.0000 -5.6997 0.0000 21.6686
#
#
#
# Elastic Compliance Matrix: (Units=1/GPa)
#
#
# Indices 1 2 3 4 5 6 
#
# 1 0.013846 -0.000192 -0.000148 0.000000 0.015405 0.000000
# 2 -0.000192 0.007419 -0.001481 0.000000 0.004611 0.000000
# 3 -0.000148 -0.001481 0.012933 0.000000 0.015755 0.000000
# 4 0.000000 0.000000 0.000000 0.039387 0.000000 0.010360
# 5 0.015405 0.004611 0.015755 0.000000 0.114613 0.000000
# 6 0.000000 0.000000 0.000000 0.010360 0.000000 0.048875
#
#
# Mechanical properties :
#
#
# Convention : Reuss Voigt Hill
#
# Bulk Modulus (GPa) = 32.72447 54.19758 43.46102
# Shear Modulus (GPa) = 19.92814 30.64871 25.28842
#
# Velocity S-wave (km/s) = 3.13181 3.88390 3.52795
# Velocity P-wave (km/s) = 5.40222 6.84017 6.16327
#
# Compressibility (1/GPa) = 0.03055817
#
# Stress axis : x y z
#
# Youngs Moduli (GPa) = 72.22042 134.78013 77.32206
#
# Poissons Ratio (x) = 0.02587 0.01141
# Poissons Ratio (y) = 0.01386 0.11450
# Poissons Ratio (z) = 0.01065 0.19959
#
# Static dielectric constant tensor:
#      x y z
#    x 3.502700 0.000000 -0.182610 
#    y 0.000000 4.044080 0.000000 
#    z -0.182610 0.000000 3.463500 
# 
# 
# High freq. dielectric constant tensor:
#      x y z
#    x 1.782630 0.000000 -0.017500 
#    y 0.000000 1.809970 0.000000 
#    z -0.017500 0.000000 1.777350 
# 
# From -- ./inp_files/1096.got.cif
#   From: 2010.03.12/outbox.cif.g09.slc.cpg/sg4_1_cif.got.tgz:1096.got - 2010.03.31 09:31:35.
