data_PCOD8045701
_publ_section_title
;
Structure prediction by ZEFSAII (Michael W. Deem and Ramdas Pophale) SiO2 
 PCOD8045701
Probable space group: P 21
;
_chemical_formula_sum "Si O2"
_cell_formula_units_Z 12
_cell_length_a 17.603871
_cell_length_b 5.109888
_cell_length_c 10.813480
_cell_angle_alpha 90.000000
_cell_angle_beta 144.168566
_cell_angle_gamma 90.000000
_cell_volume 569.429098
_symmetry_space_group_name_H-M "P 21"
_symmetry_group_IT_number 4
_symmetry_cell_setting 'monoclinic'
loop_
_space_group_symop_operation_xyz
x,y,z
-x,1/2+y,-z
loop_
_atom_site_type_symbol
_atom_site_label
_atom_site_fract_x
_atom_site_fract_y
_atom_site_fract_z
Si Si1 0.351677 0.772780 0.439371
Si Si2 0.335162 0.468968 0.829146
Si Si3 0.076463 0.471644 0.637842
Si Si4 0.396407 0.027253 0.258725
Si Si5 0.241569 0.548971 0.066252
Si Si6 0.627034 0.468091 0.274741
O O1 0.464689 0.564517 0.624216
O O2 0.236655 0.627919 0.207280
O O3 0.303959 0.912206 0.501257
O O4 0.421214 0.983528 0.439550
O O5 0.217563 0.415664 0.766325
O O6 0.319537 0.756084 0.751226
O O7 0.329965 0.254297 0.712580
O O8 0.471125 0.441069 0.081727
O O9 0.993274 0.208481 0.523523
O O10 0.099695 0.546305 0.813859
O O11 0.300629 0.268192 0.117836
O O12 0.327870 0.771266 0.109516
#
# Coordination Sequence:
#
# PCOD8045701 Si02
#       6
#     2   2   2   2   2   2
#     4  10  20  32  58  91 124 162 192 253 317 370
#     4  10  23  40  58  94 124 171 200 243 312 383
#     4  12  25  43  67  87 120 168 221 273 292 352
#     4  10  19  31  53  93 125 155 193 249 318 374
#     4  10  21  35  55  89 118 153 204 266 306 350
#     4  10  22  37  63  90 135 159 192 244 323 403
#
# _framework density 21.073740000000001
#
# number of rings (size 3 to 8) (size 9 to 14) (size 15 to 20)
#    1.000    0.667    1.667    3.000    2.333    4.000 
#    0.000    0.000    0.000    4.000    0.000    0.000 
#    0.000    0.000    0.000    0.000    0.000    0.000 
#
# Total GULP energy -148705.812585 kJ/mol
# GULP energy per Si atom -12392.151049 kJ/mol
# Density = 2.102577 g / cm^3
# Si number density = 21.073740 Si / 1000 Ang^3
#
#
#
# Elastic Constant Matrix: (Units=GPa)
#
#
# Indices 1 2 3 4 5 6 
#
# 1 49.3092 -1.8638 25.3464 0.0000 -5.5637 0.0000
# 2 -1.8638 105.0567 20.0080 0.0000 6.1894 0.0000
# 3 25.3464 20.0080 87.8844 0.0000 -12.5674 0.0000
# 4 0.0000 0.0000 0.0000 34.7287 0.0000 -0.9446
# 5 -5.5637 6.1894 -12.5674 0.0000 23.8783 0.0000
# 6 0.0000 0.0000 0.0000 -0.9446 0.0000 23.8731
#
#
#
# Elastic Compliance Matrix: (Units=1/GPa)
#
#
# Indices 1 2 3 4 5 6 
#
# 1 0.024186 0.001709 -0.007161 0.000000 0.001424 0.000000
# 2 0.001709 0.010452 -0.003464 0.000000 -0.004134 0.000000
# 3 -0.007161 -0.003464 0.015272 0.000000 0.007267 0.000000
# 4 0.000000 0.000000 0.000000 0.028826 0.000000 0.001141
# 5 0.001424 -0.004134 0.007267 0.000000 0.047107 0.000000
# 6 0.000000 0.000000 0.000000 0.001141 0.000000 0.041933
#
#
# Mechanical properties :
#
#
# Convention : Reuss Voigt Hill
#
# Bulk Modulus (GPa) = 31.17313 36.58128 33.87721
# Shear Modulus (GPa) = 25.47121 29.74667 27.60894
#
# Velocity S-wave (km/s) = 3.48037 3.76114 3.62347
# Velocity P-wave (km/s) = 5.56553 6.02146 5.79798
#
# Compressibility (1/GPa) = 0.03207891
#
# Stress axis : x y z
#
# Youngs Moduli (GPa) = 41.34559 95.67373 65.48129
#
# Poissons Ratio (x) = -0.16351 0.46891
# Poissons Ratio (y) = -0.07066 0.22680
# Poissons Ratio (z) = 0.29608 0.33138
#
# Static dielectric constant tensor:
#      x y z
#    x 3.333920 0.000000 -0.294370 
#    y 0.000000 3.924730 0.000000 
#    z -0.294370 0.000000 3.777200 
# 
# 
# High freq. dielectric constant tensor:
#      x y z
#    x 1.779340 0.000000 -0.034950 
#    y 0.000000 1.847440 0.000000 
#    z -0.034950 0.000000 1.808690 
# 
# From -- ./inp_files/12829.got.cif
#   From: 2010.03.12/outbox.cif.g09.slc.cpg/sg4_7_cif.got.tgz:12829.got - 2010.03.31 09:31:35.
