data_PCOD8045213
_publ_section_title
;
Structure prediction by ZEFSAII (Michael W. Deem and Ramdas Pophale) SiO2 
 PCOD8045213
Probable space group: P 2
;
_chemical_formula_sum "Si O2"
_cell_formula_units_Z 14
_cell_length_a 8.441467
_cell_length_b 7.315614
_cell_length_c 16.946724
_cell_angle_alpha 90.000000
_cell_angle_beta 139.718546
_cell_angle_gamma 90.000000
_cell_volume 676.630855
_symmetry_space_group_name_H-M "P 2"
_symmetry_group_IT_number 3
_symmetry_cell_setting 'monoclinic'
loop_
_space_group_symop_operation_xyz
x,y,z
-x,y,-z
loop_
_atom_site_type_symbol
_atom_site_label
_atom_site_fract_x
_atom_site_fract_y
_atom_site_fract_z
Si Si1 0.810684 0.775250 0.764499
Si Si2 0.551956 0.430323 0.643549
Si Si3 0.028515 0.284412 0.422980
Si Si4 0.288367 0.963743 0.116334
Si Si5 0.668314 0.655897 0.987325
Si Si6 0.245407 0.087392 0.370448
Si Si7 0.505366 0.361112 0.803441
O O1 0.638472 0.632735 0.651910
O O2 0.663532 0.862879 0.782233
O O3 0.884611 0.940014 0.734613
O O4 0.048890 0.662697 0.881004
O O5 0.266150 0.415521 0.512244
O O6 0.708750 0.276695 0.658551
O O7 0.610066 0.418749 0.758656
O O8 0.063972 0.119882 0.374845
O O9 0.000000 0.199729 0.500000
O O10 0.787547 0.397072 0.306381
O O11 0.443002 0.147151 0.166185
O O12 0.391725 0.835027 0.086471
O O13 0.000000 0.006170 0.000000
O O14 0.631805 0.474376 0.921094
O O15 0.500000 0.647704 0.000000
O O16 0.500000 0.007599 0.500000
#
# Coordination Sequence:
#
# PCOD8045213 Si02
#       7
#     2   2   2   2   2   2   2
#     4  11  23  42  69  95 127 166 220 273 311 378
#     4  10  21  41  69  95 127 162 218 266 315 386
#     4   9  22  42  67  97 129 167 210 261 327 388
#     4  10  23  41  67  92 122 171 221 264 320 378
#     4  11  27  42  59  99 132 167 220 262 322 386
#     4  10  22  41  66  98 126 165 216 262 320 384
#     4  11  22  42  69  88 132 174 205 269 329 374
#
# _framework density 20.690749
#
# number of rings (size 3 to 8) (size 9 to 14) (size 15 to 20)
#    0.000    1.714    2.857    0.000    6.000    2.286 
#    0.000    0.000    0.000    0.000    0.000    0.000 
#    0.000    0.000    0.000    0.000    0.000    0.000 
#
# Total GULP energy -173610.311673 kJ/mol
# GULP energy per Si atom -12400.736548 kJ/mol
# Density = 2.064366 g / cm^3
# Si number density = 20.690749 Si / 1000 Ang^3
#
#
#
# Elastic Constant Matrix: (Units=GPa)
#
#
# Indices 1 2 3 4 5 6 
#
# 1 120.4126 51.4042 46.4843 0.0000 -14.9028 0.0000
# 2 51.4042 133.2018 62.1372 0.0000 0.3763 0.0000
# 3 46.4843 62.1372 98.7279 0.0000 -8.3542 0.0000
# 4 0.0000 0.0000 0.0000 30.7242 0.0000 -7.7862
# 5 -14.9028 0.3763 -8.3542 0.0000 29.5564 0.0000
# 6 0.0000 0.0000 0.0000 -7.7862 0.0000 23.4752
#
#
#
# Elastic Compliance Matrix: (Units=1/GPa)
#
#
# Indices 1 2 3 4 5 6 
#
# 1 0.011362 -0.002968 -0.003067 0.000000 0.004900 0.000000
# 2 -0.002968 0.011529 -0.006145 0.000000 -0.003380 0.000000
# 3 -0.003067 -0.006145 0.015691 0.000000 0.002967 0.000000
# 4 0.000000 0.000000 0.000000 0.035535 0.000000 0.011786
# 5 0.004900 -0.003380 0.002967 0.000000 0.037186 0.000000
# 6 0.000000 0.000000 0.000000 0.011786 0.000000 0.046507
#
#
# Mechanical properties :
#
#
# Convention : Reuss Voigt Hill
#
# Bulk Modulus (GPa) = 70.30861 74.71042 72.50951
# Shear Modulus (GPa) = 26.75085 29.57226 28.16156
#
# Velocity S-wave (km/s) = 3.59958 3.78464 3.69327
# Velocity P-wave (km/s) = 7.16452 7.43536 7.30120
#
# Compressibility (1/GPa) = 0.01422301
#
# Stress axis : x y z
#
# Youngs Moduli (GPa) = 88.01068 86.74055 63.72974
#
# Poissons Ratio (x) = 0.25743 0.19547
# Poissons Ratio (y) = 0.26120 0.39159
# Poissons Ratio (z) = 0.26995 0.53298
#
# Static dielectric constant tensor:
#      x y z
#    x 3.862530 0.000000 -0.165520 
#    y 0.000000 3.559780 0.000000 
#    z -0.165520 0.000000 3.820430 
# 
# 
# High freq. dielectric constant tensor:
#      x y z
#    x 1.814650 0.000000 -0.012050 
#    y 0.000000 1.798640 0.000000 
#    z -0.012050 0.000000 1.813120 
# 
# From -- ./inp_files/8802.got.cif
#   From: 2010.03.12/outbox.cif.g09.slc.cpg/sg3_5_cif.got.tgz:8802.got - 2010.03.31 09:20:49.
