data_PCOD8045824
_publ_section_title
;
Structure prediction by ZEFSAII (Michael W. Deem and Ramdas Pophale) SiO2 
 PCOD8045824
Probable space group: P 21
;
_chemical_formula_sum "Si O2"
_cell_formula_units_Z 14
_cell_length_a 9.663090
_cell_length_b 9.883778
_cell_length_c 6.262115
_cell_angle_alpha 90.000000
_cell_angle_beta 57.189044
_cell_angle_gamma 90.000000
_cell_volume 502.665000
_symmetry_space_group_name_H-M "P 21"
_symmetry_group_IT_number 4
_symmetry_cell_setting 'monoclinic'
loop_
_space_group_symop_operation_xyz
x,y,z
-x,1/2+y,-z
loop_
_atom_site_type_symbol
_atom_site_label
_atom_site_fract_x
_atom_site_fract_y
_atom_site_fract_z
Si Si1 0.522677 0.802420 0.064302
Si Si2 0.866645 0.930063 0.343865
Si Si3 0.193964 0.812620 0.164177
Si Si4 0.651377 0.174574 0.400721
Si Si5 0.126811 0.895204 0.675527
Si Si6 0.319526 0.168032 0.433870
Si Si7 0.206884 0.499724 0.108391
O O1 0.382191 0.868778 0.025428
O O2 0.425140 0.701936 0.302933
O O3 0.657902 0.710940 0.831532
O O4 0.618824 0.927452 0.092713
O O5 0.781040 0.786534 0.364529
O O6 0.065875 0.910738 0.139652
O O7 0.772466 0.043417 0.279406
O O8 0.838827 0.980961 0.607426
O O9 0.116254 0.802154 0.469973
O O10 0.212874 0.659986 0.050099
O O11 0.761296 0.310010 0.247218
O O12 0.500898 0.149670 0.372012
O O13 0.216794 0.032221 0.534074
O O14 0.940174 0.927301 0.910241
#
# Coordination Sequence:
#
# PCOD8045824 Si02
#       7
#     2   2   2   2   2   2   2
#     4  10  24  39  70  96 129 168 227 275 324 388
#     4  10  20  39  63  93 135 175 212 272 334 394
#     4  10  20  37  66  96 131 170 223 268 330 398
#     4  11  23  42  64 100 134 170 226 272 328 401
#     4  10  21  38  65  96 130 179 218 264 341 399
#     4  11  23  40  68  94 134 179 216 273 336 392
#     4  10  19  39  64  97 131 171 220 272 329 396
#
# _framework density 27.85155
#
# number of rings (size 3 to 8) (size 9 to 14) (size 15 to 20)
#    0.000    1.714    4.286    0.857    4.000    0.000 
#    0.000    1.429    0.000    3.429    0.000    0.000 
#    0.000    0.000    0.000    0.000    0.000    0.000 
#
# Total GULP energy -173617.911197 kJ/mol
# GULP energy per Si atom -12401.279371 kJ/mol
# Density = 2.778816 g / cm^3
# Si number density = 27.851550 Si / 1000 Ang^3
#
#
#
# Elastic Constant Matrix: (Units=GPa)
#
#
# Indices 1 2 3 4 5 6 
#
# 1 180.5617 79.7144 53.8154 0.0000 -30.7447 0.0000
# 2 79.7144 192.1139 71.9774 0.0000 -21.9049 0.0000
# 3 53.8154 71.9774 113.6897 0.0000 -43.1607 0.0000
# 4 0.0000 0.0000 0.0000 60.4162 0.0000 -7.6711
# 5 -30.7447 -21.9049 -43.1607 0.0000 50.2507 0.0000
# 6 0.0000 0.0000 0.0000 -7.6711 0.0000 59.4558
#
#
#
# Elastic Compliance Matrix: (Units=1/GPa)
#
#
# Indices 1 2 3 4 5 6 
#
# 1 0.007321 -0.002377 -0.000970 0.000000 0.002610 0.000000
# 2 -0.002377 0.007636 -0.004448 0.000000 -0.001946 0.000000
# 3 -0.000970 -0.004448 0.016485 0.000000 0.011627 0.000000
# 4 0.000000 0.000000 0.000000 0.016828 0.000000 0.002171
# 5 0.002610 -0.001946 0.011627 0.000000 0.030635 0.000000
# 6 0.000000 0.000000 0.000000 0.002171 0.000000 0.017099
#
#
# Mechanical properties :
#
#
# Convention : Reuss Voigt Hill
#
# Bulk Modulus (GPa) = 63.08084 99.70885 81.39485
# Shear Modulus (GPa) = 42.77966 52.74842 47.76404
#
# Velocity S-wave (km/s) = 3.92342 4.35663 4.14569
# Velocity P-wave (km/s) = 6.57438 7.82207 7.22521
#
# Compressibility (1/GPa) = 0.01585267
#
# Stress axis : x y z
#
# Youngs Moduli (GPa) = 136.59226 130.95638 60.66117
#
# Poissons Ratio (x) = 0.31126 0.05883
# Poissons Ratio (y) = 0.32465 0.26983
# Poissons Ratio (z) = 0.13246 0.58252
#
# Static dielectric constant tensor:
#      x y z
#    x 5.734050 0.000000 -0.024920 
#    y 0.000000 5.047480 0.000000 
#    z -0.024920 0.000000 5.517720 
# 
# 
# High freq. dielectric constant tensor:
#      x y z
#    x 2.152130 0.000000 0.010180 
#    y 0.000000 2.115350 0.000000 
#    z 0.010180 0.000000 2.177030 
# 
# From -- ./inp_files/5257.got.cif
#   From: 2010.03.12/outbox.cif.g09.slc.cpg/sg4_3_cif.got.tgz:5257.got - 2010.03.31 09:31:35.
