data_PCOD8045443
_publ_section_title
;
Structure prediction by ZEFSAII (Michael W. Deem and Ramdas Pophale) SiO2 
 PCOD8045443
Probable space group: P 2
;
_chemical_formula_sum "Si O2"
_cell_formula_units_Z 14
_cell_length_a 8.878212
_cell_length_b 6.613181
_cell_length_c 17.591214
_cell_angle_alpha 90.000000
_cell_angle_beta 35.746795
_cell_angle_gamma 90.000000
_cell_volume 603.387706
_symmetry_space_group_name_H-M "P 2"
_symmetry_group_IT_number 3
_symmetry_cell_setting 'monoclinic'
loop_
_space_group_symop_operation_xyz
x,y,z
-x,y,-z
loop_
_atom_site_type_symbol
_atom_site_label
_atom_site_fract_x
_atom_site_fract_y
_atom_site_fract_z
Si Si1 0.186279 0.640550 0.506871
Si Si2 0.500000 0.466631 0.500000
Si Si3 0.206070 0.909577 0.123163
Si Si4 0.576931 0.990502 0.692993
Si Si5 0.819578 0.237955 0.241519
Si Si6 0.000000 0.284668 0.500000
Si Si7 0.347611 0.711140 0.214943
Si Si8 0.871041 0.583909 0.972095
O O1 0.295332 0.619969 0.546842
O O2 0.331434 0.822709 0.406228
O O3 0.210308 0.416811 0.460424
O O4 0.873423 0.657565 0.633223
O O5 0.634664 0.333503 0.380262
O O6 0.189217 0.772260 0.205157
O O7 0.119825 0.781368 0.085125
O O8 0.500000 0.987964 0.000000
O O9 0.018158 0.099553 0.207018
O O10 0.489186 0.887580 0.808483
O O11 0.338526 0.109720 0.755143
O O12 0.811404 0.135508 0.623839
O O13 0.982945 0.402199 0.128299
O O14 0.561794 0.536936 0.110244
O O15 0.000000 0.631360 0.000000
#
# Coordination Sequence:
#
# PCOD8045443 Si02
#       8
#     2   1   2   2   2   1   2   2
#     4  12  26  46  71 111 153 199 247 314 378 447
#     4  12  30  44  74 110 156 204 242 320 378 452
#     4  10  26  49  72 106 145 193 257 311 383 442
#     4  12  26  45  75 113 154 197 253 310 385 457
#     4  12  29  47  72 113 152 199 257 307 379 460
#     4  12  22  46  72 108 152 190 258 296 374 458
#     4  11  24  48  78 100 151 200 243 320 371 447
#     4  11  27  50  75 108 147 198 251 315 377 452
#
# _framework density 23.202328000000001
#
# number of rings (size 3 to 8) (size 9 to 14) (size 15 to 20)
#    0.000    0.571    4.286    1.714   12.000    5.714 
#    0.000    0.000    0.000    0.000    0.000    0.000 
#    0.000    0.000    0.000    0.000    0.000    0.000 
#
# Total GULP energy -173469.985371 kJ/mol
# GULP energy per Si atom -12390.713241 kJ/mol
# Density = 2.314952 g / cm^3
# Si number density = 23.202328 Si / 1000 Ang^3
#
#
#
# Elastic Constant Matrix: (Units=GPa)
#
#
# Indices 1 2 3 4 5 6 
#
# 1 162.4471 56.4504 35.3990 0.0000 2.4476 0.0000
# 2 56.4504 96.5648 53.6570 0.0000 -11.0270 0.0000
# 3 35.3990 53.6570 114.4982 0.0000 -8.3203 0.0000
# 4 0.0000 0.0000 0.0000 33.0859 0.0000 -11.3643
# 5 2.4476 -11.0270 -8.3203 0.0000 38.8719 0.0000
# 6 0.0000 0.0000 0.0000 -11.3643 0.0000 37.1810
#
#
#
# Elastic Compliance Matrix: (Units=1/GPa)
#
#
# Indices 1 2 3 4 5 6 
#
# 1 0.007868 -0.004579 -0.000423 0.000000 -0.001885 0.000000
# 2 -0.004579 0.016932 -0.006246 0.000000 0.003755 0.000000
# 3 -0.000423 -0.006246 0.011849 0.000000 0.000791 0.000000
# 4 0.000000 0.000000 0.000000 0.033770 0.000000 0.010322
# 5 -0.001885 0.003755 0.000791 0.000000 0.027079 0.000000
# 6 0.000000 0.000000 0.000000 0.010322 0.000000 0.030050
#
#
# Mechanical properties :
#
#
# Convention : Reuss Voigt Hill
#
# Bulk Modulus (GPa) = 70.66518 73.83587 72.25053
# Shear Modulus (GPa) = 32.30735 37.02802 34.66768
#
# Velocity S-wave (km/s) = 3.73556 3.99917 3.86961
# Velocity P-wave (km/s) = 7.00914 7.29495 7.15347
#
# Compressibility (1/GPa) = 0.01415124
#
# Stress axis : x y z
#
# Youngs Moduli (GPa) = 127.09919 59.05837 84.39274
#
# Poissons Ratio (x) = 0.27045 0.03573
# Poissons Ratio (y) = 0.58204 0.52715
# Poissons Ratio (z) = 0.05382 0.36890
#
# Static dielectric constant tensor:
#      x y z
#    x 4.410840 0.000000 -0.119990 
#    y 0.000000 4.118420 0.000000 
#    z -0.119990 0.000000 4.281070 
# 
# 
# High freq. dielectric constant tensor:
#      x y z
#    x 1.940160 0.000000 -0.007080 
#    y 0.000000 1.907940 0.000000 
#    z -0.007080 0.000000 1.923920 
# 
# From -- ./inp_files/8841.got.cif
#   From: 2010.03.12/outbox.cif.g09.slc.cpg/sg3_5_cif.got.tgz:8841.got - 2010.03.31 09:20:49.
