data_PCOD8045485
_publ_section_title
;
Structure prediction by ZEFSAII (Michael W. Deem and Ramdas Pophale) SiO2 
 PCOD8045485
Probable space group: P 2
;
_chemical_formula_sum "Si O2"
_cell_formula_units_Z 10
_cell_length_a 9.720613
_cell_length_b 11.193921
_cell_length_c 8.095890
_cell_angle_alpha 90.000000
_cell_angle_beta 149.566967
_cell_angle_gamma 90.000000
_cell_volume 446.217373
_symmetry_space_group_name_H-M "P 2"
_symmetry_group_IT_number 3
_symmetry_cell_setting 'monoclinic'
loop_
_space_group_symop_operation_xyz
x,y,z
-x,y,-z
loop_
_atom_site_type_symbol
_atom_site_label
_atom_site_fract_x
_atom_site_fract_y
_atom_site_fract_z
Si Si1 0.912342 0.939420 0.723876
Si Si2 0.099310 0.684940 0.416246
Si Si3 0.586511 0.071188 0.901657
Si Si4 0.602687 0.557702 0.789486
Si Si5 0.267941 0.330280 0.884711
O O1 0.805525 0.818997 0.525761
O O2 0.666767 0.034560 0.475598
O O3 0.000000 0.912386 0.000000
O O4 0.158411 0.988119 0.870107
O O5 0.353513 0.597461 0.648381
O O6 0.000000 0.666523 0.500000
O O7 0.840476 0.656549 0.032046
O O8 0.500000 0.051965 0.000000
O O9 0.664494 0.208429 0.947124
O O10 0.500000 0.536764 0.500000
O O11 0.749872 0.436533 0.002232
O O12 0.000000 0.312187 0.500000
O O13 0.500000 0.366155 0.000000
#
# Coordination Sequence:
#
# PCOD8045485 Si02
#       5
#     2   2   2   2   2
#     4  12  25  42  65  96 133 168 210 266 324 376
#     4  12  25  44  67  93 129 173 217 258 314 385
#     4  11  23  43  67  94 126 170 219 261 312 379
#     4  12  25  42  66  98 132 165 211 268 323 374
#     4  11  23  43  68  93 127 170 216 261 312 380
#
# _framework density 22.410602999999998
#
# number of rings (size 3 to 8) (size 9 to 14) (size 15 to 20)
#    0.000    0.400    0.000   11.400    0.000    1.600 
#    0.000    0.000    0.000    0.000    0.000    0.000 
#    0.000    0.000    0.000    0.000    0.000    0.000 
#
# Total GULP energy -124067.433499 kJ/mol
# GULP energy per Si atom -12406.743350 kJ/mol
# Density = 2.235959 g / cm^3
# Si number density = 22.410603 Si / 1000 Ang^3
#
#
#
# Elastic Constant Matrix: (Units=GPa)
#
#
# Indices 1 2 3 4 5 6 
#
# 1 74.5869 55.1314 26.3243 0.0000 9.1615 0.0000
# 2 55.1314 130.0007 51.1425 0.0000 -2.1759 0.0000
# 3 26.3243 51.1425 133.7733 0.0000 16.9873 0.0000
# 4 0.0000 0.0000 0.0000 734.2915 0.0000 27.8735
# 5 9.1615 -2.1759 16.9873 0.0000 40.3696 0.0000
# 6 0.0000 0.0000 0.0000 27.8735 0.0000 24.9252
#
#
#
# Elastic Compliance Matrix: (Units=1/GPa)
#
#
# Indices 1 2 3 4 5 6 
#
# 1 0.020540 -0.008783 -0.000034 0.000000 -0.005121 0.000000
# 2 -0.008783 0.012974 -0.003775 0.000000 0.004281 0.000000
# 3 -0.000034 -0.003775 0.009455 0.000000 -0.004175 0.000000
# 4 0.000000 0.000000 0.000000 0.001422 0.000000 -0.001590
# 5 -0.005121 0.004281 -0.004175 0.000000 0.027921 0.000000
# 6 0.000000 0.000000 0.000000 -0.001590 0.000000 0.041899
#
#
# Mechanical properties :
#
#
# Convention : Reuss Voigt Hill
#
# Bulk Modulus (GPa) = 56.22740 67.06191 61.64465
# Shear Modulus (GPa) = 34.40588 173.63478 104.02033
#
# Velocity S-wave (km/s) = 3.92248 8.81176 6.82030
# Velocity P-wave (km/s) = 6.75711 11.55502 9.46512
#
# Compressibility (1/GPa) = 0.01778492
#
# Stress axis : x y z
#
# Youngs Moduli (GPa) = 48.68495 77.07747 105.75935
#
# Poissons Ratio (x) = 0.67699 0.00358
# Poissons Ratio (y) = 0.42761 0.39927
# Poissons Ratio (z) = 0.00165 0.29099
#
# Static dielectric constant tensor:
#      x y z
#    x 2.669570 0.000000 3.827770 
#    y 0.000000 4.142750 0.000000 
#    z 3.827770 0.000000 -6.768460 
# 
# 
# High freq. dielectric constant tensor:
#      x y z
#    x 1.881430 0.000000 0.010600 
#    y 0.000000 1.894270 0.000000 
#    z 0.010600 0.000000 1.897610 
# 
# From -- ./inp_files/5688.got.cif
#   From: 2010.03.12/outbox.cif.g09.slc.cpg/sg3_3_cif.got.tgz:5688.got - 2010.03.31 09:20:49.
