data_PCOD8045357
_publ_section_title
;
Structure prediction by ZEFSAII (Michael W. Deem and Ramdas Pophale) SiO2 
 PCOD8045357
Probable space group: P 2
;
_chemical_formula_sum "Si O2"
_cell_formula_units_Z 14
_cell_length_a 13.992684
_cell_length_b 11.052437
_cell_length_c 11.926172
_cell_angle_alpha 90.000000
_cell_angle_beta 20.981393
_cell_angle_gamma 90.000000
_cell_volume 660.422268
_symmetry_space_group_name_H-M "P 2"
_symmetry_group_IT_number 3
_symmetry_cell_setting 'monoclinic'
loop_
_space_group_symop_operation_xyz
x,y,z
-x,y,-z
loop_
_atom_site_type_symbol
_atom_site_label
_atom_site_fract_x
_atom_site_fract_y
_atom_site_fract_z
Si Si1 0.944837 0.615300 0.436385
Si Si2 0.001614 0.268788 0.818426
Si Si3 0.658227 0.895356 0.472198
Si Si4 0.475238 0.651378 0.280382
Si Si5 0.464013 0.408297 0.413409
Si Si6 0.801422 0.337137 0.625441
Si Si7 0.159317 0.001564 0.967226
O O1 0.684768 0.674541 0.661168
O O2 0.894743 0.472729 0.496924
O O3 0.000000 0.668341 0.500000
O O4 0.206693 0.649427 0.079068
O O5 0.209148 0.318609 0.684467
O O6 0.171704 0.257153 0.516919
O O7 0.744774 0.350163 0.069441
O O8 0.888684 0.143748 0.990870
O O9 0.604415 0.752426 0.540627
O O10 0.393511 0.970501 0.798390
O O11 0.750179 0.938386 0.248336
O O12 0.889612 0.935956 0.304739
O O13 0.383220 0.520939 0.424994
O O14 0.500000 0.453457 0.500000
O O15 0.000000 0.280169 0.500000
O O16 0.500000 0.334854 0.000000
#
# Coordination Sequence:
#
# PCOD8045357 Si02
#       7
#     2   2   2   2   2   2   2
#     4  11  22  39  67  99 135 171 214 265 339 411
#     4  12  24  43  65  96 138 173 220 276 334 401
#     4  10  23  40  66  87 124 177 229 264 310 384
#     4  12  22  43  63  98 139 169 218 270 334 400
#     4  12  26  38  61  99 139 176 202 276 352 405
#     4  11  21  38  65  98 132 170 213 266 337 407
#     4  10  23  42  63  89 123 177 231 264 307 389
#
# _framework density 21.198558999999999
#
# number of rings (size 3 to 8) (size 9 to 14) (size 15 to 20)
#    0.000    0.857    2.857    5.143    8.000    0.000 
#    2.571    0.000    0.000    8.571    0.000    0.000 
#    0.000    0.000    0.000    0.000    0.000    0.000 
#
# Total GULP energy -173514.943515 kJ/mol
# GULP energy per Si atom -12393.924537 kJ/mol
# Density = 2.115031 g / cm^3
# Si number density = 21.198559 Si / 1000 Ang^3
#
#
#
# Elastic Constant Matrix: (Units=GPa)
#
#
# Indices 1 2 3 4 5 6 
#
# 1 99.3856 32.5981 47.9571 0.0000 -20.5496 0.0000
# 2 32.5981 112.0456 53.9244 0.0000 -4.6110 0.0000
# 3 47.9571 53.9244 133.8790 0.0000 -33.8672 0.0000
# 4 0.0000 0.0000 0.0000 124.6723 0.0000 41.7518
# 5 -20.5496 -4.6110 -33.8672 0.0000 52.8052 0.0000
# 6 0.0000 0.0000 0.0000 41.7518 0.0000 38.0361
#
#
#
# Elastic Compliance Matrix: (Units=1/GPa)
#
#
# Indices 1 2 3 4 5 6 
#
# 1 0.012810 -0.002172 -0.002985 0.000000 0.002881 0.000000
# 2 -0.002172 0.011670 -0.004630 0.000000 -0.002795 0.000000
# 3 -0.002985 -0.004630 0.011945 0.000000 0.006095 0.000000
# 4 0.000000 0.000000 0.000000 0.012684 0.000000 -0.013923
# 5 0.002881 -0.002795 0.006095 0.000000 0.023724 0.000000
# 6 0.000000 0.000000 0.000000 -0.013923 0.000000 0.041574
#
#
# Mechanical properties :
#
#
# Convention : Reuss Voigt Hill
#
# Bulk Modulus (GPa) = 59.33879 68.25214 63.79546
# Shear Modulus (GPa) = 35.81726 57.15808 46.48767
#
# Velocity S-wave (km/s) = 4.11494 5.19824 4.68799
# Velocity P-wave (km/s) = 7.11545 8.26411 7.71120
#
# Compressibility (1/GPa) = 0.01685238
#
# Stress axis : x y z
#
# Youngs Moduli (GPa) = 78.06209 85.69095 83.71367
#
# Poissons Ratio (x) = 0.18609 0.24991
# Poissons Ratio (y) = 0.16953 0.38757
# Poissons Ratio (z) = 0.23304 0.39672
#
# Static dielectric constant tensor:
#      x y z
#    x -12.446160 0.000000 20.393630 
#    y 0.000000 3.553970 0.000000 
#    z 20.393630 0.000000 -21.886660 
# 
# 
# High freq. dielectric constant tensor:
#      x y z
#    x 1.833530 0.000000 -0.033350 
#    y 0.000000 1.799150 0.000000 
#    z -0.033350 0.000000 1.846010 
# 
# From -- ./inp_files/12254.got.cif
#   From: 2010.03.12/outbox.cif.g09.slc.cpg/sg3_7_cif.got.tgz:12254.got - 2010.03.31 09:20:49.
