data_PCOD8045603
_publ_section_title
;
Structure prediction by ZEFSAII (Michael W. Deem and Ramdas Pophale) SiO2 
 PCOD8045603
Probable space group: P 21
;
_chemical_formula_sum "Si O2"
_cell_formula_units_Z 12
_cell_length_a 17.301650
_cell_length_b 5.247472
_cell_length_c 8.251325
_cell_angle_alpha 90.000000
_cell_angle_beta 133.516954
_cell_angle_gamma 90.000000
_cell_volume 543.252290
_symmetry_space_group_name_H-M "P 21"
_symmetry_group_IT_number 4
_symmetry_cell_setting 'monoclinic'
loop_
_space_group_symop_operation_xyz
x,y,z
-x,1/2+y,-z
loop_
_atom_site_type_symbol
_atom_site_label
_atom_site_fract_x
_atom_site_fract_y
_atom_site_fract_z
Si Si1 0.458069 0.622780 0.364680
Si Si2 0.782872 0.768310 0.377364
Si Si3 0.784109 0.239787 0.018198
Si Si4 0.112243 0.243953 0.820608
Si Si5 0.138589 0.764518 0.506462
Si Si6 0.458578 0.410721 0.015471
O O1 0.469877 0.374198 0.497758
O O2 0.339461 0.734190 0.204184
O O3 0.490432 0.514642 0.236780
O O4 0.853953 0.733635 0.317867
O O5 0.812000 0.508673 0.516735
O O6 0.659447 0.794965 0.159539
O O7 0.827769 0.009728 0.543615
O O8 0.841783 0.489661 0.026821
O O9 0.797371 0.232767 0.231496
O O10 0.838700 0.989846 0.019500
O O11 0.986302 0.270008 0.646873
O O12 0.468599 0.660842 0.915019
#
# Coordination Sequence:
#
# PCOD8045603 Si02
#       6
#     2   2   2   2   2   2
#     4  12  25  41  62  87 123 175 219 259 310 365
#     4  10  18  31  49  76 119 154 186 244 308 359
#     4  10  18  31  49  76 119 154 186 244 308 359
#     4  10  17  28  52  81 121 153 182 241 335 378
#     4  10  17  28  52  81 121 153 182 241 335 378
#     4  12  25  41  62  87 123 175 219 259 310 365
#
# _framework density 22.089183999999999
#
# number of rings (size 3 to 8) (size 9 to 14) (size 15 to 20)
#    0.000    1.333    3.333    8.000    4.667    0.000 
#    0.000    0.000    0.000    0.000    0.000    0.000 
#    0.000  120.000    0.000    0.000    0.000    0.000 
#
# Total GULP energy -148666.349370 kJ/mol
# GULP energy per Si atom -12388.862448 kJ/mol
# Density = 2.203891 g / cm^3
# Si number density = 22.089184 Si / 1000 Ang^3
#
#
#
# Elastic Constant Matrix: (Units=GPa)
#
#
# Indices 1 2 3 4 5 6 
#
# 1 39.7812 34.2852 39.3559 0.0000 14.7862 0.0000
# 2 34.2852 254.5899 55.1843 0.0000 20.5941 0.0000
# 3 39.3559 55.1843 87.3562 0.0000 29.5920 0.0000
# 4 0.0000 0.0000 0.0000 40.8792 0.0000 15.6874
# 5 14.7862 20.5941 29.5920 0.0000 20.2544 0.0000
# 6 0.0000 0.0000 0.0000 15.6874 0.0000 31.4860
#
#
#
# Elastic Compliance Matrix: (Units=1/GPa)
#
#
# Indices 1 2 3 4 5 6 
#
# 1 0.046594 -0.001944 -0.017642 0.000000 -0.006263 0.000000
# 2 -0.001944 0.004639 -0.001857 0.000000 -0.000585 0.000000
# 3 -0.017642 -0.001857 0.030819 0.000000 -0.030260 0.000000
# 4 0.000000 0.000000 0.000000 0.030245 0.000000 -0.015069
# 5 -0.006263 -0.000585 -0.030260 0.000000 0.098750 0.000000
# 6 0.000000 0.000000 0.000000 -0.015069 0.000000 0.039268
#
#
# Mechanical properties :
#
#
# Convention : Reuss Voigt Hill
#
# Bulk Modulus (GPa) = 25.53156 71.04201 48.28679
# Shear Modulus (GPa) = 16.32609 35.38402 25.85506
#
# Velocity S-wave (km/s) = 2.72159 4.00668 3.42495
# Velocity P-wave (km/s) = 4.63244 7.32365 6.12762
#
# Compressibility (1/GPa) = 0.03916720
#
# Stress axis : x y z
#
# Youngs Moduli (GPa) = 21.46182 215.54048 32.44730
#
# Poissons Ratio (x) = 0.41904 0.57244
# Poissons Ratio (y) = 0.04172 0.06024
# Poissons Ratio (z) = 0.37863 0.40018
#
# Static dielectric constant tensor:
#      x y z
#    x 3.528260 0.000000 0.312350 
#    y 0.000000 6.814460 0.000000 
#    z 0.312350 0.000000 3.626730 
# 
# 
# High freq. dielectric constant tensor:
#      x y z
#    x 1.818760 0.000000 0.051740 
#    y 0.000000 1.925310 0.000000 
#    z 0.051740 0.000000 1.835240 
# 
# From -- ./inp_files/7235.got.cif
#   From: 2010.03.12/outbox.cif.g09.slc.cpg/sg4_4_cif.got.tgz:7235.got - 2010.03.31 09:31:35.
