data_PCOD8045375
_publ_section_title
;
Structure prediction by ZEFSAII (Michael W. Deem and Ramdas Pophale) SiO2 
 PCOD8045375
Probable space group: P 2
;
_chemical_formula_sum "Si O2"
_cell_formula_units_Z 15
_cell_length_a 11.733654
_cell_length_b 6.772134
_cell_length_c 11.576241
_cell_angle_alpha 90.000000
_cell_angle_beta 53.812831
_cell_angle_gamma 90.000000
_cell_volume 742.420099
_symmetry_space_group_name_H-M "P 2"
_symmetry_group_IT_number 3
_symmetry_cell_setting 'monoclinic'
loop_
_space_group_symop_operation_xyz
x,y,z
-x,y,-z
loop_
_atom_site_type_symbol
_atom_site_label
_atom_site_fract_x
_atom_site_fract_y
_atom_site_fract_z
Si Si1 0.370353 0.722170 0.318139
Si Si2 0.500000 0.316515 0.500000
Si Si3 0.783874 0.536959 0.382706
Si Si4 0.121908 0.883334 0.832992
Si Si5 0.468810 0.331311 0.149300
Si Si6 0.210671 0.061471 0.328346
Si Si7 0.061720 0.145931 0.650309
Si Si8 0.411521 0.046292 0.754557
O O1 0.252462 0.663939 0.482630
O O2 0.460126 0.539040 0.218848
O O3 0.286865 0.846728 0.267869
O O4 0.492703 0.853899 0.299205
O O5 0.640113 0.445685 0.420886
O O6 0.492397 0.181078 0.615334
O O7 0.844641 0.672149 0.243634
O O8 0.902528 0.375389 0.346075
O O9 0.075572 0.031579 0.761106
O O10 0.254223 0.983376 0.817669
O O11 0.000000 0.853406 0.000000
O O12 0.316052 0.239605 0.251664
O O13 0.587018 0.179738 0.129389
O O14 0.500000 0.379371 0.000000
O O15 0.161918 0.063121 0.490555
O O16 0.095659 0.106748 0.300548
#
# Coordination Sequence:
#
# PCOD8045375 Si02
#       8
#     2   1   2   2   2   2   2   2
#     4  11  21  43  71 100 131 169 235 283 332 394
#     4  12  20  42  76 100 130 168 234 294 328 396
#     4  12  22  42  69 103 130 178 232 280 332 399
#     4  12  28  45  65 102 143 183 221 273 347 413
#     4  11  25  44  68 102 131 171 220 282 346 396
#     4  10  23  44  70  97 131 178 221 276 333 403
#     4  11  23  45  70  94 134 178 226 272 332 402
#     4  11  24  43  71 100 136 175 224 283 345 398
#
# _framework density 20.204194000000001
#
# number of rings (size 3 to 8) (size 9 to 14) (size 15 to 20)
#    0.000    0.800    5.333    2.400    1.867    3.733 
#    2.400    0.000    0.000    0.000    0.000    0.000 
#    0.000    0.000    0.000    0.000    0.000    0.000 
#
# Total GULP energy -185963.166982 kJ/mol
# GULP energy per Si atom -12397.544465 kJ/mol
# Density = 2.015821 g / cm^3
# Si number density = 20.204194 Si / 1000 Ang^3
#
#
#
# Elastic Constant Matrix: (Units=GPa)
#
#
# Indices 1 2 3 4 5 6 
#
# 1 154.9726 72.8700 53.2065 0.0000 2.3830 0.0000
# 2 72.8700 147.8637 51.7619 0.0000 -5.5245 0.0000
# 3 53.2065 51.7619 110.6556 0.0000 -16.4512 0.0000
# 4 0.0000 0.0000 0.0000 13.7971 0.0000 0.7969
# 5 2.3830 -5.5245 -16.4512 0.0000 34.0123 0.0000
# 6 0.0000 0.0000 0.0000 0.7969 0.0000 33.3009
#
#
#
# Elastic Compliance Matrix: (Units=1/GPa)
#
#
# Indices 1 2 3 4 5 6 
#
# 1 0.009265 -0.003546 -0.003209 0.000000 -0.002777 0.000000
# 2 -0.003546 0.009454 -0.002642 0.000000 0.000506 0.000000
# 3 -0.003209 -0.002642 0.012699 0.000000 0.005938 0.000000
# 4 0.000000 0.000000 0.000000 0.072579 0.000000 -0.001737
# 5 -0.002777 0.000506 0.005938 0.000000 0.032550 0.000000
# 6 0.000000 0.000000 0.000000 -0.001737 0.000000 0.030071
#
#
# Mechanical properties :
#
#
# Convention : Reuss Voigt Hill
#
# Bulk Modulus (GPa) = 79.21807 85.46319 82.34063
# Shear Modulus (GPa) = 26.36856 31.93230 29.15043
#
# Velocity S-wave (km/s) = 3.61654 3.97984 3.80253
# Velocity P-wave (km/s) = 7.53213 7.96934 7.75382
#
# Compressibility (1/GPa) = 0.01262338
#
# Stress axis : x y z
#
# Youngs Moduli (GPa) = 107.93787 105.76980 78.74887
#
# Poissons Ratio (x) = 0.37509 0.25268
# Poissons Ratio (y) = 0.38278 0.20807
# Poissons Ratio (z) = 0.34634 0.27946
#
# Static dielectric constant tensor:
#      x y z
#    x 3.954660 0.000000 0.047090 
#    y 0.000000 3.905380 0.000000 
#    z 0.047090 0.000000 3.688240 
# 
# 
# High freq. dielectric constant tensor:
#      x y z
#    x 1.797850 0.000000 0.004740 
#    y 0.000000 1.808260 0.000000 
#    z 0.004740 0.000000 1.777710 
# 
# From -- ./inp_files/11276.got.cif
#   From: 2010.03.12/outbox.cif.g09.slc.cpg/sg3_6_cif.got.tgz:11276.got - 2010.03.31 09:20:49.
