data_PCOD8045728
_publ_section_title
;
Structure prediction by ZEFSAII (Michael W. Deem and Ramdas Pophale) SiO2 
 PCOD8045728
Probable space group: P 21
;
_chemical_formula_sum "Si O2"
_cell_formula_units_Z 14
_cell_length_a 10.071240
_cell_length_b 16.359528
_cell_length_c 5.086009
_cell_angle_alpha 90.000000
_cell_angle_beta 113.842718
_cell_angle_gamma 90.000000
_cell_volume 766.460599
_symmetry_space_group_name_H-M "P 21"
_symmetry_group_IT_number 4
_symmetry_cell_setting 'monoclinic'
loop_
_space_group_symop_operation_xyz
x,y,z
-x,1/2+y,-z
loop_
_atom_site_type_symbol
_atom_site_label
_atom_site_fract_x
_atom_site_fract_y
_atom_site_fract_z
Si Si1 0.307707 0.467200 0.256831
Si Si2 0.012714 0.015933 0.033933
Si Si3 0.429071 0.381440 0.845910
Si Si4 0.507545 0.603997 0.568222
Si Si5 0.294817 0.967734 0.076154
Si Si6 0.132178 0.085167 0.639323
Si Si7 0.393533 0.193355 0.853280
O O1 0.333006 0.404135 0.515498
O O2 0.355821 0.558480 0.384004
O O3 0.137162 0.468225 0.058148
O O4 0.391615 0.440069 0.060512
O O5 0.017951 0.078001 0.789575
O O6 0.141697 0.946892 0.101223
O O7 0.040119 0.074428 0.303448
O O8 0.401179 0.289505 0.907655
O O9 0.599768 0.392272 0.904410
O O10 0.541858 0.671452 0.377952
O O11 0.627796 0.532707 0.667379
O O12 0.506591 0.649557 0.847612
O O13 0.254578 0.013515 0.769610
O O14 0.222288 0.169919 0.725551
#
# Coordination Sequence:
#
# PCOD8045728 Si02
#       7
#     2   2   2   2   2   2   2
#     4  11  22  37  56  89 109 145 188 239 267 330
#     4  10  19  33  60  76 107 138 189 221 270 317
#     4  11  23  34  59  84 117 141 185 237 288 317
#     4  10  19  35  59  79 106 141 195 229 266 327
#     4   8  19  33  58  79 101 146 188 225 257 336
#     4   9  17  32  57  79  98 147 188 219 252 345
#     4  11  19  36  57  84 110 146 185 234 282 326
#
# _framework density 18.265778999999998
#
# number of rings (size 3 to 8) (size 9 to 14) (size 15 to 20)
#    0.857    1.143    1.429    4.286    2.000    0.000 
#    0.000    0.000    9.429    0.000    0.000    0.000 
#    0.000    0.000    0.000    0.000    0.000    0.000 
#
# Total GULP energy -173457.876140 kJ/mol
# GULP energy per Si atom -12389.848296 kJ/mol
# Density = 1.822420 g / cm^3
# Si number density = 18.265779 Si / 1000 Ang^3
#
#
#
# Elastic Constant Matrix: (Units=GPa)
#
#
# Indices 1 2 3 4 5 6 
#
# 1 84.8230 23.3752 40.1642 0.0000 9.7285 0.0000
# 2 23.3752 67.2385 22.6190 0.0000 4.8614 0.0000
# 3 40.1642 22.6190 106.8695 0.0000 -11.7322 0.0000
# 4 0.0000 0.0000 0.0000 23.2670 0.0000 -2.7922
# 5 9.7285 4.8614 -11.7322 0.0000 33.7891 0.0000
# 6 0.0000 0.0000 0.0000 -2.7922 0.0000 17.9773
#
#
#
# Elastic Compliance Matrix: (Units=1/GPa)
#
#
# Indices 1 2 3 4 5 6 
#
# 1 0.016304 -0.003132 -0.006165 0.000000 -0.006384 0.000000
# 2 -0.003132 0.017051 -0.002705 0.000000 -0.002491 0.000000
# 3 -0.006165 -0.002705 0.012979 0.000000 0.006671 0.000000
# 4 0.000000 0.000000 0.000000 0.043796 0.000000 0.006802
# 5 -0.006384 -0.002491 0.006671 0.000000 0.034108 0.000000
# 6 0.000000 0.000000 0.000000 0.006802 0.000000 0.056682
#
#
# Mechanical properties :
#
#
# Convention : Reuss Voigt Hill
#
# Bulk Modulus (GPa) = 44.78506 47.91640 46.35073
# Shear Modulus (GPa) = 23.54389 26.52486 25.03438
#
# Velocity S-wave (km/s) = 3.59411 3.81486 3.70613
# Velocity P-wave (km/s) = 6.46493 6.75974 6.61397
#
# Compressibility (1/GPa) = 0.02232888
#
# Stress axis : x y z
#
# Youngs Moduli (GPa) = 61.33453 58.64595 77.04657
#
# Poissons Ratio (x) = 0.18370 0.47502
# Poissons Ratio (y) = 0.19213 0.20842
# Poissons Ratio (z) = 0.37815 0.15865
#
# Static dielectric constant tensor:
#      x y z
#    x 3.274230 0.000000 -0.009660 
#    y 0.000000 2.957620 0.000000 
#    z -0.009660 0.000000 3.495060 
# 
# 
# High freq. dielectric constant tensor:
#      x y z
#    x 1.698120 0.000000 -0.010790 
#    y 0.000000 1.661480 0.000000 
#    z -0.010790 0.000000 1.727430 
# 
# From -- ./inp_files/3175.got.cif
#   From: 2010.03.12/outbox.cif.g09.slc.cpg/sg4_2_cif.got.tgz:3175.got - 2010.03.31 09:31:35.
