data_PCOD8045732
_publ_section_title
;
Structure prediction by ZEFSAII (Michael W. Deem and Ramdas Pophale) SiO2 
 PCOD8045732
Probable space group: P 21
;
_chemical_formula_sum "Si O2"
_cell_formula_units_Z 10
_cell_length_a 7.771235
_cell_length_b 5.346045
_cell_length_c 10.297816
_cell_angle_alpha 90.000000
_cell_angle_beta 115.880412
_cell_angle_gamma 90.000000
_cell_volume 384.918609
_symmetry_space_group_name_H-M "P 21"
_symmetry_group_IT_number 4
_symmetry_cell_setting 'monoclinic'
loop_
_space_group_symop_operation_xyz
x,y,z
-x,1/2+y,-z
loop_
_atom_site_type_symbol
_atom_site_label
_atom_site_fract_x
_atom_site_fract_y
_atom_site_fract_z
Si Si1 0.734221 0.716100 0.222701
Si Si2 0.673544 0.217578 0.554330
Si Si3 0.253363 0.217698 0.488128
Si Si4 0.103189 0.183595 0.993777
Si Si5 0.531983 0.216290 0.212190
O O1 0.840524 0.716986 0.399667
O O2 0.607170 0.466202 0.165950
O O3 0.610751 0.968995 0.166088
O O4 0.889341 0.711284 0.159946
O O5 0.488212 0.217546 0.587221
O O6 0.801689 0.469441 0.613129
O O7 0.596981 0.216287 0.382067
O O8 0.801677 0.965760 0.613309
O O9 0.305278 0.218170 0.129770
O O10 0.967477 0.404363 0.998753
#
# Coordination Sequence:
#
# PCOD8045732 Si02
#       5
#     2   2   2   2   2
#     4  10  19  34  55  75  97 129 169 204 239 292
#     4   8  14  25  45  73  97 117 151 201 244 278
#     4   8  14  25  45  73  97 117 151 201 244 278
#     4  12  24  36  50  72 104 134 164 206 252 290
#     4  10  19  34  55  75  97 129 169 204 239 292
#
# _framework density 25.979520000000001
#
# number of rings (size 3 to 8) (size 9 to 14) (size 15 to 20)
#    0.000    2.400    0.000    3.600    0.000    0.000 
#    0.000    0.000    0.000    2.400    0.000    0.000 
#    0.000    0.000    0.000    0.000    0.000    0.000 
#
# Total GULP energy -123903.455929 kJ/mol
# GULP energy per Si atom -12390.345593 kJ/mol
# Density = 2.592039 g / cm^3
# Si number density = 25.979520 Si / 1000 Ang^3
#
#
#
# Elastic Constant Matrix: (Units=GPa)
#
#
# Indices 1 2 3 4 5 6 
#
# 1 51.5797 21.9904 16.4154 0.0000 -24.7327 0.0000
# 2 21.9904 252.9006 0.1350 0.0000 -7.7363 0.0000
# 3 16.4154 0.1350 47.1347 0.0000 -25.7286 0.0000
# 4 0.0000 0.0000 0.0000 6.6959 0.0000 -8.4486
# 5 -24.7327 -7.7363 -25.7286 0.0000 41.3123 0.0000
# 6 0.0000 0.0000 0.0000 -8.4486 0.0000 43.4392
#
#
#
# Elastic Compliance Matrix: (Units=1/GPa)
#
#
# Indices 1 2 3 4 5 6 
#
# 1 0.028156 -0.001966 -0.001212 0.000000 0.015733 0.000000
# 2 -0.001966 0.004125 0.000685 0.000000 0.000022 0.000000
# 3 -0.001212 0.000685 0.032285 0.000000 0.019509 0.000000
# 4 0.000000 0.000000 0.000000 0.197914 0.000000 0.038493
# 5 0.015733 0.000022 0.019509 0.000000 0.045779 0.000000
# 6 0.000000 0.000000 0.000000 0.038493 0.000000 0.030507
#
#
# Mechanical properties :
#
#
# Convention : Reuss Voigt Hill
#
# Bulk Modulus (GPa) = 16.78438 47.63296 32.20867
# Shear Modulus (GPa) = 13.75087 39.16109 26.45598
#
# Velocity S-wave (km/s) = 2.30314 3.88672 3.19461
# Velocity P-wave (km/s) = 3.68066 6.20618 5.10215
#
# Compressibility (1/GPa) = 0.05957920
#
# Stress axis : x y z
#
# Youngs Moduli (GPa) = 35.51696 242.40066 30.97401
#
# Poissons Ratio (x) = 0.47663 0.03754
# Poissons Ratio (y) = 0.06984 -0.02122
# Poissons Ratio (z) = 0.04305 -0.16603
#
# Static dielectric constant tensor:
#      x y z
#    x 4.192130 0.000000 -0.501920 
#    y 0.000000 6.426390 0.000000 
#    z -0.501920 0.000000 4.326230 
# 
# 
# High freq. dielectric constant tensor:
#      x y z
#    x 2.007920 0.000000 -0.038060 
#    y 0.000000 2.088770 0.000000 
#    z -0.038060 0.000000 2.010250 
# 
# From -- ./inp_files/2274.got.cif
#   From: 2010.03.12/outbox.cif.g09.slc.cpg/sg4_2_cif.got.tgz:2274.got - 2010.03.31 09:31:35.
