data_PCOD8045648
_publ_section_title
;
Structure prediction by ZEFSAII (Michael W. Deem and Ramdas Pophale) SiO2 
 PCOD8045648
Probable space group: P 21
;
_chemical_formula_sum "Si O2"
_cell_formula_units_Z 14
_cell_length_a 9.857616
_cell_length_b 5.113330
_cell_length_c 17.789126
_cell_angle_alpha 90.000000
_cell_angle_beta 56.876850
_cell_angle_gamma 90.000000
_cell_volume 750.955336
_symmetry_space_group_name_H-M "P 21"
_symmetry_group_IT_number 4
_symmetry_cell_setting 'monoclinic'
loop_
_space_group_symop_operation_xyz
x,y,z
-x,1/2+y,-z
loop_
_atom_site_type_symbol
_atom_site_label
_atom_site_fract_x
_atom_site_fract_y
_atom_site_fract_z
Si Si1 0.546041 0.286810 0.178537
Si Si2 0.943081 0.819154 0.821020
Si Si3 0.620822 0.286469 0.727771
Si Si4 0.921234 0.307729 0.730894
Si Si5 0.920658 0.338901 0.060276
Si Si6 0.578076 0.865753 0.944492
Si Si7 0.058301 0.863469 0.440924
O O1 0.487756 0.528229 0.247414
O O2 0.732456 0.301421 0.098659
O O3 0.440381 0.278950 0.135446
O O4 0.505270 0.024887 0.236450
O O5 0.766286 0.869448 0.909226
O O6 0.958006 0.542469 0.775894
O O7 0.064564 0.824172 0.854288
O O8 0.989110 0.044100 0.747708
O O9 0.747453 0.308538 0.619826
O O10 0.727324 0.282299 0.773216
O O11 0.011616 0.350532 0.623332
O O12 0.975301 0.619072 0.012980
O O13 0.492035 0.655971 0.024244
O O14 0.969378 0.653864 0.519845
#
# Coordination Sequence:
#
# PCOD8045648 Si02
#       7
#     2   2   2   2   2   2   2
#     4  12  21  39  54  79 112 149 189 243 273 347
#     4  12  21  39  54  79 112 149 189 243 273 347
#     4  10  20  35  58  84 114 142 186 222 286 338
#     4  10  20  35  58  84 114 142 186 222 286 338
#     4  12  26  42  56  80 114 156 204 248 288 324
#     4  12  20  30  50  74  98 134 178 230 288 320
#     4  10  18  32  56  94 126 138 170 234 292 338
#
# _framework density 18.64292
#
# number of rings (size 3 to 8) (size 9 to 14) (size 15 to 20)
#    0.857    0.000    2.857    6.857    0.000    0.000 
#    0.000    0.000    0.000    0.000    0.000   20.000 
#    0.000    0.000    0.000    0.000    0.000    0.000 
#
# Total GULP energy -173614.054792 kJ/mol
# GULP energy per Si atom -12401.003914 kJ/mol
# Density = 1.860049 g / cm^3
# Si number density = 18.642920 Si / 1000 Ang^3
#
#
#
# Elastic Constant Matrix: (Units=GPa)
#
#
# Indices 1 2 3 4 5 6 
#
# 1 43.9517 11.0279 10.2932 0.0000 -0.0629 0.0000
# 2 11.0279 91.3837 8.3145 0.0000 1.1352 0.0000
# 3 10.2932 8.3145 66.2660 0.0000 -1.5301 0.0000
# 4 0.0000 0.0000 0.0000 43.5958 0.0000 -3.0977
# 5 -0.0629 1.1352 -1.5301 0.0000 28.4259 0.0000
# 6 0.0000 0.0000 0.0000 -3.0977 0.0000 21.4396
#
#
#
# Elastic Compliance Matrix: (Units=1/GPa)
#
#
# Indices 1 2 3 4 5 6 
#
# 1 0.024211 -0.002609 -0.003434 0.000000 -0.000027 0.000000
# 2 -0.002609 0.011358 -0.001032 0.000000 -0.000515 0.000000
# 3 -0.003434 -0.001032 0.015774 0.000000 0.000883 0.000000
# 4 0.000000 0.000000 0.000000 0.023176 0.000000 0.003349
# 5 -0.000027 -0.000515 0.000883 0.000000 0.035247 0.000000
# 6 0.000000 0.000000 0.000000 0.003349 0.000000 0.047126
#
#
# Mechanical properties :
#
#
# Convention : Reuss Voigt Hill
#
# Bulk Modulus (GPa) = 26.88636 28.98584 27.93610
# Shear Modulus (GPa) = 27.25691 30.15665 28.70678
#
# Velocity S-wave (km/s) = 3.82783 4.02629 3.92831
# Velocity P-wave (km/s) = 5.83004 6.09888 5.96598
#
# Compressibility (1/GPa) = 0.03719358
#
# Stress axis : x y z
#
# Youngs Moduli (GPa) = 41.30347 88.04386 63.39575
#
# Poissons Ratio (x) = 0.22970 0.21770
# Poissons Ratio (y) = 0.10776 0.06541
# Poissons Ratio (z) = 0.14184 0.09084
#
# Static dielectric constant tensor:
#      x y z
#    x 3.141780 0.000000 -0.015060 
#    y 0.000000 3.551620 0.000000 
#    z -0.015060 0.000000 3.258760 
# 
# 
# High freq. dielectric constant tensor:
#      x y z
#    x 1.688790 0.000000 -0.002430 
#    y 0.000000 1.748310 0.000000 
#    z -0.002430 0.000000 1.712670 
# 
# From -- ./inp_files/13541.got.cif
#   From: 2010.03.12/outbox.cif.g09.slc.cpg/sg4_7_cif.got.tgz:13541.got - 2010.03.31 09:31:35.
