data_PCOD8045644
_publ_section_title
;
Structure prediction by ZEFSAII (Michael W. Deem and Ramdas Pophale) SiO2 
 PCOD8045644
Probable space group: P 21
;
_chemical_formula_sum "Si O2"
_cell_formula_units_Z 16
_cell_length_a 9.042648
_cell_length_b 17.901083
_cell_length_c 9.039607
_cell_angle_alpha 90.000000
_cell_angle_beta 32.140335
_cell_angle_gamma 90.000000
_cell_volume 778.452059
_symmetry_space_group_name_H-M "P 21"
_symmetry_group_IT_number 4
_symmetry_cell_setting 'monoclinic'
loop_
_space_group_symop_operation_xyz
x,y,z
-x,1/2+y,-z
loop_
_atom_site_type_symbol
_atom_site_label
_atom_site_fract_x
_atom_site_fract_y
_atom_site_fract_z
Si Si1 0.472129 0.681070 0.427098
Si Si2 0.046049 0.440609 0.049523
Si Si3 0.052276 0.084496 0.049791
Si Si4 0.048463 0.811365 0.514182
Si Si5 0.514206 0.716675 0.046681
Si Si6 0.570918 0.344019 0.526938
Si Si7 0.071769 0.471905 0.371546
Si Si8 0.625237 0.556259 0.923953
O O1 0.480794 0.694163 0.244951
O O2 0.492003 0.762200 0.491457
O O3 0.188644 0.643018 0.714379
O O4 0.729752 0.626058 0.244941
O O5 0.283071 0.382041 0.809857
O O6 0.071292 0.512016 0.923857
O O7 0.082125 0.467465 0.186477
O O8 0.752276 0.398372 0.268156
O O9 0.189150 0.059275 0.086972
O O10 0.237403 0.764347 0.236617
O O11 0.247035 0.832281 0.481266
O O12 0.942384 0.890054 0.538098
O O13 0.789670 0.764052 0.789288
O O14 0.537511 0.638758 0.938251
O O15 0.798320 0.518133 0.646573
O O16 0.348853 0.510481 0.197480
#
# Coordination Sequence:
#
# PCOD8045644 Si02
#       8
#     2   2   2   2   2   2   2   2
#     4  10  18  33  56  82 105 137 184 230 261 303
#     4  11  22  36  56  83 111 142 177 222 271 320
#     4  11  22  36  56  83 111 142 177 222 271 320
#     4  10  18  32  54  81 107 137 182 230 263 303
#     4  10  18  32  54  81 107 137 182 230 263 303
#     4  10  18  33  56  82 105 137 184 230 261 303
#     4  11  21  35  56  82 110 142 177 220 271 322
#     4  11  21  35  56  82 110 142 177 220 271 322
#
# _framework density 20.553609999999999
#
# number of rings (size 3 to 8) (size 9 to 14) (size 15 to 20)
#    0.000    1.500    0.000   12.000    0.000    0.000 
#    0.000    0.000    0.000   15.000    0.000    0.000 
#    0.000    0.000    0.000    0.000    0.000    0.000 
#
# Total GULP energy -198343.837008 kJ/mol
# GULP energy per Si atom -12396.489813 kJ/mol
# Density = 2.050683 g / cm^3
# Si number density = 20.553610 Si / 1000 Ang^3
#
#
#
# Elastic Constant Matrix: (Units=GPa)
#
#
# Indices 1 2 3 4 5 6 
#
# 1 23.9276 34.3509 17.9493 0.0000 -4.9978 0.0000
# 2 34.3509 175.2014 62.6409 0.0000 -12.2593 0.0000
# 3 17.9493 62.6409 120.1437 0.0000 -25.1476 0.0000
# 4 0.0000 0.0000 0.0000 63.5774 0.0000 -12.6174
# 5 -4.9978 -12.2593 -25.1476 0.0000 15.9009 0.0000
# 6 0.0000 0.0000 0.0000 -12.6174 0.0000 19.7479
#
#
#
# Elastic Compliance Matrix: (Units=1/GPa)
#
#
# Indices 1 2 3 4 5 6 
#
# 1 0.059944 -0.010557 -0.001811 0.000000 0.007838 0.000000
# 2 -0.010557 0.008878 -0.003458 0.000000 -0.001943 0.000000
# 3 -0.001811 -0.003458 0.014529 0.000000 0.019743 0.000000
# 4 0.000000 0.000000 0.000000 0.018013 0.000000 0.011509
# 5 0.007838 -0.001943 0.019743 0.000000 0.095079 0.000000
# 6 0.000000 0.000000 0.000000 0.011509 0.000000 0.057992
#
#
# Mechanical properties :
#
#
# Convention : Reuss Voigt Hill
#
# Bulk Modulus (GPa) = 19.34256 61.01719 40.17987
# Shear Modulus (GPa) = 16.48420 33.46735 24.97578
#
# Velocity S-wave (km/s) = 2.83505 4.03959 3.48969
# Velocity P-wave (km/s) = 4.48864 7.17698 5.98569
#
# Compressibility (1/GPa) = 0.05169947
#
# Stress axis : x y z
#
# Youngs Moduli (GPa) = 16.68222 112.63619 68.82550
#
# Poissons Ratio (x) = 1.18911 0.12462
# Poissons Ratio (y) = 0.17612 0.23802
# Poissons Ratio (z) = 0.03021 0.38953
#
# Static dielectric constant tensor:
#      x y z
#    x 3.122890 0.000000 -0.307900 
#    y 0.000000 5.164850 0.000000 
#    z -0.307900 0.000000 4.198760 
# 
# 
# High freq. dielectric constant tensor:
#      x y z
#    x 1.732170 0.000000 -0.027340 
#    y 0.000000 1.839130 0.000000 
#    z -0.027340 0.000000 1.826880 
# 
# From -- ./inp_files/6911.got.cif
#   From: 2010.03.12/outbox.cif.g09.slc.cpg/sg4_4_cif.got.tgz:6911.got - 2010.03.31 09:31:35.
