data_PCOD8045679
_publ_section_title
;
Structure prediction by ZEFSAII (Michael W. Deem and Ramdas Pophale) SiO2 
 PCOD8045679
Probable space group: P 21
;
_chemical_formula_sum "Si O2"
_cell_formula_units_Z 16
_cell_length_a 10.549573
_cell_length_b 8.941209
_cell_length_c 18.679617
_cell_angle_alpha 90.000000
_cell_angle_beta 23.675743
_cell_angle_gamma 90.000000
_cell_volume 707.537772
_symmetry_space_group_name_H-M "P 21"
_symmetry_group_IT_number 4
_symmetry_cell_setting 'monoclinic'
loop_
_space_group_symop_operation_xyz
x,y,z
-x,1/2+y,-z
loop_
_atom_site_type_symbol
_atom_site_label
_atom_site_fract_x
_atom_site_fract_y
_atom_site_fract_z
Si Si1 0.543170 0.536860 0.621235
Si Si2 0.158509 0.257991 0.772137
Si Si3 0.407739 0.984328 0.810374
Si Si4 0.940732 0.817825 0.593306
Si Si5 0.933134 0.768378 0.339682
Si Si6 0.783959 0.046517 0.069104
Si Si7 0.751454 0.067833 0.493773
Si Si8 0.388378 0.776460 0.229278
O O1 0.259233 0.428316 0.739938
O O2 0.630785 0.667946 0.520252
O O3 0.433611 0.609988 0.753716
O O4 0.867429 0.448505 0.466469
O O5 0.984719 0.243140 0.785862
O O6 0.478794 0.165706 0.599964
O O7 0.928482 0.185685 0.950575
O O8 0.644302 0.990171 0.621860
O O9 0.381574 0.143407 0.865063
O O10 0.569779 0.861062 0.778637
O O11 0.059886 0.944881 0.962642
O O12 0.949377 0.671604 0.639477
O O13 0.101212 0.786207 0.433763
O O14 0.243821 0.738398 0.226449
O O15 0.846243 0.942884 0.388509
O O16 0.584345 0.931253 0.123773
#
# Coordination Sequence:
#
# PCOD8045679 Si02
#       8
#     2   2   2   2   2   2   2   2
#     4  10  22  41  67  96 129 177 222 282 324 391
#     4  10  23  43  63  96 139 179 218 272 343 406
#     4  10  18  37  61  96 133 168 220 280 334 384
#     4   9  17  36  61  94 135 160 229 272 325 386
#     4  12  21  38  68  96 136 173 228 275 325 413
#     4  10  22  40  64  96 138 168 227 280 337 391
#     4   9  20  34  59  98 128 172 221 275 328 385
#     4  10  21  37  61 100 128 177 221 276 336 388
#
# _framework density 22.613634000000001
#
# number of rings (size 3 to 8) (size 9 to 14) (size 15 to 20)
#    0.000    2.000    2.500    3.000    0.000    4.000 
#    4.500    1.250    0.000    3.000    0.000    0.000 
#    0.000    0.000    0.000    0.000    0.000    0.000 
#
# Total GULP energy -198324.062226 kJ/mol
# GULP energy per Si atom -12395.253889 kJ/mol
# Density = 2.256216 g / cm^3
# Si number density = 22.613634 Si / 1000 Ang^3
#
#
#
# Elastic Constant Matrix: (Units=GPa)
#
#
# Indices 1 2 3 4 5 6 
#
# 1 128.1586 43.7620 35.7461 0.0000 2.3116 0.0000
# 2 43.7620 88.4136 43.6915 0.0000 -0.6066 0.0000
# 3 35.7461 43.6915 68.5490 0.0000 -3.7519 0.0000
# 4 0.0000 0.0000 0.0000 40.0200 0.0000 -8.1308
# 5 2.3116 -0.6066 -3.7519 0.0000 28.6318 0.0000
# 6 0.0000 0.0000 0.0000 -8.1308 0.0000 28.0500
#
#
#
# Elastic Compliance Matrix: (Units=1/GPa)
#
#
# Indices 1 2 3 4 5 6 
#
# 1 0.009825 -0.003366 -0.003047 0.000000 -0.001264 0.000000
# 2 -0.003366 0.017695 -0.009556 0.000000 -0.000606 0.000000
# 3 -0.003047 -0.009556 0.022431 0.000000 0.002983 0.000000
# 4 0.000000 0.000000 0.000000 0.026551 0.000000 0.007696
# 5 -0.001264 -0.000606 0.002983 0.000000 0.035406 0.000000
# 6 0.000000 0.000000 0.000000 0.007696 0.000000 0.037882
#
#
# Mechanical properties :
#
#
# Convention : Reuss Voigt Hill
#
# Bulk Modulus (GPa) = 55.51728 59.05784 57.28756
# Shear Modulus (GPa) = 26.63369 30.13515 28.38442
#
# Velocity S-wave (km/s) = 3.43559 3.65445 3.54671
# Velocity P-wave (km/s) = 6.35148 6.63170 6.49310
#
# Compressibility (1/GPa) = 0.01801241
#
# Stress axis : x y z
#
# Youngs Moduli (GPa) = 101.78225 56.51425 44.58069
#
# Poissons Ratio (x) = 0.19022 0.13585
# Poissons Ratio (y) = 0.34258 0.42602
# Poissons Ratio (z) = 0.31016 0.54006
#
# Static dielectric constant tensor:
#      x y z
#    x 4.005590 0.000000 -0.264980 
#    y 0.000000 4.160670 0.000000 
#    z -0.264980 0.000000 3.702070 
# 
# 
# High freq. dielectric constant tensor:
#      x y z
#    x 1.882680 0.000000 -0.027330 
#    y 0.000000 1.904230 0.000000 
#    z -0.027330 0.000000 1.858530 
# 
# From -- ./inp_files/15702.got.cif
#   From: 2010.03.12/outbox.cif.g09.slc.cpg/sg4_8_cif.got.tgz:15702.got - 2010.03.31 09:31:35.
