data_PCOD8045319
_publ_section_title
;
Structure prediction by ZEFSAII (Michael W. Deem and Ramdas Pophale) SiO2 
 PCOD8045319
Probable space group: P 2
;
_chemical_formula_sum "Si O2"
_cell_formula_units_Z 12
_cell_length_a 8.597276
_cell_length_b 9.755427
_cell_length_c 10.428288
_cell_angle_alpha 90.000000
_cell_angle_beta 141.055224
_cell_angle_gamma 90.000000
_cell_volume 549.761784
_symmetry_space_group_name_H-M "P 2"
_symmetry_group_IT_number 3
_symmetry_cell_setting 'monoclinic'
loop_
_space_group_symop_operation_xyz
x,y,z
-x,y,-z
loop_
_atom_site_type_symbol
_atom_site_label
_atom_site_fract_x
_atom_site_fract_y
_atom_site_fract_z
Si Si1 0.067902 0.437060 0.206154
Si Si2 0.221971 0.744589 0.547357
Si Si3 0.541514 0.953577 0.881193
Si Si4 0.943161 0.729737 0.112029
Si Si5 0.625017 0.248665 0.944760
Si Si6 0.514834 0.474450 0.316814
O O1 0.226366 0.447327 0.175117
O O2 0.280731 0.445227 0.447019
O O3 0.880649 0.568275 0.093367
O O4 0.910819 0.299587 0.128629
O O5 0.310317 0.893861 0.653116
O O6 0.444362 0.631600 0.704417
O O7 0.000000 0.696523 0.500000
O O8 0.161314 0.758891 0.356707
O O9 0.625735 0.099415 0.873064
O O10 0.500000 0.993127 0.000000
O O11 0.733220 0.831923 0.016014
O O12 0.000000 0.762171 0.000000
O O13 0.443430 0.359347 0.762925
O O14 0.500000 0.231990 0.000000
#
# Coordination Sequence:
#
# PCOD8045319 Si02
#       6
#     2   2   2   2   2   2
#     4  10  22  43  65  94 132 166 215 277 326 387
#     4  11  23  41  70  98 132 172 223 276 332 390
#     4  11  24  43  60  94 135 178 220 267 328 394
#     4  11  23  40  69  98 128 170 220 277 328 388
#     4  11  25  39  63  95 133 176 217 263 326 392
#     4  10  23  41  65  96 126 166 219 274 327 385
#
# _framework density 21.827636999999999
#
# number of rings (size 3 to 8) (size 9 to 14) (size 15 to 20)
#    0.000    1.333    1.667    3.500    4.667    6.000 
#    0.000    1.667    0.000    2.000    0.000    0.000 
#    0.000    0.000    0.000    0.000    0.000    0.000 
#
# Total GULP energy -148662.123559 kJ/mol
# GULP energy per Si atom -12388.510297 kJ/mol
# Density = 2.177796 g / cm^3
# Si number density = 21.827637 Si / 1000 Ang^3
#
#
#
# Elastic Constant Matrix: (Units=GPa)
#
#
# Indices 1 2 3 4 5 6 
#
# 1 92.1565 52.2967 43.1402 0.0000 6.7972 0.0000
# 2 52.2967 176.3211 61.3323 0.0000 4.5081 0.0000
# 3 43.1402 61.3323 77.2339 0.0000 -4.7275 0.0000
# 4 0.0000 0.0000 0.0000 38.1681 0.0000 7.8881
# 5 6.7972 4.5081 -4.7275 0.0000 44.1062 0.0000
# 6 0.0000 0.0000 0.0000 7.8881 0.0000 23.0957
#
#
#
# Elastic Compliance Matrix: (Units=1/GPa)
#
#
# Indices 1 2 3 4 5 6 
#
# 1 0.015642 -0.002018 -0.007318 0.000000 -0.002989 0.000000
# 2 -0.002018 0.008193 -0.005447 0.000000 -0.001110 0.000000
# 3 -0.007318 -0.005447 0.021606 0.000000 0.004000 0.000000
# 4 0.000000 0.000000 0.000000 0.028190 0.000000 -0.009628
# 5 -0.002989 -0.001110 0.004000 0.000000 0.023675 0.000000
# 6 0.000000 0.000000 0.000000 -0.009628 0.000000 0.046586
#
#
# Mechanical properties :
#
#
# Convention : Reuss Voigt Hill
#
# Bulk Modulus (GPa) = 62.98991 73.24998 68.11995
# Shear Modulus (GPa) = 27.97209 33.67017 30.82113
#
# Velocity S-wave (km/s) = 3.58369 3.93179 3.76177
# Velocity P-wave (km/s) = 6.78559 7.36500 7.08122
#
# Compressibility (1/GPa) = 0.01587556
#
# Stress axis : x y z
#
# Youngs Moduli (GPa) = 63.93004 122.05464 46.28380
#
# Poissons Ratio (x) = 0.24625 0.33870
# Poissons Ratio (y) = 0.12898 0.25212
# Poissons Ratio (z) = 0.46784 0.66486
#
# Static dielectric constant tensor:
#      x y z
#    x 3.806010 0.000000 -0.131020 
#    y 0.000000 4.173190 0.000000 
#    z -0.131020 0.000000 4.266370 
# 
# 
# High freq. dielectric constant tensor:
#      x y z
#    x 1.843670 0.000000 -0.012100 
#    y 0.000000 1.862180 0.000000 
#    z -0.012100 0.000000 1.883900 
# 
# From -- ./inp_files/10826.got.cif
#   From: 2010.03.12/outbox.cif.g09.slc.cpg/sg3_6_cif.got.tgz:10826.got - 2010.03.31 09:20:49.
