data_PCOD8045593
_publ_section_title
;
Structure prediction by ZEFSAII (Michael W. Deem and Ramdas Pophale) SiO2 
 PCOD8045593
Probable space group: P 21
;
_chemical_formula_sum "Si O2"
_cell_formula_units_Z 16
_cell_length_a 9.129359
_cell_length_b 12.858581
_cell_length_c 9.303848
_cell_angle_alpha 90.000000
_cell_angle_beta 33.917202
_cell_angle_gamma 90.000000
_cell_volume 609.432603
_symmetry_space_group_name_H-M "P 21"
_symmetry_group_IT_number 4
_symmetry_cell_setting 'monoclinic'
loop_
_space_group_symop_operation_xyz
x,y,z
-x,1/2+y,-z
loop_
_atom_site_type_symbol
_atom_site_label
_atom_site_fract_x
_atom_site_fract_y
_atom_site_fract_z
Si Si1 0.971741 0.651780 0.726936
Si Si2 0.472876 0.041556 0.725801
Si Si3 0.323156 0.713675 0.890266
Si Si4 0.176851 0.479723 0.109734
Si Si5 0.958797 0.807648 0.971620
Si Si6 0.458796 0.885769 0.971572
Si Si7 0.741139 0.549240 0.670203
Si Si8 0.241132 0.144157 0.670209
O O1 0.866362 0.650338 0.647483
O O2 0.248895 0.596242 0.501653
O O3 0.017870 0.763058 0.763299
O O4 0.748255 0.597057 0.001133
O O5 0.366020 0.043041 0.647845
O O6 0.517890 0.930250 0.763189
O O7 0.220618 0.800270 0.857647
O O8 0.365503 0.768014 0.012295
O O9 0.421991 0.565474 0.904480
O O10 0.605697 0.668919 0.603179
O O11 0.134488 0.425390 0.987717
O O12 0.894278 0.524435 0.396847
O O13 0.078011 0.627920 0.095521
O O14 0.279421 0.393135 0.142329
O O15 0.731713 0.743654 0.243223
O O16 0.231704 0.949792 0.243130
#
# Coordination Sequence:
#
# PCOD8045593 Si02
#       8
#     2   2   2   2   2   2   2   2
#     4  10  16  31  51  74  93 125 171 207 231 276
#     4  10  16  31  51  74  93 125 171 207 231 276
#     4  10  20  30  51  73 103 126 160 204 249 287
#     4  10  20  30  51  73 103 126 160 204 249 287
#     4   9  21  31  53  75  99 128 163 205 245 289
#     4   9  21  31  53  75  99 128 163 205 245 289
#     4   9  19  32  49  76  95 130 162 207 237 288
#     4   9  19  32  49  76  95 130 162 207 237 288
#
# _framework density 26.25393
#
# number of rings (size 3 to 8) (size 9 to 14) (size 15 to 20)
#    1.500    1.000    2.500    0.000    3.500    0.000 
#    0.000    0.000    0.000    3.000    0.000    0.000 
#    0.000    0.000    0.000    0.000    0.000    0.000 
#
# Total GULP energy -198214.964069 kJ/mol
# GULP energy per Si atom -12388.435254 kJ/mol
# Density = 2.619417 g / cm^3
# Si number density = 26.253930 Si / 1000 Ang^3
#
#
#
# Elastic Constant Matrix: (Units=GPa)
#
#
# Indices 1 2 3 4 5 6 
#
# 1 168.9979 57.3783 66.2923 0.0000 -18.8679 0.0000
# 2 57.3783 70.5501 40.6686 0.0000 -2.4305 0.0000
# 3 66.2923 40.6686 155.1722 0.0000 -8.0713 0.0000
# 4 0.0000 0.0000 0.0000 35.5838 0.0000 8.1150
# 5 -18.8679 -2.4305 -8.0713 0.0000 52.1053 0.0000
# 6 0.0000 0.0000 0.0000 8.1150 0.0000 70.4150
#
#
#
# Elastic Compliance Matrix: (Units=1/GPa)
#
#
# Indices 1 2 3 4 5 6 
#
# 1 0.009134 -0.006087 -0.002167 0.000000 0.002688 0.000000
# 2 -0.006087 0.020754 -0.002927 0.000000 -0.001689 0.000000
# 3 -0.002167 -0.002927 0.008155 0.000000 0.000342 0.000000
# 4 0.000000 0.000000 0.000000 0.028861 0.000000 -0.003326
# 5 0.002688 -0.001689 0.000342 0.000000 0.020139 0.000000
# 6 0.000000 0.000000 0.000000 -0.003326 0.000000 0.014585
#
#
# Mechanical properties :
#
#
# Convention : Reuss Voigt Hill
#
# Bulk Modulus (GPa) = 63.76970 80.37762 72.07366
# Shear Modulus (GPa) = 38.69464 46.97955 42.83710
#
# Velocity S-wave (km/s) = 3.84325 4.23475 4.04374
# Velocity P-wave (km/s) = 6.63600 7.38869 7.02244
#
# Compressibility (1/GPa) = 0.01568143
#
# Stress axis : x y z
#
# Youngs Moduli (GPa) = 109.48067 48.18421 122.62224
#
# Poissons Ratio (x) = 0.29329 0.26574
# Poissons Ratio (y) = 0.66639 0.35888
# Poissons Ratio (z) = 0.23726 0.14102
#
# Static dielectric constant tensor:
#      x y z
#    x 5.373290 0.000000 0.205500 
#    y 0.000000 4.604760 0.000000 
#    z 0.205500 0.000000 4.558590 
# 
# 
# High freq. dielectric constant tensor:
#      x y z
#    x 2.091630 0.000000 -0.001210 
#    y 0.000000 2.043800 0.000000 
#    z -0.001210 0.000000 2.050130 
# 
# From -- ./inp_files/6543.got.cif
#   From: 2010.03.12/outbox.cif.g09.slc.cpg/sg4_4_cif.got.tgz:6543.got - 2010.03.31 09:31:35.
