data_PCOD8045146
_publ_section_title
;
Structure prediction by ZEFSAII (Michael W. Deem and Ramdas Pophale) SiO2 
 PCOD8045146
Probable space group: P 2
;
_chemical_formula_sum "Si O2"
_cell_formula_units_Z 15
_cell_length_a 23.959052
_cell_length_b 6.397213
_cell_length_c 7.938245
_cell_angle_alpha 90.000000
_cell_angle_beta 144.574976
_cell_angle_gamma 90.000000
_cell_volume 705.246815
_symmetry_space_group_name_H-M "P 2"
_symmetry_group_IT_number 3
_symmetry_cell_setting 'monoclinic'
loop_
_space_group_symop_operation_xyz
x,y,z
-x,y,-z
loop_
_atom_site_type_symbol
_atom_site_label
_atom_site_fract_x
_atom_site_fract_y
_atom_site_fract_z
Si Si1 0.639849 0.357050 0.695779
Si Si2 0.784333 0.918588 0.734841
Si Si3 0.341621 0.750981 0.052347
Si Si4 0.500000 0.043401 0.500000
Si Si5 0.750752 0.523074 0.465710
Si Si6 0.111913 0.165622 0.301644
Si Si7 0.800546 0.051803 0.137165
Si Si8 0.386878 0.227187 0.713636
O O1 0.612717 0.552610 0.742311
O O2 0.558948 0.179305 0.514323
O O3 0.634289 0.399398 0.484112
O O4 0.745385 0.273787 0.004866
O O5 0.845617 0.003744 0.728591
O O6 0.675936 0.016947 0.470922
O O7 0.778176 0.663964 0.699074
O O8 0.839652 0.991797 0.044980
O O9 0.428847 0.901954 0.210973
O O10 0.279722 0.702068 0.737860
O O11 0.273052 0.863266 0.016010
O O12 0.841002 0.392959 0.616704
O O13 0.660139 0.359843 0.249273
O O14 0.124235 0.076378 0.523902
O O15 0.000000 0.195290 0.000000
O O16 0.500000 0.173601 0.000000
#
# Coordination Sequence:
#
# PCOD8045146 Si02
#       8
#     2   2   2   1   2   2   2   2
#     4  10  21  38  55  84 124 169 221 267 329 384
#     4  10  23  44  66  94 133 171 224 268 332 400
#     4  11  21  37  64  88 125 172 219 269 327 392
#     4  10  24  30  58  86 122 170 228 262 314 394
#     4  11  23  41  65  95 132 173 220 276 334 395
#     4  11  24  44  71  99 129 170 220 279 347 402
#     4  10  21  42  66  93 125 171 210 271 337 395
#     4  10  24  36  59  89 131 176 217 274 323 385
#
# _framework density 21.269148999999999
#
# number of rings (size 3 to 8) (size 9 to 14) (size 15 to 20)
#    0.000    1.600    2.667    1.200    5.600    1.600 
#    0.000    0.000    0.000    0.000    0.000    0.000 
#    0.000    0.000    0.000    0.000    0.000    0.000 
#
# Total GULP energy -185842.246300 kJ/mol
# GULP energy per Si atom -12389.483087 kJ/mol
# Density = 2.122074 g / cm^3
# Si number density = 21.269149 Si / 1000 Ang^3
#
#
#
# Elastic Constant Matrix: (Units=GPa)
#
#
# Indices 1 2 3 4 5 6 
#
# 1 73.9632 25.2730 54.3793 0.0000 -4.1869 0.0000
# 2 25.2730 98.5586 38.0126 0.0000 0.0771 0.0000
# 3 54.3793 38.0126 123.8065 0.0000 4.9994 0.0000
# 4 0.0000 0.0000 0.0000 24.2080 0.0000 -6.8570
# 5 -4.1869 0.0771 4.9994 0.0000 37.0217 0.0000
# 6 0.0000 0.0000 0.0000 -6.8570 0.0000 27.7672
#
#
#
# Elastic Compliance Matrix: (Units=1/GPa)
#
#
# Indices 1 2 3 4 5 6 
#
# 1 0.020758 -0.001990 -0.008649 0.000000 0.003520 0.000000
# 2 -0.001990 0.011708 -0.002725 0.000000 0.000119 0.000000
# 3 -0.008649 -0.002725 0.012822 0.000000 -0.002704 0.000000
# 4 0.000000 0.000000 0.000000 0.044415 0.000000 0.010968
# 5 0.003520 0.000119 -0.002704 0.000000 0.027774 0.000000
# 6 0.000000 0.000000 0.000000 0.010968 0.000000 0.038722
#
#
# Mechanical properties :
#
#
# Convention : Reuss Voigt Hill
#
# Bulk Modulus (GPa) = 53.88081 59.07312 56.47697
# Shear Modulus (GPa) = 26.43909 29.71028 28.07468
#
# Velocity S-wave (km/s) = 3.52955 3.74153 3.63708
# Velocity P-wave (km/s) = 6.48060 6.81907 6.65199
#
# Compressibility (1/GPa) = 0.01855948
#
# Stress axis : x y z
#
# Youngs Moduli (GPa) = 48.17376 85.41490 77.99202
#
# Poissons Ratio (x) = 0.16998 0.67453
# Poissons Ratio (y) = 0.09587 0.21255
# Poissons Ratio (z) = 0.41664 0.23278
#
# Static dielectric constant tensor:
#      x y z
#    x 3.866670 0.000000 -0.202430 
#    y 0.000000 3.820960 0.000000 
#    z -0.202430 0.000000 3.634530 
# 
# 
# High freq. dielectric constant tensor:
#      x y z
#    x 1.832180 0.000000 -0.019050 
#    y 0.000000 1.838850 0.000000 
#    z -0.019050 0.000000 1.812210 
# 
# From -- ./inp_files/8881.got.cif
#   From: 2010.03.12/outbox.cif.g09.slc.cpg/sg3_5_cif.got.tgz:8881.got - 2010.03.31 09:20:49.
