data_PCOD8045660
_publ_section_title
;
Structure prediction by ZEFSAII (Michael W. Deem and Ramdas Pophale) SiO2 
 PCOD8045660
Probable space group: P 21
;
_chemical_formula_sum "Si O2"
_cell_formula_units_Z 16
_cell_length_a 9.207133
_cell_length_b 8.884293
_cell_length_c 18.352854
_cell_angle_alpha 90.000000
_cell_angle_beta 143.569890
_cell_angle_gamma 90.000000
_cell_volume 891.500635
_symmetry_space_group_name_H-M "P 21"
_symmetry_group_IT_number 4
_symmetry_cell_setting 'monoclinic'
loop_
_space_group_symop_operation_xyz
x,y,z
-x,1/2+y,-z
loop_
_atom_site_type_symbol
_atom_site_label
_atom_site_fract_x
_atom_site_fract_y
_atom_site_fract_z
Si Si1 0.282064 0.632280 0.845401
Si Si2 0.968571 0.112327 0.837832
Si Si3 0.265109 0.104251 0.353633
Si Si4 0.665688 0.121083 0.967751
Si Si5 0.208414 0.976761 0.803804
Si Si6 0.311045 0.956534 0.073484
Si Si7 0.319248 0.447311 0.389436
Si Si8 0.131907 0.947160 0.155921
O O1 0.319888 0.811304 0.859107
O O2 0.449600 0.550911 0.852861
O O3 0.998922 0.591767 0.714466
O O4 0.338894 0.574915 0.949144
O O5 0.928193 0.288531 0.830963
O O6 0.722586 0.035571 0.704665
O O7 0.194305 0.072012 0.874337
O O8 0.057942 0.042127 0.950486
O O9 0.363200 0.273600 0.389800
O O10 0.446928 0.004826 0.474264
O O11 0.260319 0.049622 0.268391
O O12 0.697985 0.296605 0.969656
O O13 0.400828 0.065569 0.829396
O O14 0.889850 0.026692 0.024925
O O15 0.928436 0.968324 0.660675
O O16 0.317664 0.930386 0.163158
#
# Coordination Sequence:
#
# PCOD8045660 Si02
#       8
#     2   2   2   2   2   2   2   2
#     4  10  18  34  56  79 109 142 190 234 270 333
#     4  10  19  35  55  81 113 149 185 235 275 330
#     4  10  20  36  59  86 104 146 190 236 287 326
#     4  11  19  33  53  83 108 148 191 226 280 331
#     4   9  19  32  55  83 102 140 182 241 273 316
#     4  12  22  35  54  84 121 148 187 232 292 344
#     4   9  19  35  60  85 107 136 195 247 271 328
#     4  11  24  34  54  83 122 155 176 231 296 352
#
# _framework density 17.947267
#
# number of rings (size 3 to 8) (size 9 to 14) (size 15 to 20)
#    0.750    1.000    2.500    3.000    3.500    0.000 
#    0.000    1.250    0.000   10.500    0.000    0.000 
#    0.000    0.000    0.000    0.000    0.000    0.000 
#
# Total GULP energy -198251.598332 kJ/mol
# GULP energy per Si atom -12390.724896 kJ/mol
# Density = 1.790642 g / cm^3
# Si number density = 17.947267 Si / 1000 Ang^3
#
#
#
# Elastic Constant Matrix: (Units=GPa)
#
#
# Indices 1 2 3 4 5 6 
#
# 1 81.9854 51.2973 39.6469 0.0000 2.6348 0.0000
# 2 51.2973 136.7577 43.8031 0.0000 5.4290 0.0000
# 3 39.6469 43.8031 93.4641 0.0000 5.3835 0.0000
# 4 0.0000 0.0000 0.0000 33.1509 0.0000 9.2379
# 5 2.6348 5.4290 5.3835 0.0000 14.9937 0.0000
# 6 0.0000 0.0000 0.0000 9.2379 0.0000 15.4513
#
#
#
# Elastic Compliance Matrix: (Units=1/GPa)
#
#
# Indices 1 2 3 4 5 6 
#
# 1 0.017875 -0.005046 -0.005251 0.000000 0.000571 0.000000
# 2 -0.005046 0.010071 -0.002472 0.000000 -0.001872 0.000000
# 3 -0.005251 -0.002472 0.014275 0.000000 -0.003308 0.000000
# 4 0.000000 0.000000 0.000000 0.036195 0.000000 -0.021640
# 5 0.000571 -0.001872 -0.003308 0.000000 0.068460 0.000000
# 6 0.000000 0.000000 0.000000 -0.021640 0.000000 0.077657
#
#
# Mechanical properties :
#
#
# Convention : Reuss Voigt Hill
#
# Bulk Modulus (GPa) = 59.93261 64.63353 62.28307
# Shear Modulus (GPa) = 19.55936 24.54984 22.05460
#
# Velocity S-wave (km/s) = 3.30483 3.70251 3.50931
# Velocity P-wave (km/s) = 6.93028 7.37355 7.15535
#
# Compressibility (1/GPa) = 0.01668541
#
# Stress axis : x y z
#
# Youngs Moduli (GPa) = 55.94347 99.29668 70.05026
#
# Poissons Ratio (x) = 0.50103 0.36781
# Poissons Ratio (y) = 0.28228 0.17313
# Poissons Ratio (z) = 0.29374 0.24542
#
# Static dielectric constant tensor:
#      x y z
#    x 3.113340 0.000000 0.202210 
#    y 0.000000 3.357250 0.000000 
#    z 0.202210 0.000000 3.174450 
# 
# 
# High freq. dielectric constant tensor:
#      x y z
#    x 1.666620 0.000000 0.019570 
#    y 0.000000 1.714140 0.000000 
#    z 0.019570 0.000000 1.675070 
# 
# From -- ./inp_files/10884.got.cif
#   From: 2010.03.12/outbox.cif.g09.slc.cpg/sg4_6_cif.got.tgz:10884.got - 2010.03.31 09:31:35.
