data_PCOD8045492
_publ_section_title
;
Structure prediction by ZEFSAII (Michael W. Deem and Ramdas Pophale) SiO2 
 PCOD8045492
Probable space group: P 2
;
_chemical_formula_sum "Si O2"
_cell_formula_units_Z 13
_cell_length_a 11.270579
_cell_length_b 8.737226
_cell_length_c 8.240949
_cell_angle_alpha 90.000000
_cell_angle_beta 137.251538
_cell_angle_gamma 90.000000
_cell_volume 550.841589
_symmetry_space_group_name_H-M "P 2"
_symmetry_group_IT_number 3
_symmetry_cell_setting 'monoclinic'
loop_
_space_group_symop_operation_xyz
x,y,z
-x,y,-z
loop_
_atom_site_type_symbol
_atom_site_label
_atom_site_fract_x
_atom_site_fract_y
_atom_site_fract_z
Si Si1 0.746341 0.128520 0.912712
Si Si2 0.597907 0.741310 0.431608
Si Si3 0.850242 0.843708 0.223670
Si Si4 0.500000 0.735965 0.000000
Si Si5 0.061276 0.281601 0.381257
Si Si6 0.045812 0.597219 0.224367
Si Si7 0.367235 0.093636 0.564980
O O1 0.553150 0.179619 0.782947
O O2 0.724416 0.115372 0.699396
O O3 0.893481 0.254189 0.097058
O O4 0.822459 0.970353 0.058906
O O5 0.500000 0.695631 0.500000
O O6 0.801899 0.718257 0.654759
O O7 0.572037 0.918136 0.357394
O O8 0.521391 0.647165 0.196208
O O9 0.894829 0.683838 0.175369
O O10 0.000000 0.892884 0.500000
O O11 0.677710 0.833211 0.160644
O O12 0.221969 0.160985 0.539300
O O13 0.000000 0.270022 0.500000
O O14 0.122190 0.453467 0.401269
O O15 0.000000 0.537490 0.000000
#
# Coordination Sequence:
#
# PCOD8045492 Si02
#       7
#     2   2   2   1   2   2   2
#     4  11  23  44  74 102 138 184 236 298 354 419
#     4  12  24  47  75 113 140 185 243 305 364 426
#     4  12  24  44  73 110 142 186 235 298 363 420
#     4  12  24  42  74 104 158 174 242 298 358 424
#     4  12  29  47  67 101 147 190 239 287 359 437
#     4  12  26  48  72 100 148 190 242 296 361 435
#     4  11  23  47  72 105 140 181 241 294 355 424
#
# _framework density 23.600252000000001
#
# number of rings (size 3 to 8) (size 9 to 14) (size 15 to 20)
#    0.000    0.308    4.615    5.077    2.154    0.615 
#    8.308    0.000    0.000    0.000    0.000    0.000 
#    0.000    0.000    0.000    0.000    0.000    0.000 
#
# Total GULP energy -161084.378701 kJ/mol
# GULP energy per Si atom -12391.106054 kJ/mol
# Density = 2.354654 g / cm^3
# Si number density = 23.600252 Si / 1000 Ang^3
#
#
#
# Elastic Constant Matrix: (Units=GPa)
#
#
# Indices 1 2 3 4 5 6 
#
# 1 155.9782 26.8013 48.9863 0.0000 0.8504 0.0000
# 2 26.8013 55.1997 15.7185 0.0000 0.5645 0.0000
# 3 48.9863 15.7185 112.8011 0.0000 6.5554 0.0000
# 4 0.0000 0.0000 0.0000 -83.4208 0.0000 61.3639
# 5 0.8504 0.5645 6.5554 0.0000 49.8009 0.0000
# 6 0.0000 0.0000 0.0000 61.3639 0.0000 -17.6271
#
#
#
# Elastic Compliance Matrix: (Units=1/GPa)
#
#
# Indices 1 2 3 4 5 6 
#
# 1 0.007867 -0.002963 -0.003021 0.000000 0.000297 0.000000
# 2 -0.002963 0.019981 -0.001499 0.000000 0.000021 0.000000
# 3 -0.003021 -0.001499 0.010462 0.000000 -0.001309 0.000000
# 4 0.000000 0.000000 0.000000 0.007680 0.000000 0.026737
# 5 0.000297 0.000021 -0.001309 0.000000 0.020247 0.000000
# 6 0.000000 0.000000 0.000000 0.026737 0.000000 0.036348
#
#
# Mechanical properties :
#
#
# Convention : Reuss Voigt Hill
#
# Bulk Modulus (GPa) = 42.83517 56.33235 49.58376
# Shear Modulus (GPa) = 39.89380 5.24879 22.57130
#
# Velocity S-wave (km/s) = 4.11590 1.49294 3.09593
# Velocity P-wave (km/s) = 6.38571 5.18585 5.81680
#
# Compressibility (1/GPa) = 0.02334530
#
# Stress axis : x y z
#
# Youngs Moduli (GPa) = 127.10736 50.04723 95.58393
#
# Poissons Ratio (x) = 0.14827 0.28876
# Poissons Ratio (y) = 0.37658 0.14328
# Poissons Ratio (z) = 0.38399 0.07502
#
# Static dielectric constant tensor:
#      x y z
#    x 4.930180 0.000000 0.564140 
#    y 0.000000 3.897440 0.000000 
#    z 0.564140 0.000000 5.539080 
# 
# 
# High freq. dielectric constant tensor:
#      x y z
#    x 1.957410 0.000000 -0.001290 
#    y 0.000000 1.889960 0.000000 
#    z -0.001290 0.000000 1.959920 
# 
# From -- ./inp_files/7581.got.cif
#   From: 2010.03.12/outbox.cif.g09.slc.cpg/sg3_4_cif.got.tgz:7581.got - 2010.03.31 09:20:49.
