data_PCOD8045582
_publ_section_title
;
Structure prediction by ZEFSAII (Michael W. Deem and Ramdas Pophale) SiO2 
 PCOD8045582
Probable space group: P 21
;
_chemical_formula_sum "Si O2"
_cell_formula_units_Z 12
_cell_length_a 28.191384
_cell_length_b 4.955646
_cell_length_c 19.130232
_cell_angle_alpha 90.000000
_cell_angle_beta 164.759947
_cell_angle_gamma 90.000000
_cell_volume 702.534332
_symmetry_space_group_name_H-M "P 21"
_symmetry_group_IT_number 4
_symmetry_cell_setting 'monoclinic'
loop_
_space_group_symop_operation_xyz
x,y,z
-x,1/2+y,-z
loop_
_atom_site_type_symbol
_atom_site_label
_atom_site_fract_x
_atom_site_fract_y
_atom_site_fract_z
Si Si1 0.479245 0.047220 0.016569
Si Si2 0.173626 0.934347 0.684419
Si Si3 0.220633 0.434965 0.843695
Si Si4 0.396605 0.058804 0.586629
Si Si5 0.711131 0.059066 0.480177
Si Si6 0.948461 0.443354 0.967836
O O1 0.634877 0.002754 0.295173
O O2 0.483472 0.352043 0.995358
O O3 0.281183 0.989984 0.766377
O O4 0.237578 0.135238 0.836748
O O5 0.959148 0.970449 0.364997
O O6 0.214855 0.632891 0.768686
O O7 0.396276 0.499411 0.140670
O O8 0.336048 0.862013 0.563772
O O9 0.266275 0.012520 0.333314
O O10 0.379100 0.360688 0.591028
O O11 0.930426 0.012924 0.791486
O O12 0.027654 0.629401 0.017227
#
# Coordination Sequence:
#
# PCOD8045582 Si02
#       6
#     2   2   2   2   2   2
#     4  12  22  32  46  64  92 132 160 181 215 266
#     4  10  20  31  44  68  91 120 154 185 228 266
#     4  10  17  30  50  66  92 117 143 193 236 273
#     4  10  15  28  48  68  89 116 140 182 244 275
#     4  10  18  30  42  65  95 116 150 186 218 269
#     4   8  16  25  42  65  89 113 139 179 231 279
#
# _framework density 17.081016999999999
#
# number of rings (size 3 to 8) (size 9 to 14) (size 15 to 20)
#    0.000    2.000    3.333    2.000    0.000    0.000 
#    0.000    0.000    0.000    0.000    0.000    2.333 
#    0.000    0.000    0.000    0.000    0.000    0.000 
#
# Total GULP energy -148725.947865 kJ/mol
# GULP energy per Si atom -12393.828989 kJ/mol
# Density = 1.704214 g / cm^3
# Si number density = 17.081017 Si / 1000 Ang^3
#
#
#
# Elastic Constant Matrix: (Units=GPa)
#
#
# Indices 1 2 3 4 5 6 
#
# 1 44.4173 3.7036 33.6972 0.0000 1.6977 0.0000
# 2 3.7036 62.6859 3.4124 0.0000 -0.0991 0.0000
# 3 33.6972 3.4124 162.6288 0.0000 -15.7372 0.0000
# 4 0.0000 0.0000 0.0000 22.7791 0.0000 -0.8384
# 5 1.6977 -0.0991 -15.7372 0.0000 25.4205 0.0000
# 6 0.0000 0.0000 0.0000 -0.8384 0.0000 19.4429
#
#
#
# Elastic Compliance Matrix: (Units=1/GPa)
#
#
# Indices 1 2 3 4 5 6 
#
# 1 0.027573 -0.001299 -0.006238 0.000000 -0.005709 0.000000
# 2 -0.001299 0.016033 -0.000056 0.000000 0.000114 0.000000
# 3 -0.006238 -0.000056 0.007960 0.000000 0.005344 0.000000
# 4 0.000000 0.000000 0.000000 0.043970 0.000000 0.001896
# 5 -0.005709 0.000114 0.005344 0.000000 0.043028 0.000000
# 6 0.000000 0.000000 0.000000 0.001896 0.000000 0.051514
#
#
# Mechanical properties :
#
#
# Convention : Reuss Voigt Hill
#
# Bulk Modulus (GPa) = 27.48832 39.03984 33.26408
# Shear Modulus (GPa) = 23.00009 28.78977 25.89493
#
# Velocity S-wave (km/s) = 3.67349 4.10992 3.89782
# Velocity P-wave (km/s) = 5.84128 6.73997 6.30665
#
# Compressibility (1/GPa) = 0.03637908
#
# Stress axis : x y z
#
# Youngs Moduli (GPa) = 36.26742 62.37321 125.62956
#
# Poissons Ratio (x) = 0.08099 0.78372
# Poissons Ratio (y) = 0.04709 0.00707
# Poissons Ratio (z) = 0.22625 0.00351
#
# Static dielectric constant tensor:
#      x y z
#    x 2.536900 0.000000 -0.149940 
#    y 0.000000 3.387250 0.000000 
#    z -0.149940 0.000000 3.807220 
# 
# 
# High freq. dielectric constant tensor:
#      x y z
#    x 1.567010 0.000000 -0.014490 
#    y 0.000000 1.689080 0.000000 
#    z -0.014490 0.000000 1.682460 
# 
# From -- ./inp_files/7105.got.cif
#   From: 2010.03.12/outbox.cif.g09.slc.cpg/sg4_4_cif.got.tgz:7105.got - 2010.03.31 09:31:35.
