data_PCOD8045619
_publ_section_title
;
Structure prediction by ZEFSAII (Michael W. Deem and Ramdas Pophale) SiO2 
 PCOD8045619
Probable space group: P 21
;
_chemical_formula_sum "Si O2"
_cell_formula_units_Z 16
_cell_length_a 10.088103
_cell_length_b 11.848254
_cell_length_c 9.164817
_cell_angle_alpha 90.000000
_cell_angle_beta 121.897294
_cell_angle_gamma 90.000000
_cell_volume 930.022884
_symmetry_space_group_name_H-M "P 21"
_symmetry_group_IT_number 4
_symmetry_cell_setting 'monoclinic'
loop_
_space_group_symop_operation_xyz
x,y,z
-x,1/2+y,-z
loop_
_atom_site_type_symbol
_atom_site_label
_atom_site_fract_x
_atom_site_fract_y
_atom_site_fract_z
Si Si1 0.258983 0.411770 0.526839
Si Si2 0.067410 0.068485 0.399016
Si Si3 0.303974 0.199412 0.358882
Si Si4 0.074842 0.986950 0.719683
Si Si5 0.082569 0.337012 0.701727
Si Si6 0.776425 0.664975 0.998931
Si Si7 0.452084 0.627449 0.708368
Si Si8 0.844693 0.252260 0.349257
O O1 0.319063 0.319537 0.446989
O O2 0.207354 0.351963 0.645417
O O3 0.391878 0.501089 0.646018
O O4 0.110770 0.473592 0.368957
O O5 0.230468 0.103127 0.419419
O O6 0.935125 0.163540 0.299368
O O7 0.109022 0.058127 0.593945
O O8 0.991649 0.955305 0.287420
O O9 0.189908 0.198767 0.149937
O O10 0.480329 0.169267 0.409542
O O11 0.162679 0.866984 0.750017
O O12 0.132407 0.053333 0.895547
O O13 0.938376 0.265179 0.555542
O O14 0.172242 0.275232 0.882797
O O15 0.592935 0.632445 0.908654
O O16 0.324629 0.710527 0.702102
#
# Coordination Sequence:
#
# PCOD8045619 Si02
#       8
#     2   2   2   2   2   2   2   2
#     4  10  18  38  64  76 110 160 196 232 274 352
#     4  10  17  36  61  83  98 154 201 219 262 359
#     4  10  22  35  55  86 121 141 185 239 302 330
#     4  10  19  34  68  78 107 152 203 231 270 340
#     4  10  19  34  68  78 107 152 203 231 270 340
#     4  10  22  36  50  92 122 144 174 254 298 328
#     4  10  22  35  55  86 121 141 185 239 302 330
#     4  10  17  36  61  83  98 154 201 219 262 359
#
# _framework density 17.203876999999999
#
# number of rings (size 3 to 8) (size 9 to 14) (size 15 to 20)
#    0.750    1.500    6.250    0.000    0.000    4.000 
#    0.000    0.000    0.000    1.500    0.000    0.000 
#    0.000    0.000    0.000    0.000    0.000    0.000 
#
# Total GULP energy -198241.865634 kJ/mol
# GULP energy per Si atom -12390.116602 kJ/mol
# Density = 1.716472 g / cm^3
# Si number density = 17.203877 Si / 1000 Ang^3
#
#
#
# Elastic Constant Matrix: (Units=GPa)
#
#
# Indices 1 2 3 4 5 6 
#
# 1 32.7618 -0.3774 -19.3458 0.0000 10.1407 0.0000
# 2 -0.3774 95.6880 25.3503 0.0000 6.2621 0.0000
# 3 -19.3458 25.3503 43.7731 0.0000 8.4869 0.0000
# 4 0.0000 0.0000 0.0000 30.4435 0.0000 3.0543
# 5 10.1407 6.2621 8.4869 0.0000 20.1134 0.0000
# 6 0.0000 0.0000 0.0000 3.0543 0.0000 22.0933
#
#
#
# Elastic Compliance Matrix: (Units=1/GPa)
#
#
# Indices 1 2 3 4 5 6 
#
# 1 0.079539 -0.009647 0.052203 0.000000 -0.059126 0.000000
# 2 -0.009647 0.013530 -0.013315 0.000000 0.006270 0.000000
# 3 0.052203 -0.013315 0.063088 0.000000 -0.048794 0.000000
# 4 0.000000 0.000000 0.000000 0.033310 0.000000 -0.004605
# 5 -0.059126 0.006270 -0.048794 0.000000 0.098165 0.000000
# 6 0.000000 0.000000 0.000000 -0.004605 0.000000 0.045899
#
#
# Mechanical properties :
#
#
# Convention : Reuss Voigt Hill
#
# Bulk Modulus (GPa) = 4.65896 20.38634 12.52265
# Shear Modulus (GPa) = 14.42610 25.63642 20.03126
#
# Velocity S-wave (km/s) = 2.89889 3.86444 3.41595
# Velocity P-wave (km/s) = 3.73078 5.63803 4.78049
#
# Compressibility (1/GPa) = 0.21464026
#
# Stress axis : x y z
#
# Youngs Moduli (GPa) = 12.57242 73.91170 15.85090
#
# Poissons Ratio (x) = 0.71302 -0.82747
# Poissons Ratio (y) = 0.12129 0.21105
# Poissons Ratio (z) = -0.65632 0.98410
#
# Static dielectric constant tensor:
#      x y z
#    x 3.089320 0.000000 0.027220 
#    y 0.000000 3.375910 0.000000 
#    z 0.027220 0.000000 2.979430 
# 
# 
# High freq. dielectric constant tensor:
#      x y z
#    x 1.655240 0.000000 0.001670 
#    y 0.000000 1.680240 0.000000 
#    z 0.001670 0.000000 1.636460 
# 
# From -- ./inp_files/6322.got.cif
#   From: 2010.03.12/outbox.cif.g09.slc.cpg/sg4_4_cif.got.tgz:6322.got - 2010.03.31 09:31:35.
