data_PCOD8045761
_publ_section_title
;
Structure prediction by ZEFSAII (Michael W. Deem and Ramdas Pophale) SiO2 
 PCOD8045761
Probable space group: P 21
;
_chemical_formula_sum "Si O2"
_cell_formula_units_Z 12
_cell_length_a 11.782701
_cell_length_b 5.083418
_cell_length_c 10.566233
_cell_angle_alpha 90.000000
_cell_angle_beta 94.134947
_cell_angle_gamma 90.000000
_cell_volume 631.231866
_symmetry_space_group_name_H-M "P 21"
_symmetry_group_IT_number 4
_symmetry_cell_setting 'monoclinic'
loop_
_space_group_symop_operation_xyz
x,y,z
-x,1/2+y,-z
loop_
_atom_site_type_symbol
_atom_site_label
_atom_site_fract_x
_atom_site_fract_y
_atom_site_fract_z
Si Si1 0.981386 0.019110 0.080029
Si Si2 0.886651 0.622424 0.664752
Si Si3 0.359886 0.058730 0.432285
Si Si4 0.392917 0.554484 0.605012
Si Si5 0.185416 0.455787 0.732832
Si Si6 0.071125 0.950611 0.607590
O O1 0.067550 0.983218 0.204617
O O2 0.852534 0.978717 0.123063
O O3 0.990417 0.310950 0.025535
O O4 0.749959 0.613366 0.663460
O O5 0.929330 0.462829 0.544193
O O6 0.940643 0.920057 0.652803
O O7 0.351177 0.789890 0.511088
O O8 0.472537 0.069804 0.352333
O O9 0.367187 0.286047 0.533496
O O10 0.319882 0.524721 0.728771
O O11 0.120182 0.664672 0.642802
O O12 0.149449 0.169024 0.678702
#
# Coordination Sequence:
#
# PCOD8045761 Si02
#       6
#     2   2   2   2   2   2
#     4  11  25  38  52  77 109 156 195 230 276 324
#     4  11  21  37  56  83 119 144 184 235 282 349
#     4  10  21  32  58  84 121 143 178 227 284 352
#     4  10  19  36  53  89 115 147 178 223 290 344
#     4  11  20  38  58  79 119 144 186 230 282 349
#     4  11  22  31  57  90 107 148 175 229 302 340
#
# _framework density 19.010449000000001
#
# number of rings (size 3 to 8) (size 9 to 14) (size 15 to 20)
#    0.000    1.333    3.333    4.000    0.000    5.333 
#    0.000    0.000    0.000    2.000    0.000    0.000 
#    0.000    0.000    0.000    0.000    0.000    0.000 
#
# Total GULP energy -148660.475481 kJ/mol
# GULP energy per Si atom -12388.372957 kJ/mol
# Density = 1.896718 g / cm^3
# Si number density = 19.010449 Si / 1000 Ang^3
#
#
#
# Elastic Constant Matrix: (Units=GPa)
#
#
# Indices 1 2 3 4 5 6 
#
# 1 176.0360 8.3066 36.9201 0.0000 -19.9686 0.0000
# 2 8.3066 111.1774 7.8806 0.0000 3.5124 0.0000
# 3 36.9201 7.8806 74.3453 0.0000 -15.3668 0.0000
# 4 0.0000 0.0000 0.0000 22.4725 0.0000 -2.9634
# 5 -19.9686 3.5124 -15.3668 0.0000 26.2767 0.0000
# 6 0.0000 0.0000 0.0000 -2.9634 0.0000 28.7110
#
#
#
# Elastic Compliance Matrix: (Units=1/GPa)
#
#
# Indices 1 2 3 4 5 6 
#
# 1 0.006638 -0.000434 -0.002498 0.000000 0.003642 0.000000
# 2 -0.000434 0.009186 -0.001229 0.000000 -0.002276 0.000000
# 3 -0.002498 -0.001229 0.016452 0.000000 0.007887 0.000000
# 4 0.000000 0.000000 0.000000 0.045113 0.000000 0.004656
# 5 0.003642 -0.002276 0.007887 0.000000 0.045741 0.000000
# 6 0.000000 0.000000 0.000000 0.004656 0.000000 0.035311
#
#
# Mechanical properties :
#
#
# Convention : Reuss Voigt Hill
#
# Bulk Modulus (GPa) = 41.74504 51.97480 46.85992
# Shear Modulus (GPa) = 28.61300 36.05547 32.33424
#
# Velocity S-wave (km/s) = 3.88380 4.35974 4.12863
# Velocity P-wave (km/s) = 6.48988 7.26241 6.88698
#
# Compressibility (1/GPa) = 0.02395494
#
# Stress axis : x y z
#
# Youngs Moduli (GPa) = 150.64561 108.86053 60.78434
#
# Poissons Ratio (x) = 0.04724 0.15182
# Poissons Ratio (y) = 0.06538 0.07469
# Poissons Ratio (z) = 0.37627 0.13376
#
# Static dielectric constant tensor:
#      x y z
#    x 4.665420 0.000000 -0.408020 
#    y 0.000000 3.637180 0.000000 
#    z -0.408020 0.000000 3.146610 
# 
# 
# High freq. dielectric constant tensor:
#      x y z
#    x 1.745640 0.000000 -0.020120 
#    y 0.000000 1.762320 0.000000 
#    z -0.020120 0.000000 1.686570 
# 
# From -- ./inp_files/7380.got.cif
#   From: 2010.03.12/outbox.cif.g09.slc.cpg/sg4_4_cif.got.tgz:7380.got - 2010.03.31 09:31:35.
