data_PCOD8045656
_publ_section_title
;
Structure prediction by ZEFSAII (Michael W. Deem and Ramdas Pophale) SiO2 
 PCOD8045656
Probable space group: P 21
;
_chemical_formula_sum "Si O2"
_cell_formula_units_Z 16
_cell_length_a 8.588830
_cell_length_b 9.214418
_cell_length_c 13.109717
_cell_angle_alpha 90.000000
_cell_angle_beta 51.315083
_cell_angle_gamma 90.000000
_cell_volume 809.880577
_symmetry_space_group_name_H-M "P 21"
_symmetry_group_IT_number 4
_symmetry_cell_setting 'monoclinic'
loop_
_space_group_symop_operation_xyz
x,y,z
-x,1/2+y,-z
loop_
_atom_site_type_symbol
_atom_site_label
_atom_site_fract_x
_atom_site_fract_y
_atom_site_fract_z
Si Si1 0.165018 0.491510 0.636229
Si Si2 0.596458 0.152115 0.093442
Si Si3 0.743199 0.455389 0.075916
Si Si4 0.061466 0.461445 0.127064
Si Si5 0.191652 0.151967 0.140339
Si Si6 0.524299 0.163016 0.356500
Si Si7 0.490368 0.491666 0.353081
Si Si8 0.209236 0.159312 0.642424
O O1 0.302765 0.569767 0.663042
O O2 0.260264 0.507136 0.483246
O O3 0.144321 0.325530 0.678993
O O4 0.946922 0.562658 0.724333
O O5 0.727927 0.298239 0.029818
O O6 0.411453 0.163590 0.093789
O O7 0.518720 0.126359 0.239519
O O8 0.730791 0.018343 0.002955
O O9 0.526069 0.495783 0.215864
O O10 0.903455 0.451195 0.100745
O O11 0.807010 0.574433 0.969397
O O12 0.095890 0.307514 0.163810
O O13 0.983082 0.562770 0.251682
O O14 0.570035 0.333537 0.359302
O O15 0.304702 0.124336 0.492005
O O16 0.614356 0.623936 0.350072
#
# Coordination Sequence:
#
# PCOD8045656 Si02
#       8
#     2   2   2   2   2   2   2   2
#     4  10  18  33  59  85 111 144 183 227 277 335
#     4  11  23  39  56  82 116 147 182 232 284 333
#     4  10  20  39  61  82 108 146 192 234 275 328
#     4  11  22  38  60  84 109 147 193 233 275 331
#     4  12  24  37  54  83 117 150 183 229 284 335
#     4   9  18  36  59  83 110 143 185 232 279 331
#     4   8  17  33  57  84 108 138 186 239 277 318
#     4   9  18  33  58  87 109 137 186 238 275 319
#
# _framework density 19.755998999999999
#
# number of rings (size 3 to 8) (size 9 to 14) (size 15 to 20)
#    0.000    2.000    0.000    5.250    0.000    4.000 
#    0.000    5.000    0.000    0.000    0.000    0.000 
#    0.000    0.000    0.000    0.000    0.000    0.000 
#
# Total GULP energy -198347.812689 kJ/mol
# GULP energy per Si atom -12396.738293 kJ/mol
# Density = 1.971103 g / cm^3
# Si number density = 19.755999 Si / 1000 Ang^3
#
#
#
# Elastic Constant Matrix: (Units=GPa)
#
#
# Indices 1 2 3 4 5 6 
#
# 1 71.7397 20.8582 23.0983 0.0000 -9.5821 0.0000
# 2 20.8582 104.0905 42.3254 0.0000 -14.6483 0.0000
# 3 23.0983 42.3254 108.3795 0.0000 -25.6982 0.0000
# 4 0.0000 0.0000 0.0000 31.9334 0.0000 -7.2243
# 5 -9.5821 -14.6483 -25.6982 0.0000 14.7890 0.0000
# 6 0.0000 0.0000 0.0000 -7.2243 0.0000 20.8248
#
#
#
# Elastic Compliance Matrix: (Units=1/GPa)
#
#
# Indices 1 2 3 4 5 6 
#
# 1 0.015678 -0.001779 -0.001115 0.000000 0.006458 0.000000
# 2 -0.001779 0.011951 -0.002984 0.000000 0.005499 0.000000
# 3 -0.001115 -0.002984 0.016595 0.000000 0.025159 0.000000
# 4 0.000000 0.000000 0.000000 0.033982 0.000000 0.011789
# 5 0.006458 0.005499 0.025159 0.000000 0.120966 0.000000
# 6 0.000000 0.000000 0.000000 0.011789 0.000000 0.052109
#
#
# Mechanical properties :
#
#
# Convention : Reuss Voigt Hill
#
# Bulk Modulus (GPa) = 30.80048 50.75261 40.77655
# Shear Modulus (GPa) = 18.25742 26.70463 22.48102
#
# Velocity S-wave (km/s) = 3.04327 3.68057 3.37699
# Velocity P-wave (km/s) = 5.28895 6.61873 5.99085
#
# Compressibility (1/GPa) = 0.03246702
#
# Stress axis : x y z
#
# Youngs Moduli (GPa) = 63.78242 83.67625 60.25793
#
# Poissons Ratio (x) = 0.14889 0.06720
# Poissons Ratio (y) = 0.11349 0.17981
# Poissons Ratio (z) = 0.07114 0.24969
#
# Static dielectric constant tensor:
#      x y z
#    x 3.191680 0.000000 -0.264250 
#    y 0.000000 3.731190 0.000000 
#    z -0.264250 0.000000 4.109320 
# 
# 
# High freq. dielectric constant tensor:
#      x y z
#    x 1.726010 0.000000 -0.020570 
#    y 0.000000 1.779320 0.000000 
#    z -0.020570 0.000000 1.793020 
# 
# From -- ./inp_files/9255.got.cif
#   From: 2010.03.12/outbox.cif.g09.slc.cpg/sg4_5_cif.got.tgz:9255.got - 2010.03.31 09:31:35.
