data_PCOD8045972
_publ_section_title
;
Structure prediction by ZEFSAII (Michael W. Deem and Ramdas Pophale) SiO2 
 PCOD8045972
Probable space group: P 21
;
_chemical_formula_sum "Si O2"
_cell_formula_units_Z 10
_cell_length_a 7.094160
_cell_length_b 8.467712
_cell_length_c 10.410908
_cell_angle_alpha 90.000000
_cell_angle_beta 40.091568
_cell_angle_gamma 90.000000
_cell_volume 402.762462
_symmetry_space_group_name_H-M "P 21"
_symmetry_group_IT_number 4
_symmetry_cell_setting 'monoclinic'
loop_
_space_group_symop_operation_xyz
x,y,z
-x,1/2+y,-z
loop_
_atom_site_type_symbol
_atom_site_label
_atom_site_fract_x
_atom_site_fract_y
_atom_site_fract_z
Si Si1 0.161821 0.155090 0.671545
Si Si2 0.978930 0.412372 0.958265
Si Si3 0.703718 0.929480 0.935847
Si Si4 0.579370 0.943424 0.602347
Si Si5 0.109632 0.092477 0.234832
O O1 0.300251 0.269908 0.494664
O O2 0.385177 0.013647 0.587630
O O3 0.867343 0.069546 0.771446
O O4 0.075332 0.245855 0.847926
O O5 0.624301 0.421668 0.166388
O O6 0.162622 0.431614 0.991196
O O7 0.043786 0.553406 0.822983
O O8 0.764806 0.767795 0.827319
O O9 0.359586 0.960418 0.125289
O O10 0.858904 0.062161 0.474247
#
# Coordination Sequence:
#
# PCOD8045972 Si02
#       5
#     2   2   2   2   2
#     4  10  21  38  63  91 123 162 203 250 306 361
#     4  10  22  42  65  90 122 162 202 253 309 359
#     4  11  22  41  64  90 128 163 200 257 305 357
#     4  10  20  38  62  91 122 160 205 248 301 367
#     4  11  23  41  64  92 125 161 206 252 303 362
#
# _framework density 24.828530000000001
#
# number of rings (size 3 to 8) (size 9 to 14) (size 15 to 20)
#    0.000    1.600    0.000    7.200    0.000    3.200 
#    0.000   22.000    0.000    0.000    0.000    0.000 
#    0.000    0.000    0.000    0.000    0.000    0.000 
#
# Total GULP energy -123956.330794 kJ/mol
# GULP energy per Si atom -12395.633079 kJ/mol
# Density = 2.477202 g / cm^3
# Si number density = 24.828530 Si / 1000 Ang^3
#
#
#
# Elastic Constant Matrix: (Units=GPa)
#
#
# Indices 1 2 3 4 5 6 
#
# 1 28.6207 2.6975 20.5066 0.0000 -2.7477 0.0000
# 2 2.6975 79.9461 -0.7905 0.0000 9.1814 0.0000
# 3 20.5066 -0.7905 127.9505 0.0000 -2.7593 0.0000
# 4 0.0000 0.0000 0.0000 54.9161 0.0000 -10.1387
# 5 -2.7477 9.1814 -2.7593 0.0000 31.2132 0.0000
# 6 0.0000 0.0000 0.0000 -10.1387 0.0000 25.0012
#
#
#
# Elastic Compliance Matrix: (Units=1/GPa)
#
#
# Indices 1 2 3 4 5 6 
#
# 1 0.039992 -0.001813 -0.006345 0.000000 0.003493 0.000000
# 2 -0.001813 0.013028 0.000286 0.000000 -0.003967 0.000000
# 3 -0.006345 0.000286 0.008837 0.000000 0.000139 0.000000
# 4 0.000000 0.000000 0.000000 0.019683 0.000000 0.007982
# 5 0.003493 -0.003967 0.000139 0.000000 0.033524 0.000000
# 6 0.000000 0.000000 0.000000 0.007982 0.000000 0.043235
#
#
# Mechanical properties :
#
#
# Convention : Reuss Voigt Hill
#
# Bulk Modulus (GPa) = 21.68665 31.26050 26.47357
# Shear Modulus (GPa) = 26.39679 36.49968 31.44823
#
# Velocity S-wave (km/s) = 3.26416 3.83831 3.56282
# Velocity P-wave (km/s) = 4.79164 5.67991 5.25458
#
# Compressibility (1/GPa) = 0.04611132
#
# Stress axis : x y z
#
# Youngs Moduli (GPa) = 25.00472 76.75791 113.15722
#
# Poissons Ratio (x) = 0.13918 0.71803
# Poissons Ratio (y) = 0.04534 -0.03231
# Poissons Ratio (z) = 0.15867 -0.02192
#
# Static dielectric constant tensor:
#      x y z
#    x 3.970800 0.000000 -0.245930 
#    y 0.000000 4.600660 0.000000 
#    z -0.245930 0.000000 4.947310 
# 
# 
# High freq. dielectric constant tensor:
#      x y z
#    x 1.952450 0.000000 -0.016960 
#    y 0.000000 1.997980 0.000000 
#    z -0.016960 0.000000 2.008140 
# 
# From -- ./inp_files/5186.got.cif
#   From: 2010.03.12/outbox.cif.g09.slc.cpg/sg4_3_cif.got.tgz:5186.got - 2010.03.31 09:31:35.
