data_PCOD8045237
_publ_section_title
;
Structure prediction by ZEFSAII (Michael W. Deem and Ramdas Pophale) SiO2 
 PCOD8045237
Probable space group: P 2
;
_chemical_formula_sum "Si O2"
_cell_formula_units_Z 15
_cell_length_a 9.427790
_cell_length_b 7.601557
_cell_length_c 18.954918
_cell_angle_alpha 90.000000
_cell_angle_beta 148.231104
_cell_angle_gamma 90.000000
_cell_volume 715.200933
_symmetry_space_group_name_H-M "P 2"
_symmetry_group_IT_number 3
_symmetry_cell_setting 'monoclinic'
loop_
_space_group_symop_operation_xyz
x,y,z
-x,y,-z
loop_
_atom_site_type_symbol
_atom_site_label
_atom_site_fract_x
_atom_site_fract_y
_atom_site_fract_z
Si Si1 0.328411 0.717330 0.275903
Si Si2 0.138264 0.433237 0.632299
Si Si3 0.528361 0.746379 0.815140
Si Si4 0.265973 0.724603 0.951349
Si Si5 0.594552 0.415301 0.463946
Si Si6 0.375344 0.020287 0.519949
Si Si7 0.500000 0.056356 0.000000
Si Si8 0.256418 0.098325 0.753492
O O1 0.276956 0.750850 0.170795
O O2 0.480874 0.533940 0.352593
O O3 0.046421 0.688241 0.198554
O O4 0.519761 0.879244 0.379346
O O5 0.282734 0.619570 0.690682
O O6 0.321495 0.264901 0.730776
O O7 0.000000 0.388358 0.500000
O O8 0.915828 0.437604 0.600129
O O9 0.427901 0.938273 0.794883
O O10 0.682286 0.662379 0.946794
O O11 0.500000 0.635181 0.000000
O O12 0.282793 0.934886 0.948829
O O13 0.500000 0.484041 0.500000
O O14 0.505570 0.213835 0.412042
O O15 0.500000 0.951871 0.500000
O O16 0.052456 0.032243 0.379117
O O17 0.655428 0.158362 0.128960
#
# Coordination Sequence:
#
# PCOD8045237 Si02
#       8
#     2   2   2   2   2   2   1   2
#     4  12  22  38  66  86 125 167 203 261 320 362
#     4  11  23  40  61  95 131 160 210 264 308 380
#     4  11  24  39  61  93 123 168 209 250 321 377
#     4   9  22  42  64  87 121 161 215 260 304 386
#     4  10  23  38  57  92 126 154 204 257 309 372
#     4  10  22  37  60  96 123 160 207 261 314 367
#     4   8  18  42  62  92 120 162 218 254 294 390
#     4  10  22  39  65  90 133 167 208 255 317 365
#
# _framework density 20.973129
#
# number of rings (size 3 to 8) (size 9 to 14) (size 15 to 20)
#    0.400    1.333    1.333    2.400    5.600    0.000 
#    1.200    2.667    0.000    4.800    0.000    0.000 
#    0.000    0.000    0.000    0.000    0.000    0.000 
#
# Total GULP energy -185846.239830 kJ/mol
# GULP energy per Si atom -12389.749322 kJ/mol
# Density = 2.092539 g / cm^3
# Si number density = 20.973129 Si / 1000 Ang^3
#
#
#
# Elastic Constant Matrix: (Units=GPa)
#
#
# Indices 1 2 3 4 5 6 
#
# 1 95.9172 19.1098 25.9352 0.0000 -9.3495 0.0000
# 2 19.1098 88.3741 32.9237 0.0000 -12.8261 0.0000
# 3 25.9352 32.9237 93.0902 0.0000 -15.4001 0.0000
# 4 0.0000 0.0000 0.0000 19.2622 0.0000 -3.7623
# 5 -9.3495 -12.8261 -15.4001 0.0000 46.9426 0.0000
# 6 0.0000 0.0000 0.0000 -3.7623 0.0000 18.7093
#
#
#
# Elastic Compliance Matrix: (Units=1/GPa)
#
#
# Indices 1 2 3 4 5 6 
#
# 1 0.011492 -0.001384 -0.002533 0.000000 0.001079 0.000000
# 2 -0.001384 0.013411 -0.004015 0.000000 0.002072 0.000000
# 3 -0.002533 -0.004015 0.013326 0.000000 0.002770 0.000000
# 4 0.000000 0.000000 0.000000 0.054038 0.000000 0.010866
# 5 0.001079 0.002072 0.002770 0.000000 0.022992 0.000000
# 6 0.000000 0.000000 0.000000 0.010866 0.000000 0.055635
#
#
# Mechanical properties :
#
#
# Convention : Reuss Voigt Hill
#
# Bulk Modulus (GPa) = 44.71487 48.14654 46.43071
# Shear Modulus (GPa) = 25.74479 30.27699 28.01089
#
# Velocity S-wave (km/s) = 3.50739 3.80361 3.65850
# Velocity P-wave (km/s) = 6.14563 6.50354 6.32711
#
# Compressibility (1/GPa) = 0.02236392
#
# Stress axis : x y z
#
# Youngs Moduli (GPa) = 87.01921 74.56415 75.03945
#
# Poissons Ratio (x) = 0.10323 0.19011
# Poissons Ratio (y) = 0.12048 0.30127
# Poissons Ratio (z) = 0.22046 0.29936
#
# Static dielectric constant tensor:
#      x y z
#    x 3.898330 0.000000 -0.108030 
#    y 0.000000 3.634710 0.000000 
#    z -0.108030 0.000000 3.756320 
# 
# 
# High freq. dielectric constant tensor:
#      x y z
#    x 1.829490 0.000000 -0.006450 
#    y 0.000000 1.806760 0.000000 
#    z -0.006450 0.000000 1.811330 
# 
# From -- ./inp_files/15072.got.cif
#   From: 2010.03.12/outbox.cif.g09.slc.cpg/sg3_8_cif.got.tgz:15072.got - 2010.03.31 09:20:49.
