data_PCOD8045227
_publ_section_title
;
Structure prediction by ZEFSAII (Michael W. Deem and Ramdas Pophale) SiO2 
 PCOD8045227
Probable space group: P 2
;
_chemical_formula_sum "Si O2"
_cell_formula_units_Z 16
_cell_length_a 8.826763
_cell_length_b 8.747478
_cell_length_c 11.526946
_cell_angle_alpha 90.000000
_cell_angle_beta 53.176323
_cell_angle_gamma 90.000000
_cell_volume 712.444617
_symmetry_space_group_name_H-M "P 2"
_symmetry_group_IT_number 3
_symmetry_cell_setting 'monoclinic'
loop_
_space_group_symop_operation_xyz
x,y,z
-x,y,-z
loop_
_atom_site_type_symbol
_atom_site_label
_atom_site_fract_x
_atom_site_fract_y
_atom_site_fract_z
Si Si1 0.892980 0.688540 0.666418
Si Si2 0.197109 0.463003 0.605520
Si Si3 0.544166 0.932466 0.606015
Si Si4 0.769443 0.008516 0.823149
Si Si5 0.216787 0.411740 0.861811
Si Si6 0.103250 0.146414 0.567128
Si Si7 0.600621 0.104110 0.133085
Si Si8 0.562643 0.606031 0.687193
O O1 0.722438 0.570221 0.711306
O O2 0.000000 0.742003 0.500000
O O3 0.038750 0.596691 0.682179
O O4 0.808211 0.833282 0.772319
O O5 0.227192 0.390513 0.718519
O O6 0.135335 0.326730 0.549385
O O7 0.389844 0.526532 0.458302
O O8 0.500000 0.866317 0.500000
O O9 0.590452 0.788183 0.664126
O O10 0.705533 0.054584 0.509027
O O11 0.377415 0.021213 0.751946
O O12 0.621697 0.096840 0.804082
O O13 0.964119 0.102664 0.736050
O O14 0.706515 0.009807 0.985363
O O15 0.312041 0.272749 0.889537
O O16 0.352467 0.558214 0.826102
O O17 0.000000 0.440646 0.000000
O O18 0.000000 0.088384 0.500000
#
# Coordination Sequence:
#
# PCOD8045227 Si02
#       8
#     2   2   2   2   2   2   2   2
#     4  10  21  43  75 110 140 176 239 304 358 429
#     4  11  24  41  70 106 139 184 226 297 360 432
#     4  12  24  42  70 104 138 189 235 294 361 427
#     4  11  23  43  71 102 138 183 241 301 360 416
#     4  12  27  48  62  96 143 191 238 289 365 438
#     4  12  21  39  68 103 134 177 240 290 352 425
#     4  11  25  44  67  96 141 185 239 300 359 428
#     4  11  23  45  69 100 141 182 235 298 357 423
#
# _framework density 22.457886999999999
#
# number of rings (size 3 to 8) (size 9 to 14) (size 15 to 20)
#    0.000    0.750    2.500    6.375    1.750    1.000 
#    0.000    0.625    0.000    0.000    0.000    0.000 
#    0.000    0.000    0.000    0.000    0.000    0.000 
#
# Total GULP energy -198284.573644 kJ/mol
# GULP energy per Si atom -12392.785853 kJ/mol
# Density = 2.240677 g / cm^3
# Si number density = 22.457887 Si / 1000 Ang^3
#
#
#
# Elastic Constant Matrix: (Units=GPa)
#
#
# Indices 1 2 3 4 5 6 
#
# 1 78.0452 39.0752 40.7142 0.0000 -10.4972 0.0000
# 2 39.0752 121.9779 51.9317 0.0000 -16.2910 0.0000
# 3 40.7142 51.9317 130.2721 0.0000 -17.7553 0.0000
# 4 0.0000 0.0000 0.0000 36.5730 0.0000 -5.6245
# 5 -10.4972 -16.2910 -17.7553 0.0000 38.8783 0.0000
# 6 0.0000 0.0000 0.0000 -5.6245 0.0000 27.9095
#
#
#
# Elastic Compliance Matrix: (Units=1/GPa)
#
#
# Indices 1 2 3 4 5 6 
#
# 1 0.016684 -0.003641 -0.003580 0.000000 0.001344 0.000000
# 2 -0.003641 0.010901 -0.002899 0.000000 0.002260 0.000000
# 3 -0.003580 -0.002899 0.010294 0.000000 0.002520 0.000000
# 4 0.000000 0.000000 0.000000 0.028217 0.000000 0.005687
# 5 0.001344 0.002260 0.002520 0.000000 0.028182 0.000000
# 6 0.000000 0.000000 0.000000 0.005687 0.000000 0.036976
#
#
# Mechanical properties :
#
#
# Convention : Reuss Voigt Hill
#
# Bulk Modulus (GPa) = 56.69273 65.97081 61.33177
# Shear Modulus (GPa) = 31.77116 33.91044 32.84080
#
# Velocity S-wave (km/s) = 3.76533 3.89003 3.82819
# Velocity P-wave (km/s) = 6.64849 7.04383 6.84901
#
# Compressibility (1/GPa) = 0.01763895
#
# Stress axis : x y z
#
# Youngs Moduli (GPa) = 59.93633 91.73455 97.14131
#
# Poissons Ratio (x) = 0.33403 0.34773
# Poissons Ratio (y) = 0.21824 0.28166
# Poissons Ratio (z) = 0.21455 0.26598
#
# Static dielectric constant tensor:
#      x y z
#    x 4.379880 0.000000 -0.034520 
#    y 0.000000 3.844100 0.000000 
#    z -0.034520 0.000000 4.271260 
# 
# 
# High freq. dielectric constant tensor:
#      x y z
#    x 1.885020 0.000000 -0.007090 
#    y 0.000000 1.883150 0.000000 
#    z -0.007090 0.000000 1.885600 
# 
# From -- ./inp_files/10703.got.cif
#   From: 2010.03.12/outbox.cif.g09.slc.cpg/sg3_6_cif.got.tgz:10703.got - 2010.03.31 09:20:49.
