data_PCOD8045433
_publ_section_title
;
Structure prediction by ZEFSAII (Michael W. Deem and Ramdas Pophale) SiO2 
 PCOD8045433
Probable space group: P 2
;
_chemical_formula_sum "Si O2"
_cell_formula_units_Z 16
_cell_length_a 13.659206
_cell_length_b 6.906036
_cell_length_c 8.827609
_cell_angle_alpha 90.000000
_cell_angle_beta 61.370754
_cell_angle_gamma 90.000000
_cell_volume 730.907702
_symmetry_space_group_name_H-M "P 2"
_symmetry_group_IT_number 3
_symmetry_cell_setting 'monoclinic'
loop_
_space_group_symop_operation_xyz
x,y,z
-x,y,-z
loop_
_atom_site_type_symbol
_atom_site_label
_atom_site_fract_x
_atom_site_fract_y
_atom_site_fract_z
Si Si1 0.813134 0.933790 0.322582
Si Si2 0.392872 0.406096 0.184608
Si Si3 0.038006 0.859975 0.318156
Si Si4 0.247320 0.240678 0.859609
Si Si5 0.494802 0.150112 0.679236
Si Si6 0.231611 0.111249 0.183965
Si Si7 0.121531 0.641295 0.974799
Si Si8 0.634339 0.847950 0.713398
O O1 0.812405 0.789825 0.180807
O O2 0.724833 0.864252 0.512050
O O3 0.936156 0.948476 0.299334
O O4 0.779565 0.145905 0.283527
O O5 0.410043 0.297854 0.332880
O O6 0.275765 0.324679 0.201859
O O7 0.383173 0.630359 0.224278
O O8 0.500000 0.360083 0.000000
O O9 0.000000 0.745635 0.500000
O O10 0.112564 0.036237 0.335261
O O11 0.110306 0.718480 0.156206
O O12 0.378099 0.251114 0.801200
O O13 0.195045 0.450165 0.915563
O O14 0.203028 0.103359 0.026607
O O15 0.500000 0.108776 0.500000
O O16 0.517329 0.942541 0.744448
O O17 0.326661 0.960637 0.165300
O O18 0.000000 0.592282 0.000000
#
# Coordination Sequence:
#
# PCOD8045433 Si02
#       8
#     2   2   2   2   2   2   2   2
#     4  11  24  45  69 101 138 176 227 283 343 409
#     4  11  26  44  68 103 138 179 231 284 338 409
#     4  11  23  47  71  99 137 182 229 284 349 411
#     4  12  25  43  70  98 139 182 226 277 345 404
#     4  11  25  45  66 102 137 176 232 279 341 414
#     4  11  25  43  68  97 137 180 231 276 340 412
#     4  10  26  43  69 102 137 176 229 285 338 416
#     4  11  26  44  70  99 141 179 224 289 339 404
#
# _framework density 21.890591000000001
#
# number of rings (size 3 to 8) (size 9 to 14) (size 15 to 20)
#    0.000    1.000    5.000    0.000    7.000    1.500 
#    0.000    1.875    0.000    0.000    0.000    0.000 
#    0.000    0.000    0.000    0.000    0.000    0.000 
#
# Total GULP energy -198290.152447 kJ/mol
# GULP energy per Si atom -12393.134528 kJ/mol
# Density = 2.184077 g / cm^3
# Si number density = 21.890591 Si / 1000 Ang^3
#
#
#
# Elastic Constant Matrix: (Units=GPa)
#
#
# Indices 1 2 3 4 5 6 
#
# 1 111.2956 57.3834 24.1147 0.0000 0.4730 0.0000
# 2 57.3834 140.5091 46.5890 0.0000 4.2701 0.0000
# 3 24.1147 46.5890 87.2799 0.0000 5.2287 0.0000
# 4 0.0000 0.0000 0.0000 51.5360 0.0000 23.7418
# 5 0.4730 4.2701 5.2287 0.0000 38.2126 0.0000
# 6 0.0000 0.0000 0.0000 23.7418 0.0000 70.4221
#
#
#
# Elastic Compliance Matrix: (Units=1/GPa)
#
#
# Indices 1 2 3 4 5 6 
#
# 1 0.011437 -0.004408 -0.000835 0.000000 0.000465 0.000000
# 2 -0.004408 0.010351 -0.004276 0.000000 -0.000517 0.000000
# 3 -0.000835 -0.004276 0.014057 0.000000 -0.001435 0.000000
# 4 0.000000 0.000000 0.000000 0.022972 0.000000 -0.007745
# 5 0.000465 -0.000517 -0.001435 0.000000 0.026418 0.000000
# 6 0.000000 0.000000 0.000000 -0.007745 0.000000 0.016811
#
#
# Mechanical properties :
#
#
# Convention : Reuss Voigt Hill
#
# Bulk Modulus (GPa) = 59.50261 66.13986 62.82123
# Shear Modulus (GPa) = 39.46799 46.10065 42.78432
#
# Velocity S-wave (km/s) = 4.25074 4.59405 4.42573
# Velocity P-wave (km/s) = 7.16467 7.64329 7.40785
#
# Compressibility (1/GPa) = 0.01680599
#
# Stress axis : x y z
#
# Youngs Moduli (GPa) = 87.43737 96.61075 71.14081
#
# Poissons Ratio (x) = 0.42587 0.05939
# Poissons Ratio (y) = 0.38543 0.30422
# Poissons Ratio (z) = 0.07299 0.41313
#
# Static dielectric constant tensor:
#      x y z
#    x 4.186990 0.000000 -0.323040 
#    y 0.000000 3.725560 0.000000 
#    z -0.323040 0.000000 2.935690 
# 
# 
# High freq. dielectric constant tensor:
#      x y z
#    x 1.874800 0.000000 0.011550 
#    y 0.000000 1.842430 0.000000 
#    z 0.011550 0.000000 1.873240 
# 
# From -- ./inp_files/8311.got.cif
#   From: 2010.03.12/outbox.cif.g09.slc.cpg/sg3_5_cif.got.tgz:8311.got - 2010.03.31 09:20:49.
