data_PCOD8045302
_publ_section_title
;
Structure prediction by ZEFSAII (Michael W. Deem and Ramdas Pophale) SiO2 
 PCOD8045302
Probable space group: P 2
;
_chemical_formula_sum "Si O2"
_cell_formula_units_Z 5
_cell_length_a 6.896543
_cell_length_b 4.982708
_cell_length_c 5.474703
_cell_angle_alpha 90.000000
_cell_angle_beta 105.573715
_cell_angle_gamma 90.000000
_cell_volume 181.222711
_symmetry_space_group_name_H-M "P 2"
_symmetry_group_IT_number 3
_symmetry_cell_setting 'monoclinic'
loop_
_space_group_symop_operation_xyz
x,y,z
-x,y,-z
loop_
_atom_site_type_symbol
_atom_site_label
_atom_site_fract_x
_atom_site_fract_y
_atom_site_fract_z
Si Si1 0.679316 0.390320 0.239189
Si Si2 0.000000 0.188016 0.000000
Si Si3 0.216125 0.900122 0.457313
O O1 0.695948 0.604078 0.468951
O O2 0.633413 0.106016 0.352761
O O3 0.500000 0.475386 0.000000
O O4 0.892506 0.381217 0.163136
O O5 0.820370 0.994655 0.834693
O O6 0.000000 0.934604 0.500000
#
# Coordination Sequence:
#
# PCOD8045302 Si02
#       3
#     2   1   2
#     4  11  24  43  67  99 133 170 223 272 323 397
#     4  10  24  46  70  94 136 180 212 276 336 378
#     4  10  22  42  67  96 131 173 220 268 326 394
#
# _framework density 27.590361000000001
#
# number of rings (size 3 to 8) (size 9 to 14) (size 15 to 20)
#    0.000    1.600    0.000    4.800    0.000   16.000 
#    0.000   12.000    0.000    0.000    0.000    0.000 
#    0.000    0.000    0.000    0.000    0.000    0.000 
#
# Total GULP energy -61980.151382 kJ/mol
# GULP energy per Si atom -12396.030276 kJ/mol
# Density = 2.752756 g / cm^3
# Si number density = 27.590361 Si / 1000 Ang^3
#
#
#
# Elastic Constant Matrix: (Units=GPa)
#
#
# Indices 1 2 3 4 5 6 
#
# 1 62.1083 8.8810 16.6986 0.0000 18.4621 0.0000
# 2 8.8810 169.9607 50.6306 0.0000 10.9844 0.0000
# 3 16.6986 50.6306 149.9132 0.0000 28.7433 0.0000
# 4 0.0000 0.0000 0.0000 33.4719 0.0000 21.6762
# 5 18.4621 10.9844 28.7433 0.0000 46.5442 0.0000
# 6 0.0000 0.0000 0.0000 21.6762 0.0000 -0.0840
#
#
#
# Elastic Compliance Matrix: (Units=1/GPa)
#
#
# Indices 1 2 3 4 5 6 
#
# 1 0.018341 -0.000332 -0.000625 0.000000 -0.006811 0.000000
# 2 -0.000332 0.006550 -0.002160 0.000000 -0.000080 0.000000
# 3 -0.000625 -0.002160 0.008308 0.000000 -0.004373 0.000000
# 4 0.000000 0.000000 0.000000 0.000178 0.000000 0.045859
# 5 -0.006811 -0.000080 -0.004373 0.000000 0.026906 0.000000
# 6 0.000000 0.000000 0.000000 0.045859 0.000000 -0.070815
#
#
# Mechanical properties :
#
#
# Convention : Reuss Voigt Hill
#
# Bulk Modulus (GPa) = 37.08477 59.37806 48.23141
# Shear Modulus (GPa) = 1066.32483 36.37121 551.34802
#
# Velocity S-wave (km/s) = 19.68054 3.63472 14.15159
# Velocity P-wave (km/s) = 23.01960 6.25963 16.86838
#
# Compressibility (1/GPa) = 0.02696525
#
# Stress axis : x y z
#
# Youngs Moduli (GPa) = 54.52274 152.68117 120.36637
#
# Poissons Ratio (x) = 0.05069 0.07523
# Poissons Ratio (y) = 0.01810 0.25995
# Poissons Ratio (z) = 0.03408 0.32973
#
# Static dielectric constant tensor:
#      x y z
#    x 4.839820 0.000000 0.514140 
#    y 0.000000 4.935350 0.000000 
#    z 0.514140 0.000000 6.580740 
# 
# 
# High freq. dielectric constant tensor:
#      x y z
#    x 2.099470 0.000000 0.012450 
#    y 0.000000 2.104210 0.000000 
#    z 0.012450 0.000000 2.123790 
# 
# From -- ./inp_files/42.got.cif
#   From: 2010.03.12/outbox.cif.g09.slc.cpg/sg3_1_cif.got.tgz:42.got - 2010.03.31 09:20:49.
