data_PCOD8045912
_publ_section_title
;
Structure prediction by ZEFSAII (Michael W. Deem and Ramdas Pophale) SiO2 
 PCOD8045912
Probable space group: P 21
;
_chemical_formula_sum "Si O2"
_cell_formula_units_Z 14
_cell_length_a 9.388452
_cell_length_b 8.973781
_cell_length_c 10.913371
_cell_angle_alpha 90.000000
_cell_angle_beta 39.102757
_cell_angle_gamma 90.000000
_cell_volume 579.909551
_symmetry_space_group_name_H-M "P 21"
_symmetry_group_IT_number 4
_symmetry_cell_setting 'monoclinic'
loop_
_space_group_symop_operation_xyz
x,y,z
-x,1/2+y,-z
loop_
_atom_site_type_symbol
_atom_site_label
_atom_site_fract_x
_atom_site_fract_y
_atom_site_fract_z
Si Si1 0.810664 0.630010 0.413379
Si Si2 0.693507 0.137970 0.004592
Si Si3 0.384698 0.783236 0.687570
Si Si4 0.242170 0.805865 0.527821
Si Si5 0.497540 0.047596 0.766124
Si Si6 0.352788 0.940959 0.099637
Si Si7 0.926545 0.851841 0.530531
O O1 0.638329 0.748277 0.466494
O O2 0.673338 0.476181 0.521093
O O3 0.871030 0.692695 0.507788
O O4 0.038961 0.609619 0.184523
O O5 0.661245 0.173052 0.169343
O O6 0.603321 0.273747 0.980605
O O7 0.552573 0.992184 0.058305
O O8 0.214397 0.751796 0.687932
O O9 0.379175 0.956591 0.734038
O O10 0.426771 0.710112 0.329253
O O11 0.002714 0.810421 0.617659
O O12 0.332714 0.052731 0.994656
O O13 0.712131 0.958456 0.677715
O O14 0.117482 0.941462 0.328422
#
# Coordination Sequence:
#
# PCOD8045912 Si02
#       7
#     2   2   2   2   2   2   2
#     4  10  22  41  62  86 122 162 208 259 308 370
#     4  10  21  39  61  91 126 162 206 261 315 371
#     4  10  23  41  59  86 128 166 200 255 321 380
#     4  12  21  38  65  91 120 164 209 257 319 375
#     4  10  22  39  59  88 122 156 205 260 308 366
#     4  10  20  36  61  89 120 158 204 255 304 361
#     4  10  21  38  61  89 120 158 204 257 309 365
#
# _framework density 24.141696
#
# number of rings (size 3 to 8) (size 9 to 14) (size 15 to 20)
#    0.000    1.714    0.000    5.143    0.000    3.429 
#    0.000   11.429    0.000    0.000    0.000    0.000 
#    0.000    0.000    0.000    0.000    0.000    0.000 
#
# Total GULP energy -173505.940179 kJ/mol
# GULP energy per Si atom -12393.281441 kJ/mol
# Density = 2.408675 g / cm^3
# Si number density = 24.141696 Si / 1000 Ang^3
#
#
#
# Elastic Constant Matrix: (Units=GPa)
#
#
# Indices 1 2 3 4 5 6 
#
# 1 153.0414 24.1741 49.5613 0.0000 27.6861 0.0000
# 2 24.1741 95.9442 46.5889 0.0000 11.3031 0.0000
# 3 49.5613 46.5889 79.1445 0.0000 2.0963 0.0000
# 4 0.0000 0.0000 0.0000 30.8965 0.0000 -1.1465
# 5 27.6861 11.3031 2.0963 0.0000 24.4495 0.0000
# 6 0.0000 0.0000 0.0000 -1.1465 0.0000 28.6628
#
#
#
# Elastic Compliance Matrix: (Units=1/GPa)
#
#
# Indices 1 2 3 4 5 6 
#
# 1 0.011164 0.002756 -0.008264 0.000000 -0.013208 0.000000
# 2 0.002756 0.016217 -0.011016 0.000000 -0.009673 0.000000
# 3 -0.008264 -0.011016 0.023966 0.000000 0.012395 0.000000
# 4 0.000000 0.000000 0.000000 0.032414 0.000000 0.001297
# 5 -0.013208 -0.009673 0.012395 0.000000 0.059266 0.000000
# 6 0.000000 0.000000 0.000000 0.001297 0.000000 0.034940
#
#
# Mechanical properties :
#
#
# Convention : Reuss Voigt Hill
#
# Bulk Modulus (GPa) = 54.64411 63.19763 58.92087
# Shear Modulus (GPa) = 23.02929 30.65548 26.84239
#
# Velocity S-wave (km/s) = 3.09191 3.56731 3.33809
# Velocity P-wave (km/s) = 5.95235 6.57284 6.27027
#
# Compressibility (1/GPa) = 0.01830023
#
# Stress axis : x y z
#
# Youngs Moduli (GPa) = 89.57107 61.66363 41.72585
#
# Poissons Ratio (x) = -0.16992 0.34480
# Poissons Ratio (y) = -0.24683 0.45964
# Poissons Ratio (z) = 0.74017 0.67927
#
# Static dielectric constant tensor:
#      x y z
#    x 4.409720 0.000000 0.122580 
#    y 0.000000 4.400160 0.000000 
#    z 0.122580 0.000000 4.426360 
# 
# 
# High freq. dielectric constant tensor:
#      x y z
#    x 1.951280 0.000000 0.014180 
#    y 0.000000 1.957890 0.000000 
#    z 0.014180 0.000000 1.945100 
# 
# From -- ./inp_files/10992.got.cif
#   From: 2010.03.12/outbox.cif.g09.slc.cpg/sg4_6_cif.got.tgz:10992.got - 2010.03.31 09:31:35.
