data_PCOD8045932
_publ_section_title
;
Structure prediction by ZEFSAII (Michael W. Deem and Ramdas Pophale) SiO2 
 PCOD8045932
Probable space group: P 21
;
_chemical_formula_sum "Si O2"
_cell_formula_units_Z 16
_cell_length_a 7.588852
_cell_length_b 16.741954
_cell_length_c 9.150108
_cell_angle_alpha 90.000000
_cell_angle_beta 127.934002
_cell_angle_gamma 90.000000
_cell_volume 916.918998
_symmetry_space_group_name_H-M "P 21"
_symmetry_group_IT_number 4
_symmetry_cell_setting 'monoclinic'
loop_
_space_group_symop_operation_xyz
x,y,z
-x,1/2+y,-z
loop_
_atom_site_type_symbol
_atom_site_label
_atom_site_fract_x
_atom_site_fract_y
_atom_site_fract_z
Si Si1 0.681649 0.267640 0.903718
Si Si2 0.009052 0.139530 0.203088
Si Si3 0.624455 0.361334 0.607131
Si Si4 0.923740 0.378522 0.487277
Si Si5 0.200638 0.483511 0.836432
Si Si6 0.253277 0.259895 0.526993
Si Si7 0.158892 0.993635 0.130284
Si Si8 0.306963 0.925549 0.915195
O O1 0.770296 0.308826 0.798640
O O2 0.432044 0.232751 0.742735
O O3 0.850757 0.199358 0.035210
O O4 0.660544 0.333781 0.020120
O O5 0.181439 0.183815 0.396627
O O6 0.854402 0.077872 0.217316
O O7 0.158351 0.089040 0.162051
O O8 0.369893 0.327385 0.480767
O O9 0.633466 0.452162 0.675808
O O10 0.725472 0.355242 0.497346
O O11 0.114814 0.433115 0.655006
O O12 0.032997 0.296443 0.487970
O O13 0.822468 0.428876 0.302701
O O14 0.068954 0.455669 0.916284
O O15 0.460317 0.470096 0.989923
O O16 0.166986 0.976168 0.962614
#
# Coordination Sequence:
#
# PCOD8045932 Si02
#       8
#     2   2   2   2   2   2   2   2
#     4   9  19  38  60  82 116 153 197 234 285 347
#     4  10  20  40  59  84 122 155 184 249 303 324
#     4   8  19  38  57  83 112 151 199 229 275 358
#     4  11  19  36  62  89 108 155 197 234 288 346
#     4   9  21  38  57  86 122 146 193 246 283 343
#     4  10  20  37  61  83 120 150 189 247 286 336
#     4   8  19  38  59  80 121 149 189 244 282 340
#     4  11  19  37  63  85 111 159 200 227 290 356
#
# _framework density 17.449743000000002
#
# number of rings (size 3 to 8) (size 9 to 14) (size 15 to 20)
#    1.500    1.000    2.500    0.000    0.000    2.000 
#    4.500    3.750    0.000    0.000    0.000    0.000 
#    0.000    0.000    0.000    0.000    0.000    0.000 
#
# Total GULP energy -198218.611540 kJ/mol
# GULP energy per Si atom -12388.663221 kJ/mol
# Density = 1.741003 g / cm^3
# Si number density = 17.449743 Si / 1000 Ang^3
#
#
#
# Elastic Constant Matrix: (Units=GPa)
#
#
# Indices 1 2 3 4 5 6 
#
# 1 67.8074 13.9642 14.8979 0.0000 -7.7634 0.0000
# 2 13.9642 82.5240 14.3840 0.0000 7.6309 0.0000
# 3 14.8979 14.3840 60.3996 0.0000 3.3856 0.0000
# 4 0.0000 0.0000 0.0000 29.5991 0.0000 6.8423
# 5 -7.7634 7.6309 3.3856 0.0000 26.9368 0.0000
# 6 0.0000 0.0000 0.0000 6.8423 0.0000 32.4831
#
#
#
# Elastic Compliance Matrix: (Units=1/GPa)
#
#
# Indices 1 2 3 4 5 6 
#
# 1 0.016860 -0.002748 -0.003847 0.000000 0.006121 0.000000
# 2 -0.002748 0.013375 -0.002267 0.000000 -0.004296 0.000000
# 3 -0.003847 -0.002267 0.018199 0.000000 -0.002754 0.000000
# 4 0.000000 0.000000 0.000000 0.035514 0.000000 -0.007481
# 5 0.006121 -0.004296 -0.002754 0.000000 0.040451 0.000000
# 6 0.000000 0.000000 0.000000 -0.007481 0.000000 0.032361
#
#
# Mechanical properties :
#
#
# Convention : Reuss Voigt Hill
#
# Bulk Modulus (GPa) = 32.56247 33.02480 32.79364
# Shear Modulus (GPa) = 27.06777 28.96946 28.01861
#
# Velocity S-wave (km/s) = 3.94278 4.07893 4.01143
# Velocity P-wave (km/s) = 6.27922 6.41485 6.34740
#
# Compressibility (1/GPa) = 0.03071021
#
# Stress axis : x y z
#
# Youngs Moduli (GPa) = 59.31291 74.76592 54.94671
#
# Poissons Ratio (x) = 0.20548 0.21139
# Poissons Ratio (y) = 0.16301 0.12454
# Poissons Ratio (z) = 0.22819 0.16946
#
# Static dielectric constant tensor:
#      x y z
#    x 3.127670 0.000000 -0.038360 
#    y 0.000000 3.129010 0.000000 
#    z -0.038360 0.000000 3.103260 
# 
# 
# High freq. dielectric constant tensor:
#      x y z
#    x 1.663960 0.000000 -0.001510 
#    y 0.000000 1.662300 0.000000 
#    z -0.001510 0.000000 1.666600 
# 
# From -- ./inp_files/6872.got.cif
#   From: 2010.03.12/outbox.cif.g09.slc.cpg/sg4_4_cif.got.tgz:6872.got - 2010.03.31 09:31:35.
