data_PCOD8045195
_publ_section_title
;
Structure prediction by ZEFSAII (Michael W. Deem and Ramdas Pophale) SiO2 
 PCOD8045195
Probable space group: P 2
;
_chemical_formula_sum "Si O2"
_cell_formula_units_Z 13
_cell_length_a 10.337922
_cell_length_b 8.638309
_cell_length_c 12.629844
_cell_angle_alpha 90.000000
_cell_angle_beta 145.475378
_cell_angle_gamma 90.000000
_cell_volume 639.233350
_symmetry_space_group_name_H-M "P 2"
_symmetry_group_IT_number 3
_symmetry_cell_setting 'monoclinic'
loop_
_space_group_symop_operation_xyz
x,y,z
-x,y,-z
loop_
_atom_site_type_symbol
_atom_site_label
_atom_site_fract_x
_atom_site_fract_y
_atom_site_fract_z
Si Si1 0.525065 0.809520 0.344541
Si Si2 0.866121 0.830413 0.757938
Si Si3 0.013324 0.495618 0.817923
Si Si4 0.000000 0.292269 0.000000
Si Si5 0.191716 0.520328 0.545676
Si Si6 0.276528 0.058956 0.064924
Si Si7 0.535117 0.340211 0.904681
O O1 0.696736 0.871231 0.548737
O O2 0.272963 0.792360 0.227983
O O3 0.625105 0.656262 0.356406
O O4 0.485010 0.944380 0.232441
O O5 0.006288 0.677860 0.827735
O O6 0.040163 0.972641 0.879966
O O7 0.275864 0.457158 0.009876
O O8 0.895234 0.396527 0.832840
O O9 0.912548 0.454154 0.634156
O O10 0.783937 0.184262 0.884862
O O11 0.313146 0.373647 0.683232
O O12 0.000000 0.582341 0.500000
O O13 0.378502 0.161791 0.038139
O O14 0.500000 0.390066 0.000000
#
# Coordination Sequence:
#
# PCOD8045195 Si02
#       7
#     2   2   2   1   2   2   2
#     4  10  22  40  63  93 122 166 209 257 324 370
#     4  10  21  40  64  91 129 158 205 270 317 375
#     4  10  23  41  67  95 125 163 216 269 311 373
#     4  10  22  36  66  96 126 164 196 256 336 370
#     4  11  23  45  67  92 125 170 222 265 299 369
#     4  11  22  40  62  93 131 163 203 261 322 387
#     4  11  24  43  63  91 127 173 214 256 323 373
#
# _framework density 20.336860999999999
#
# number of rings (size 3 to 8) (size 9 to 14) (size 15 to 20)
#    0.000    1.538    3.077    0.923    6.462    2.462 
#    5.538    0.000    0.000    0.000    0.000    0.000 
#    0.000    0.000    0.000    0.000    0.000    0.000 
#
# Total GULP energy -161100.387089 kJ/mol
# GULP energy per Si atom -12392.337468 kJ/mol
# Density = 2.029057 g / cm^3
# Si number density = 20.336861 Si / 1000 Ang^3
#
#
#
# Elastic Constant Matrix: (Units=GPa)
#
#
# Indices 1 2 3 4 5 6 
#
# 1 79.5479 36.6697 39.9069 0.0000 -4.8921 0.0000
# 2 36.6697 93.8199 54.1693 0.0000 4.2025 0.0000
# 3 39.9069 54.1693 88.2742 0.0000 -8.0392 0.0000
# 4 0.0000 0.0000 0.0000 29.6714 0.0000 5.4653
# 5 -4.8921 4.2025 -8.0392 0.0000 35.1578 0.0000
# 6 0.0000 0.0000 0.0000 5.4653 0.0000 14.4751
#
#
#
# Elastic Compliance Matrix: (Units=1/GPa)
#
#
# Indices 1 2 3 4 5 6 
#
# 1 0.017016 -0.003662 -0.005300 0.000000 0.001593 0.000000
# 2 -0.003662 0.017984 -0.009827 0.000000 -0.004906 0.000000
# 3 -0.005300 -0.009827 0.020216 0.000000 0.005060 0.000000
# 4 0.000000 0.000000 0.000000 0.036222 0.000000 -0.013676
# 5 0.001593 -0.004906 0.005060 0.000000 0.030408 0.000000
# 6 0.000000 0.000000 0.000000 -0.013676 0.000000 0.074248
#
#
# Mechanical properties :
#
#
# Convention : Reuss Voigt Hill
#
# Bulk Modulus (GPa) = 56.69939 58.12599 57.41269
# Shear Modulus (GPa) = 20.87243 24.58726 22.72985
#
# Velocity S-wave (km/s) = 3.20712 3.48084 3.34678
# Velocity P-wave (km/s) = 6.45405 6.69318 6.57470
#
# Compressibility (1/GPa) = 0.01763687
#
# Stress axis : x y z
#
# Youngs Moduli (GPa) = 58.76773 55.60636 49.46672
#
# Poissons Ratio (x) = 0.20362 0.26220
# Poissons Ratio (y) = 0.21520 0.48611
# Poissons Ratio (z) = 0.31149 0.54644
#
# Static dielectric constant tensor:
#      x y z
#    x 3.929330 0.000000 -0.023760 
#    y 0.000000 3.676780 0.000000 
#    z -0.023760 0.000000 3.720290 
# 
# 
# High freq. dielectric constant tensor:
#      x y z
#    x 1.794050 0.000000 -0.002080 
#    y 0.000000 1.791470 0.000000 
#    z -0.002080 0.000000 1.795630 
# 
# From -- ./inp_files/10851.got.cif
#   From: 2010.03.12/outbox.cif.g09.slc.cpg/sg3_6_cif.got.tgz:10851.got - 2010.03.31 09:20:49.
