data_PCOD8045998
_publ_section_title
;
Structure prediction by ZEFSAII (Michael W. Deem and Ramdas Pophale) SiO2 
 PCOD8045998
Probable space group: P 21
;
_chemical_formula_sum "Si O2"
_cell_formula_units_Z 16
_cell_length_a 7.900436
_cell_length_b 17.719791
_cell_length_c 7.209039
_cell_angle_alpha 90.000000
_cell_angle_beta 38.815263
_cell_angle_gamma 90.000000
_cell_volume 632.592318
_symmetry_space_group_name_H-M "P 21"
_symmetry_group_IT_number 4
_symmetry_cell_setting 'monoclinic'
loop_
_space_group_symop_operation_xyz
x,y,z
-x,1/2+y,-z
loop_
_atom_site_type_symbol
_atom_site_label
_atom_site_fract_x
_atom_site_fract_y
_atom_site_fract_z
Si Si1 0.292812 0.087530 0.441711
Si Si2 0.721372 0.282219 0.713730
Si Si3 0.759443 0.521094 0.877848
Si Si4 0.194233 0.187376 0.220636
Si Si5 0.697244 0.999322 0.463795
Si Si6 0.140391 0.623118 0.923156
Si Si7 0.945572 0.295404 0.931848
Si Si8 0.490156 0.864914 0.442089
O O1 0.250582 0.016760 0.337916
O O2 0.150834 0.162624 0.473660
O O3 0.608563 0.106363 0.157269
O O4 0.132334 0.077701 0.773286
O O5 0.856919 0.307205 0.792152
O O6 0.593271 0.350683 0.701113
O O7 0.948587 0.244002 0.386234
O O8 0.483007 0.224477 0.951349
O O9 0.807342 0.610024 0.901352
O O10 0.006100 0.467787 0.734651
O O11 0.483988 0.491128 0.199543
O O12 0.745278 0.086237 0.364848
O O13 0.570713 0.953519 0.397624
O O14 0.087613 0.711562 0.954364
O O15 0.259953 0.314899 0.695869
O O16 0.761361 0.350574 0.209410
#
# Coordination Sequence:
#
# PCOD8045998 Si02
#       8
#     2   2   2   2   2   2   2   2
#     4  10  20  40  66 106 132 170 228 302 351 418
#     4  12  23  46  70 106 148 179 243 301 361 428
#     4  10  22  41  70  94 136 179 227 285 358 413
#     4  10  20  38  70 104 135 170 234 306 355 410
#     4  12  26  46  63 104 149 182 235 298 356 442
#     4  12  23  42  72 104 143 173 248 301 358 417
#     4  12  24  47  76 105 136 198 242 303 358 433
#     4  12  30  46  69 105 151 193 241 290 371 443
#
# _framework density 25.292752
#
# number of rings (size 3 to 8) (size 9 to 14) (size 15 to 20)
#    0.750    0.000    2.500    5.250    5.250    0.000 
#    6.750    0.000    0.000    0.000    0.000    0.000 
#    0.000    0.000    0.000    0.000    0.000    0.000 
#
# Total GULP energy -198218.085925 kJ/mol
# GULP energy per Si atom -12388.630370 kJ/mol
# Density = 2.523518 g / cm^3
# Si number density = 25.292752 Si / 1000 Ang^3
#
#
#
# Elastic Constant Matrix: (Units=GPa)
#
#
# Indices 1 2 3 4 5 6 
#
# 1 69.4628 -2.8890 22.1038 0.0000 -1.0479 0.0000
# 2 -2.8890 35.2956 2.0737 0.0000 2.4495 0.0000
# 3 22.1038 2.0737 145.8412 0.0000 -11.5007 0.0000
# 4 0.0000 0.0000 0.0000 28.9482 0.0000 -4.0348
# 5 -1.0479 2.4495 -11.5007 0.0000 39.1601 0.0000
# 6 0.0000 0.0000 0.0000 -4.0348 0.0000 28.6422
#
#
#
# Elastic Compliance Matrix: (Units=1/GPa)
#
#
# Indices 1 2 3 4 5 6 
#
# 1 0.015198 0.001408 -0.002353 0.000000 -0.000372 0.000000
# 2 0.001408 0.028631 -0.000777 0.000000 -0.001981 0.000000
# 3 -0.002353 -0.000777 0.007395 0.000000 0.002157 0.000000
# 4 0.000000 0.000000 0.000000 0.035236 0.000000 0.004964
# 5 -0.000372 -0.001981 0.002157 0.000000 0.026284 0.000000
# 6 0.000000 0.000000 0.000000 0.004964 0.000000 0.035613
#
#
# Mechanical properties :
#
#
# Convention : Reuss Voigt Hill
#
# Bulk Modulus (GPa) = 20.92929 32.57517 26.75223
# Shear Modulus (GPa) = 29.81066 34.63750 32.22408
#
# Velocity S-wave (km/s) = 3.43683 3.70464 3.57325
# Velocity P-wave (km/s) = 4.90325 5.58627 5.25587
#
# Compressibility (1/GPa) = 0.04777992
#
# Stress axis : x y z
#
# Youngs Moduli (GPa) = 65.79892 34.92778 135.23515
#
# Poissons Ratio (x) = -0.04918 0.31818
# Poissons Ratio (y) = -0.09265 0.10504
# Poissons Ratio (z) = 0.15481 0.02713
#
# Static dielectric constant tensor:
#      x y z
#    x 4.866350 0.000000 -0.256820 
#    y 0.000000 4.305390 0.000000 
#    z -0.256820 0.000000 4.493820 
# 
# 
# High freq. dielectric constant tensor:
#      x y z
#    x 2.023420 0.000000 -0.015830 
#    y 0.000000 1.985540 0.000000 
#    z -0.015830 0.000000 2.020230 
# 
# From -- ./inp_files/6921.got.cif
#   From: 2010.03.12/outbox.cif.g09.slc.cpg/sg4_4_cif.got.tgz:6921.got - 2010.03.31 09:31:35.
