data_PCOD8045955
_publ_section_title
;
Structure prediction by ZEFSAII (Michael W. Deem and Ramdas Pophale) SiO2 
 PCOD8045955
Probable space group: P 21
;
_chemical_formula_sum "Si O2"
_cell_formula_units_Z 14
_cell_length_a 8.338030
_cell_length_b 4.940922
_cell_length_c 18.449802
_cell_angle_alpha 90.000000
_cell_angle_beta 46.886519
_cell_angle_gamma 90.000000
_cell_volume 554.864459
_symmetry_space_group_name_H-M "P 21"
_symmetry_group_IT_number 4
_symmetry_cell_setting 'monoclinic'
loop_
_space_group_symop_operation_xyz
x,y,z
-x,1/2+y,-z
loop_
_atom_site_type_symbol
_atom_site_label
_atom_site_fract_x
_atom_site_fract_y
_atom_site_fract_z
Si Si1 0.300034 0.700590 0.246472
Si Si2 0.882374 0.879419 0.193155
Si Si3 0.596371 0.018664 0.557248
Si Si4 0.384932 0.867887 0.763077
Si Si5 0.172983 0.227221 0.633753
Si Si6 0.850683 0.420814 0.560523
Si Si7 0.376953 0.847988 0.064982
O O1 0.473851 0.461681 0.210643
O O2 0.269993 0.909507 0.323306
O O3 0.376972 0.867880 0.152456
O O4 0.059718 0.570104 0.302446
O O5 0.808140 0.579651 0.194649
O O6 0.830821 0.921514 0.294411
O O7 0.142080 0.916737 0.101045
O O8 0.742042 0.085369 0.186275
O O9 0.373563 0.015998 0.578631
O O10 0.666479 0.323274 0.559344
O O11 0.555445 0.840962 0.642869
O O12 0.795840 0.906460 0.447734
O O13 0.942174 0.713200 0.510578
O O14 0.438986 0.545004 0.023017
#
# Coordination Sequence:
#
# PCOD8045955 Si02
#       7
#     2   2   2   2   2   2   2
#     4  10  24  43  69 101 143 187 239 291 358 418
#     4  10  22  43  68  97 139 179 225 289 351 413
#     4  10  21  34  62  90 140 179 234 268 333 402
#     4  10  22  42  65  98 139 185 223 282 349 419
#     4  10  20  38  59 100 131 193 231 287 330 412
#     4  11  24  41  62  96 139 183 227 275 340 415
#     4  11  25  47  75 106 137 180 241 304 361 427
#
# _framework density 25.231387000000002
#
# number of rings (size 3 to 8) (size 9 to 14) (size 15 to 20)
#    0.000    1.714    1.429    1.714    2.000    9.143 
#    2.571    2.857    0.000    0.000    0.000    0.000 
#    0.000    0.000    0.000    0.000    0.000    0.000 
#
# Total GULP energy -173600.294811 kJ/mol
# GULP energy per Si atom -12400.021058 kJ/mol
# Density = 2.517396 g / cm^3
# Si number density = 25.231387 Si / 1000 Ang^3
#
#
#
# Elastic Constant Matrix: (Units=GPa)
#
#
# Indices 1 2 3 4 5 6 
#
# 1 137.8738 7.9749 47.0300 0.0000 -14.4993 0.0000
# 2 7.9749 46.2951 21.6831 0.0000 -2.7928 0.0000
# 3 47.0300 21.6831 109.2480 0.0000 -9.8902 0.0000
# 4 0.0000 0.0000 0.0000 27.6023 0.0000 -9.5274
# 5 -14.4993 -2.7928 -9.8902 0.0000 43.6767 0.0000
# 6 0.0000 0.0000 0.0000 -9.5274 0.0000 42.3987
#
#
#
# Elastic Compliance Matrix: (Units=1/GPa)
#
#
# Indices 1 2 3 4 5 6 
#
# 1 0.008687 0.000322 -0.003615 0.000000 0.002086 0.000000
# 2 0.000322 0.023835 -0.004821 0.000000 0.000540 0.000000
# 3 -0.003615 -0.004821 0.011771 0.000000 0.001157 0.000000
# 4 0.000000 0.000000 0.000000 0.039275 0.000000 0.008826
# 5 0.002086 0.000540 0.001157 0.000000 0.023884 0.000000
# 6 0.000000 0.000000 0.000000 0.008826 0.000000 0.025569
#
#
# Mechanical properties :
#
#
# Convention : Reuss Voigt Hill
#
# Bulk Modulus (GPa) = 35.62862 49.64366 42.63614
# Shear Modulus (GPa) = 31.52518 37.18415 34.35466
#
# Velocity S-wave (km/s) = 3.53858 3.84308 3.69397
# Velocity P-wave (km/s) = 5.55399 6.27777 5.92694
#
# Compressibility (1/GPa) = 0.02806733
#
# Stress axis : x y z
#
# Youngs Moduli (GPa) = 115.11825 41.95436 84.95361
#
# Poissons Ratio (x) = -0.01353 0.30708
# Poissons Ratio (y) = -0.03712 0.40954
# Poissons Ratio (z) = 0.41612 0.20225
#
# Static dielectric constant tensor:
#      x y z
#    x 4.923680 0.000000 -0.192370 
#    y 0.000000 4.014660 0.000000 
#    z -0.192370 0.000000 4.432220 
# 
# 
# High freq. dielectric constant tensor:
#      x y z
#    x 2.034920 0.000000 -0.022020 
#    y 0.000000 1.980220 0.000000 
#    z -0.022020 0.000000 1.989720 
# 
# From -- ./inp_files/15544.got.cif
#   From: 2010.03.12/outbox.cif.g09.slc.cpg/sg4_8_cif.got.tgz:15544.got - 2010.03.31 09:31:35.
