data_PCOD8045933
_publ_section_title
;
Structure prediction by ZEFSAII (Michael W. Deem and Ramdas Pophale) SiO2 
 PCOD8045933
Probable space group: P 21
;
_chemical_formula_sum "Si O2"
_cell_formula_units_Z 14
_cell_length_a 9.359720
_cell_length_b 8.769214
_cell_length_c 8.707791
_cell_angle_alpha 90.000000
_cell_angle_beta 115.231768
_cell_angle_gamma 90.000000
_cell_volume 646.522594
_symmetry_space_group_name_H-M "P 21"
_symmetry_group_IT_number 4
_symmetry_cell_setting 'monoclinic'
loop_
_space_group_symop_operation_xyz
x,y,z
-x,1/2+y,-z
loop_
_atom_site_type_symbol
_atom_site_label
_atom_site_fract_x
_atom_site_fract_y
_atom_site_fract_z
Si Si1 0.406209 0.429920 0.313642
Si Si2 0.960766 0.002886 0.309330
Si Si3 0.840469 0.327576 0.195551
Si Si4 0.254611 0.838855 0.506290
Si Si5 0.325240 0.371232 0.953632
Si Si6 0.573084 0.180444 0.910221
Si Si7 0.871946 0.011394 0.611560
O O1 0.565954 0.366590 0.465399
O O2 0.425361 0.606667 0.260431
O O3 0.271407 0.417289 0.379418
O O4 0.359086 0.323625 0.145964
O O5 0.891796 0.961620 0.445409
O O6 0.147062 0.972640 0.387651
O O7 0.947949 0.177625 0.255994
O O8 0.863440 0.886155 0.155882
O O9 0.740995 0.347371 0.306508
O O10 0.961723 0.469795 0.224671
O O11 0.712400 0.307778 0.998975
O O12 0.174038 0.687962 0.400800
O O13 0.402833 0.252729 0.870156
O O14 0.394954 0.542395 0.953710
#
# Coordination Sequence:
#
# PCOD8045933 Si02
#       7
#     2   2   2   2   2   2   2
#     4  10  22  37  60  88 124 151 199 254 300 345
#     4   9  20  36  61  85 114 155 204 238 291 366
#     4   9  17  38  59  82 111 160 196 239 285 359
#     4  10  20  37  61  86 116 156 200 238 294 364
#     4   9  19  36  61  85 116 159 204 239 297 354
#     4   9  18  35  61  83 118 156 200 240 288 358
#     4  10  22  37  61  85 121 153 193 252 301 342
#
# _framework density 21.654308
#
# number of rings (size 3 to 8) (size 9 to 14) (size 15 to 20)
#    0.857    1.714    1.429    0.000    0.000    8.000 
#    2.571    0.000    3.143    0.000    0.000    0.000 
#    0.000    0.000    0.000    0.000    0.000    0.000 
#
# Total GULP energy -173453.322152 kJ/mol
# GULP energy per Si atom -12389.523011 kJ/mol
# Density = 2.160502 g / cm^3
# Si number density = 21.654308 Si / 1000 Ang^3
#
#
#
# Elastic Constant Matrix: (Units=GPa)
#
#
# Indices 1 2 3 4 5 6 
#
# 1 81.5079 8.1171 10.0350 0.0000 6.8227 0.0000
# 2 8.1171 39.6147 14.3806 0.0000 2.9161 0.0000
# 3 10.0350 14.3806 60.7118 0.0000 19.5453 0.0000
# 4 0.0000 0.0000 0.0000 31.1434 0.0000 12.9016
# 5 6.8227 2.9161 19.5453 0.0000 20.9707 0.0000
# 6 0.0000 0.0000 0.0000 12.9016 0.0000 30.7038
#
#
#
# Elastic Compliance Matrix: (Units=1/GPa)
#
#
# Indices 1 2 3 4 5 6 
#
# 1 0.012834 -0.002195 -0.000508 0.000000 -0.003397 0.000000
# 2 -0.002195 0.028147 -0.007535 0.000000 0.003823 0.000000
# 3 -0.000508 -0.007535 0.025644 0.000000 -0.022688 0.000000
# 4 0.000000 0.000000 0.000000 0.038877 0.000000 -0.016336
# 5 -0.003397 0.003823 -0.022688 0.000000 0.069405 0.000000
# 6 0.000000 0.000000 0.000000 -0.016336 0.000000 0.039434
#
#
# Mechanical properties :
#
#
# Convention : Reuss Voigt Hill
#
# Bulk Modulus (GPa) = 21.66894 27.43330 24.55112
# Shear Modulus (GPa) = 19.98403 26.51704 23.25053
#
# Velocity S-wave (km/s) = 3.04117 3.50317 3.28031
# Velocity P-wave (km/s) = 4.72864 5.39066 5.07047
#
# Compressibility (1/GPa) = 0.04614900
#
# Stress axis : x y z
#
# Youngs Moduli (GPa) = 77.91660 35.52791 38.99538
#
# Poissons Ratio (x) = 0.07800 0.01980
# Poissons Ratio (y) = 0.17106 0.29383
# Poissons Ratio (z) = 0.03956 0.26770
#
# Static dielectric constant tensor:
#      x y z
#    x 3.597920 0.000000 0.203020 
#    y 0.000000 3.713990 0.000000 
#    z 0.203020 0.000000 3.768920 
# 
# 
# High freq. dielectric constant tensor:
#      x y z
#    x 1.829810 0.000000 0.026380 
#    y 0.000000 1.829480 0.000000 
#    z 0.026380 0.000000 1.836260 
# 
# From -- ./inp_files/10894.got.cif
#   From: 2010.03.12/outbox.cif.g09.slc.cpg/sg4_6_cif.got.tgz:10894.got - 2010.03.31 09:31:35.
