data_PCOD8045418
_publ_section_title
;
Structure prediction by ZEFSAII (Michael W. Deem and Ramdas Pophale) SiO2 
 PCOD8045418
Probable space group: P 2
;
_chemical_formula_sum "Si O2"
_cell_formula_units_Z 12
_cell_length_a 12.743168
_cell_length_b 5.252885
_cell_length_c 7.206731
_cell_angle_alpha 90.000000
_cell_angle_beta 71.879081
_cell_angle_gamma 90.000000
_cell_volume 458.480706
_symmetry_space_group_name_H-M "P 2"
_symmetry_group_IT_number 3
_symmetry_cell_setting 'monoclinic'
loop_
_space_group_symop_operation_xyz
x,y,z
-x,y,-z
loop_
_atom_site_type_symbol
_atom_site_label
_atom_site_fract_x
_atom_site_fract_y
_atom_site_fract_z
Si Si1 0.439792 0.109810 0.254176
Si Si2 0.953922 0.749726 0.234733
Si Si3 0.712453 0.416968 0.876459
Si Si4 0.429625 0.603487 0.742941
Si Si5 0.285727 0.755958 0.493027
Si Si6 0.048742 0.249754 0.180898
O O1 0.392282 0.219142 0.083903
O O2 0.510557 0.330047 0.309162
O O3 0.497330 0.832759 0.209882
O O4 0.322459 0.046238 0.424254
O O5 0.822190 0.767898 0.319522
O O6 0.996027 0.493947 0.313561
O O7 0.009572 0.992207 0.306058
O O8 0.000000 0.731450 0.000000
O O9 0.731637 0.578685 0.678211
O O10 0.819561 0.262817 0.883005
O O11 0.677499 0.597259 0.065109
O O12 0.389968 0.652137 0.554833
O O13 0.000000 0.230127 0.000000
#
# Coordination Sequence:
#
# PCOD8045418 Si02
#       6
#     2   2   2   2   2   2
#     4  12  30  50  79 124 161 214 276 326 404 490
#     4  10  24  49  78 109 150 203 261 326 404 471
#     4  12  30  51  82 120 160 214 276 334 408 489
#     4  12  30  52  83 114 173 216 264 338 408 488
#     4  12  30  51  82 120 160 214 276 334 408 489
#     4  10  24  49  78 109 150 203 261 326 404 471
#
# _framework density 26.173401999999999
#
# number of rings (size 3 to 8) (size 9 to 14) (size 15 to 20)
#    0.000    0.667    1.667    3.000   14.000    3.333 
#    0.000    0.000    0.000    0.000    0.000    0.000 
#    0.000    0.000    0.000    0.000    0.000    0.000 
#
# Total GULP energy -148704.261645 kJ/mol
# GULP energy per Si atom -12392.021804 kJ/mol
# Density = 2.611383 g / cm^3
# Si number density = 26.173402 Si / 1000 Ang^3
#
#
#
# Elastic Constant Matrix: (Units=GPa)
#
#
# Indices 1 2 3 4 5 6 
#
# 1 121.1673 26.7723 8.0293 0.0000 4.0393 0.0000
# 2 26.7723 183.8550 9.3740 0.0000 -14.9284 0.0000
# 3 8.0293 9.3740 96.9432 0.0000 4.6251 0.0000
# 4 0.0000 0.0000 0.0000 21.2346 0.0000 -22.1815
# 5 4.0393 -14.9284 4.6251 0.0000 42.4107 0.0000
# 6 0.0000 0.0000 0.0000 -22.1815 0.0000 66.9768
#
#
#
# Elastic Compliance Matrix: (Units=1/GPa)
#
#
# Indices 1 2 3 4 5 6 
#
# 1 0.008623 -0.001329 -0.000527 0.000000 -0.001231 0.000000
# 2 -0.001329 0.005843 -0.000562 0.000000 0.002245 0.000000
# 3 -0.000527 -0.000562 0.010475 0.000000 -0.001290 0.000000
# 4 0.000000 0.000000 0.000000 0.072002 0.000000 0.023846
# 5 -0.001231 0.002245 -0.001290 0.000000 0.024627 0.000000
# 6 0.000000 0.000000 0.000000 0.023846 0.000000 0.022828
#
#
# Mechanical properties :
#
#
# Convention : Reuss Voigt Hill
#
# Bulk Modulus (GPa) = 49.73770 54.47963 52.10867
# Shear Modulus (GPa) = 32.06459 49.97707 41.02083
#
# Velocity S-wave (km/s) = 3.50392 4.37448 3.96317
# Velocity P-wave (km/s) = 5.95099 6.80991 6.39489
#
# Compressibility (1/GPa) = 0.02010547
#
# Stress axis : x y z
#
# Youngs Moduli (GPa) = 115.97419 171.13099 95.46671
#
# Poissons Ratio (x) = 0.22739 0.05030
# Poissons Ratio (y) = 0.15410 0.05366
# Poissons Ratio (z) = 0.06111 0.09619
#
# Static dielectric constant tensor:
#      x y z
#    x 4.459690 0.000000 -0.246230 
#    y 0.000000 6.641990 0.000000 
#    z -0.246230 0.000000 4.534280 
# 
# 
# High freq. dielectric constant tensor:
#      x y z
#    x 2.054550 0.000000 -0.012280 
#    y 0.000000 2.068770 0.000000 
#    z -0.012280 0.000000 2.050880 
# 
# From -- ./inp_files/6597.got.cif
#   From: 2010.03.12/outbox.cif.g09.slc.cpg/sg3_4_cif.got.tgz:6597.got - 2010.03.31 09:20:49.
