data_PCOD8045813
_publ_section_title
;
Structure prediction by ZEFSAII (Michael W. Deem and Ramdas Pophale) SiO2 
 PCOD8045813
Probable space group: P 21
;
_chemical_formula_sum "Si O2"
_cell_formula_units_Z 14
_cell_length_a 16.834054
_cell_length_b 8.113584
_cell_length_c 15.712589
_cell_angle_alpha 90.000000
_cell_angle_beta 17.741648
_cell_angle_gamma 90.000000
_cell_volume 653.970190
_symmetry_space_group_name_H-M "P 21"
_symmetry_group_IT_number 4
_symmetry_cell_setting 'monoclinic'
loop_
_space_group_symop_operation_xyz
x,y,z
-x,1/2+y,-z
loop_
_atom_site_type_symbol
_atom_site_label
_atom_site_fract_x
_atom_site_fract_y
_atom_site_fract_z
Si Si1 0.856126 0.040250 0.938851
Si Si2 0.334677 0.833338 0.191393
Si Si3 0.749548 0.912040 0.330310
Si Si4 0.168396 0.324981 0.564734
Si Si5 0.254407 0.705571 0.780970
Si Si6 0.842628 0.969019 0.600513
Si Si7 0.631199 0.486848 0.659669
O O1 0.896392 0.227446 0.860735
O O2 0.780004 0.058923 0.114642
O O3 0.126899 0.939966 0.649789
O O4 0.637891 0.937494 0.110920
O O5 0.249934 0.645636 0.274380
O O6 0.338599 0.893978 0.283523
O O7 0.125674 0.937827 0.351503
O O8 0.624206 0.841808 0.856828
O O9 0.732052 0.911947 0.450742
O O10 0.517962 0.804834 0.527057
O O11 0.730834 0.103580 0.322197
O O12 0.016769 0.832783 0.023625
O O13 0.131749 0.459483 0.528040
O O14 0.374611 0.185946 0.322278
#
# Coordination Sequence:
#
# PCOD8045813 Si02
#       7
#     2   2   2   2   2   2   2
#     4   9  19  36  65  86 119 167 209 246 316 374
#     4  12  26  43  65  97 126 172 210 266 319 380
#     4  11  23  41  67  94 132 169 215 261 324 379
#     4   9  22  39  65  89 127 168 210 260 319 371
#     4  11  21  42  63  99 125 171 213 260 318 388
#     4  12  26  43  65  95 131 164 216 264 319 382
#     4  10  19  38  66  86 122 167 213 251 311 380
#
# _framework density 21.407702
#
# number of rings (size 3 to 8) (size 9 to 14) (size 15 to 20)
#    0.857    0.571    1.429    4.286    4.000    0.000 
#    5.143    0.000    0.000    0.000    0.000    0.000 
#    0.000    0.000    0.000    0.000    0.000    0.000 
#
# Total GULP energy -173544.109252 kJ/mol
# GULP energy per Si atom -12396.007804 kJ/mol
# Density = 2.135898 g / cm^3
# Si number density = 21.407702 Si / 1000 Ang^3
#
#
#
# Elastic Constant Matrix: (Units=GPa)
#
#
# Indices 1 2 3 4 5 6 
#
# 1 47.0389 21.8907 16.8708 0.0000 -10.8042 0.0000
# 2 21.8907 43.4265 -3.3320 0.0000 -2.4992 0.0000
# 3 16.8708 -3.3320 92.2207 0.0000 -25.7859 0.0000
# 4 0.0000 0.0000 0.0000 25.2307 0.0000 4.8100
# 5 -10.8042 -2.4992 -25.7859 0.0000 36.9653 0.0000
# 6 0.0000 0.0000 0.0000 4.8100 0.0000 40.6870
#
#
#
# Elastic Compliance Matrix: (Units=1/GPa)
#
#
# Indices 1 2 3 4 5 6 
#
# 1 0.031612 -0.016059 -0.005073 0.000000 0.004615 0.000000
# 2 -0.016059 0.031462 0.004170 0.000000 0.000343 0.000000
# 3 -0.005073 0.004170 0.014394 0.000000 0.008840 0.000000
# 4 0.000000 0.000000 0.000000 0.040548 0.000000 -0.004794
# 5 0.004615 0.000343 0.008840 0.000000 0.034591 0.000000
# 6 0.000000 0.000000 0.000000 -0.004794 0.000000 0.025145
#
#
# Mechanical properties :
#
#
# Convention : Reuss Voigt Hill
#
# Bulk Modulus (GPa) = 22.96450 28.17169 25.56810
# Shear Modulus (GPa) = 22.10539 30.39372 26.24955
#
# Velocity S-wave (km/s) = 3.21688 3.77205 3.50547
# Velocity P-wave (km/s) = 4.95462 5.67092 5.32483
#
# Compressibility (1/GPa) = 0.04354547
#
# Stress axis : x y z
#
# Youngs Moduli (GPa) = 31.63382 31.78425 69.47314
#
# Poissons Ratio (x) = 0.51041 0.35243
# Poissons Ratio (y) = 0.50800 -0.28973
# Poissons Ratio (z) = 0.16047 -0.13255
#
# Static dielectric constant tensor:
#      x y z
#    x 3.842510 0.000000 -0.037740 
#    y 0.000000 3.527790 0.000000 
#    z -0.037740 0.000000 4.006590 
# 
# 
# High freq. dielectric constant tensor:
#      x y z
#    x 1.844760 0.000000 -0.002790 
#    y 0.000000 1.807960 0.000000 
#    z -0.002790 0.000000 1.850590 
# 
# From -- ./inp_files/14147.got.cif
#   From: 2010.03.12/outbox.cif.g09.slc.cpg/sg4_8_cif.got.tgz:14147.got - 2010.03.31 09:31:35.
