data_PCOD8045965
_publ_section_title
;
Structure prediction by ZEFSAII (Michael W. Deem and Ramdas Pophale) SiO2 
 PCOD8045965
Probable space group: P 21
;
_chemical_formula_sum "Si O2"
_cell_formula_units_Z 16
_cell_length_a 13.303119
_cell_length_b 5.106825
_cell_length_c 23.851287
_cell_angle_alpha 90.000000
_cell_angle_beta 26.546175
_cell_angle_gamma 90.000000
_cell_volume 724.177441
_symmetry_space_group_name_H-M "P 21"
_symmetry_group_IT_number 4
_symmetry_cell_setting 'monoclinic'
loop_
_space_group_symop_operation_xyz
x,y,z
-x,1/2+y,-z
loop_
_atom_site_type_symbol
_atom_site_label
_atom_site_fract_x
_atom_site_fract_y
_atom_site_fract_z
Si Si1 0.876927 0.712650 0.435892
Si Si2 0.320292 0.487107 0.814999
Si Si3 0.672020 0.260849 0.854291
Si Si4 0.902683 0.197155 0.969584
Si Si5 0.332732 0.695917 0.414917
Si Si6 0.286531 0.881434 0.738285
Si Si7 0.376188 0.765488 0.996128
Si Si8 0.504115 0.671191 0.532324
O O1 0.836464 0.422336 0.480074
O O2 0.722607 0.749902 0.458533
O O3 0.126529 0.772571 0.290494
O O4 0.816700 0.931577 0.513579
O O5 0.530083 0.279222 0.710652
O O6 0.398246 0.707647 0.731981
O O7 0.077278 0.378257 0.916238
O O8 0.292926 0.602189 0.890763
O O9 0.486922 0.480318 0.932047
O O10 0.572867 0.974451 0.896030
O O11 0.751192 0.287407 0.880057
O O12 0.793596 0.335169 0.969968
O O13 0.031681 0.945148 0.880816
O O14 0.548848 0.638195 0.348691
O O15 0.285160 0.722513 0.680674
O O16 0.508608 0.367685 0.513715
#
# Coordination Sequence:
#
# PCOD8045965 Si02
#       8
#     2   2   2   2   2   2   2   2
#     4  11  21  39  64  87 119 173 203 259 324 371
#     4  11  21  40  63 100 131 168 207 255 327 401
#     4  10  23  45  66  92 126 171 226 266 320 368
#     4  11  24  38  67  97 130 176 209 263 326 381
#     4  10  20  38  61  90 123 162 203 254 313 386
#     4  10  22  39  56  92 135 160 208 246 310 402
#     4  10  24  44  65  95 129 167 221 278 308 370
#     4  11  23  35  54  91 129 159 203 251 312 391
#
# _framework density 22.094031999999999
#
# number of rings (size 3 to 8) (size 9 to 14) (size 15 to 20)
#    0.000    1.500    3.750    2.250    5.250    0.000 
#    2.250    0.000    0.000    3.000    0.000    0.000 
#    0.000    0.000    0.000    0.000    0.000    0.000 
#
# Total GULP energy -198249.626400 kJ/mol
# GULP energy per Si atom -12390.601650 kJ/mol
# Density = 2.204375 g / cm^3
# Si number density = 22.094032 Si / 1000 Ang^3
#
#
#
# Elastic Constant Matrix: (Units=GPa)
#
#
# Indices 1 2 3 4 5 6 
#
# 1 49.7771 7.0564 3.4893 0.0000 14.3282 0.0000
# 2 7.0564 92.6531 27.0724 0.0000 7.1522 0.0000
# 3 3.4893 27.0724 98.4840 0.0000 15.9307 0.0000
# 4 0.0000 0.0000 0.0000 37.6748 0.0000 4.5803
# 5 14.3282 7.1522 15.9307 0.0000 23.6091 0.0000
# 6 0.0000 0.0000 0.0000 4.5803 0.0000 17.2570
#
#
#
# Elastic Compliance Matrix: (Units=1/GPa)
#
#
# Indices 1 2 3 4 5 6 
#
# 1 0.024734 -0.001248 0.002059 0.000000 -0.016022 0.000000
# 2 -0.001248 0.011849 -0.003092 0.000000 -0.000745 0.000000
# 3 0.002059 -0.003092 0.012327 0.000000 -0.008630 0.000000
# 4 0.000000 0.000000 0.000000 0.027428 0.000000 -0.007280
# 5 -0.016022 -0.000745 -0.008630 0.000000 0.058129 0.000000
# 6 0.000000 0.000000 0.000000 -0.007280 0.000000 0.059880
#
#
# Mechanical properties :
#
#
# Convention : Reuss Voigt Hill
#
# Bulk Modulus (GPa) = 22.55011 35.12781 28.83896
# Shear Modulus (GPa) = 23.39792 29.26126 26.32959
#
# Velocity S-wave (km/s) = 3.25778 3.64317 3.45585
# Velocity P-wave (km/s) = 4.93755 5.79920 5.38564
#
# Compressibility (1/GPa) = 0.04434568
#
# Stress axis : x y z
#
# Youngs Moduli (GPa) = 40.43000 84.39436 81.12180
#
# Poissons Ratio (x) = 0.10536 -0.16699
# Poissons Ratio (y) = 0.05047 0.25086
# Poissons Ratio (z) = -0.08323 0.26098
#
# Static dielectric constant tensor:
#      x y z
#    x 3.488300 0.000000 0.286040 
#    y 0.000000 4.197740 0.000000 
#    z 0.286040 0.000000 4.103470 
# 
# 
# High freq. dielectric constant tensor:
#      x y z
#    x 1.813400 0.000000 0.020870 
#    y 0.000000 1.885000 0.000000 
#    z 0.020870 0.000000 1.881310 
# 
# From -- ./inp_files/12962.got.cif
#   From: 2010.03.12/outbox.cif.g09.slc.cpg/sg4_7_cif.got.tgz:12962.got - 2010.03.31 09:31:35.
