data_PCOD8045372
_publ_section_title
;
Structure prediction by ZEFSAII (Michael W. Deem and Ramdas Pophale) SiO2 
 PCOD8045372
Probable space group: P 2
;
_chemical_formula_sum "Si O2"
_cell_formula_units_Z 16
_cell_length_a 8.397022
_cell_length_b 9.667682
_cell_length_c 17.778378
_cell_angle_alpha 90.000000
_cell_angle_beta 30.418591
_cell_angle_gamma 90.000000
_cell_volume 730.734105
_symmetry_space_group_name_H-M "P 2"
_symmetry_group_IT_number 3
_symmetry_cell_setting 'monoclinic'
loop_
_space_group_symop_operation_xyz
x,y,z
-x,y,-z
loop_
_atom_site_type_symbol
_atom_site_label
_atom_site_fract_x
_atom_site_fract_y
_atom_site_fract_z
Si Si1 0.920412 0.368430 0.121213
Si Si2 0.179496 0.044706 0.606313
Si Si3 0.798704 0.774414 0.772283
Si Si4 0.845069 0.129763 0.882983
Si Si5 0.740390 0.273919 0.547977
Si Si6 0.873962 0.574825 0.467547
Si Si7 0.089612 0.872919 0.045588
Si Si8 0.173457 0.652344 0.760714
O O1 0.575041 0.304203 0.275598
O O2 0.957863 0.508631 0.153208
O O3 0.167207 0.264688 0.059370
O O4 0.000000 0.387348 0.000000
O O5 0.500000 0.968888 0.500000
O O6 0.284172 0.143302 0.495904
O O7 0.048994 0.147575 0.724312
O O8 0.942695 0.920074 0.684254
O O9 0.428162 0.802316 0.923223
O O10 0.866269 0.648272 0.688746
O O11 0.941127 0.721891 0.793532
O O12 0.500000 0.087785 0.000000
O O13 0.981841 0.001498 0.872506
O O14 0.849292 0.411737 0.458615
O O15 0.000000 0.226210 0.500000
O O16 0.533733 0.640567 0.587464
O O17 0.000000 0.594514 0.500000
O O18 0.000000 0.926655 0.000000
O O19 0.827616 0.757396 0.169279
#
# Coordination Sequence:
#
# PCOD8045372 Si02
#       8
#     2   2   2   2   2   2   2   2
#     4  11  26  45  70 104 140 182 232 282 351 415
#     4  12  24  44  69  99 136 181 232 284 343 413
#     4  12  25  43  69 101 135 181 236 287 347 416
#     4  12  25  45  66 101 140 182 233 285 345 410
#     4  10  25  44  68 100 139 180 230 287 342 409
#     4  10  23  43  66 100 136 178 232 288 353 411
#     4  12  25  45  67  95 140 181 229 290 347 415
#     4  11  23  44  68 101 135 180 231 290 344 416
#
# _framework density 21.895790999999999
#
# number of rings (size 3 to 8) (size 9 to 14) (size 15 to 20)
#    0.000    0.750    3.750    3.000    3.500    4.500 
#    0.000    0.000    0.000    0.000    0.000    0.000 
#    0.000    0.000    0.000    0.000    0.000    0.000 
#
# Total GULP energy -198314.552543 kJ/mol
# GULP energy per Si atom -12394.659534 kJ/mol
# Density = 2.184595 g / cm^3
# Si number density = 21.895791 Si / 1000 Ang^3
#
#
#
# Elastic Constant Matrix: (Units=GPa)
#
#
# Indices 1 2 3 4 5 6 
#
# 1 89.7987 26.5943 22.7348 0.0000 -3.9051 0.0000
# 2 26.5943 118.0654 29.7707 0.0000 10.7703 0.0000
# 3 22.7348 29.7707 72.4014 0.0000 15.7899 0.0000
# 4 0.0000 0.0000 0.0000 40.2352 0.0000 -2.5220
# 5 -3.9051 10.7703 15.7899 0.0000 27.6986 0.0000
# 6 0.0000 0.0000 0.0000 -2.5220 0.0000 35.5211
#
#
#
# Elastic Compliance Matrix: (Units=1/GPa)
#
#
# Indices 1 2 3 4 5 6 
#
# 1 0.013149 -0.002354 -0.004299 0.000000 0.005220 0.000000
# 2 -0.002354 0.009939 -0.002778 0.000000 -0.002613 0.000000
# 3 -0.004299 -0.002778 0.018501 0.000000 -0.010073 0.000000
# 4 0.000000 0.000000 0.000000 0.024965 0.000000 0.001773
# 5 0.005220 -0.002613 -0.010073 0.000000 0.043597 0.000000
# 6 0.000000 0.000000 0.000000 0.001773 0.000000 0.028278
#
#
# Mechanical properties :
#
#
# Convention : Reuss Voigt Hill
#
# Bulk Modulus (GPa) = 44.00156 48.71833 46.35995
# Shear Modulus (GPa) = 30.32773 34.10205 32.21489
#
# Velocity S-wave (km/s) = 3.72572 3.95076 3.83989
# Velocity P-wave (km/s) = 6.21671 6.56580 6.39364
#
# Compressibility (1/GPa) = 0.02272647
#
# Stress axis : x y z
#
# Youngs Moduli (GPa) = 76.05369 100.61514 54.05150
#
# Poissons Ratio (x) = 0.23683 0.23239
# Poissons Ratio (y) = 0.17902 0.15014
# Poissons Ratio (z) = 0.32698 0.27949
#
# Static dielectric constant tensor:
#      x y z
#    x 3.929290 0.000000 0.339820 
#    y 0.000000 4.059460 0.000000 
#    z 0.339820 0.000000 3.112220 
# 
# 
# High freq. dielectric constant tensor:
#      x y z
#    x 1.863240 0.000000 -0.002460 
#    y 0.000000 1.873490 0.000000 
#    z -0.002460 0.000000 1.867350 
# 
# From -- ./inp_files/7520.got.cif
#   From: 2010.03.12/outbox.cif.g09.slc.cpg/sg3_4_cif.got.tgz:7520.got - 2010.03.31 09:20:49.
