data_PCOD8045209
_publ_section_title
;
Structure prediction by ZEFSAII (Michael W. Deem and Ramdas Pophale) SiO2 
 PCOD8045209
Probable space group: P 2
;
_chemical_formula_sum "Si O2"
_cell_formula_units_Z 14
_cell_length_a 16.220581
_cell_length_b 6.147483
_cell_length_c 6.353300
_cell_angle_alpha 90.000000
_cell_angle_beta 95.278399
_cell_angle_gamma 90.000000
_cell_volume 630.837560
_symmetry_space_group_name_H-M "P 2"
_symmetry_group_IT_number 3
_symmetry_cell_setting 'monoclinic'
loop_
_space_group_symop_operation_xyz
x,y,z
-x,y,-z
loop_
_atom_site_type_symbol
_atom_site_label
_atom_site_fract_x
_atom_site_fract_y
_atom_site_fract_z
Si Si1 0.289363 0.229750 0.060420
Si Si2 0.633136 0.469949 0.535550
Si Si3 0.000000 0.649463 0.000000
Si Si4 0.144389 0.939527 0.949504
Si Si5 0.434612 0.147180 0.810387
Si Si6 0.500000 0.804799 0.500000
Si Si7 0.220643 0.563103 0.722149
Si Si8 0.937802 0.316615 0.311976
O O1 0.339161 0.299512 0.279652
O O2 0.214275 0.065291 0.103564
O O3 0.348626 0.099349 0.911683
O O4 0.255073 0.446829 0.941085
O O5 0.576982 0.343951 0.353927
O O6 0.575578 0.661895 0.612205
O O7 0.712172 0.581293 0.445623
O O8 0.916367 0.787147 0.927314
O O9 0.014206 0.504884 0.799812
O O10 0.190349 0.803006 0.777508
O O11 0.082495 0.112779 0.836072
O O12 0.466444 0.938339 0.691360
O O13 0.500000 0.224025 0.000000
O O14 0.146056 0.417582 0.610840
O O15 0.000000 0.226353 0.500000
#
# Coordination Sequence:
#
# PCOD8045209 Si02
#       8
#     2   2   1   2   2   1   2   2
#     4  10  22  42  64  91 129 163 204 262 313 363
#     4  11  24  43  66  93 124 164 210 257 308 369
#     4  10  22  40  62  92 126 164 212 258 312 370
#     4  10  21  41  65  90 125 168 208 257 313 368
#     4  11  24  43  64  92 128 162 204 257 312 370
#     4  12  24  38  64  96 122 164 212 248 310 378
#     4   9  22  40  61  92 127 162 207 259 313 367
#     4  10  22  41  62  91 128 166 207 259 313 368
#
# _framework density 22.192716999999998
#
# number of rings (size 3 to 8) (size 9 to 14) (size 15 to 20)
#    0.000    1.714    0.000    3.429    0.000   12.000 
#    0.000    7.143    0.000    0.000    0.000    0.000 
#    0.000    0.000    0.000    0.000    0.000    0.000 
#
# Total GULP energy -173606.062625 kJ/mol
# GULP energy per Si atom -12400.433045 kJ/mol
# Density = 2.214221 g / cm^3
# Si number density = 22.192717 Si / 1000 Ang^3
#
#
#
# Elastic Constant Matrix: (Units=GPa)
#
#
# Indices 1 2 3 4 5 6 
#
# 1 148.5137 72.0818 57.9816 0.0000 -6.8435 0.0000
# 2 72.0818 114.9782 43.1788 0.0000 -6.7412 0.0000
# 3 57.9816 43.1788 96.8968 0.0000 12.9148 0.0000
# 4 0.0000 0.0000 0.0000 14.4480 0.0000 -1.5161
# 5 -6.8435 -6.7412 12.9148 0.0000 44.1477 0.0000
# 6 0.0000 0.0000 0.0000 -1.5161 0.0000 47.8637
#
#
#
# Elastic Compliance Matrix: (Units=1/GPa)
#
#
# Indices 1 2 3 4 5 6 
#
# 1 0.011149 -0.005081 -0.004718 0.000000 0.002333 0.000000
# 2 -0.005081 0.013178 -0.003117 0.000000 0.002137 0.000000
# 3 -0.004718 -0.003117 0.015290 0.000000 -0.005680 0.000000
# 4 0.000000 0.000000 0.000000 0.069445 0.000000 0.002200
# 5 0.002333 0.002137 -0.005680 0.000000 0.025001 0.000000
# 6 0.000000 0.000000 0.000000 0.002200 0.000000 0.020962
#
#
# Mechanical properties :
#
#
# Convention : Reuss Voigt Hill
#
# Bulk Modulus (GPa) = 72.54283 78.54143 75.54213
# Shear Modulus (GPa) = 26.96126 33.76831 30.36478
#
# Velocity S-wave (km/s) = 3.48928 3.90499 3.70297
# Velocity P-wave (km/s) = 6.99943 7.46990 7.23849
#
# Compressibility (1/GPa) = 0.01378496
#
# Stress axis : x y z
#
# Youngs Moduli (GPa) = 89.69497 75.88199 65.40415
#
# Poissons Ratio (x) = 0.38554 0.30859
# Poissons Ratio (y) = 0.45572 0.20386
# Poissons Ratio (z) = 0.42319 0.23652
#
# Static dielectric constant tensor:
#      x y z
#    x 4.512280 0.000000 -0.036470 
#    y 0.000000 3.998390 0.000000 
#    z -0.036470 0.000000 3.623220 
# 
# 
# High freq. dielectric constant tensor:
#      x y z
#    x 1.905180 0.000000 -0.001710 
#    y 0.000000 1.876140 0.000000 
#    z -0.001710 0.000000 1.842490 
# 
# From -- ./inp_files/3546.got.cif
#   From: 2010.03.12/outbox.cif.g09.slc.cpg/sg3_2_cif.got.tgz:3546.got - 2010.03.31 09:20:49.
