data_PCOD8045379
_publ_section_title
;
Structure prediction by ZEFSAII (Michael W. Deem and Ramdas Pophale) SiO2 
 PCOD8045379
Probable space group: P 2
;
_chemical_formula_sum "Si O2"
_cell_formula_units_Z 14
_cell_length_a 19.516737
_cell_length_b 5.074674
_cell_length_c 9.896085
_cell_angle_alpha 90.000000
_cell_angle_beta 36.758910
_cell_angle_gamma 90.000000
_cell_volume 586.551382
_symmetry_space_group_name_H-M "P 2"
_symmetry_group_IT_number 3
_symmetry_cell_setting 'monoclinic'
loop_
_space_group_symop_operation_xyz
x,y,z
-x,y,-z
loop_
_atom_site_type_symbol
_atom_site_label
_atom_site_fract_x
_atom_site_fract_y
_atom_site_fract_z
Si Si1 0.193920 0.641370 0.491772
Si Si2 0.921521 0.121914 0.426771
Si Si3 0.625361 0.898960 0.279834
Si Si4 0.503985 0.172754 0.836411
Si Si5 0.838774 0.205163 0.844094
Si Si6 0.320041 0.546017 0.038005
Si Si7 0.636098 0.667615 0.545356
O O1 0.147942 0.346436 0.543156
O O2 0.294788 0.690281 0.220574
O O3 0.246383 0.693039 0.556045
O O4 0.091378 0.851860 0.636298
O O5 0.872257 0.052159 0.653609
O O6 0.053565 0.214821 0.225617
O O7 0.500000 0.038371 0.500000
O O8 0.661766 0.716402 0.347904
O O9 0.602780 0.726539 0.180560
O O10 0.729188 0.098263 0.097088
O O11 0.597102 0.367067 0.623705
O O12 0.539355 0.871668 0.752872
O O13 0.500000 0.230959 0.000000
O O14 0.381714 0.259697 0.964368
O O15 0.800746 0.495401 0.850557
#
# Coordination Sequence:
#
# PCOD8045379 Si02
#       7
#     2   2   2   2   2   2   2
#     4  11  23  44  71 103 131 182 240 297 340 407
#     4  10  23  44  75 103 132 177 251 297 343 393
#     4  12  25  43  68 104 150 186 226 280 363 440
#     4  12  25  43  71 100 141 187 241 281 342 417
#     4  10  24  41  71 103 139 181 235 301 347 405
#     4  11  24  41  70 101 139 187 233 286 349 422
#     4  12  27  43  68 103 145 185 227 289 351 419
#
# _framework density 23.868326
#
# number of rings (size 3 to 8) (size 9 to 14) (size 15 to 20)
#    0.000    0.857    4.286    2.143    6.000    1.714 
#    0.000    0.714    0.000    0.000    0.000    0.000 
#    0.000    0.000    0.000    0.000    0.000    0.000 
#
# Total GULP energy -173557.133279 kJ/mol
# GULP energy per Si atom -12396.938091 kJ/mol
# Density = 2.381400 g / cm^3
# Si number density = 23.868326 Si / 1000 Ang^3
#
#
#
# Elastic Constant Matrix: (Units=GPa)
#
#
# Indices 1 2 3 4 5 6 
#
# 1 134.0805 13.7842 31.9732 0.0000 -10.9636 0.0000
# 2 13.7842 59.5949 5.7174 0.0000 -0.6731 0.0000
# 3 31.9732 5.7174 92.8034 0.0000 -10.5213 0.0000
# 4 0.0000 0.0000 0.0000 20.0364 0.0000 -5.4101
# 5 -10.9636 -0.6731 -10.5213 0.0000 39.4234 0.0000
# 6 0.0000 0.0000 0.0000 -5.4101 0.0000 37.6155
#
#
#
# Elastic Compliance Matrix: (Units=1/GPa)
#
#
# Indices 1 2 3 4 5 6 
#
# 1 0.008382 -0.001671 -0.002603 0.000000 0.001608 0.000000
# 2 -0.001671 0.017213 -0.000520 0.000000 -0.000310 0.000000
# 3 -0.002603 -0.000520 0.011984 0.000000 0.002466 0.000000
# 4 0.000000 0.000000 0.000000 0.051926 0.000000 0.007468
# 5 0.001608 -0.000310 0.002466 0.000000 0.026466 0.000000
# 6 0.000000 0.000000 0.000000 0.007468 0.000000 0.027659
#
#
# Mechanical properties :
#
#
# Convention : Reuss Voigt Hill
#
# Bulk Modulus (GPa) = 35.72471 43.26982 39.49727
# Shear Modulus (GPa) = 30.76050 35.08199 32.92125
#
# Velocity S-wave (km/s) = 3.59382 3.83797 3.71790
# Velocity P-wave (km/s) = 5.67632 6.14882 5.91729
#
# Compressibility (1/GPa) = 0.02799183
#
# Stress axis : x y z
#
# Youngs Moduli (GPa) = 119.30204 58.09625 83.44674
#
# Poissons Ratio (x) = 0.09707 0.21718
# Poissons Ratio (y) = 0.19934 0.04338
# Poissons Ratio (z) = 0.31050 0.03020
#
# Static dielectric constant tensor:
#      x y z
#    x 4.543490 0.000000 0.010240 
#    y 0.000000 3.992890 0.000000 
#    z 0.010240 0.000000 4.097640 
# 
# 
# High freq. dielectric constant tensor:
#      x y z
#    x 1.965210 0.000000 -0.004660 
#    y 0.000000 1.939160 0.000000 
#    z -0.004660 0.000000 1.917900 
# 
# From -- ./inp_files/8799.got.cif
#   From: 2010.03.12/outbox.cif.g09.slc.cpg/sg3_5_cif.got.tgz:8799.got - 2010.03.31 09:20:49.
