data_PCOD8045641
_publ_section_title
;
Structure prediction by ZEFSAII (Michael W. Deem and Ramdas Pophale) SiO2 
 PCOD8045641
Probable space group: P 21
;
_chemical_formula_sum "Si O2"
_cell_formula_units_Z 16
_cell_length_a 5.023893
_cell_length_b 17.105484
_cell_length_c 10.114756
_cell_angle_alpha 90.000000
_cell_angle_beta 86.447942
_cell_angle_gamma 90.000000
_cell_volume 867.553051
_symmetry_space_group_name_H-M "P 21"
_symmetry_group_IT_number 4
_symmetry_cell_setting 'monoclinic'
loop_
_space_group_symop_operation_xyz
x,y,z
-x,1/2+y,-z
loop_
_atom_site_type_symbol
_atom_site_label
_atom_site_fract_x
_atom_site_fract_y
_atom_site_fract_z
Si Si1 0.155714 0.276680 0.798524
Si Si2 0.894755 0.428086 0.848764
Si Si3 0.658974 0.881477 0.001402
Si Si4 0.322880 0.384664 0.309851
Si Si5 0.791154 0.338206 0.460549
Si Si6 0.307044 0.546761 0.449807
Si Si7 0.698289 0.212688 0.669740
Si Si8 0.777895 0.501165 0.597583
O O1 0.418275 0.253578 0.710465
O O2 0.025944 0.359258 0.751556
O O3 0.916064 0.214054 0.783763
O O4 0.240163 0.295148 0.948883
O O5 0.834338 0.501650 0.754273
O O6 0.625221 0.400273 0.926497
O O7 0.119126 0.445836 0.955207
O O8 0.636106 0.880381 0.846950
O O9 0.537202 0.329089 0.373127
O O10 0.365739 0.474206 0.351979
O O11 0.038015 0.351187 0.356415
O O12 0.827712 0.258344 0.541646
O O13 0.749085 0.410989 0.558768
O O14 0.357874 0.623344 0.362189
O O15 0.504308 0.545345 0.570301
O O16 0.007984 0.546066 0.512349
#
# Coordination Sequence:
#
# PCOD8045641 Si02
#       8
#     2   2   2   2   2   2   2   2
#     4  10  19  31  56  80 100 134 180 236 250 309
#     4  10  18  31  57  82  99 131 181 234 252 295
#     4  10  18  33  53  83  97 134 177 234 257 305
#     4  10  21  35  53  80 111 138 182 216 275 311
#     4  10  19  31  55  75 102 141 170 224 255 332
#     4  10  23  33  53  79 117 142 164 230 280 337
#     4  12  20  35  54  83 110 139 182 219 288 313
#     4  10  18  35  51  80 104 135 180 215 275 308
#
# _framework density 18.442675000000001
#
# number of rings (size 3 to 8) (size 9 to 14) (size 15 to 20)
#    0.750    1.000    2.500    3.000    3.500    0.000 
#    0.000    0.000    0.000    9.000    0.000    0.000 
#    0.000    0.000    0.000    0.000    0.000    0.000 
#
# Total GULP energy -198242.440083 kJ/mol
# GULP energy per Si atom -12390.152505 kJ/mol
# Density = 1.840070 g / cm^3
# Si number density = 18.442675 Si / 1000 Ang^3
#
#
#
# Elastic Constant Matrix: (Units=GPa)
#
#
# Indices 1 2 3 4 5 6 
#
# 1 97.1286 14.5008 13.6977 0.0000 -3.3395 0.0000
# 2 14.5008 50.6424 17.3689 0.0000 -6.3931 0.0000
# 3 13.6977 17.3689 68.8758 0.0000 2.6205 0.0000
# 4 0.0000 0.0000 0.0000 15.0584 0.0000 2.6116
# 5 -3.3395 -6.3931 2.6205 0.0000 22.4906 0.0000
# 6 0.0000 0.0000 0.0000 2.6116 0.0000 16.7563
#
#
#
# Elastic Compliance Matrix: (Units=1/GPa)
#
#
# Indices 1 2 3 4 5 6 
#
# 1 0.010924 -0.002438 -0.001600 0.000000 0.001115 0.000000
# 2 -0.002438 0.023251 -0.005641 0.000000 0.006904 0.000000
# 3 -0.001600 -0.005641 0.016402 0.000000 -0.003752 0.000000
# 4 0.000000 0.000000 0.000000 0.068253 0.000000 -0.010638
# 5 0.001115 0.006904 -0.003752 0.000000 0.047029 0.000000
# 6 0.000000 0.000000 0.000000 -0.010638 0.000000 0.061337
#
#
# Mechanical properties :
#
#
# Convention : Reuss Voigt Hill
#
# Bulk Modulus (GPa) = 32.03272 34.19797 33.11534
# Shear Modulus (GPa) = 19.45825 22.26634 20.86230
#
# Velocity S-wave (km/s) = 3.25170 3.47843 3.36698
# Velocity P-wave (km/s) = 5.61290 5.89201 5.75414
#
# Compressibility (1/GPa) = 0.03121808
#
# Stress axis : x y z
#
# Youngs Moduli (GPa) = 91.54460 43.00919 60.96664
#
# Poissons Ratio (x) = 0.10487 0.09755
# Poissons Ratio (y) = 0.22321 0.34392
# Poissons Ratio (z) = 0.14647 0.24262
#
# Static dielectric constant tensor:
#      x y z
#    x 3.709650 0.000000 0.263190 
#    y 0.000000 3.054190 0.000000 
#    z 0.263190 0.000000 3.239670 
# 
# 
# High freq. dielectric constant tensor:
#      x y z
#    x 1.746710 0.000000 0.013850 
#    y 0.000000 1.666010 0.000000 
#    z 0.013850 0.000000 1.699120 
# 
# From -- ./inp_files/4900.got.cif
#   From: 2010.03.12/outbox.cif.g09.slc.cpg/sg4_3_cif.got.tgz:4900.got - 2010.03.31 09:31:35.
