data_PCOD8045793
_publ_section_title
;
Structure prediction by ZEFSAII (Michael W. Deem and Ramdas Pophale) SiO2 
 PCOD8045793
Probable space group: P 21
;
_chemical_formula_sum "Si O2"
_cell_formula_units_Z 12
_cell_length_a 17.377826
_cell_length_b 7.251885
_cell_length_c 11.095702
_cell_angle_alpha 90.000000
_cell_angle_beta 27.554622
_cell_angle_gamma 90.000000
_cell_volume 646.846380
_symmetry_space_group_name_H-M "P 21"
_symmetry_group_IT_number 4
_symmetry_cell_setting 'monoclinic'
loop_
_space_group_symop_operation_xyz
x,y,z
-x,1/2+y,-z
loop_
_atom_site_type_symbol
_atom_site_label
_atom_site_fract_x
_atom_site_fract_y
_atom_site_fract_z
Si Si1 0.140815 0.142940 0.733302
Si Si2 0.592406 0.909140 0.659322
Si Si3 0.069985 0.634020 0.534797
Si Si4 0.756062 0.776079 0.648775
Si Si5 0.157045 0.725941 0.680896
Si Si6 0.230310 0.970876 0.176740
O O1 0.291031 0.268612 0.580857
O O2 0.105816 0.218457 0.645296
O O3 0.973307 0.151406 0.040991
O O4 0.206164 0.934906 0.638122
O O5 0.591483 0.835491 0.800706
O O6 0.404040 0.912698 0.871877
O O7 0.673145 0.112146 0.542957
O O8 0.179494 0.449940 0.364132
O O9 0.134543 0.789763 0.354267
O O10 0.073446 0.704852 0.666272
O O11 0.880512 0.583795 0.763904
O O12 0.716860 0.603010 0.786617
#
# Coordination Sequence:
#
# PCOD8045793 Si02
#       6
#     2   2   2   2   2   2
#     4  10  19  37  64  86 109 145 199 236 284 327
#     4   9  23  32  58  88 109 146 193 240 268 341
#     4  11  22  37  57  80 121 161 178 233 287 349
#     4   9  21  35  56  88 108 157 184 237 282 337
#     4  11  19  38  63  84 113 150 192 238 287 335
#     4  12  22  37  56  86 122 149 194 224 296 337
#
# _framework density 18.551545999999998
#
# number of rings (size 3 to 8) (size 9 to 14) (size 15 to 20)
#    1.000    0.667    5.000    0.000    4.667    1.333 
#    0.000    0.000    7.333    0.000    0.000    0.000 
#    0.000    0.000    0.000    0.000    0.000    0.000 
#
# Total GULP energy -148703.713585 kJ/mol
# GULP energy per Si atom -12391.976132 kJ/mol
# Density = 1.850932 g / cm^3
# Si number density = 18.551546 Si / 1000 Ang^3
#
#
#
# Elastic Constant Matrix: (Units=GPa)
#
#
# Indices 1 2 3 4 5 6 
#
# 1 35.7277 17.1062 29.2649 0.0000 -8.7329 0.0000
# 2 17.1062 125.1177 29.0123 0.0000 -10.0111 0.0000
# 3 29.2649 29.0123 85.6001 0.0000 -19.9849 0.0000
# 4 0.0000 0.0000 0.0000 27.0167 0.0000 1.7794
# 5 -8.7329 -10.0111 -19.9849 0.0000 30.7494 0.0000
# 6 0.0000 0.0000 0.0000 1.7794 0.0000 24.3134
#
#
#
# Elastic Compliance Matrix: (Units=1/GPa)
#
#
# Indices 1 2 3 4 5 6 
#
# 1 0.039740 -0.002405 -0.012165 0.000000 0.002597 0.000000
# 2 -0.002405 0.008850 -0.001962 0.000000 0.000923 0.000000
# 3 -0.012165 -0.001962 0.018332 0.000000 0.007821 0.000000
# 4 0.000000 0.000000 0.000000 0.037193 0.000000 -0.002722
# 5 0.002597 0.000923 0.007821 0.000000 0.038642 0.000000
# 6 0.000000 0.000000 0.000000 -0.002722 0.000000 0.041329
#
#
# Mechanical properties :
#
#
# Convention : Reuss Voigt Hill
#
# Bulk Modulus (GPa) = 29.53413 44.13470 36.83441
# Shear Modulus (GPa) = 21.88796 27.82002 24.85399
#
# Velocity S-wave (km/s) = 3.43861 3.87668 3.66420
# Velocity P-wave (km/s) = 5.63205 6.62421 6.14818
#
# Compressibility (1/GPa) = 0.03385913
#
# Stress axis : x y z
#
# Youngs Moduli (GPa) = 25.16353 112.99393 54.54927
#
# Poissons Ratio (x) = 0.27171 0.66359
# Poissons Ratio (y) = 0.06051 0.10702
# Poissons Ratio (z) = 0.30611 0.22168
#
# Static dielectric constant tensor:
#      x y z
#    x 3.141860 0.000000 0.012960 
#    y 0.000000 3.678270 0.000000 
#    z 0.012960 0.000000 3.112970 
# 
# 
# High freq. dielectric constant tensor:
#      x y z
#    x 1.682180 0.000000 0.000270 
#    y 0.000000 1.747590 0.000000 
#    z 0.000270 0.000000 1.700410 
# 
# From -- ./inp_files/12893.got.cif
#   From: 2010.03.12/outbox.cif.g09.slc.cpg/sg4_7_cif.got.tgz:12893.got - 2010.03.31 09:31:35.
