data_PCOD8045564
_publ_section_title
;
Structure prediction by ZEFSAII (Michael W. Deem and Ramdas Pophale) SiO2 
 PCOD8045564
Probable space group: P 2
;
_chemical_formula_sum "Si O2"
_cell_formula_units_Z 9
_cell_length_a 9.865446
_cell_length_b 4.872351
_cell_length_c 7.631827
_cell_angle_alpha 90.000000
_cell_angle_beta 102.044259
_cell_angle_gamma 90.000000
_cell_volume 358.770527
_symmetry_space_group_name_H-M "P 2"
_symmetry_group_IT_number 3
_symmetry_cell_setting 'monoclinic'
loop_
_space_group_symop_operation_xyz
x,y,z
-x,y,-z
loop_
_atom_site_type_symbol
_atom_site_label
_atom_site_fract_x
_atom_site_fract_y
_atom_site_fract_z
Si Si1 0.549499 0.939640 0.830329
Si Si2 0.000000 0.606730 0.000000
Si Si3 0.718102 0.414973 0.786964
Si Si4 0.886015 0.706795 0.333482
Si Si5 0.279392 0.211827 0.604011
O O1 0.635537 0.702675 0.754995
O O2 0.649756 0.195988 0.900618
O O3 0.423584 0.065698 0.686964
O O4 0.500000 0.811945 0.000000
O O5 0.123773 0.426796 0.110445
O O6 0.940942 0.774245 0.151493
O O7 0.289204 0.288243 0.405795
O O8 0.758627 0.486142 0.293233
O O9 0.000000 0.585431 0.500000
O O10 0.841942 0.995274 0.400545
#
# Coordination Sequence:
#
# PCOD8045564 Si02
#       5
#     2   1   2   2   2
#     4  12  26  49  77 112 154 199 266 314 389 453
#     4  12  28  50  80 112 162 198 266 304 396 456
#     4  12  27  47  77 115 152 210 250 324 383 462
#     4  12  26  48  76 112 155 201 253 314 380 459
#     4  12  26  49  76 112 153 198 259 317 383 452
#
# _framework density 25.085674000000001
#
# number of rings (size 3 to 8) (size 9 to 14) (size 15 to 20)
#    0.000    0.000    2.222    7.333    0.000    3.556 
#    0.000    0.000    0.000    0.000    0.000    0.000 
#    0.000    0.000    0.000    0.000    0.000    0.000 
#
# Total GULP energy -111596.712170 kJ/mol
# GULP energy per Si atom -12399.634686 kJ/mol
# Density = 2.502858 g / cm^3
# Si number density = 25.085674 Si / 1000 Ang^3
#
#
#
# Elastic Constant Matrix: (Units=GPa)
#
#
# Indices 1 2 3 4 5 6 
#
# 1 146.9799 63.6840 75.4732 0.0000 7.4532 0.0000
# 2 63.6840 152.2475 44.3320 0.0000 -0.5498 0.0000
# 3 75.4732 44.3320 158.0212 0.0000 3.8395 0.0000
# 4 0.0000 0.0000 0.0000 25.7501 0.0000 -11.8881
# 5 7.4532 -0.5498 3.8395 0.0000 37.6870 0.0000
# 6 0.0000 0.0000 0.0000 -11.8881 0.0000 39.8472
#
#
#
# Elastic Compliance Matrix: (Units=1/GPa)
#
#
# Indices 1 2 3 4 5 6 
#
# 1 0.010308 -0.003154 -0.003998 0.000000 -0.001677 0.000000
# 2 -0.003154 0.008121 -0.000792 0.000000 0.000823 0.000000
# 3 -0.003998 -0.000792 0.008462 0.000000 -0.000083 0.000000
# 4 0.000000 0.000000 0.000000 0.045038 0.000000 0.013437
# 5 -0.001677 0.000823 -0.000083 0.000000 0.026887 0.000000
# 6 0.000000 0.000000 0.000000 0.013437 0.000000 0.029105
#
#
# Mechanical properties :
#
#
# Convention : Reuss Voigt Hill
#
# Bulk Modulus (GPa) = 90.87706 91.58079 91.22892
# Shear Modulus (GPa) = 33.90399 38.90747 36.40573
#
# Velocity S-wave (km/s) = 3.68030 3.94253 3.81367
# Velocity P-wave (km/s) = 7.37325 7.57041 7.47248
#
# Compressibility (1/GPa) = 0.01100388
#
# Stress axis : x y z
#
# Youngs Moduli (GPa) = 97.01227 123.13696 118.17744
#
# Poissons Ratio (x) = 0.38834 0.47244
# Poissons Ratio (y) = 0.30595 0.09360
# Poissons Ratio (z) = 0.38783 0.09753
#
# Static dielectric constant tensor:
#      x y z
#    x 5.199980 0.000000 -0.096630 
#    y 0.000000 4.543390 0.000000 
#    z -0.096630 0.000000 4.502480 
# 
# 
# High freq. dielectric constant tensor:
#      x y z
#    x 2.025950 0.000000 -0.005210 
#    y 0.000000 2.000740 0.000000 
#    z -0.005210 0.000000 2.005890 
# 
# From -- ./inp_files/4898.got.cif
#   From: 2010.03.12/outbox.cif.g09.slc.cpg/sg3_3_cif.got.tgz:4898.got - 2010.03.31 09:20:49.
