data_PCOD8045782
_publ_section_title
;
Structure prediction by ZEFSAII (Michael W. Deem and Ramdas Pophale) SiO2 
 PCOD8045782
Probable space group: P 21
;
_chemical_formula_sum "Si O2"
_cell_formula_units_Z 16
_cell_length_a 19.812684
_cell_length_b 5.070431
_cell_length_c 23.793266
_cell_angle_alpha 90.000000
_cell_angle_beta 20.588839
_cell_angle_gamma 90.000000
_cell_volume 840.551559
_symmetry_space_group_name_H-M "P 21"
_symmetry_group_IT_number 4
_symmetry_cell_setting 'monoclinic'
loop_
_space_group_symop_operation_xyz
x,y,z
-x,1/2+y,-z
loop_
_atom_site_type_symbol
_atom_site_label
_atom_site_fract_x
_atom_site_fract_y
_atom_site_fract_z
Si Si1 0.851132 0.574890 0.816756
Si Si2 0.954573 0.573461 0.380235
Si Si3 0.679119 0.540641 0.496396
Si Si4 0.881352 0.043581 0.291249
Si Si5 0.471104 0.481552 0.058996
Si Si6 0.954636 0.985986 0.569520
Si Si7 0.771686 0.084570 0.145350
Si Si8 0.027255 0.084322 0.052775
O O1 0.968810 0.369970 0.686510
O O2 0.922556 0.551811 0.825229
O O3 0.625341 0.511892 0.989264
O O4 0.884605 0.868608 0.766976
O O5 0.759357 0.531436 0.497521
O O6 0.913675 0.523521 0.477758
O O7 0.747166 0.290877 0.408076
O O8 0.452668 0.538160 0.676873
O O9 0.755111 0.790877 0.403670
O O10 0.938468 0.034362 0.182369
O O11 0.264949 0.548441 0.244789
O O12 0.522851 0.684958 0.969054
O O13 0.025119 0.187443 0.467170
O O14 0.852812 0.064056 0.145011
O O15 0.812159 0.367318 0.086447
O O16 0.870960 0.867222 0.028393
#
# Coordination Sequence:
#
# PCOD8045782 Si02
#       8
#     2   2   2   2   2   2   2   2
#     4  10  19  37  59  82 104 145 191 227 271 329
#     4  10  20  38  58  77 114 147 178 229 283 327
#     4  10  21  37  60  84 108 150 189 224 274 334
#     4  10  21  36  59  85 113 140 188 240 268 310
#     4  12  21  38  63  79 104 152 191 222 270 342
#     4  12  24  38  55  84 116 140 182 238 280 320
#     4  10  21  38  58  82 117 154 183 212 283 341
#     4  10  21  38  58  83 118 150 178 232 273 321
#
# _framework density 19.035119999999999
#
# number of rings (size 3 to 8) (size 9 to 14) (size 15 to 20)
#    0.000    1.500    2.500    3.000    0.000    1.000 
#    4.500    0.000    0.000    0.000    0.000    0.000 
#    0.000    0.000    0.000    0.000    0.000    0.000 
#
# Total GULP energy -198476.981175 kJ/mol
# GULP energy per Si atom -12404.811323 kJ/mol
# Density = 1.899180 g / cm^3
# Si number density = 19.035120 Si / 1000 Ang^3
#
#
#
# Elastic Constant Matrix: (Units=GPa)
#
#
# Indices 1 2 3 4 5 6 
#
# 1 104.1555 24.4382 60.5582 0.0000 6.2114 0.0000
# 2 24.4382 91.9930 14.1295 0.0000 0.1208 0.0000
# 3 60.5582 14.1295 96.8346 0.0000 -13.5939 0.0000
# 4 0.0000 0.0000 0.0000 21.3205 0.0000 1.2913
# 5 6.2114 0.1208 -13.5939 0.0000 32.9071 0.0000
# 6 0.0000 0.0000 0.0000 1.2913 0.0000 27.7383
#
#
#
# Elastic Compliance Matrix: (Units=1/GPa)
#
#
# Indices 1 2 3 4 5 6 
#
# 1 0.017567 -0.002857 -0.011712 0.000000 -0.008144 0.000000
# 2 -0.002857 0.011602 0.000174 0.000000 0.000568 0.000000
# 3 -0.011712 0.000174 0.019041 0.000000 0.010076 0.000000
# 4 0.000000 0.000000 0.000000 0.047036 0.000000 -0.002190
# 5 -0.008144 0.000568 0.010076 0.000000 0.036086 0.000000
# 6 0.000000 0.000000 0.000000 -0.002190 0.000000 0.036153
#
#
# Mechanical properties :
#
#
# Convention : Reuss Voigt Hill
#
# Bulk Modulus (GPa) = 51.49843 54.58166 53.04004
# Shear Modulus (GPa) = 24.66111 29.31698 26.98904
#
# Velocity S-wave (km/s) = 3.60329 3.92873 3.76953
# Velocity P-wave (km/s) = 6.66519 7.02256 6.84621
#
# Compressibility (1/GPa) = 0.01941807
#
# Stress axis : x y z
#
# Youngs Moduli (GPa) = 56.92554 86.19228 52.51935
#
# Poissons Ratio (x) = 0.24626 0.61512
# Poissons Ratio (y) = 0.16264 -0.00912
# Poissons Ratio (z) = 0.66673 -0.01497
#
# Static dielectric constant tensor:
#      x y z
#    x 3.627050 0.000000 -0.161830 
#    y 0.000000 3.734560 0.000000 
#    z -0.161830 0.000000 3.238830 
# 
# 
# High freq. dielectric constant tensor:
#      x y z
#    x 1.744070 0.000000 -0.011260 
#    y 0.000000 1.764810 0.000000 
#    z -0.011260 0.000000 1.720570 
# 
# From -- ./inp_files/15356.got.cif
#   From: 2010.03.12/outbox.cif.g09.slc.cpg/sg4_8_cif.got.tgz:15356.got - 2010.03.31 09:31:35.
