data_PCOD8045783
_publ_section_title
;
Structure prediction by ZEFSAII (Michael W. Deem and Ramdas Pophale) SiO2 
 PCOD8045783
Probable space group: P 21
;
_chemical_formula_sum "Si O2"
_cell_formula_units_Z 16
_cell_length_a 13.848699
_cell_length_b 8.105956
_cell_length_c 16.632034
_cell_angle_alpha 90.000000
_cell_angle_beta 155.131043
_cell_angle_gamma 90.000000
_cell_volume 785.182021
_symmetry_space_group_name_H-M "P 21"
_symmetry_group_IT_number 4
_symmetry_cell_setting 'monoclinic'
loop_
_space_group_symop_operation_xyz
x,y,z
-x,1/2+y,-z
loop_
_atom_site_type_symbol
_atom_site_label
_atom_site_fract_x
_atom_site_fract_y
_atom_site_fract_z
Si Si1 0.269591 0.482120 0.951973
Si Si2 0.740330 0.311519 0.310824
Si Si3 0.847912 0.837439 0.970195
Si Si4 0.238536 0.675959 0.173379
Si Si5 0.282184 0.297981 0.487527
Si Si6 0.509907 0.083277 0.257069
Si Si7 0.981022 0.585197 0.591615
Si Si8 0.186463 0.814968 0.960874
O O1 0.114359 0.472281 0.756014
O O2 0.322550 0.672164 0.015487
O O3 0.497245 0.384865 0.100601
O O4 0.134264 0.401770 0.924807
O O5 0.703552 0.174238 0.351210
O O6 0.858103 0.227894 0.323264
O O7 0.893257 0.463464 0.456660
O O8 0.633183 0.715106 0.799492
O O9 0.804324 0.982757 0.873299
O O10 0.082247 0.740367 0.128294
O O11 0.504083 0.712393 0.397217
O O12 0.166645 0.776153 0.039812
O O13 0.357034 0.472955 0.578655
O O14 0.226688 0.176335 0.519890
O O15 0.069847 0.330480 0.267992
O O16 0.337035 0.981661 0.067052
#
# Coordination Sequence:
#
# PCOD8045783 Si02
#       8
#     2   2   2   2   2   2   2   2
#     4   9  22  41  60  85 119 154 193 247 295 341
#     4  11  23  38  59  86 116 156 195 240 292 345
#     4  10  20  38  61  85 118 158 198 240 292 349
#     4  10  19  37  59  82 115 152 194 241 290 344
#     4  10  20  37  59  85 117 151 190 243 294 343
#     4  10  20  36  57  82 118 153 189 242 294 342
#     4  11  23  39  61  89 119 154 199 241 291 354
#     4   9  19  36  58  84 114 150 194 238 290 350
#
# _framework density 20.377443
#
# number of rings (size 3 to 8) (size 9 to 14) (size 15 to 20)
#    0.000    2.000    0.000    5.250    0.000    5.000 
#    0.000   13.750    0.000    0.000    0.000    0.000 
#    0.000    0.000    0.000    0.000    0.000    0.000 
#
# Total GULP energy -198418.442842 kJ/mol
# GULP energy per Si atom -12401.152678 kJ/mol
# Density = 2.033106 g / cm^3
# Si number density = 20.377443 Si / 1000 Ang^3
#
#
#
# Elastic Constant Matrix: (Units=GPa)
#
#
# Indices 1 2 3 4 5 6 
#
# 1 76.5581 29.4486 33.1105 0.0000 16.9637 0.0000
# 2 29.4486 107.8673 31.9876 0.0000 7.9529 0.0000
# 3 33.1105 31.9876 80.7154 0.0000 3.9501 0.0000
# 4 0.0000 0.0000 0.0000 36.1232 0.0000 6.1767
# 5 16.9637 7.9529 3.9501 0.0000 26.8853 0.0000
# 6 0.0000 0.0000 0.0000 6.1767 0.0000 33.9665
#
#
#
# Elastic Compliance Matrix: (Units=1/GPa)
#
#
# Indices 1 2 3 4 5 6 
#
# 1 0.019067 -0.002576 -0.006294 0.000000 -0.010344 0.000000
# 2 -0.002576 0.011025 -0.003256 0.000000 -0.001157 0.000000
# 3 -0.006294 -0.003256 0.016136 0.000000 0.002564 0.000000
# 4 0.000000 0.000000 0.000000 0.028571 0.000000 -0.005196
# 5 -0.010344 -0.001157 0.002564 0.000000 0.043687 0.000000
# 6 0.000000 0.000000 0.000000 -0.005196 0.000000 0.030386
#
#
# Mechanical properties :
#
#
# Convention : Reuss Voigt Hill
#
# Bulk Modulus (GPa) = 45.50568 50.47047 47.98808
# Shear Modulus (GPa) = 27.70851 30.76797 29.23824
#
# Velocity S-wave (km/s) = 3.69150 3.88996 3.79203
# Velocity P-wave (km/s) = 6.36784 6.70800 6.54014
#
# Compressibility (1/GPa) = 0.02197528
#
# Stress axis : x y z
#
# Youngs Moduli (GPa) = 52.44609 90.70482 61.97317
#
# Poissons Ratio (x) = 0.23368 0.39009
# Poissons Ratio (y) = 0.13511 0.20176
# Poissons Ratio (z) = 0.33012 0.29530
#
# Static dielectric constant tensor:
#      x y z
#    x 3.559680 0.000000 0.161990 
#    y 0.000000 3.946130 0.000000 
#    z 0.161990 0.000000 3.584580 
# 
# 
# High freq. dielectric constant tensor:
#      x y z
#    x 1.785770 0.000000 0.014170 
#    y 0.000000 1.812450 0.000000 
#    z 0.014170 0.000000 1.788640 
# 
# From -- ./inp_files/12675.got.cif
#   From: 2010.03.12/outbox.cif.g09.slc.cpg/sg4_7_cif.got.tgz:12675.got - 2010.03.31 09:31:35.
