data_PCOD8045282
_publ_section_title
;
Structure prediction by ZEFSAII (Michael W. Deem and Ramdas Pophale) SiO2 
 PCOD8045282
Probable space group: P 2
;
_chemical_formula_sum "Si O2"
_cell_formula_units_Z 15
_cell_length_a 26.897625
_cell_length_b 5.135003
_cell_length_c 16.057760
_cell_angle_alpha 90.000000
_cell_angle_beta 17.171743
_cell_angle_gamma 90.000000
_cell_volume 654.802342
_symmetry_space_group_name_H-M "P 2"
_symmetry_group_IT_number 3
_symmetry_cell_setting 'monoclinic'
loop_
_space_group_symop_operation_xyz
x,y,z
-x,y,-z
loop_
_atom_site_type_symbol
_atom_site_label
_atom_site_fract_x
_atom_site_fract_y
_atom_site_fract_z
Si Si1 0.857006 0.530630 0.794318
Si Si2 0.500000 0.809367 0.000000
Si Si3 0.908475 0.037678 0.816498
Si Si4 0.156792 0.400362 0.805328
Si Si5 0.438139 0.521398 0.245344
Si Si6 0.286421 0.130078 0.208454
Si Si7 0.421478 0.849525 0.844241
Si Si8 0.757329 0.919170 0.233923
O O1 0.927978 0.777862 0.730865
O O2 0.000000 0.447507 0.500000
O O3 0.816114 0.273518 0.915006
O O4 0.681190 0.614406 0.033607
O O5 0.623430 0.628665 0.745914
O O6 0.614587 0.967221 0.880323
O O7 0.093225 0.144839 0.545188
O O8 0.799969 0.951542 0.069018
O O9 0.303979 0.329572 0.502175
O O10 0.195829 0.630400 0.808704
O O11 0.130823 0.133633 0.896788
O O12 0.000000 0.481699 0.000000
O O13 0.449759 0.757186 0.290895
O O14 0.626935 0.411216 0.930296
O O15 0.295272 0.039358 0.096695
O O16 0.554397 0.977042 0.566195
#
# Coordination Sequence:
#
# PCOD8045282 Si02
#       8
#     2   1   2   2   2   2   2   2
#     4  12  25  46  73 106 135 188 236 288 359 421
#     4  10  24  36  64 102 136 180 232 286 350 418
#     4  12  28  43  73 107 142 177 235 300 353 403
#     4  11  24  42  72  96 141 190 238 277 350 424
#     4  10  22  41  65  99 134 189 233 283 354 415
#     4  11  22  43  67 101 140 183 227 294 347 415
#     4  10  23  44  71  92 140 181 234 284 345 428
#     4  11  25  47  66 103 142 181 231 296 349 411
#
# _framework density 22.907674
#
# number of rings (size 3 to 8) (size 9 to 14) (size 15 to 20)
#    0.000    1.067    2.667    2.800    5.600    2.667 
#    0.000    1.333    0.000    0.000    0.000    0.000 
#    0.000    0.000    0.000    0.000    0.000    0.000 
#
# Total GULP energy -185884.859143 kJ/mol
# GULP energy per Si atom -12392.323943 kJ/mol
# Density = 2.285553 g / cm^3
# Si number density = 22.907674 Si / 1000 Ang^3
#
#
#
# Elastic Constant Matrix: (Units=GPa)
#
#
# Indices 1 2 3 4 5 6 
#
# 1 115.7405 29.9193 51.4526 0.0000 17.5584 0.0000
# 2 29.9193 95.2893 13.6115 0.0000 16.0101 0.0000
# 3 51.4526 13.6115 112.9415 0.0000 20.0060 0.0000
# 4 0.0000 0.0000 0.0000 25.8144 0.0000 4.5513
# 5 17.5584 16.0101 20.0060 0.0000 29.5458 0.0000
# 6 0.0000 0.0000 0.0000 4.5513 0.0000 36.8208
#
#
#
# Elastic Compliance Matrix: (Units=1/GPa)
#
#
# Indices 1 2 3 4 5 6 
#
# 1 0.011730 -0.002616 -0.004596 0.000000 -0.002441 0.000000
# 2 -0.002616 0.012139 0.000703 0.000000 -0.005499 0.000000
# 3 -0.004596 0.000703 0.011871 0.000000 -0.005687 0.000000
# 4 0.000000 0.000000 0.000000 0.039601 0.000000 -0.004895
# 5 -0.002441 -0.005499 -0.005687 0.000000 0.042127 0.000000
# 6 0.000000 0.000000 0.000000 -0.004895 0.000000 0.027764
#
#
# Mechanical properties :
#
#
# Convention : Reuss Voigt Hill
#
# Bulk Modulus (GPa) = 44.01188 57.10425 50.55807
# Shear Modulus (GPa) = 30.15239 33.70206 31.92723
#
# Velocity S-wave (km/s) = 3.63196 3.83980 3.73733
# Velocity P-wave (km/s) = 6.06981 6.68138 6.38293
#
# Compressibility (1/GPa) = 0.02272114
#
# Stress axis : x y z
#
# Youngs Moduli (GPa) = 85.25271 82.37663 84.24116
#
# Poissons Ratio (x) = 0.21553 0.38718
# Poissons Ratio (y) = 0.22305 -0.05922
# Poissons Ratio (z) = 0.39182 -0.05791
#
# Static dielectric constant tensor:
#      x y z
#    x 4.251170 0.000000 0.305460 
#    y 0.000000 4.070210 0.000000 
#    z 0.305460 0.000000 4.231380 
# 
# 
# High freq. dielectric constant tensor:
#      x y z
#    x 1.910920 0.000000 0.012830 
#    y 0.000000 1.907690 0.000000 
#    z 0.012830 0.000000 1.896070 
# 
# From -- ./inp_files/14398.got.cif
#   From: 2010.03.12/outbox.cif.g09.slc.cpg/sg3_8_cif.got.tgz:14398.got - 2010.03.31 09:20:49.
