data_PCOD8045167
_publ_section_title
;
Structure prediction by ZEFSAII (Michael W. Deem and Ramdas Pophale) SiO2 
 PCOD8045167
Probable space group: P 2
;
_chemical_formula_sum "Si O2"
_cell_formula_units_Z 12
_cell_length_a 9.492574
_cell_length_b 13.639194
_cell_length_c 4.976004
_cell_angle_alpha 90.000000
_cell_angle_beta 60.986308
_cell_angle_gamma 90.000000
_cell_volume 563.397782
_symmetry_space_group_name_H-M "P 2"
_symmetry_group_IT_number 3
_symmetry_cell_setting 'monoclinic'
loop_
_space_group_symop_operation_xyz
x,y,z
-x,y,-z
loop_
_atom_site_type_symbol
_atom_site_label
_atom_site_fract_x
_atom_site_fract_y
_atom_site_fract_z
Si Si1 0.316395 0.231140 0.586699
Si Si2 0.316395 0.806096 0.586700
Si Si3 0.176835 0.905390 0.228774
Si Si4 0.890776 0.409194 0.359310
Si Si5 0.890776 0.628042 0.359310
Si Si6 0.176835 0.131846 0.228773
O O1 0.500000 0.236781 0.500000
O O2 0.261155 0.338698 0.543146
O O3 0.302837 0.157210 0.347892
O O4 0.206684 0.194796 0.934285
O O5 0.500000 0.800456 0.500000
O O6 0.302836 0.880026 0.347894
O O7 0.261155 0.698538 0.543147
O O8 0.206684 0.842440 0.934287
O O9 0.000000 0.879824 0.500000
O O10 0.194915 0.018618 0.132788
O O11 0.825608 0.518618 0.488412
O O12 0.000000 0.367857 0.500000
O O13 0.000000 0.412812 0.000000
O O14 0.000000 0.669379 0.500000
O O15 0.000000 0.624425 0.000000
O O16 0.000000 0.157414 0.500000
#
# Coordination Sequence:
#
# PCOD8045167 Si02
#       6
#     2   2   2   2   2   2
#     4  12  24  38  61  92 125 156 191 247 306 352
#     4  12  24  38  61  92 125 156 191 247 306 352
#     4  11  24  42  63  86 117 161 207 245 287 350
#     4  10  21  39  63  87 115 156 201 242 288 350
#     4  10  21  39  63  87 115 156 201 242 288 350
#     4  11  24  42  63  86 117 161 207 245 287 350
#
# _framework density 21.299337999999999
#
# number of rings (size 3 to 8) (size 9 to 14) (size 15 to 20)
#    0.000    1.000    0.000    8.000    0.000    7.333 
#    0.000    0.000    0.000   10.000    0.000    0.000 
#    0.000    0.000    0.000    0.000    0.000    0.000 
#
# Total GULP energy -148875.267969 kJ/mol
# GULP energy per Si atom -12406.272331 kJ/mol
# Density = 2.125086 g / cm^3
# Si number density = 21.299338 Si / 1000 Ang^3
#
#
#
# Elastic Constant Matrix: (Units=GPa)
#
#
# Indices 1 2 3 4 5 6 
#
# 1 141.2078 64.8373 27.1497 0.0000 10.5290 0.0000
# 2 64.8373 131.2233 40.2649 0.0000 -5.7201 0.0000
# 3 27.1497 40.2649 81.1658 0.0000 22.3902 0.0000
# 4 0.0000 0.0000 0.0000 22.5798 0.0000 10.1005
# 5 10.5290 -5.7201 22.3902 0.0000 41.5197 0.0000
# 6 0.0000 0.0000 0.0000 10.1005 0.0000 26.2499
#
#
#
# Elastic Compliance Matrix: (Units=1/GPa)
#
#
# Indices 1 2 3 4 5 6 
#
# 1 0.009538 -0.004880 0.000097 0.000000 -0.003144 0.000000
# 2 -0.004880 0.012183 -0.006127 0.000000 0.006220 0.000000
# 3 0.000097 -0.006127 0.018288 0.000000 -0.010731 0.000000
# 4 0.000000 0.000000 0.000000 0.053495 0.000000 -0.020584
# 5 -0.003144 0.006220 -0.010731 0.000000 0.031526 0.000000
# 6 0.000000 0.000000 0.000000 -0.020584 0.000000 0.046016
#
#
# Mechanical properties :
#
#
# Convention : Reuss Voigt Hill
#
# Bulk Modulus (GPa) = 54.97677 68.67785 61.82731
# Shear Modulus (GPa) = 25.13479 32.82621 28.98050
#
# Velocity S-wave (km/s) = 3.43895 3.93005 3.69267
# Velocity P-wave (km/s) = 6.45260 7.27378 6.87546
#
# Compressibility (1/GPa) = 0.01818950
#
# Stress axis : x y z
#
# Youngs Moduli (GPa) = 104.84419 82.08239 54.68149
#
# Poissons Ratio (x) = 0.40053 -0.00533
# Poissons Ratio (y) = 0.51160 0.33505
# Poissons Ratio (z) = -0.01022 0.50295
#
# Static dielectric constant tensor:
#      x y z
#    x 3.824680 0.000000 0.317940 
#    y 0.000000 4.252620 0.000000 
#    z 0.317940 0.000000 3.808670 
# 
# 
# High freq. dielectric constant tensor:
#      x y z
#    x 1.838110 0.000000 0.025520 
#    y 0.000000 1.851970 0.000000 
#    z 0.025520 0.000000 1.834070 
# 
# From -- ./inp_files/1384.got.cif
#   From: 2010.03.12/outbox.cif.g09.slc.cpg/sg3_1_cif.got.tgz:1384.got - 2010.03.31 09:20:49.
