data_PCOD8045294
_publ_section_title
;
Structure prediction by ZEFSAII (Michael W. Deem and Ramdas Pophale) SiO2 
 PCOD8045294
Probable space group: P 2
;
_chemical_formula_sum "Si O2"
_cell_formula_units_Z 10
_cell_length_a 8.679680
_cell_length_b 7.655678
_cell_length_c 7.370026
_cell_angle_alpha 90.000000
_cell_angle_beta 89.219288
_cell_angle_gamma 90.000000
_cell_volume 489.684180
_symmetry_space_group_name_H-M "P 2"
_symmetry_group_IT_number 3
_symmetry_cell_setting 'monoclinic'
loop_
_space_group_symop_operation_xyz
x,y,z
-x,y,-z
loop_
_atom_site_type_symbol
_atom_site_label
_atom_site_fract_x
_atom_site_fract_y
_atom_site_fract_z
Si Si1 0.154398 0.641130 0.404746
Si Si2 0.442432 0.449075 0.306570
Si Si3 0.350980 0.779241 0.731839
Si Si4 0.560876 0.069623 0.811441
Si Si5 0.844808 0.889985 0.921099
O O1 0.260180 0.486703 0.323683
O O2 0.250862 0.750443 0.552395
O O3 0.103077 0.751995 0.231436
O O4 0.000000 0.564048 0.500000
O O5 0.500000 0.392582 0.500000
O O6 0.537226 0.613815 0.227969
O O7 0.471801 0.275121 0.191426
O O8 0.458622 0.947867 0.678266
O O9 0.245453 0.800143 0.910802
O O10 0.744171 0.032072 0.811044
O O11 0.500000 0.993671 0.000000
O O12 0.000000 0.977861 0.000000
#
# Coordination Sequence:
#
# PCOD8045294 Si02
#       5
#     2   2   2   2   2
#     4  11  22  40  65  90 127 166 205 253 313 367
#     4  10  23  39  65  93 123 159 214 257 306 364
#     4  10  22  42  64  94 116 168 214 254 308 360
#     4  10  23  39  65  93 123 159 214 257 306 364
#     4  11  22  40  65  90 127 166 205 253 313 367
#
# _framework density 20.421325
#
# number of rings (size 3 to 8) (size 9 to 14) (size 15 to 20)
#    0.000    1.600    4.000    0.000    5.600    0.000 
#    0.000   10.000    0.000    0.000    0.000    0.000 
#    0.000    0.000    0.000    0.000    0.000    0.000 
#
# Total GULP energy -123885.152484 kJ/mol
# GULP energy per Si atom -12388.515248 kJ/mol
# Density = 2.037484 g / cm^3
# Si number density = 20.421325 Si / 1000 Ang^3
#
#
#
# Elastic Constant Matrix: (Units=GPa)
#
#
# Indices 1 2 3 4 5 6 
#
# 1 139.6706 40.7098 19.0751 0.0000 2.7088 0.0000
# 2 40.7098 111.5905 9.5784 0.0000 -0.2413 0.0000
# 3 19.0751 9.5784 62.1121 0.0000 -4.2101 0.0000
# 4 0.0000 0.0000 0.0000 4.4271 0.0000 -8.2883
# 5 2.7088 -0.2413 -4.2101 0.0000 35.2860 0.0000
# 6 0.0000 0.0000 0.0000 -8.2883 0.0000 14.6238
#
#
#
# Elastic Compliance Matrix: (Units=1/GPa)
#
#
# Indices 1 2 3 4 5 6 
#
# 1 0.008303 -0.002845 -0.002173 0.000000 -0.000916 0.000000
# 2 -0.002845 0.010056 -0.000663 0.000000 0.000208 0.000000
# 3 -0.002173 -0.000663 0.017018 0.000000 0.002193 0.000000
# 4 0.000000 0.000000 0.000000 -3.697358 0.000000 -2.095555
# 5 -0.000916 0.000208 0.002193 0.000000 0.028673 0.000000
# 6 0.000000 0.000000 0.000000 -2.095555 0.000000 -1.119318
#
#
# Mechanical properties :
#
#
# Convention : Reuss Voigt Hill
#
# Bulk Modulus (GPa) = 41.63930 50.23330 45.93630
# Shear Modulus (GPa) = -1.05636 27.13472 13.03918
#
# Velocity S-wave (km/s) = -0.72000 3.64915 2.52961
# Velocity P-wave (km/s) = 4.44333 6.51206 5.57450
#
# Compressibility (1/GPa) = 0.02401577
#
# Stress axis : x y z
#
# Youngs Moduli (GPa) = 120.43215 99.43855 58.76026
#
# Poissons Ratio (x) = 0.28287 0.12771
# Poissons Ratio (y) = 0.34258 0.03896
# Poissons Ratio (z) = 0.26176 0.06594
#
# Static dielectric constant tensor:
#      x y z
#    x 4.014760 0.000000 0.055590 
#    y 0.000000 3.302720 0.000000 
#    z 0.055590 0.000000 3.828580 
# 
# 
# High freq. dielectric constant tensor:
#      x y z
#    x 1.807550 0.000000 0.002850 
#    y 0.000000 1.764900 0.000000 
#    z 0.002850 0.000000 1.813620 
# 
# From -- ./inp_files/4747.got.cif
#   From: 2010.03.12/outbox.cif.g09.slc.cpg/sg3_3_cif.got.tgz:4747.got - 2010.03.31 09:20:49.
