data_PCOD8045747
_publ_section_title
;
Structure prediction by ZEFSAII (Michael W. Deem and Ramdas Pophale) SiO2 
 PCOD8045747
Probable space group: P 21
;
_chemical_formula_sum "Si O2"
_cell_formula_units_Z 16
_cell_length_a 7.623603
_cell_length_b 16.889094
_cell_length_c 8.736402
_cell_angle_alpha 90.000000
_cell_angle_beta 51.491889
_cell_angle_gamma 90.000000
_cell_volume 880.227017
_symmetry_space_group_name_H-M "P 21"
_symmetry_group_IT_number 4
_symmetry_cell_setting 'monoclinic'
loop_
_space_group_symop_operation_xyz
x,y,z
-x,1/2+y,-z
loop_
_atom_site_type_symbol
_atom_site_label
_atom_site_fract_x
_atom_site_fract_y
_atom_site_fract_z
Si Si1 0.736380 0.612380 0.043098
Si Si2 0.089921 0.326327 0.847545
Si Si3 0.760075 0.348369 0.756840
Si Si4 0.465352 0.739820 0.355916
Si Si5 0.480185 0.958178 0.888815
Si Si6 0.027636 0.747389 0.782369
Si Si7 0.961007 0.907431 0.658110
Si Si8 0.086592 0.970223 0.904359
O O1 0.579080 0.656875 0.251113
O O2 0.580874 0.549741 0.033648
O O3 0.924299 0.562178 0.037383
O O4 0.864625 0.671040 0.856700
O O5 0.345925 0.299601 0.681600
O O6 0.954471 0.316746 0.763493
O O7 0.966601 0.272221 0.042664
O O8 0.095402 0.417583 0.903546
O O9 0.642090 0.273626 0.741826
O O10 0.862219 0.406593 0.574092
O O11 0.573447 0.400131 0.942191
O O12 0.277275 0.727011 0.588183
O O13 0.739195 0.947200 0.709837
O O14 0.332261 0.934998 0.819600
O O15 0.919684 0.818076 0.741259
O O16 0.056888 0.963307 0.739617
#
# Coordination Sequence:
#
# PCOD8045747 Si02
#       8
#     2   2   2   2   2   2   2   2
#     4   9  19  37  55  76 114 144 174 217 279 320
#     4   9  18  36  56  78 105 138 183 220 264 315
#     4  10  20  33  58  83 104 135 187 225 257 316
#     4  10  20  37  57  79 108 146 179 223 268 316
#     4   9  19  35  54  79 108 143 174 220 273 313
#     4   9  19  36  58  76 109 145 179 221 266 319
#     4  10  19  35  58  79 102 140 185 223 258 314
#     4   8  18  35  54  78 108 139 175 225 263 317
#
# _framework density 18.177129999999998
#
# number of rings (size 3 to 8) (size 9 to 14) (size 15 to 20)
#    0.750    2.000    0.000    2.250    0.000    5.000 
#    4.500    1.250    0.000    0.000    0.000    0.000 
#    0.000    0.000    0.000    0.000    0.000    0.000 
#
# Total GULP energy -198279.877945 kJ/mol
# GULP energy per Si atom -12392.492372 kJ/mol
# Density = 1.813576 g / cm^3
# Si number density = 18.177130 Si / 1000 Ang^3
#
#
#
# Elastic Constant Matrix: (Units=GPa)
#
#
# Indices 1 2 3 4 5 6 
#
# 1 67.1691 15.9923 9.5488 0.0000 -5.3708 0.0000
# 2 15.9923 85.2576 19.7069 0.0000 -16.5924 0.0000
# 3 9.5488 19.7069 65.2719 0.0000 -17.8209 0.0000
# 4 0.0000 0.0000 0.0000 20.2382 0.0000 -8.4771
# 5 -5.3708 -16.5924 -17.8209 0.0000 29.1205 0.0000
# 6 0.0000 0.0000 0.0000 -8.4771 0.0000 27.3231
#
#
#
# Elastic Compliance Matrix: (Units=1/GPa)
#
#
# Indices 1 2 3 4 5 6 
#
# 1 0.015731 -0.002511 -0.001371 0.000000 0.000632 0.000000
# 2 -0.002511 0.013892 -0.002152 0.000000 0.006135 0.000000
# 3 -0.001371 -0.002152 0.018930 0.000000 0.010106 0.000000
# 4 0.000000 0.000000 0.000000 0.056792 0.000000 0.017620
# 5 0.000632 0.006135 0.010106 0.000000 0.044137 0.000000
# 6 0.000000 0.000000 0.000000 0.017620 0.000000 0.042066
#
#
# Mechanical properties :
#
#
# Convention : Reuss Voigt Hill
#
# Bulk Modulus (GPa) = 27.40812 34.24386 30.82599
# Shear Modulus (GPa) = 23.17223 26.83305 25.00264
#
# Velocity S-wave (km/s) = 3.57431 3.84630 3.71280
# Velocity P-wave (km/s) = 5.66969 6.21331 5.94771
#
# Compressibility (1/GPa) = 0.03648554
#
# Stress axis : x y z
#
# Youngs Moduli (GPa) = 63.56865 71.98629 52.82673
#
# Poissons Ratio (x) = 0.18076 0.07241
# Poissons Ratio (y) = 0.15962 0.11367
# Poissons Ratio (z) = 0.08713 0.15489
#
# Static dielectric constant tensor:
#      x y z
#    x 3.253750 0.000000 -0.054520 
#    y 0.000000 3.337480 0.000000 
#    z -0.054520 0.000000 3.264640 
# 
# 
# High freq. dielectric constant tensor:
#      x y z
#    x 1.695050 0.000000 -0.006070 
#    y 0.000000 1.696130 0.000000 
#    z -0.006070 0.000000 1.694730 
# 
# From -- ./inp_files/6586.got.cif
#   From: 2010.03.12/outbox.cif.g09.slc.cpg/sg4_4_cif.got.tgz:6586.got - 2010.03.31 09:31:35.
