data_PCOD8045665
_publ_section_title
;
Structure prediction by ZEFSAII (Michael W. Deem and Ramdas Pophale) SiO2 
 PCOD8045665
Probable space group: P 21
;
_chemical_formula_sum "Si O2"
_cell_formula_units_Z 14
_cell_length_a 24.313740
_cell_length_b 4.955308
_cell_length_c 7.930373
_cell_angle_alpha 90.000000
_cell_angle_beta 130.745829
_cell_angle_gamma 90.000000
_cell_volume 723.874318
_symmetry_space_group_name_H-M "P 21"
_symmetry_group_IT_number 4
_symmetry_cell_setting 'monoclinic'
loop_
_space_group_symop_operation_xyz
x,y,z
-x,1/2+y,-z
loop_
_atom_site_type_symbol
_atom_site_label
_atom_site_fract_x
_atom_site_fract_y
_atom_site_fract_z
Si Si1 0.201730 0.053300 0.013049
Si Si2 0.082973 0.045686 0.053077
Si Si3 0.684199 0.602766 0.482488
Si Si4 0.917315 0.046971 0.724295
Si Si5 0.684528 0.138014 0.263422
Si Si6 0.202261 0.550384 0.788315
Si Si7 0.546950 0.367702 0.094615
O O1 0.196308 0.246314 0.841427
O O2 0.203093 0.748100 0.949662
O O3 0.132565 0.103406 0.992122
O O4 0.275804 0.122902 0.259603
O O5 0.100344 0.251309 0.239751
O O6 0.098202 0.748275 0.152609
O O7 0.999891 0.077812 0.826036
O O8 0.725499 0.382103 0.445586
O O9 0.600918 0.495433 0.345792
O O10 0.684517 0.885136 0.387946
O O11 0.866435 0.114642 0.465610
O O12 0.722910 0.077196 0.164824
O O13 0.600945 0.237545 0.060101
O O14 0.500744 0.619208 0.927465
#
# Coordination Sequence:
#
# PCOD8045665 Si02
#       7
#     2   2   2   2   2   2   2
#     4  12  24  36  56  87 122 153 189 236 286 342
#     4  10  21  39  61  82 113 155 200 242 282 330
#     4  10  20  36  60  84 111 149 189 238 273 342
#     4  10  21  39  61  82 113 155 200 242 282 330
#     4  10  20  36  60  84 111 149 189 238 273 342
#     4  12  24  36  56  87 122 153 189 236 286 342
#     4  10  18  34  62  92 104 136 196 246 272 326
#
# _framework density 19.340374000000001
#
# number of rings (size 3 to 8) (size 9 to 14) (size 15 to 20)
#    0.857    0.571    1.429    5.143    0.000    1.143 
#    0.000    0.000    0.000    3.429    0.000    0.000 
#    0.000    0.000    0.000    0.000    0.000    0.000 
#
# Total GULP energy -173528.951424 kJ/mol
# GULP energy per Si atom -12394.925102 kJ/mol
# Density = 1.929635 g / cm^3
# Si number density = 19.340374 Si / 1000 Ang^3
#
#
#
# Elastic Constant Matrix: (Units=GPa)
#
#
# Indices 1 2 3 4 5 6 
#
# 1 92.9831 21.7014 62.7255 0.0000 17.8508 0.0000
# 2 21.7014 97.6266 22.9058 0.0000 6.9614 0.0000
# 3 62.7255 22.9058 77.5095 0.0000 7.8849 0.0000
# 4 0.0000 0.0000 0.0000 28.9870 0.0000 -2.0373
# 5 17.8508 6.9614 7.8849 0.0000 22.4795 0.0000
# 6 0.0000 0.0000 0.0000 -2.0373 0.0000 24.4888
#
#
#
# Elastic Compliance Matrix: (Units=1/GPa)
#
#
# Indices 1 2 3 4 5 6 
#
# 1 0.027665 -0.000220 -0.020839 0.000000 -0.014591 0.000000
# 2 -0.000220 0.011129 -0.002881 0.000000 -0.002261 0.000000
# 3 -0.020839 -0.002881 0.029910 0.000000 0.006949 0.000000
# 4 0.000000 0.000000 0.000000 0.034701 0.000000 0.002887
# 5 -0.014591 -0.002261 0.006949 0.000000 0.054334 0.000000
# 6 0.000000 0.000000 0.000000 0.002887 0.000000 0.041075
#
#
# Mechanical properties :
#
#
# Convention : Reuss Voigt Hill
#
# Bulk Modulus (GPa) = 48.01930 53.64273 50.83101
# Shear Modulus (GPa) = 19.71334 25.91015 22.81174
#
# Velocity S-wave (km/s) = 3.19609 3.66415 3.43809
# Velocity P-wave (km/s) = 6.20503 6.76001 6.48845
#
# Compressibility (1/GPa) = 0.02082496
#
# Stress axis : x y z
#
# Youngs Moduli (GPa) = 36.14722 89.85384 33.43353
#
# Poissons Ratio (x) = 0.01975 0.69671
# Poissons Ratio (y) = 0.00795 0.09632
# Poissons Ratio (z) = 0.75326 0.25887
#
# Static dielectric constant tensor:
#      x y z
#    x 3.532890 0.000000 0.273410 
#    y 0.000000 3.731750 0.000000 
#    z 0.273410 0.000000 3.241160 
# 
# 
# High freq. dielectric constant tensor:
#      x y z
#    x 1.745180 0.000000 0.024180 
#    y 0.000000 1.781110 0.000000 
#    z 0.024180 0.000000 1.724650 
# 
# From -- ./inp_files/4190.got.cif
#   From: 2010.03.12/outbox.cif.g09.slc.cpg/sg4_3_cif.got.tgz:4190.got - 2010.03.31 09:31:35.
