data_PCOD8045451
_publ_section_title
;
Structure prediction by ZEFSAII (Michael W. Deem and Ramdas Pophale) SiO2 
 PCOD8045451
Probable space group: P 2
;
_chemical_formula_sum "Si O2"
_cell_formula_units_Z 12
_cell_length_a 8.101778
_cell_length_b 7.286222
_cell_length_c 9.502232
_cell_angle_alpha 90.000000
_cell_angle_beta 93.973693
_cell_angle_gamma 90.000000
_cell_volume 559.581123
_symmetry_space_group_name_H-M "P 2"
_symmetry_group_IT_number 3
_symmetry_cell_setting 'monoclinic'
loop_
_space_group_symop_operation_xyz
x,y,z
-x,y,-z
loop_
_atom_site_type_symbol
_atom_site_label
_atom_site_fract_x
_atom_site_fract_y
_atom_site_fract_z
Si Si1 0.353106 0.027720 0.219892
Si Si2 0.371785 0.522210 0.871738
Si Si3 0.692806 0.762976 0.548081
Si Si4 0.727255 0.885088 0.252306
Si Si5 0.402463 0.394654 0.362443
Si Si6 0.825189 0.161865 0.053691
O O1 0.312365 0.230392 0.277886
O O2 0.256775 0.883242 0.313091
O O3 0.546464 0.979764 0.230993
O O4 0.282642 0.034242 0.058188
O O5 0.258695 0.700101 0.839422
O O6 0.466514 0.493105 0.731301
O O7 0.266189 0.348673 0.912462
O O8 0.500000 0.573076 0.000000
O O9 0.500000 0.781010 0.500000
O O10 0.787443 0.836909 0.414850
O O11 0.728139 0.549331 0.589904
O O12 0.851610 0.036222 0.194204
O O13 0.500000 0.307463 0.500000
O O14 0.000000 0.217197 0.000000
#
# Coordination Sequence:
#
# PCOD8045451 Si02
#       6
#     2   2   2   2   2   2
#     4  11  20  37  63  89 117 148 200 251 295 344
#     4  12  21  37  63  93 121 149 199 251 297 348
#     4   9  19  33  58  99 115 139 186 252 312 342
#     4  11  21  39  66  92 118 149 199 255 299 346
#     4  11  18  33  60  98 118 139 184 257 307 343
#     4  12  27  41  55  84 126 171 201 232 291 356
#
# _framework density 21.444611999999999
#
# number of rings (size 3 to 8) (size 9 to 14) (size 15 to 20)
#    0.000    1.000    8.333    3.000    0.000    0.667 
#    0.000    0.833    0.000    0.000    0.000    0.000 
#    0.000    0.000    0.000    0.000    0.000    0.000 
#
# Total GULP energy -148765.513346 kJ/mol
# GULP energy per Si atom -12397.126112 kJ/mol
# Density = 2.139580 g / cm^3
# Si number density = 21.444612 Si / 1000 Ang^3
#
#
#
# Elastic Constant Matrix: (Units=GPa)
#
#
# Indices 1 2 3 4 5 6 
#
# 1 17.3833 6.0946 13.9959 0.0000 -6.5082 0.0000
# 2 6.0946 133.5857 39.1204 0.0000 -5.5761 0.0000
# 3 13.9959 39.1204 113.9522 0.0000 -12.8883 0.0000
# 4 0.0000 0.0000 0.0000 52.6872 0.0000 -0.9783
# 5 -6.5082 -5.5761 -12.8883 0.0000 15.3538 0.0000
# 6 0.0000 0.0000 0.0000 -0.9783 0.0000 8.3824
#
#
#
# Elastic Compliance Matrix: (Units=1/GPa)
#
#
# Indices 1 2 3 4 5 6 
#
# 1 0.071880 -0.000528 -0.005771 0.000000 0.025433 0.000000
# 2 -0.000528 0.008333 -0.002739 0.000000 0.000503 0.000000
# 3 -0.005771 -0.002739 0.011088 0.000000 0.005867 0.000000
# 4 0.000000 0.000000 0.000000 0.019021 0.000000 0.002220
# 5 0.025433 0.000503 0.005867 0.000000 0.081018 0.000000
# 6 0.000000 0.000000 0.000000 0.002220 0.000000 0.119556
#
#
# Mechanical properties :
#
#
# Convention : Reuss Voigt Hill
#
# Bulk Modulus (GPa) = 13.65634 42.59364 28.12499
# Shear Modulus (GPa) = 14.14904 28.99871 21.57387
#
# Velocity S-wave (km/s) = 2.57143 3.68130 3.17524
# Velocity P-wave (km/s) = 3.89851 6.16235 5.15621
#
# Compressibility (1/GPa) = 0.07322608
#
# Stress axis : x y z
#
# Youngs Moduli (GPa) = 13.91210 120.00422 90.18550
#
# Poissons Ratio (x) = 0.06334 0.52044
# Poissons Ratio (y) = 0.00734 0.24702
# Poissons Ratio (z) = 0.08028 0.32869
#
# Static dielectric constant tensor:
#      x y z
#    x 3.073800 0.000000 -0.023170 
#    y 0.000000 4.162920 0.000000 
#    z -0.023170 0.000000 4.283550 
# 
# 
# High freq. dielectric constant tensor:
#      x y z
#    x 1.758630 0.000000 -0.003850 
#    y 0.000000 1.862910 0.000000 
#    z -0.003850 0.000000 1.871060 
# 
# From -- ./inp_files/5232.got.cif
#   From: 2010.03.12/outbox.cif.g09.slc.cpg/sg3_3_cif.got.tgz:5232.got - 2010.03.31 09:20:49.
