data_PCOD8045182
_publ_section_title
;
Structure prediction by ZEFSAII (Michael W. Deem and Ramdas Pophale) SiO2 
 PCOD8045182
Probable space group: P 2
;
_chemical_formula_sum "Si O2"
_cell_formula_units_Z 14
_cell_length_a 9.754469
_cell_length_b 12.980490
_cell_length_c 5.271071
_cell_angle_alpha 90.000000
_cell_angle_beta 108.982402
_cell_angle_gamma 90.000000
_cell_volume 631.116535
_symmetry_space_group_name_H-M "P 2"
_symmetry_group_IT_number 3
_symmetry_cell_setting 'monoclinic'
loop_
_space_group_symop_operation_xyz
x,y,z
-x,y,-z
loop_
_atom_site_type_symbol
_atom_site_label
_atom_site_fract_x
_atom_site_fract_y
_atom_site_fract_z
Si Si1 0.862236 0.742140 0.283974
Si Si2 0.862300 0.942445 0.053386
Si Si3 0.338656 0.842628 0.455639
Si Si4 0.173146 0.448501 0.584146
Si Si5 0.405864 0.277784 0.688130
Si Si6 0.835554 0.558941 0.924633
Si Si7 0.354791 0.049561 0.763617
O O1 0.727267 0.756496 0.394922
O O2 0.000000 0.681169 0.500000
O O3 0.927878 0.856882 0.281960
O O4 0.818391 0.679288 0.999638
O O5 0.754232 0.860838 0.851508
O O6 0.000000 0.993359 0.000000
O O7 0.780864 0.039700 0.125376
O O8 0.500000 0.802039 0.500000
O O9 0.339887 0.959616 0.554365
O O10 0.257519 0.341773 0.597015
O O11 0.226278 0.527558 0.390240
O O12 0.000000 0.428363 0.500000
O O13 0.233957 0.495000 0.884198
O O14 0.500000 0.308404 0.500000
O O15 0.354003 0.159599 0.627749
O O16 0.500000 0.293364 0.000000
O O17 0.000000 0.525199 0.000000
O O18 0.500000 0.029174 0.000000
#
# Coordination Sequence:
#
# PCOD8045182 Si02
#       7
#     2   2   2   2   2   2   2
#     4  11  22  36  63  97 127 174 227 270 322 396
#     4  11  22  38  61  94 135 171 218 277 321 378
#     4  11  22  39  62  89 137 178 214 269 324 394
#     4  10  22  43  68 100 128 164 219 280 335 391
#     4  11  24  44  72  97 130 177 224 271 340 406
#     4  10  21  39  68  95 128 171 218 270 333 396
#     4  10  22  39  63  92 126 181 223 258 327 408
#
# _framework density 22.182908000000001
#
# number of rings (size 3 to 8) (size 9 to 14) (size 15 to 20)
#    0.000    1.429    2.857    3.000    4.000    0.000 
#    2.571    1.429    6.286    0.000    0.000    0.000 
#    0.000    0.000    0.000    0.000    0.000    0.000 
#
# Total GULP energy -173436.726889 kJ/mol
# GULP energy per Si atom -12388.337635 kJ/mol
# Density = 2.213242 g / cm^3
# Si number density = 22.182908 Si / 1000 Ang^3
#
#
#
# Elastic Constant Matrix: (Units=GPa)
#
#
# Indices 1 2 3 4 5 6 
#
# 1 143.4105 42.0890 37.1970 0.0000 -22.0175 0.0000
# 2 42.0890 104.1232 24.3416 0.0000 -5.8736 0.0000
# 3 37.1970 24.3416 100.3316 0.0000 -21.1724 0.0000
# 4 0.0000 0.0000 0.0000 36.9959 0.0000 -6.9583
# 5 -22.0175 -5.8736 -21.1724 0.0000 33.8852 0.0000
# 6 0.0000 0.0000 0.0000 -6.9583 0.0000 30.2819
#
#
#
# Elastic Compliance Matrix: (Units=1/GPa)
#
#
# Indices 1 2 3 4 5 6 
#
# 1 0.008936 -0.002977 -0.001698 0.000000 0.004229 0.000000
# 2 -0.002977 0.011175 -0.001851 0.000000 -0.001154 0.000000
# 3 -0.001698 -0.001851 0.012377 0.000000 0.006309 0.000000
# 4 0.000000 0.000000 0.000000 0.028251 0.000000 0.006492
# 5 0.004229 -0.001154 0.006309 0.000000 0.036002 0.000000
# 6 0.000000 0.000000 0.000000 0.006492 0.000000 0.034515
#
#
# Mechanical properties :
#
#
# Convention : Reuss Voigt Hill
#
# Bulk Modulus (GPa) = 51.45048 61.68003 56.56526
# Shear Modulus (GPa) = 33.15938 36.51512 34.83725
#
# Velocity S-wave (km/s) = 3.87048 4.06161 3.96720
# Velocity P-wave (km/s) = 6.57406 7.06124 6.82200
#
# Compressibility (1/GPa) = 0.01943616
#
# Stress axis : x y z
#
# Youngs Moduli (GPa) = 111.90107 89.48619 80.79445
#
# Poissons Ratio (x) = 0.26637 0.13722
# Poissons Ratio (y) = 0.33310 0.14955
# Poissons Ratio (z) = 0.19005 0.16564
#
# Static dielectric constant tensor:
#      x y z
#    x 4.021230 0.000000 -0.316990 
#    y 0.000000 3.813230 0.000000 
#    z -0.316990 0.000000 4.350120 
# 
# 
# High freq. dielectric constant tensor:
#      x y z
#    x 1.866340 0.000000 -0.017190 
#    y 0.000000 1.857010 0.000000 
#    z -0.017190 0.000000 1.886470 
# 
# From -- ./inp_files/1309.got.cif
#   From: 2010.03.12/outbox.cif.g09.slc.cpg/sg3_1_cif.got.tgz:1309.got - 2010.03.31 09:20:49.
