data_PCOD8045170
_publ_section_title
;
Structure prediction by ZEFSAII (Michael W. Deem and Ramdas Pophale) SiO2 
 PCOD8045170
Probable space group: P 2
;
_chemical_formula_sum "Si O2"
_cell_formula_units_Z 15
_cell_length_a 8.080567
_cell_length_b 16.514722
_cell_length_c 5.364977
_cell_angle_alpha 90.000000
_cell_angle_beta 116.400704
_cell_angle_gamma 90.000000
_cell_volume 641.278375
_symmetry_space_group_name_H-M "P 2"
_symmetry_group_IT_number 3
_symmetry_cell_setting 'monoclinic'
loop_
_space_group_symop_operation_xyz
x,y,z
-x,y,-z
loop_
_atom_site_type_symbol
_atom_site_label
_atom_site_fract_x
_atom_site_fract_y
_atom_site_fract_z
Si Si1 0.287833 0.028630 0.357835
Si Si2 0.787469 0.765015 0.313583
Si Si3 0.701042 0.513705 0.751542
Si Si4 0.500000 0.425858 0.000000
Si Si5 0.813559 0.366611 0.531032
Si Si6 0.718069 0.949775 0.154118
Si Si7 0.792959 0.694954 0.823207
Si Si8 0.885444 0.191364 0.681638
O O1 0.500000 0.002937 0.500000
O O2 0.274995 0.124444 0.405026
O O3 0.191938 0.986711 0.534125
O O4 0.197728 0.993834 0.038415
O O5 0.764790 0.855745 0.204261
O O6 0.694446 0.740074 0.519284
O O7 0.000000 0.740533 0.500000
O O8 0.693873 0.714065 0.022443
O O9 0.500000 0.519332 0.500000
O O10 0.662351 0.484316 0.005521
O O11 0.829675 0.444514 0.718681
O O12 0.801763 0.598735 0.789110
O O13 0.385777 0.368219 0.739187
O O14 0.803321 0.281206 0.668470
O O15 0.000000 0.366626 0.500000
O O16 0.500000 0.964215 0.000000
O O17 0.000000 0.728918 0.000000
O O18 0.000000 0.184742 0.500000
O O19 0.000000 0.168768 0.000000
#
# Coordination Sequence:
#
# PCOD8045170 Si02
#       8
#     2   2   2   1   2   2   2   2
#     4  10  22  41  64  94 127 169 210 264 325 394
#     4  10  22  39  58  92 123 163 212 265 324 392
#     4  10  24  41  63  95 129 172 225 273 330 407
#     4  10  24  44  64 100 132 176 242 266 350 402
#     4  10  25  43  69  97 134 180 225 285 336 406
#     4  10  21  39  63  90 125 166 214 257 327 392
#     4  10  23  38  62  89 125 166 214 265 329 384
#     4  11  25  44  66 100 133 167 224 270 330 399
#
# _framework density 23.390779999999999
#
# number of rings (size 3 to 8) (size 9 to 14) (size 15 to 20)
#    0.000    1.867    0.000    1.600    9.333    4.800 
#    3.600    0.000    0.000    0.000    0.000    0.000 
#    0.000    0.000    0.000    0.000    0.000    0.000 
#
# Total GULP energy -185832.220416 kJ/mol
# GULP energy per Si atom -12388.814694 kJ/mol
# Density = 2.333754 g / cm^3
# Si number density = 23.390780 Si / 1000 Ang^3
#
#
#
# Elastic Constant Matrix: (Units=GPa)
#
#
# Indices 1 2 3 4 5 6 
#
# 1 43.1500 21.5612 32.4811 0.0000 -20.1319 0.0000
# 2 21.5612 184.3560 55.2651 0.0000 -31.1632 0.0000
# 3 32.4811 55.2651 152.6442 0.0000 -46.3849 0.0000
# 4 0.0000 0.0000 0.0000 -65.0293 0.0000 140.7085
# 5 -20.1319 -31.1632 -46.3849 0.0000 31.1299 0.0000
# 6 0.0000 0.0000 0.0000 140.7085 0.0000 -158.5035
#
#
#
# Elastic Compliance Matrix: (Units=1/GPa)
#
#
# Indices 1 2 3 4 5 6 
#
# 1 0.033280 -0.000250 -0.000963 0.000000 0.019837 0.000000
# 2 -0.000250 0.006571 -0.000687 0.000000 0.005392 0.000000
# 3 -0.000963 -0.000687 0.012073 0.000000 0.016679 0.000000
# 4 0.000000 0.000000 0.000000 0.016699 0.000000 0.014825
# 5 0.019837 0.005392 0.016679 0.000000 0.075202 0.000000
# 6 0.000000 0.000000 0.000000 0.014825 0.000000 0.006851
#
#
# Mechanical properties :
#
#
# Convention : Reuss Voigt Hill
#
# Bulk Modulus (GPa) = 20.78020 66.52946 43.65483
# Shear Modulus (GPa) = 29.32221 -20.42438 4.44891
#
# Velocity S-wave (km/s) = 3.54443 -2.95817 1.38062
# Velocity P-wave (km/s) = 5.06497 4.10325 4.60926
#
# Compressibility (1/GPa) = 0.04812274
#
# Stress axis : x y z
#
# Youngs Moduli (GPa) = 30.04812 152.18237 82.82800
#
# Poissons Ratio (x) = 0.03810 0.07977
# Poissons Ratio (y) = 0.00752 0.05692
# Poissons Ratio (z) = 0.02894 0.10459
#
# Static dielectric constant tensor:
#      x y z
#    x 4.285410 0.000000 -0.157680 
#    y 0.000000 4.167150 0.000000 
#    z -0.157680 0.000000 6.480230 
# 
# 
# High freq. dielectric constant tensor:
#      x y z
#    x 1.909860 0.000000 -0.011560 
#    y 0.000000 1.927730 0.000000 
#    z -0.011560 0.000000 1.941530 
# 
# From -- ./inp_files/1606.got.cif
#   From: 2010.03.12/outbox.cif.g09.slc.cpg/sg3_1_cif.got.tgz:1606.got - 2010.03.31 09:20:49.
