data_PCOD8045805
_publ_section_title
;
Structure prediction by ZEFSAII (Michael W. Deem and Ramdas Pophale) SiO2 
 PCOD8045805
Probable space group: P 21
;
_chemical_formula_sum "Si O2"
_cell_formula_units_Z 16
_cell_length_a 9.048360
_cell_length_b 12.355178
_cell_length_c 7.721847
_cell_angle_alpha 90.000000
_cell_angle_beta 63.817006
_cell_angle_gamma 90.000000
_cell_volume 774.677590
_symmetry_space_group_name_H-M "P 21"
_symmetry_group_IT_number 4
_symmetry_cell_setting 'monoclinic'
loop_
_space_group_symop_operation_xyz
x,y,z
-x,1/2+y,-z
loop_
_atom_site_type_symbol
_atom_site_label
_atom_site_fract_x
_atom_site_fract_y
_atom_site_fract_z
Si Si1 0.135322 0.658510 0.175938
Si Si2 0.217497 0.539568 0.468652
Si Si3 0.966249 0.827755 0.496039
Si Si4 0.297619 0.852915 0.938335
Si Si5 0.553186 0.476215 0.431753
Si Si6 0.705188 0.449210 0.699673
Si Si7 0.867412 0.546095 0.115501
Si Si8 0.109856 0.142180 0.241790
O O1 0.240557 0.598096 0.269987
O O2 0.251762 0.725916 0.982209
O O3 0.001804 0.741935 0.324345
O O4 0.037996 0.563546 0.127421
O O5 0.170779 0.413742 0.484808
O O6 0.389465 0.545050 0.481689
O O7 0.077943 0.600519 0.647910
O O8 0.137943 0.884534 0.458493
O O9 0.888038 0.766164 0.700345
O O10 0.365949 0.893654 0.089449
O O11 0.430603 0.875132 0.715326
O O12 0.134994 0.927365 0.978720
O O13 0.561452 0.441025 0.629098
O O14 0.711373 0.554948 0.324692
O O15 0.763492 0.571682 0.708239
O O16 0.841829 0.638612 0.984070
#
# Coordination Sequence:
#
# PCOD8045805 Si02
#       8
#     2   2   2   2   2   2   2   2
#     4  10  19  38  63  82 119 161 204 248 284 358
#     4  10  21  37  56  86 117 153 199 249 296 357
#     4   9  18  33  58  82 109 155 204 235 289 351
#     4   8  20  36  57  86 115 149 199 237 295 351
#     4  10  20  37  57  83 121 152 186 252 309 336
#     4   9  17  36  58  75 114 156 184 243 292 342
#     4   9  19  34  58  86 113 155 197 243 289 348
#     4   9  18  35  57  84 110 151 205 237 280 363
#
# _framework density 20.653753999999999
#
# number of rings (size 3 to 8) (size 9 to 14) (size 15 to 20)
#    0.750    2.000    0.000    3.000    1.750    0.000 
#    4.500    7.500    0.000    0.000    0.000    0.000 
#    0.000    0.000    0.000    0.000    0.000    0.000 
#
# Total GULP energy -198251.516709 kJ/mol
# GULP energy per Si atom -12390.719794 kJ/mol
# Density = 2.060674 g / cm^3
# Si number density = 20.653754 Si / 1000 Ang^3
#
#
#
# Elastic Constant Matrix: (Units=GPa)
#
#
# Indices 1 2 3 4 5 6 
#
# 1 97.8495 21.3921 34.6554 0.0000 28.0099 0.0000
# 2 21.3921 56.8917 7.1516 0.0000 12.1271 0.0000
# 3 34.6554 7.1516 61.4024 0.0000 25.0016 0.0000
# 4 0.0000 0.0000 0.0000 24.4955 0.0000 1.0009
# 5 28.0099 12.1271 25.0016 0.0000 30.0502 0.0000
# 6 0.0000 0.0000 0.0000 1.0009 0.0000 16.4492
#
#
#
# Elastic Compliance Matrix: (Units=1/GPa)
#
#
# Indices 1 2 3 4 5 6 
#
# 1 0.015090 -0.003179 -0.004449 0.000000 -0.009081 0.000000
# 2 -0.003179 0.019980 0.002335 0.000000 -0.007043 0.000000
# 3 -0.004449 0.002335 0.026043 0.000000 -0.018463 0.000000
# 4 0.000000 0.000000 0.000000 0.040926 0.000000 -0.002490
# 5 -0.009081 -0.007043 -0.018463 0.000000 0.059945 0.000000
# 6 0.000000 0.000000 0.000000 -0.002490 0.000000 0.060945
#
#
# Mechanical properties :
#
#
# Convention : Reuss Voigt Hill
#
# Bulk Modulus (GPa) = 19.79169 38.06019 28.92594
# Shear Modulus (GPa) = 19.97149 24.39527 22.18338
#
# Velocity S-wave (km/s) = 3.11298 3.44052 3.28084
# Velocity P-wave (km/s) = 4.74598 5.85241 5.32799
#
# Compressibility (1/GPa) = 0.05052625
#
# Stress axis : x y z
#
# Youngs Moduli (GPa) = 66.26934 50.04917 38.39859
#
# Poissons Ratio (x) = 0.15911 0.17083
# Poissons Ratio (y) = 0.21068 -0.08965
# Poissons Ratio (z) = 0.29483 -0.11685
#
# Static dielectric constant tensor:
#      x y z
#    x 3.279430 0.000000 0.127330 
#    y 0.000000 3.688310 0.000000 
#    z 0.127330 0.000000 3.699240 
# 
# 
# High freq. dielectric constant tensor:
#      x y z
#    x 1.771150 0.000000 0.018090 
#    y 0.000000 1.792130 0.000000 
#    z 0.018090 0.000000 1.804690 
# 
# From -- ./inp_files/5936.got.cif
#   From: 2010.03.12/outbox.cif.g09.slc.cpg/sg4_3_cif.got.tgz:5936.got - 2010.03.31 09:31:35.
