data_PCOD8045303
_publ_section_title
;
Structure prediction by ZEFSAII (Michael W. Deem and Ramdas Pophale) SiO2 
 PCOD8045303
Probable space group: P 2
;
_chemical_formula_sum "Si O2"
_cell_formula_units_Z 14
_cell_length_a 14.741988
_cell_length_b 5.062093
_cell_length_c 26.108742
_cell_angle_alpha 90.000000
_cell_angle_beta 160.362401
_cell_angle_gamma 90.000000
_cell_volume 654.789156
_symmetry_space_group_name_H-M "P 2"
_symmetry_group_IT_number 3
_symmetry_cell_setting 'monoclinic'
loop_
_space_group_symop_operation_xyz
x,y,z
-x,y,-z
loop_
_atom_site_type_symbol
_atom_site_label
_atom_site_fract_x
_atom_site_fract_y
_atom_site_fract_z
Si Si1 0.131164 0.287090 0.690715
Si Si2 0.628852 0.354597 0.885135
Si Si3 0.137555 0.282766 0.221029
Si Si4 0.997939 0.803669 0.320928
Si Si5 0.297399 0.849439 0.142226
Si Si6 0.211573 0.785400 0.326330
Si Si7 0.413630 0.051494 0.607662
O O1 0.349527 0.271197 0.762331
O O2 0.146181 0.562833 0.727660
O O3 0.836701 0.238225 0.507991
O O4 0.182598 0.060158 0.760972
O O5 0.578791 0.628452 0.829020
O O6 0.722648 0.130024 0.896063
O O7 0.857913 0.390849 0.049775
O O8 0.247667 0.503318 0.318309
O O9 0.350405 0.238012 0.288536
O O10 0.087693 0.005424 0.223034
O O11 0.006877 0.753136 0.265157
O O12 0.305386 0.850956 0.505758
O O13 0.485809 0.874488 0.291965
O O14 0.000000 0.755847 0.000000
O O15 0.500000 0.885035 0.500000
#
# Coordination Sequence:
#
# PCOD8045303 Si02
#       7
#     2   2   2   2   2   2   2
#     4  10  23  45  68  94 142 178 220 280 337 400
#     4  12  27  47  67 100 140 177 226 280 337 414
#     4  12  25  41  70 101 137 177 226 281 343 392
#     4  10  22  42  67  97 138 172 225 278 335 397
#     4  12  26  44  72  98 135 177 228 279 345 403
#     4  12  22  40  68 106 131 177 229 280 332 402
#     4  10  25  43  71  96 135 178 223 284 337 398
#
# _framework density 21.380928000000001
#
# number of rings (size 3 to 8) (size 9 to 14) (size 15 to 20)
#    0.857    0.000    2.857    4.286    2.000    0.571 
#    0.000    4.286    0.000    0.000    0.000    0.000 
#    0.000    0.000    0.000    0.000    0.000    0.000 
#
# Total GULP energy -173643.802783 kJ/mol
# GULP energy per Si atom -12403.128770 kJ/mol
# Density = 2.133226 g / cm^3
# Si number density = 21.380928 Si / 1000 Ang^3
#
#
#
# Elastic Constant Matrix: (Units=GPa)
#
#
# Indices 1 2 3 4 5 6 
#
# 1 114.9931 34.0319 52.6108 0.0000 4.3943 0.0000
# 2 34.0319 123.0037 19.2837 0.0000 -4.7881 0.0000
# 3 52.6108 19.2837 85.8474 0.0000 7.1175 -0.0001
# 4 0.0000 0.0000 0.0000 22.7341 0.0000 -5.1582
# 5 4.3943 -4.7881 7.1175 0.0000 33.5802 0.0000
# 6 0.0000 0.0000 -0.0001 -5.1582 0.0000 54.1537
#
#
#
# Elastic Compliance Matrix: (Units=1/GPa)
#
#
# Indices 1 2 3 4 5 6 
#
# 1 0.012731 -0.002409 -0.007221 0.000000 -0.000479 0.000000
# 2 -0.002409 0.008971 -0.000683 0.000000 0.001739 0.000000
# 3 -0.007221 -0.000683 0.016446 0.000000 -0.002638 0.000000
# 4 0.000000 0.000000 0.000000 0.044958 0.000000 0.004282
# 5 -0.000479 0.001739 -0.002638 0.000000 0.030649 0.000000
# 6 0.000000 0.000000 0.000000 0.004282 0.000000 0.018874
#
#
# Mechanical properties :
#
#
# Convention : Reuss Voigt Hill
#
# Bulk Modulus (GPa) = 57.07150 59.52190 58.29670
# Shear Modulus (GPa) = 31.42722 36.62147 34.02435
#
# Velocity S-wave (km/s) = 3.83805 4.14310 3.99349
# Velocity P-wave (km/s) = 6.81113 7.12645 6.97057
#
# Compressibility (1/GPa) = 0.01752188
#
# Stress axis : x y z
#
# Youngs Moduli (GPa) = 78.54660 111.46897 60.80377
#
# Poissons Ratio (x) = 0.26852 0.43909
# Poissons Ratio (y) = 0.18921 0.04153
# Poissons Ratio (z) = 0.56722 0.07614
#
# Static dielectric constant tensor:
#      x y z
#    x 3.855010 0.000000 -0.070300 
#    y 0.000000 3.771130 0.000000 
#    z -0.070300 0.000000 3.614350 
# 
# 
# High freq. dielectric constant tensor:
#      x y z
#    x 1.845420 0.000000 0.001120 
#    y 0.000000 1.849800 0.000000 
#    z 0.001120 0.000000 1.818290 
# 
# From -- ./inp_files/16551.got.cif
#   From: 2010.03.12/outbox.cif.g09.slc.cpg/sg3_9_cif.got.tgz:16551.got - 2010.03.31 09:20:49.
