data_PCOD8045222
_publ_section_title
;
Structure prediction by ZEFSAII (Michael W. Deem and Ramdas Pophale) SiO2 
 PCOD8045222
Probable space group: P 2
;
_chemical_formula_sum "Si O2"
_cell_formula_units_Z 13
_cell_length_a 8.110359
_cell_length_b 9.116299
_cell_length_c 8.352839
_cell_angle_alpha 90.000000
_cell_angle_beta 68.817934
_cell_angle_gamma 90.000000
_cell_volume 575.853782
_symmetry_space_group_name_H-M "P 2"
_symmetry_group_IT_number 3
_symmetry_cell_setting 'monoclinic'
loop_
_space_group_symop_operation_xyz
x,y,z
-x,y,-z
loop_
_atom_site_type_symbol
_atom_site_label
_atom_site_fract_x
_atom_site_fract_y
_atom_site_fract_z
Si Si1 0.500000 0.059070 0.000000
Si Si2 0.006099 0.212866 0.243390
Si Si3 0.282827 0.263563 0.886578
Si Si4 0.283913 0.664066 0.403833
Si Si5 0.672830 0.589608 0.241221
Si Si6 0.154657 0.916210 0.239326
Si Si7 0.000000 0.751506 0.000000
Si Si8 0.000000 0.440636 0.500000
O O1 0.544697 0.164824 0.136442
O O2 0.339785 0.951144 0.091157
O O3 0.844001 0.170042 0.185240
O O4 0.929062 0.338906 0.383367
O O5 0.064130 0.069201 0.323056
O O6 0.173428 0.282693 0.090147
O O7 0.338293 0.415431 0.783653
O O8 0.480960 0.655219 0.262003
O O9 0.282964 0.639334 0.594198
O O10 0.190977 0.817234 0.384105
O O11 0.160811 0.537118 0.373765
O O12 0.824976 0.651817 0.074120
O O13 0.025561 0.844574 0.152402
#
# Coordination Sequence:
#
# PCOD8045222 Si02
#       8
#     1   2   2   2   2   2   1   1
#     4  10  22  40  70 104 142 178 234 288 352 410
#     4  10  23  42  68  98 136 183 232 282 352 409
#     4  10  21  42  70 102 135 177 239 290 342 407
#     4  11  26  44  68 101 146 179 236 281 357 413
#     4  11  25  43  71 103 138 188 229 297 340 416
#     4  11  24  43  67 105 138 187 228 290 349 422
#     4  12  24  42  74 102 142 186 236 284 356 410
#     4  12  24  44  68 100 138 190 230 288 346 420
#
# _framework density 22.575175999999999
#
# number of rings (size 3 to 8) (size 9 to 14) (size 15 to 20)
#    0.000    1.231    1.538    4.615    6.462    1.846 
#    0.000    1.538    0.000    0.000    0.000    0.000 
#    0.000    0.000    0.000    0.000    0.000    0.000 
#
# Total GULP energy -161161.175940 kJ/mol
# GULP energy per Si atom -12397.013534 kJ/mol
# Density = 2.252379 g / cm^3
# Si number density = 22.575176 Si / 1000 Ang^3
#
#
#
# Elastic Constant Matrix: (Units=GPa)
#
#
# Indices 1 2 3 4 5 6 
#
# 1 123.4343 53.4404 22.6311 0.0000 -2.5998 0.0000
# 2 53.4404 140.6956 40.0586 0.0000 6.4614 0.0000
# 3 22.6311 40.0586 60.5689 0.0000 3.0792 0.0000
# 4 0.0000 0.0000 0.0000 40.8413 0.0000 8.8393
# 5 -2.5998 6.4614 3.0792 0.0000 37.4377 0.0000
# 6 0.0000 0.0000 0.0000 8.8393 0.0000 29.8272
#
#
#
# Elastic Compliance Matrix: (Units=1/GPa)
#
#
# Indices 1 2 3 4 5 6 
#
# 1 0.009874 -0.003380 -0.001525 0.000000 0.001394 0.000000
# 2 -0.003380 0.009954 -0.005243 0.000000 -0.001521 0.000000
# 3 -0.001525 -0.005243 0.020593 0.000000 -0.000895 0.000000
# 4 0.000000 0.000000 0.000000 0.026163 0.000000 -0.007753
# 5 0.001394 -0.001521 -0.000895 0.000000 0.027144 0.000000
# 6 0.000000 0.000000 0.000000 -0.007753 0.000000 0.035824
#
#
# Mechanical properties :
#
#
# Convention : Reuss Voigt Hill
#
# Bulk Modulus (GPa) = 49.68926 61.88432 55.78679
# Shear Modulus (GPa) = 31.93738 35.52582 33.73160
#
# Velocity S-wave (km/s) = 3.76535 3.97125 3.86967
# Velocity P-wave (km/s) = 6.40017 6.96418 6.68812
#
# Compressibility (1/GPa) = 0.02012508
#
# Stress axis : x y z
#
# Youngs Moduli (GPa) = 101.27726 100.46050 48.56066
#
# Poissons Ratio (x) = 0.33959 0.07403
# Poissons Ratio (y) = 0.34236 0.25460
# Poissons Ratio (z) = 0.15440 0.52671
#
# Static dielectric constant tensor:
#      x y z
#    x 4.338380 0.000000 -0.017900 
#    y 0.000000 4.097360 0.000000 
#    z -0.017900 0.000000 3.858400 
# 
# 
# High freq. dielectric constant tensor:
#      x y z
#    x 1.907940 0.000000 0.001200 
#    y 0.000000 1.893380 0.000000 
#    z 0.001200 0.000000 1.868040 
# 
# From -- ./inp_files/5439.got.cif
#   From: 2010.03.12/outbox.cif.g09.slc.cpg/sg3_3_cif.got.tgz:5439.got - 2010.03.31 09:20:49.
