data_PCOD8045884
_publ_section_title
;
Structure prediction by ZEFSAII (Michael W. Deem and Ramdas Pophale) SiO2 
 PCOD8045884
Probable space group: P 21
;
_chemical_formula_sum "Si O2"
_cell_formula_units_Z 16
_cell_length_a 8.014492
_cell_length_b 7.502992
_cell_length_c 20.449939
_cell_angle_alpha 90.000000
_cell_angle_beta 143.830658
_cell_angle_gamma 90.000000
_cell_volume 725.742272
_symmetry_space_group_name_H-M "P 21"
_symmetry_group_IT_number 4
_symmetry_cell_setting 'monoclinic'
loop_
_space_group_symop_operation_xyz
x,y,z
-x,1/2+y,-z
loop_
_atom_site_type_symbol
_atom_site_label
_atom_site_fract_x
_atom_site_fract_y
_atom_site_fract_z
Si Si1 0.709667 0.551920 0.097923
Si Si2 0.777643 0.126030 0.283595
Si Si3 0.243125 0.711438 0.131551
Si Si4 0.851786 0.930580 0.095981
Si Si5 0.908467 0.742077 0.738927
Si Si6 0.775677 0.800583 0.364182
Si Si7 0.710686 0.489382 0.952217
Si Si8 0.312018 0.652682 0.602138
O O1 0.788640 0.759316 0.123161
O O2 0.974309 0.438848 0.207522
O O3 0.409893 0.492434 0.035102
O O4 0.606285 0.490726 0.992760
O O5 0.480466 0.126697 0.150144
O O6 0.729424 0.233329 0.336991
O O7 0.026018 0.208237 0.317221
O O8 0.867078 0.922570 0.330648
O O9 0.528554 0.664239 0.262247
O O10 0.097702 0.877648 0.123653
O O11 0.317154 0.789153 0.083598
O O12 0.041413 0.543721 0.060101
O O13 0.945353 0.093715 0.170577
O O14 0.573991 0.741734 0.647128
O O15 0.034167 0.686358 0.471565
O O16 0.655737 0.937201 0.382074
#
# Coordination Sequence:
#
# PCOD8045884 Si02
#       8
#     2   2   2   2   2   2   2   2
#     4  11  23  34  63  96 134 174 214 259 330 405
#     4   9  21  43  63  93 131 161 220 272 315 410
#     4  10  21  36  59  90 126 170 208 271 331 390
#     4  11  20  38  56  92 132 171 215 260 322 396
#     4  12  21  43  69  91 136 175 212 277 335 379
#     4   9  21  43  63  89 128 169 218 281 320 386
#     4  10  20  35  58  94 128 163 213 259 326 410
#     4  10  23  44  67  89 129 175 216 279 335 364
#
# _framework density 22.046393999999999
#
# number of rings (size 3 to 8) (size 9 to 14) (size 15 to 20)
#    0.750    1.000    3.750    0.750    3.500    2.000 
#    2.250    1.250    0.000    0.000    0.000    0.000 
#    0.000    0.000    0.000    0.000    0.000    0.000 
#
# Total GULP energy -198224.260044 kJ/mol
# GULP energy per Si atom -12389.016253 kJ/mol
# Density = 2.199622 g / cm^3
# Si number density = 22.046394 Si / 1000 Ang^3
#
#
#
# Elastic Constant Matrix: (Units=GPa)
#
#
# Indices 1 2 3 4 5 6 
#
# 1 73.1158 -15.9722 29.2473 0.0000 2.6321 0.0000
# 2 -15.9722 47.4737 9.5010 0.0000 -3.1854 0.0000
# 3 29.2473 9.5010 150.5287 0.0000 6.1968 0.0000
# 4 0.0000 0.0000 0.0000 31.5780 0.0000 5.6611
# 5 2.6321 -3.1854 6.1968 0.0000 26.6528 0.0000
# 6 0.0000 0.0000 0.0000 5.6611 0.0000 20.0348
#
#
#
# Elastic Compliance Matrix: (Units=1/GPa)
#
#
# Indices 1 2 3 4 5 6 
#
# 1 0.016485 0.006263 -0.003597 0.000000 -0.000043 0.000000
# 2 0.006263 0.023936 -0.002847 0.000000 0.002904 0.000000
# 3 -0.003597 -0.002847 0.007594 0.000000 -0.001751 0.000000
# 4 0.000000 0.000000 0.000000 0.033357 0.000000 -0.009426
# 5 -0.000043 0.002904 -0.001751 0.000000 0.038278 0.000000
# 6 0.000000 0.000000 0.000000 -0.009426 0.000000 0.052577
#
#
# Mechanical properties :
#
#
# Convention : Reuss Voigt Hill
#
# Bulk Modulus (GPa) = 20.98444 35.18558 28.08501
# Shear Modulus (GPa) = 26.52895 32.20925 29.36910
#
# Velocity S-wave (km/s) = 3.47266 3.82642 3.65382
# Velocity P-wave (km/s) = 5.06143 5.95956 5.52877
#
# Compressibility (1/GPa) = 0.04765435
#
# Stress axis : x y z
#
# Youngs Moduli (GPa) = 60.65965 41.77762 131.68556
#
# Poissons Ratio (x) = -0.26167 0.47362
# Poissons Ratio (y) = -0.37993 0.37495
# Poissons Ratio (z) = 0.21817 0.11895
#
# Static dielectric constant tensor:
#      x y z
#    x 4.223960 0.000000 0.056930 
#    y 0.000000 3.600850 0.000000 
#    z 0.056930 0.000000 3.796700 
# 
# 
# High freq. dielectric constant tensor:
#      x y z
#    x 1.864140 0.000000 0.007830 
#    y 0.000000 1.846050 0.000000 
#    z 0.007830 0.000000 1.856620 
# 
# From -- ./inp_files/16087.got.cif
#   From: 2010.03.12/outbox.cif.g09.slc.cpg/sg4_9_cif.got.tgz:16087.got - 2010.03.31 09:31:35.
