data_PCOD8045018
_publ_section_title
;
Structure prediction by ZEFSAII (Michael W. Deem and Ramdas Pophale) SiO2 
 PCOD8045018
Probable space group: P 2
;
_chemical_formula_sum "Si O2"
_cell_formula_units_Z 15
_cell_length_a 9.097624
_cell_length_b 11.442496
_cell_length_c 7.394354
_cell_angle_alpha 90.000000
_cell_angle_beta 98.531298
_cell_angle_gamma 90.000000
_cell_volume 761.231459
_symmetry_space_group_name_H-M "P 2"
_symmetry_group_IT_number 3
_symmetry_cell_setting 'monoclinic'
loop_
_space_group_symop_operation_xyz
x,y,z
-x,y,-z
loop_
_atom_site_type_symbol
_atom_site_label
_atom_site_fract_x
_atom_site_fract_y
_atom_site_fract_z
Si Si1 0.857401 0.341630 0.401855
Si Si2 0.373090 0.431765 0.363766
Si Si3 0.562768 0.252249 0.195112
Si Si4 0.943018 0.552927 0.188623
Si Si5 0.004572 0.807126 0.288903
Si Si6 0.242196 0.852157 0.046008
Si Si7 0.500000 0.028356 0.000000
Si Si8 0.657348 0.601810 0.956288
O O1 0.769982 0.397532 0.550946
O O2 0.740355 0.274221 0.252774
O O3 0.952235 0.441248 0.316432
O O4 0.000000 0.263393 0.500000
O O5 0.500000 0.502991 0.500000
O O6 0.459656 0.311749 0.326034
O O7 0.303902 0.514500 0.199615
O O8 0.543188 0.111527 0.179067
O O9 0.500000 0.311438 0.000000
O O10 0.030113 0.666610 0.281657
O O11 0.768736 0.583632 0.142738
O O12 0.000000 0.523041 0.000000
O O13 0.000000 0.845843 0.500000
O O14 0.138272 0.871891 0.204436
O O15 0.853250 0.840980 0.156154
O O16 0.358505 0.955894 0.040654
O O17 0.337468 0.736096 0.104783
O O18 0.500000 0.563756 0.000000
#
# Coordination Sequence:
#
# PCOD8045018 Si02
#       8
#     2   2   2   2   2   2   1   2
#     4  11  22  34  58  96 132 157 207 261 315 389
#     4  10  20  36  55  90 130 165 200 258 329 380
#     4   9  21  42  64  81 116 175 212 256 317 374
#     4  11  20  34  56  88 131 171 196 240 321 400
#     4  10  21  40  61  91 131 168 202 256 326 386
#     4  10  21  41  63  94 123 168 215 263 316 387
#     4  10  22  46  70  84 114 172 226 268 316 362
#     4  11  19  32  56  87 125 157 205 252 306 396
#
# _framework density 19.704910999999999
#
# number of rings (size 3 to 8) (size 9 to 14) (size 15 to 20)
#    0.400    1.333    3.333    4.000    1.867    0.000 
#    0.000    8.000    0.000    0.000    0.000    0.000 
#    0.000    0.000    0.000    0.000    0.000    0.000 
#
# Total GULP energy -185827.219044 kJ/mol
# GULP energy per Si atom -12388.481270 kJ/mol
# Density = 1.966006 g / cm^3
# Si number density = 19.704911 Si / 1000 Ang^3
#
#
#
# Elastic Constant Matrix: (Units=GPa)
#
#
# Indices 1 2 3 4 5 6 
#
# 1 122.7706 38.3260 51.2289 0.0000 6.0702 0.0000
# 2 38.3260 97.6875 31.5355 0.0000 2.2659 0.0000
# 3 51.2289 31.5355 114.9489 0.0000 -4.1798 0.0000
# 4 0.0000 0.0000 0.0000 9.9328 0.0000 3.2777
# 5 6.0702 2.2659 -4.1798 0.0000 37.8638 0.0000
# 6 0.0000 0.0000 0.0000 3.2777 0.0000 21.7019
#
#
#
# Elastic Compliance Matrix: (Units=1/GPa)
#
#
# Indices 1 2 3 4 5 6 
#
# 1 0.010867 -0.002885 -0.004125 0.000000 -0.002025 0.000000
# 2 -0.002885 0.012036 -0.002034 0.000000 -0.000482 0.000000
# 3 -0.004125 -0.002034 0.011169 0.000000 0.002016 0.000000
# 4 0.000000 0.000000 0.000000 0.105958 0.000000 -0.016003
# 5 -0.002025 -0.000482 0.002016 0.000000 0.026987 0.000000
# 6 0.000000 0.000000 0.000000 -0.016003 0.000000 0.048496
#
#
# Mechanical properties :
#
#
# Convention : Reuss Voigt Hill
#
# Bulk Modulus (GPa) = 62.56004 64.17641 63.36823
# Shear Modulus (GPa) = 20.92661 28.18747 24.55704
#
# Velocity S-wave (km/s) = 3.26237 3.78627 3.53404
# Velocity P-wave (km/s) = 6.78293 7.19402 6.99150
#
# Compressibility (1/GPa) = 0.01598464
#
# Stress axis : x y z
#
# Youngs Moduli (GPa) = 92.01820 83.08164 89.53050
#
# Poissons Ratio (x) = 0.23968 0.36935
# Poissons Ratio (y) = 0.26546 0.18210
# Poissons Ratio (z) = 0.37961 0.16898
#
# Static dielectric constant tensor:
#      x y z
#    x 3.733340 0.000000 0.167570 
#    y 0.000000 3.276420 0.000000 
#    z 0.167570 0.000000 3.805550 
# 
# 
# High freq. dielectric constant tensor:
#      x y z
#    x 1.787960 0.000000 0.006350 
#    y 0.000000 1.729980 0.000000 
#    z 0.006350 0.000000 1.767800 
# 
# From -- ./inp_files/5770.got.cif
#   From: 2010.03.12/outbox.cif.g09.slc.cpg/sg3_3_cif.got.tgz:5770.got - 2010.03.31 09:20:49.
