data_PCOD8045110
_publ_section_title
;
Structure prediction by ZEFSAII (Michael W. Deem and Ramdas Pophale) SiO2 
 PCOD8045110
Probable space group: P 2
;
_chemical_formula_sum "Si O2"
_cell_formula_units_Z 14
_cell_length_a 14.846562
_cell_length_b 8.762864
_cell_length_c 14.846081
_cell_angle_alpha 90.000000
_cell_angle_beta 160.619201
_cell_angle_gamma 90.000000
_cell_volume 640.942541
_symmetry_space_group_name_H-M "P 2"
_symmetry_group_IT_number 3
_symmetry_cell_setting 'monoclinic'
loop_
_space_group_symop_operation_xyz
x,y,z
-x,y,-z
loop_
_atom_site_type_symbol
_atom_site_label
_atom_site_fract_x
_atom_site_fract_y
_atom_site_fract_z
Si Si1 0.012724 0.537870 0.770076
Si Si2 0.500000 0.365871 0.500000
Si Si3 0.301474 0.123358 0.430721
Si Si4 0.445259 0.969557 0.050570
Si Si5 0.568666 0.608394 0.697999
Si Si6 0.500000 0.865873 0.500000
Si Si7 0.949616 0.762143 0.554925
Si Si8 0.230414 0.193856 0.987806
O O1 0.128737 0.365840 0.871568
O O2 0.744621 0.565041 0.576712
O O3 0.944416 0.605975 0.607207
O O4 0.257202 0.629823 0.047588
O O5 0.269005 0.263081 0.330307
O O6 0.669316 0.468672 0.730739
O O7 0.046972 0.101875 0.256434
O O8 0.298934 0.971153 0.368194
O O9 0.576018 0.166773 0.743938
O O10 0.683787 0.865853 0.316423
O O11 0.500000 0.020487 0.000000
O O12 0.185285 0.865847 0.814913
O O13 0.392988 0.125706 0.055797
O O14 0.631423 0.760606 0.700792
O O15 0.000000 0.711223 0.500000
#
# Coordination Sequence:
#
# PCOD8045110 Si02
#       8
#     2   1   2   2   2   1   2   2
#     4  12  24  43  68 101 130 175 219 276 333 399
#     4  10  20  44  60  92 132 180 212 272 332 400
#     4  11  25  41  67  92 134 174 222 273 330 391
#     4  10  23  44  70  99 133 174 216 272 336 402
#     4  11  25  41  67  92 134 174 222 273 330 391
#     4  10  28  44  60 100 128 180 228 276 328 384
#     4  10  23  44  70  99 133 174 216 272 336 402
#     4  12  24  43  68 101 130 175 219 276 333 399
#
# _framework density 21.842832000000001
#
# number of rings (size 3 to 8) (size 9 to 14) (size 15 to 20)
#    0.000    1.143    2.857    1.714    6.000    6.857 
#    0.000    7.143    0.000    0.000    0.000    0.000 
#    0.000    0.000    0.000    0.000    0.000    0.000 
#
# Total GULP energy -173485.097696 kJ/mol
# GULP energy per Si atom -12391.792693 kJ/mol
# Density = 2.179312 g / cm^3
# Si number density = 21.842832 Si / 1000 Ang^3
#
#
#
# Elastic Constant Matrix: (Units=GPa)
#
#
# Indices 1 2 3 4 5 6 
#
# 1 127.9716 86.0147 49.6650 0.0000 -4.3270 0.0000
# 2 86.0147 159.1240 54.4310 0.0000 -5.6749 0.0000
# 3 49.6650 54.4310 137.1311 0.0000 6.1032 0.0000
# 4 0.0000 0.0000 0.0000 -13.6326 0.0000 -7.0302
# 5 -4.3270 -5.6749 6.1032 0.0000 28.9380 0.0000
# 6 0.0000 0.0000 0.0000 -7.0302 0.0000 24.8336
#
#
#
# Elastic Compliance Matrix: (Units=1/GPa)
#
#
# Indices 1 2 3 4 5 6 
#
# 1 0.012858 -0.006128 -0.002278 0.000000 0.001201 0.000000
# 2 -0.006128 0.010316 -0.001943 0.000000 0.001516 0.000000
# 3 -0.002278 -0.001943 0.009005 0.000000 -0.002621 0.000000
# 4 0.000000 0.000000 0.000000 -0.064009 0.000000 -0.018120
# 5 0.001201 0.001516 -0.002621 0.000000 0.035586 0.000000
# 6 0.000000 0.000000 0.000000 -0.018120 0.000000 0.035138
#
#
# Mechanical properties :
#
#
# Convention : Reuss Voigt Hill
#
# Bulk Modulus (GPa) = 87.09866 89.38312 88.24089
# Shear Modulus (GPa) = 78.84130 23.63553 51.23841
#
# Velocity S-wave (km/s) = 6.01441 3.29306 4.84858
# Velocity P-wave (km/s) = 9.39109 7.44774 8.47530
#
# Compressibility (1/GPa) = 0.01148123
#
# Stress axis : x y z
#
# Youngs Moduli (GPa) = 77.77279 96.93976 111.05083
#
# Poissons Ratio (x) = 0.59409 0.25294
# Poissons Ratio (y) = 0.47663 0.21572
# Poissons Ratio (z) = 0.17714 0.18831
#
# Static dielectric constant tensor:
#      x y z
#    x 4.994670 0.000000 -0.199060 
#    y 0.000000 4.061640 0.000000 
#    z -0.199060 0.000000 3.911600 
# 
# 
# High freq. dielectric constant tensor:
#      x y z
#    x 1.866880 0.000000 -0.001930 
#    y 0.000000 1.862460 0.000000 
#    z -0.001930 0.000000 1.856140 
# 
# From -- ./inp_files/13990.got.cif
#   From: 2010.03.12/outbox.cif.g09.slc.cpg/sg3_7_cif.got.tgz:13990.got - 2010.03.31 09:20:49.
