data_PCOD8045790
_publ_section_title
;
Structure prediction by ZEFSAII (Michael W. Deem and Ramdas Pophale) SiO2 
 PCOD8045790
Probable space group: P 21
;
_chemical_formula_sum "Si O2"
_cell_formula_units_Z 16
_cell_length_a 10.268429
_cell_length_b 5.029000
_cell_length_c 19.635594
_cell_angle_alpha 90.000000
_cell_angle_beta 50.369626
_cell_angle_gamma 90.000000
_cell_volume 780.942799
_symmetry_space_group_name_H-M "P 21"
_symmetry_group_IT_number 4
_symmetry_cell_setting 'monoclinic'
loop_
_space_group_symop_operation_xyz
x,y,z
-x,1/2+y,-z
loop_
_atom_site_type_symbol
_atom_site_label
_atom_site_fract_x
_atom_site_fract_y
_atom_site_fract_z
Si Si1 0.552453 0.958400 0.895935
Si Si2 0.726749 0.480527 0.437624
Si Si3 0.640191 0.980433 0.383077
Si Si4 0.343321 0.457288 0.996189
Si Si5 0.020792 0.451704 0.448849
Si Si6 0.388650 0.464406 0.275453
Si Si7 0.602332 0.973960 0.240560
Si Si8 0.895879 0.033444 0.034559
O O1 0.398786 0.755871 0.958639
O O2 0.639816 0.905838 0.794896
O O3 0.486427 0.258812 0.921050
O O4 0.686920 0.918802 0.912782
O O5 0.717081 0.257011 0.382866
O O6 0.562230 0.462367 0.540498
O O7 0.892711 0.448536 0.428228
O O8 0.735217 0.758579 0.395606
O O9 0.678986 0.942779 0.290505
O O10 0.171309 0.404911 0.013506
O O11 0.206945 0.543329 0.364705
O O12 0.962486 0.657601 0.525888
O O13 0.520817 0.699634 0.243461
O O14 0.460777 0.203097 0.288150
O O15 0.753367 0.052792 0.139792
O O16 0.043591 0.829545 0.004839
#
# Coordination Sequence:
#
# PCOD8045790 Si02
#       8
#     2   2   2   2   2   2   2   2
#     4  10  19  37  63  88 114 160 201 256 297 367
#     4  10  21  40  62  90 127 158 205 243 305 366
#     4  10  21  39  64  87 121 171 198 247 295 364
#     4  10  20  38  62  86 120 153 206 248 311 368
#     4  12  25  41  64  97 131 162 202 258 316 356
#     4  12  22  40  66  91 124 162 208 263 301 364
#     4  12  24  42  65  93 120 161 222 246 304 377
#     4  12  24  41  62  90 127 161 202 261 311 366
#
# _framework density 20.488054999999999
#
# number of rings (size 3 to 8) (size 9 to 14) (size 15 to 20)
#    0.000    1.000    2.500    5.250    0.000    2.000 
#    4.500    0.000    0.000    0.000    0.000    0.000 
#    0.000    0.000    0.000    0.000    0.000    0.000 
#
# Total GULP energy -198446.296253 kJ/mol
# GULP energy per Si atom -12402.893516 kJ/mol
# Density = 2.044142 g / cm^3
# Si number density = 20.488055 Si / 1000 Ang^3
#
#
#
# Elastic Constant Matrix: (Units=GPa)
#
#
# Indices 1 2 3 4 5 6 
#
# 1 98.0316 8.0991 37.2394 0.0000 11.9105 0.0000
# 2 8.0991 85.2260 11.0881 0.0000 0.9515 0.0000
# 3 37.2394 11.0881 72.8871 0.0000 6.4806 0.0000
# 4 0.0000 0.0000 0.0000 24.7840 0.0000 2.4412
# 5 11.9105 0.9515 6.4806 0.0000 32.8268 0.0000
# 6 0.0000 0.0000 0.0000 2.4412 0.0000 29.0153
#
#
#
# Elastic Compliance Matrix: (Units=1/GPa)
#
#
# Indices 1 2 3 4 5 6 
#
# 1 0.013048 -0.000382 -0.006299 0.000000 -0.003480 0.000000
# 2 -0.000382 0.011982 -0.001638 0.000000 0.000115 0.000000
# 3 -0.006299 -0.001638 0.017283 0.000000 -0.001079 0.000000
# 4 0.000000 0.000000 0.000000 0.040686 0.000000 -0.003423
# 5 -0.003480 0.000115 -0.001079 0.000000 0.031935 0.000000
# 6 0.000000 0.000000 0.000000 -0.003423 0.000000 0.034753
#
#
# Mechanical properties :
#
#
# Convention : Reuss Voigt Hill
#
# Bulk Modulus (GPa) = 38.94734 40.99974 39.97354
# Shear Modulus (GPa) = 28.59074 30.63976 29.61525
#
# Velocity S-wave (km/s) = 3.73967 3.87136 3.80608
# Velocity P-wave (km/s) = 6.13986 6.32757 6.23442
#
# Compressibility (1/GPa) = 0.02567569
#
# Stress axis : x y z
#
# Youngs Moduli (GPa) = 76.64093 83.46132 57.85956
#
# Poissons Ratio (x) = 0.03185 0.36446
# Poissons Ratio (y) = 0.02925 0.09477
# Poissons Ratio (z) = 0.48276 0.13670
#
# Static dielectric constant tensor:
#      x y z
#    x 3.828020 0.000000 0.249280 
#    y 0.000000 3.819890 0.000000 
#    z 0.249280 0.000000 3.502310 
# 
# 
# High freq. dielectric constant tensor:
#      x y z
#    x 1.808670 0.000000 0.021580 
#    y 0.000000 1.820590 0.000000 
#    z 0.021580 0.000000 1.781540 
# 
# From -- ./inp_files/13448.got.cif
#   From: 2010.03.12/outbox.cif.g09.slc.cpg/sg4_7_cif.got.tgz:13448.got - 2010.03.31 09:31:35.
