data_PCOD8045051
_publ_section_title
;
Structure prediction by ZEFSAII (Michael W. Deem and Ramdas Pophale) SiO2 
 PCOD8045051
Probable space group: P 2
;
_chemical_formula_sum "Si O2"
_cell_formula_units_Z 14
_cell_length_a 13.751862
_cell_length_b 8.538689
_cell_length_c 10.568573
_cell_angle_alpha 90.000000
_cell_angle_beta 32.414307
_cell_angle_gamma 90.000000
_cell_volume 665.218495
_symmetry_space_group_name_H-M "P 2"
_symmetry_group_IT_number 3
_symmetry_cell_setting 'monoclinic'
loop_
_space_group_symop_operation_xyz
x,y,z
-x,y,-z
loop_
_atom_site_type_symbol
_atom_site_label
_atom_site_fract_x
_atom_site_fract_y
_atom_site_fract_z
Si Si1 0.303956 0.205720 0.695195
Si Si2 0.716814 0.132524 0.632594
Si Si3 0.944794 0.989859 0.876899
Si Si4 0.994147 0.631185 0.150097
Si Si5 0.718480 0.420768 0.049316
Si Si6 0.322772 0.428063 0.439197
Si Si7 0.298396 0.106587 0.065969
O O1 0.500000 0.120799 0.500000
O O2 0.302087 0.353500 0.788841
O O3 0.281388 0.284811 0.583388
O O4 0.143338 0.083647 0.906885
O O5 0.720680 0.324420 0.638416
O O6 0.756743 0.069066 0.729407
O O7 0.862908 0.062630 0.374819
O O8 0.514067 0.085654 0.808532
O O9 0.805275 0.986817 0.912207
O O10 0.980567 0.815101 0.882168
O O11 0.797886 0.582059 0.418141
O O12 0.134248 0.557056 0.097213
O O13 0.000000 0.565165 0.000000
O O14 0.526514 0.494334 0.218095
O O15 0.772709 0.281134 0.893792
#
# Coordination Sequence:
#
# PCOD8045051 Si02
#       7
#     2   2   2   2   2   2   2
#     4   9  18  37  60  83 112 153 197 246 290 333
#     4  10  21  38  70  89 111 152 204 253 284 347
#     4  11  24  37  57  89 124 159 191 241 295 353
#     4  12  25  37  53  88 127 160 190 229 296 365
#     4   9  19  39  62  83 115 153 192 248 293 337
#     4  10  20  37  62  87 114 151 201 243 289 343
#     4   9  20  43  64  91 112 148 205 252 297 330
#
# _framework density 21.045715999999999
#
# number of rings (size 3 to 8) (size 9 to 14) (size 15 to 20)
#    0.000    2.000    1.429    3.000    2.000    1.143 
#    2.571    2.857    0.000    3.429    0.000    0.000 
#    0.000    0.000    0.000    0.000    0.000    0.000 
#
# Total GULP energy -173479.857176 kJ/mol
# GULP energy per Si atom -12391.418370 kJ/mol
# Density = 2.099781 g / cm^3
# Si number density = 21.045716 Si / 1000 Ang^3
#
#
#
# Elastic Constant Matrix: (Units=GPa)
#
#
# Indices 1 2 3 4 5 6 
#
# 1 70.4905 18.7672 13.2761 0.0000 -14.3509 0.0000
# 2 18.7672 61.4904 26.8514 0.0000 -18.9183 0.0000
# 3 13.2761 26.8514 93.5813 0.0000 -19.0337 0.0000
# 4 0.0000 0.0000 0.0000 15.0896 0.0000 -2.9320
# 5 -14.3509 -18.9183 -19.0337 0.0000 31.9935 0.0000
# 6 0.0000 0.0000 0.0000 -2.9320 0.0000 23.8906
#
#
#
# Elastic Compliance Matrix: (Units=1/GPa)
#
#
# Indices 1 2 3 4 5 6 
#
# 1 0.016150 -0.003200 -0.000323 0.000000 0.005159 0.000000
# 2 -0.003200 0.021755 -0.003941 0.000000 0.009084 0.000000
# 3 -0.000323 -0.003941 0.012923 0.000000 0.005213 0.000000
# 4 0.000000 0.000000 0.000000 0.067890 0.000000 0.008332
# 5 0.005159 0.009084 0.005213 0.000000 0.042043 0.000000
# 6 0.000000 0.000000 0.000000 0.008332 0.000000 0.042880
#
#
# Mechanical properties :
#
#
# Convention : Reuss Voigt Hill
#
# Bulk Modulus (GPa) = 27.85627 38.15016 33.00322
# Shear Modulus (GPa) = 21.68864 25.30592 23.49728
#
# Velocity S-wave (km/s) = 3.21370 3.47136 3.34501
# Velocity P-wave (km/s) = 5.19955 5.85097 5.53485
#
# Compressibility (1/GPa) = 0.03589856
#
# Stress axis : x y z
#
# Youngs Moduli (GPa) = 61.92094 45.96617 77.38333
#
# Poissons Ratio (x) = 0.14711 0.02503
# Poissons Ratio (y) = 0.19817 0.30493
# Poissons Ratio (z) = 0.02003 0.18113
#
# Static dielectric constant tensor:
#      x y z
#    x 4.076670 0.000000 -0.185950 
#    y 0.000000 3.303320 0.000000 
#    z -0.185950 0.000000 3.959260 
# 
# 
# High freq. dielectric constant tensor:
#      x y z
#    x 1.839410 0.000000 -0.014030 
#    y 0.000000 1.778390 0.000000 
#    z -0.014030 0.000000 1.829020 
# 
# From -- ./inp_files/12181.got.cif
#   From: 2010.03.12/outbox.cif.g09.slc.cpg/sg3_7_cif.got.tgz:12181.got - 2010.03.31 09:20:49.
