data_PCOD8045519
_publ_section_title
;
Structure prediction by ZEFSAII (Michael W. Deem and Ramdas Pophale) SiO2 
 PCOD8045519
Probable space group: P 2
;
_chemical_formula_sum "Si O2"
_cell_formula_units_Z 12
_cell_length_a 8.636699
_cell_length_b 7.470639
_cell_length_c 9.054286
_cell_angle_alpha 90.000000
_cell_angle_beta 71.340860
_cell_angle_gamma 90.000000
_cell_volume 553.491371
_symmetry_space_group_name_H-M "P 2"
_symmetry_group_IT_number 3
_symmetry_cell_setting 'monoclinic'
loop_
_space_group_symop_operation_xyz
x,y,z
-x,y,-z
loop_
_atom_site_type_symbol
_atom_site_label
_atom_site_fract_x
_atom_site_fract_y
_atom_site_fract_z
Si Si1 0.678424 0.395440 0.876690
Si Si2 0.667955 0.142224 0.366930
Si Si3 0.898579 0.829258 0.398038
Si Si4 0.187859 0.446764 0.481332
Si Si5 0.131592 0.723588 0.073490
Si Si6 0.334892 0.065201 0.966240
O O1 0.693833 0.411914 0.695310
O O2 0.739290 0.569018 0.940964
O O3 0.500000 0.360111 0.000000
O O4 0.766069 0.210877 0.903376
O O5 0.500000 0.105510 0.500000
O O6 0.752621 0.323765 0.400820
O O7 0.630089 0.154274 0.204445
O O8 0.782594 0.972465 0.359687
O O9 0.794168 0.654446 0.478312
O O10 0.000000 0.919489 0.500000
O O11 0.044411 0.764091 0.251478
O O12 0.000000 0.401002 0.500000
O O13 0.000000 0.648765 0.000000
O O14 0.220722 0.894541 0.977521
O O15 0.500000 0.001916 0.000000
#
# Coordination Sequence:
#
# PCOD8045519 Si02
#       6
#     2   2   2   2   2   2
#     4  11  25  45  71  99 138 185 223 281 344 404
#     4  12  27  44  70 103 137 180 229 283 340 410
#     4  11  25  46  70 102 136 180 228 281 342 405
#     4  11  25  47  72 103 136 182 227 279 345 404
#     4  12  25  44  69 103 137 178 232 280 341 404
#     4  11  27  45  68  99 137 182 225 281 344 400
#
# _framework density 21.680551999999999
#
# number of rings (size 3 to 8) (size 9 to 14) (size 15 to 20)
#    0.000    0.667    5.000    3.000    9.333    2.667 
#    0.000    0.000    0.000    0.000    0.000    0.000 
#    0.000    0.000    0.000    0.000    0.000    0.000 
#
# Total GULP energy -148786.392442 kJ/mol
# GULP energy per Si atom -12398.866037 kJ/mol
# Density = 2.163121 g / cm^3
# Si number density = 21.680552 Si / 1000 Ang^3
#
#
#
# Elastic Constant Matrix: (Units=GPa)
#
#
# Indices 1 2 3 4 5 6 
#
# 1 67.3798 17.6315 22.4180 0.0000 13.6893 0.0000
# 2 17.6315 105.4698 9.2384 0.0000 5.6793 0.0000
# 3 22.4180 9.2384 113.3733 0.0000 12.3420 0.0000
# 4 0.0000 0.0000 0.0000 30.8349 0.0000 8.9697
# 5 13.6893 5.6793 12.3420 0.0000 41.7011 0.0000
# 6 0.0000 0.0000 0.0000 8.9697 0.0000 -70.9571
#
#
#
# Elastic Compliance Matrix: (Units=1/GPa)
#
#
# Indices 1 2 3 4 5 6 
#
# 1 0.017303 -0.002409 -0.002731 0.000000 -0.004544 0.000000
# 2 -0.002409 0.009934 -0.000281 0.000000 -0.000479 0.000000
# 3 -0.002731 -0.000281 0.009590 0.000000 -0.001904 0.000000
# 4 0.000000 0.000000 0.000000 0.031281 0.000000 0.003954
# 5 -0.004544 -0.000479 -0.001904 0.000000 0.026101 0.000000
# 6 0.000000 0.000000 0.000000 0.003954 0.000000 -0.013593
#
#
# Mechanical properties :
#
#
# Convention : Reuss Voigt Hill
#
# Bulk Modulus (GPa) = 38.48005 42.75540 40.61773
# Shear Modulus (GPa) = 49.94045 16.11146 33.02595
#
# Velocity S-wave (km/s) = 4.80465 2.72900 3.90718
# Velocity P-wave (km/s) = 6.96899 5.44916 6.25540
#
# Compressibility (1/GPa) = 0.02598749
#
# Stress axis : x y z
#
# Youngs Moduli (GPa) = 57.79274 100.65956 104.26987
#
# Poissons Ratio (x) = 0.24246 0.28471
# Poissons Ratio (y) = 0.13921 0.02931
# Poissons Ratio (z) = 0.15780 0.02829
#
# Static dielectric constant tensor:
#      x y z
#    x 4.063040 0.000000 -0.229150 
#    y 0.000000 4.104440 0.000000 
#    z -0.229150 0.000000 4.503580 
# 
# 
# High freq. dielectric constant tensor:
#      x y z
#    x 1.847310 0.000000 0.007420 
#    y 0.000000 1.865900 0.000000 
#    z 0.007420 0.000000 1.866960 
# 
# From -- ./inp_files/5060.got.cif
#   From: 2010.03.12/outbox.cif.g09.slc.cpg/sg3_3_cif.got.tgz:5060.got - 2010.03.31 09:20:49.
