data_PCOD8045399
_publ_section_title
;
Structure prediction by ZEFSAII (Michael W. Deem and Ramdas Pophale) SiO2 
 PCOD8045399
Probable space group: P 2
;
_chemical_formula_sum "Si O2"
_cell_formula_units_Z 14
_cell_length_a 7.822221
_cell_length_b 5.272448
_cell_length_c 17.419655
_cell_angle_alpha 90.000000
_cell_angle_beta 131.135802
_cell_angle_gamma 90.000000
_cell_volume 541.084190
_symmetry_space_group_name_H-M "P 2"
_symmetry_group_IT_number 3
_symmetry_cell_setting 'monoclinic'
loop_
_space_group_symop_operation_xyz
x,y,z
-x,y,-z
loop_
_atom_site_type_symbol
_atom_site_label
_atom_site_fract_x
_atom_site_fract_y
_atom_site_fract_z
Si Si1 0.047247 0.580430 0.218432
Si Si2 0.043298 0.231459 0.689019
Si Si3 0.554048 0.737276 0.812104
Si Si4 0.392652 0.909979 0.390917
Si Si5 0.162105 0.239728 0.121033
Si Si6 0.659579 0.935953 0.111805
Si Si7 0.780589 0.967105 0.395873
O O1 0.299503 0.701920 0.301633
O O2 0.034192 0.322529 0.162700
O O3 0.985434 0.519885 0.289985
O O4 0.866549 0.782941 0.132780
O O5 0.255340 0.141415 0.802975
O O6 0.116561 0.208214 0.621849
O O7 0.807849 0.093094 0.640972
O O8 0.732286 0.960211 0.839451
O O9 0.649790 0.458028 0.828273
O O10 0.502906 0.749329 0.887428
O O11 0.323395 0.766112 0.694719
O O12 0.500000 0.785914 0.500000
O O13 0.592839 0.056934 0.403224
O O14 0.000000 0.251060 0.000000
O O15 0.500000 0.063181 0.000000
O O16 0.000000 0.836251 0.500000
#
# Coordination Sequence:
#
# PCOD8045399 Si02
#       7
#     2   2   2   2   2   2   2
#     4  11  25  44  70 102 143 188 245 309 364 445
#     4  10  24  42  70 101 140 184 244 299 369 437
#     4  11  26  46  70 111 147 189 249 313 362 458
#     4  11  22  45  72 101 140 185 243 305 372 445
#     4  12  26  46  77 106 150 196 250 303 384 438
#     4  10  24  43  70  98 143 187 242 298 372 439
#     4  11  22  46  73 101 144 198 243 309 375 446
#
# _framework density 25.87398
#
# number of rings (size 3 to 8) (size 9 to 14) (size 15 to 20)
#    0.000    1.143    2.857    2.143    8.000    1.143 
#    2.571    0.714    0.000    0.000    0.000    0.000 
#    0.000    0.000    0.000    0.000    0.000    0.000 
#
# Total GULP energy -173468.672756 kJ/mol
# GULP energy per Si atom -12390.619483 kJ/mol
# Density = 2.581509 g / cm^3
# Si number density = 25.873980 Si / 1000 Ang^3
#
#
#
# Elastic Constant Matrix: (Units=GPa)
#
#
# Indices 1 2 3 4 5 6 
#
# 1 143.9925 9.4942 41.3139 0.0000 -7.4668 0.0000
# 2 9.4942 33.3151 13.7298 0.0000 9.7230 0.0000
# 3 41.3139 13.7298 191.0229 0.0000 10.2675 0.0000
# 4 0.0000 0.0000 0.0000 18.0548 0.0000 -10.4010
# 5 -7.4668 9.7230 10.2675 0.0000 37.0369 0.0000
# 6 0.0000 0.0000 0.0000 -10.4010 0.0000 38.7855
#
#
#
# Elastic Compliance Matrix: (Units=1/GPa)
#
#
# Indices 1 2 3 4 5 6 
#
# 1 0.007701 -0.002279 -0.001642 0.000000 0.002606 0.000000
# 2 -0.002279 0.033880 -0.001461 0.000000 -0.008948 0.000000
# 3 -0.001642 -0.001461 0.005778 0.000000 -0.001549 0.000000
# 4 0.000000 0.000000 0.000000 0.065507 0.000000 0.017567
# 5 0.002606 -0.008948 -0.001549 0.000000 0.030304 0.000000
# 6 0.000000 0.000000 0.000000 0.017567 0.000000 0.030494
#
#
# Mechanical properties :
#
#
# Convention : Reuss Voigt Hill
#
# Bulk Modulus (GPa) = 27.32571 55.26737 41.29654
# Shear Modulus (GPa) = 25.42897 39.02827 32.22862
#
# Velocity S-wave (km/s) = 3.13837 3.88802 3.53313
# Velocity P-wave (km/s) = 4.86996 6.44688 5.71309
#
# Compressibility (1/GPa) = 0.03659557
#
# Stress axis : x y z
#
# Youngs Moduli (GPa) = 129.84866 29.51630 173.05867
#
# Poissons Ratio (x) = 0.06726 0.28415
# Poissons Ratio (y) = 0.29588 0.25289
# Poissons Ratio (z) = 0.21320 0.04313
#
# Static dielectric constant tensor:
#      x y z
#    x 5.376900 0.000000 -0.223790 
#    y 0.000000 4.171810 0.000000 
#    z -0.223790 0.000000 4.953620 
# 
# 
# High freq. dielectric constant tensor:
#      x y z
#    x 2.063420 0.000000 -0.003780 
#    y 0.000000 1.992510 0.000000 
#    z -0.003780 0.000000 2.047170 
# 
# From -- ./inp_files/14865.got.cif
#   From: 2010.03.12/outbox.cif.g09.slc.cpg/sg3_8_cif.got.tgz:14865.got - 2010.03.31 09:20:49.
