data_PCOD8045458
_publ_section_title
;
Structure prediction by ZEFSAII (Michael W. Deem and Ramdas Pophale) SiO2 
 PCOD8045458
Probable space group: P 2
;
_chemical_formula_sum "Si O2"
_cell_formula_units_Z 12
_cell_length_a 11.610890
_cell_length_b 10.780150
_cell_length_c 11.684381
_cell_angle_alpha 90.000000
_cell_angle_beta 24.301729
_cell_angle_gamma 90.000000
_cell_volume 601.880180
_symmetry_space_group_name_H-M "P 2"
_symmetry_group_IT_number 3
_symmetry_cell_setting 'monoclinic'
loop_
_space_group_symop_operation_xyz
x,y,z
-x,y,-z
loop_
_atom_site_type_symbol
_atom_site_label
_atom_site_fract_x
_atom_site_fract_y
_atom_site_fract_z
Si Si1 0.479514 0.318920 0.653367
Si Si2 0.708047 0.830243 0.074104
Si Si3 0.731101 0.944545 0.382422
Si Si4 0.698817 0.589397 0.217164
Si Si5 0.005772 0.181043 0.779256
Si Si6 0.791844 0.990123 0.789060
O O1 0.500000 0.295722 0.500000
O O2 0.399695 0.460805 0.749643
O O3 0.782258 0.294661 0.439570
O O4 0.255156 0.226111 0.910857
O O5 0.417645 0.901901 0.364745
O O6 0.683102 0.684648 0.124813
O O7 0.766796 0.865208 0.888767
O O8 0.974872 0.875915 0.907212
O O9 0.500000 0.906489 0.500000
O O10 0.799262 0.090006 0.321008
O O11 0.500000 0.636070 0.500000
O O12 0.000000 0.570649 0.000000
O O13 0.903061 0.107937 0.760392
O O14 0.000000 0.954987 0.500000
O O15 0.500000 0.031663 0.000000
#
# Coordination Sequence:
#
# PCOD8045458 Si02
#       6
#     2   2   2   2   2   2
#     4  11  22  37  57  87 124 159 186 219 274 349
#     4  11  22  37  58  85 114 151 194 235 286 344
#     4  11  21  33  53  85 120 148 180 231 290 350
#     4  11  22  37  58  86 124 162 189 219 270 346
#     4  11  22  37  58  85 115 151 194 235 286 345
#     4  11  23  41  61  84 111 147 196 253 305 334
#
# _framework density 19.937522999999999
#
# number of rings (size 3 to 8) (size 9 to 14) (size 15 to 20)
#    0.000    1.000    0.000   11.000    0.000    2.667 
#    0.000    3.333    0.000    4.000    0.000    2.333 
#    0.000    0.000    0.000    0.000    0.000    0.000 
#
# Total GULP energy -148768.537813 kJ/mol
# GULP energy per Si atom -12397.378151 kJ/mol
# Density = 1.989214 g / cm^3
# Si number density = 19.937523 Si / 1000 Ang^3
#
#
#
# Elastic Constant Matrix: (Units=GPa)
#
#
# Indices 1 2 3 4 5 6 
#
# 1 88.3707 59.5365 32.2227 0.0000 -1.7404 0.0000
# 2 59.5365 122.2914 49.5754 0.0000 10.3986 0.0000
# 3 32.2227 49.5754 128.2888 0.0000 -1.1382 0.0000
# 4 0.0000 0.0000 0.0000 44.8236 0.0000 7.4108
# 5 -1.7404 10.3986 -1.1382 0.0000 40.4452 0.0000
# 6 0.0000 0.0000 0.0000 7.4108 0.0000 -74.2198
#
#
#
# Elastic Compliance Matrix: (Units=1/GPa)
#
#
# Indices 1 2 3 4 5 6 
#
# 1 0.017320 -0.008204 -0.001155 0.000000 0.002822 0.000000
# 2 -0.008204 0.013863 -0.003332 0.000000 -0.004011 0.000000
# 3 -0.001155 -0.003332 0.009382 0.000000 0.001071 0.000000
# 4 0.000000 0.000000 0.000000 0.021947 0.000000 0.002191
# 5 0.002822 -0.004011 0.001071 0.000000 0.025908 0.000000
# 6 0.000000 0.000000 0.000000 0.002191 0.000000 -0.013255
#
#
# Mechanical properties :
#
#
# Convention : Reuss Voigt Hill
#
# Bulk Modulus (GPa) = 65.86277 69.06890 67.46584
# Shear Modulus (GPa) = 47.34510 15.38425 31.36468
#
# Velocity S-wave (km/s) = 4.87835 2.78082 3.97060
# Velocity P-wave (km/s) = 8.05216 6.71033 7.41168
#
# Compressibility (1/GPa) = 0.01518309
#
# Stress axis : x y z
#
# Youngs Moduli (GPa) = 57.73820 72.13487 106.58486
#
# Poissons Ratio (x) = 0.59177 0.12311
# Poissons Ratio (y) = 0.47366 0.35516
# Poissons Ratio (z) = 0.06669 0.24037
#
# Static dielectric constant tensor:
#      x y z
#    x 3.428330 0.000000 -0.085830 
#    y 0.000000 3.639610 0.000000 
#    z -0.085830 0.000000 4.126530 
# 
# 
# High freq. dielectric constant tensor:
#      x y z
#    x 1.743850 0.000000 -0.012960 
#    y 0.000000 1.770090 0.000000 
#    z -0.012960 0.000000 1.813910 
# 
# From -- ./inp_files/11812.got.cif
#   From: 2010.03.12/outbox.cif.g09.slc.cpg/sg3_6_cif.got.tgz:11812.got - 2010.03.31 09:20:49.
