data_PCOD8045041
_publ_section_title
;
Structure prediction by ZEFSAII (Michael W. Deem and Ramdas Pophale) SiO2 
 PCOD8045041
Probable space group: P 2
;
_chemical_formula_sum "Si O2"
_cell_formula_units_Z 16
_cell_length_a 12.669805
_cell_length_b 9.589562
_cell_length_c 8.833563
_cell_angle_alpha 90.000000
_cell_angle_beta 43.811283
_cell_angle_gamma 90.000000
_cell_volume 743.001548
_symmetry_space_group_name_H-M "P 2"
_symmetry_group_IT_number 3
_symmetry_cell_setting 'monoclinic'
loop_
_space_group_symop_operation_xyz
x,y,z
-x,y,-z
loop_
_atom_site_type_symbol
_atom_site_label
_atom_site_fract_x
_atom_site_fract_y
_atom_site_fract_z
Si Si1 0.326945 0.845930 0.170489
Si Si2 0.911305 0.651173 0.437516
Si Si3 0.631012 0.461605 0.081958
Si Si4 0.295567 0.414940 0.339324
Si Si5 0.610569 0.182427 0.245011
Si Si6 0.790908 0.735879 0.012623
Si Si7 0.179266 0.977932 0.810055
Si Si8 0.329470 0.100175 0.361471
O O1 0.226245 0.759192 0.394400
O O2 0.262255 0.834607 0.069286
O O3 0.319840 0.009024 0.220032
O O4 0.500000 0.787224 0.000000
O O5 0.842675 0.504624 0.448090
O O6 0.000000 0.622865 0.500000
O O7 0.027999 0.706673 0.190363
O O8 0.448055 0.457276 0.270280
O O9 0.689221 0.325320 0.109614
O O10 0.695077 0.460137 0.845861
O O11 0.691539 0.595026 0.112024
O O12 0.258113 0.251745 0.400506
O O13 0.500000 0.213216 0.500000
O O14 0.507805 0.114964 0.218541
O O15 0.748594 0.082069 0.142581
O O16 0.770268 0.820826 0.191191
O O17 0.239855 0.014781 0.582193
O O18 0.000000 0.997846 0.000000
#
# Coordination Sequence:
#
# PCOD8045041 Si02
#       8
#     2   2   2   2   2   2   2   2
#     4  11  21  36  62  96 120 161 208 265 324 371
#     4  10  20  37  54  89 130 159 206 260 311 370
#     4  10  20  38  66  96 122 166 211 265 326 373
#     4  10  20  37  64  96 131 156 208 275 320 377
#     4   9  21  42  64  90 129 164 214 264 314 383
#     4  11  23  39  65  89 128 171 211 264 311 375
#     4  11  24  45  60  87 129 176 212 255 313 385
#     4  10  23  40  65  96 126 162 208 267 324 376
#
# _framework density 21.534276999999999
#
# number of rings (size 3 to 8) (size 9 to 14) (size 15 to 20)
#    0.000    1.750    2.500    2.250    5.250    1.000 
#    0.000   14.375    0.000    0.000    0.000    0.000 
#    0.000    0.000    0.000    0.000    0.000    0.000 
#
# Total GULP energy -198404.559835 kJ/mol
# GULP energy per Si atom -12400.284990 kJ/mol
# Density = 2.148526 g / cm^3
# Si number density = 21.534277 Si / 1000 Ang^3
#
#
#
# Elastic Constant Matrix: (Units=GPa)
#
#
# Indices 1 2 3 4 5 6 
#
# 1 65.9913 57.5362 28.3086 0.0000 -21.3309 0.0000
# 2 57.5362 150.8233 55.2696 0.0000 -15.9384 0.0000
# 3 28.3086 55.2696 62.8684 0.0000 -18.3224 0.0000
# 4 0.0000 0.0000 0.0000 26.4266 0.0000 3.6379
# 5 -21.3309 -15.9384 -18.3224 0.0000 24.9518 0.0000
# 6 0.0000 0.0000 0.0000 3.6379 0.0000 43.0491
#
#
#
# Elastic Compliance Matrix: (Units=1/GPa)
#
#
# Indices 1 2 3 4 5 6 
#
# 1 0.029394 -0.009420 0.000783 0.000000 0.019686 0.000000
# 2 -0.009420 0.012800 -0.008875 0.000000 -0.006393 0.000000
# 3 0.000783 -0.008875 0.027861 0.000000 0.015459 0.000000
# 4 0.000000 0.000000 0.000000 0.038286 0.000000 -0.003235
# 5 0.019686 -0.006393 0.015459 0.000000 0.064175 0.000000
# 6 0.000000 0.000000 0.000000 -0.003235 0.000000 0.023503
#
#
# Mechanical properties :
#
#
# Convention : Reuss Voigt Hill
#
# Bulk Modulus (GPa) = 28.54508 62.43466 45.48987
# Shear Modulus (GPa) = 20.59986 28.12341 24.36163
#
# Velocity S-wave (km/s) = 3.09626 3.61776 3.36712
# Velocity P-wave (km/s) = 5.10557 6.81960 6.02386
#
# Compressibility (1/GPa) = 0.03503231
#
# Stress axis : x y z
#
# Youngs Moduli (GPa) = 34.02070 78.12273 35.89201
#
# Poissons Ratio (x) = 0.73590 -0.02811
# Poissons Ratio (y) = 0.32047 0.31854
# Poissons Ratio (z) = -0.02664 0.69333
#
# Static dielectric constant tensor:
#      x y z
#    x 3.941330 0.000000 -0.097600 
#    y 0.000000 4.015720 0.000000 
#    z -0.097600 0.000000 3.804680 
# 
# 
# High freq. dielectric constant tensor:
#      x y z
#    x 1.842150 0.000000 -0.006200 
#    y 0.000000 1.857730 0.000000 
#    z -0.006200 0.000000 1.827460 
# 
# From -- ./inp_files/7391.got.cif
#   From: 2010.03.12/outbox.cif.g09.slc.cpg/sg3_4_cif.got.tgz:7391.got - 2010.03.31 09:20:49.
