data_PCOD8045450
_publ_section_title
;
Structure prediction by ZEFSAII (Michael W. Deem and Ramdas Pophale) SiO2 
 PCOD8045450
Probable space group: P 2
;
_chemical_formula_sum "Si O2"
_cell_formula_units_Z 16
_cell_length_a 9.685846
_cell_length_b 10.016917
_cell_length_c 10.938715
_cell_angle_alpha 90.000000
_cell_angle_beta 57.350818
_cell_angle_gamma 90.000000
_cell_volume 893.603119
_symmetry_space_group_name_H-M "P 2"
_symmetry_group_IT_number 3
_symmetry_cell_setting 'monoclinic'
loop_
_space_group_symop_operation_xyz
x,y,z
-x,y,-z
loop_
_atom_site_type_symbol
_atom_site_label
_atom_site_fract_x
_atom_site_fract_y
_atom_site_fract_z
Si Si1 0.775385 0.527740 0.415302
Si Si2 0.464383 0.509352 0.694958
Si Si3 0.524088 0.210566 0.635149
Si Si4 0.984244 0.737234 0.208398
Si Si5 0.258339 0.720460 0.903298
Si Si6 0.727087 0.020285 0.126193
Si Si7 0.004814 0.036814 0.194106
Si Si8 0.889843 0.249592 0.437752
O O1 0.656946 0.547371 0.588799
O O2 0.650187 0.543648 0.364203
O O3 0.917851 0.639534 0.346424
O O4 0.859549 0.382707 0.372681
O O5 0.455175 0.350688 0.720088
O O6 0.394332 0.602859 0.836363
O O7 0.500000 0.197296 0.500000
O O8 0.434466 0.102036 0.761672
O O9 0.716918 0.191432 0.567429
O O10 0.866813 0.718677 0.148982
O O11 0.994111 0.887575 0.254971
O O12 0.164732 0.695751 0.075952
O O13 0.336159 0.868493 0.859868
O O14 0.854931 0.047127 0.172759
O O15 0.820649 0.063006 0.956575
O O16 0.986562 0.143041 0.310024
O O17 0.000000 0.287810 0.500000
#
# Coordination Sequence:
#
# PCOD8045450 Si02
#       8
#     2   2   2   2   2   2   2   2
#     4   9  16  29  45  67  94 130 160 198 244 288
#     4   9  15  27  45  68 101 122 157 204 244 289
#     4  11  18  33  50  76 101 130 170 210 248 290
#     4   8  15  27  46  69 102 127 156 201 244 297
#     4   8  15  26  43  76 102 122 153 201 257 290
#     4   9  17  30  52  77 103 129 163 209 252 296
#     4   9  17  32  50  76 103 131 166 206 249 295
#     4  11  22  35  50  72 104 137 169 206 249 298
#
# _framework density 17.905041000000001
#
# number of rings (size 3 to 8) (size 9 to 14) (size 15 to 20)
#    0.000    2.750    3.750    1.500    0.000    2.000 
#    2.250    3.750    0.000    0.000    0.000    3.500 
#    0.000    0.000    0.000    0.000    0.000    0.000 
#
# Total GULP energy -198213.987844 kJ/mol
# GULP energy per Si atom -12388.374240 kJ/mol
# Density = 1.786429 g / cm^3
# Si number density = 17.905041 Si / 1000 Ang^3
#
#
#
# Elastic Constant Matrix: (Units=GPa)
#
#
# Indices 1 2 3 4 5 6 
#
# 1 36.8124 17.1501 23.0702 0.0000 -12.0130 0.0000
# 2 17.1501 128.8929 87.0872 0.0000 -25.6548 0.0000
# 3 23.0702 87.0872 99.2578 0.0000 -30.4904 0.0000
# 4 0.0000 0.0000 0.0000 40.2746 0.0000 -14.3723
# 5 -12.0130 -25.6548 -30.4904 0.0000 20.2071 0.0000
# 6 0.0000 0.0000 0.0000 -14.3723 0.0000 8.0421
#
#
#
# Elastic Compliance Matrix: (Units=1/GPa)
#
#
# Indices 1 2 3 4 5 6 
#
# 1 0.034384 0.001702 -0.004739 0.000000 0.015452 0.000000
# 2 0.001702 0.019178 -0.017581 0.000000 -0.001167 0.000000
# 3 -0.004739 -0.017581 0.035190 0.000000 0.027961 0.000000
# 4 0.000000 0.000000 0.000000 0.068543 0.000000 0.122495
# 5 0.015452 -0.001167 0.027961 0.000000 0.099383 0.000000
# 6 0.000000 0.000000 0.000000 0.122495 0.000000 0.343261
#
#
# Mechanical properties :
#
#
# Convention : Reuss Voigt Hill
#
# Bulk Modulus (GPa) = 21.04455 57.73089 39.38772
# Shear Modulus (GPa) = 7.61020 22.88180 15.24600
#
# Velocity S-wave (km/s) = 2.06387 3.57872 2.92120
# Velocity P-wave (km/s) = 4.17832 7.02774 5.78133
#
# Compressibility (1/GPa) = 0.04751825
#
# Stress axis : x y z
#
# Youngs Moduli (GPa) = 29.08339 52.14295 28.41680
#
# Poissons Ratio (x) = -0.08876 0.13466
# Poissons Ratio (y) = -0.04951 0.49959
# Poissons Ratio (z) = 0.13782 0.91671
#
# Static dielectric constant tensor:
#      x y z
#    x 2.914870 0.000000 -0.476910 
#    y 0.000000 3.459120 0.000000 
#    z -0.476910 0.000000 3.733900 
# 
# 
# High freq. dielectric constant tensor:
#      x y z
#    x 1.641140 0.000000 -0.032830 
#    y 0.000000 1.698430 0.000000 
#    z -0.032830 0.000000 1.687200 
# 
# From -- ./inp_files/10742.got.cif
#   From: 2010.03.12/outbox.cif.g09.slc.cpg/sg3_6_cif.got.tgz:10742.got - 2010.03.31 09:20:49.
