data_PCOD8045974
_publ_section_title
;
Structure prediction by ZEFSAII (Michael W. Deem and Ramdas Pophale) SiO2 
 PCOD8045974
Probable space group: P 21
;
_chemical_formula_sum "Si O2"
_cell_formula_units_Z 14
_cell_length_a 8.890488
_cell_length_b 13.174084
_cell_length_c 7.750492
_cell_angle_alpha 90.000000
_cell_angle_beta 130.336877
_cell_angle_gamma 90.000000
_cell_volume 691.948553
_symmetry_space_group_name_H-M "P 21"
_symmetry_group_IT_number 4
_symmetry_cell_setting 'monoclinic'
loop_
_space_group_symop_operation_xyz
x,y,z
-x,1/2+y,-z
loop_
_atom_site_type_symbol
_atom_site_label
_atom_site_fract_x
_atom_site_fract_y
_atom_site_fract_z
Si Si1 0.474473 0.830190 0.711504
Si Si2 0.877015 0.901500 0.103377
Si Si3 0.823605 0.701165 0.267453
Si Si4 0.269994 0.917659 0.240095
Si Si5 0.436960 0.108443 0.202780
Si Si6 0.817653 0.097817 0.270394
Si Si7 0.587605 0.270353 0.951584
O O1 0.318767 0.878066 0.467203
O O2 0.535271 0.718312 0.687893
O O3 0.664373 0.902940 0.854670
O O4 0.386464 0.821394 0.839550
O O5 0.914655 0.795087 0.228600
O O6 0.033086 0.918660 0.064301
O O7 0.894794 0.993357 0.250479
O O8 0.641900 0.741847 0.250773
O O9 0.994461 0.651955 0.505596
O O10 0.729640 0.616967 0.069847
O O11 0.348209 0.847242 0.146771
O O12 0.361437 0.029252 0.287918
O O13 0.647406 0.072590 0.282913
O O14 0.727445 0.170903 0.054154
#
# Coordination Sequence:
#
# PCOD8045974 Si02
#       7
#     2   2   2   2   2   2   2
#     4   9  22  43  57  80 123 153 189 244 283 337
#     4  10  22  36  56  89 118 149 196 237 285 352
#     4   9  20  40  60  82 119 155 191 241 286 338
#     4  12  23  37  63  89 117 154 190 240 293 338
#     4   9  21  38  57  86 117 153 196 234 287 350
#     4  10  20  38  63  85 115 156 194 238 287 339
#     4   9  22  40  60  87 115 152 198 234 283 350
#
# _framework density 20.232717999999998
#
# number of rings (size 3 to 8) (size 9 to 14) (size 15 to 20)
#    0.000    2.857    0.000    3.429    0.000   11.429 
#    0.000    0.000    0.000    0.000    0.000    0.000 
#    0.000    0.000    0.000    0.000    0.000    0.000 
#
# Total GULP energy -173558.484058 kJ/mol
# GULP energy per Si atom -12397.034576 kJ/mol
# Density = 2.018667 g / cm^3
# Si number density = 20.232718 Si / 1000 Ang^3
#
#
#
# Elastic Constant Matrix: (Units=GPa)
#
#
# Indices 1 2 3 4 5 6 
#
# 1 110.5966 47.5259 38.6124 0.0000 8.8194 0.0000
# 2 47.5259 83.0072 30.8221 0.0000 -2.3413 0.0000
# 3 38.6124 30.8221 68.5223 0.0000 6.2290 0.0000
# 4 0.0000 0.0000 0.0000 24.9927 0.0000 2.2213
# 5 8.8194 -2.3413 6.2290 0.0000 21.3858 0.0000
# 6 0.0000 0.0000 0.0000 2.2213 0.0000 28.1741
#
#
#
# Elastic Compliance Matrix: (Units=1/GPa)
#
#
# Indices 1 2 3 4 5 6 
#
# 1 0.013719 -0.006361 -0.004409 0.000000 -0.005070 0.000000
# 2 -0.006361 0.017683 -0.004914 0.000000 0.005990 0.000000
# 3 -0.004409 -0.004914 0.019694 0.000000 -0.004456 0.000000
# 4 0.000000 0.000000 0.000000 0.040294 0.000000 -0.003177
# 5 -0.005070 0.005990 -0.004456 0.000000 0.050805 0.000000
# 6 0.000000 0.000000 0.000000 -0.003177 0.000000 0.035744
#
#
# Mechanical properties :
#
#
# Convention : Reuss Voigt Hill
#
# Bulk Modulus (GPa) = 50.68902 55.11631 52.90266
# Shear Modulus (GPa) = 23.16101 24.58822 23.87462
#
# Velocity S-wave (km/s) = 3.38706 3.48985 3.43884
# Velocity P-wave (km/s) = 6.35638 6.59842 6.47853
#
# Compressibility (1/GPa) = 0.01972814
#
# Stress axis : x y z
#
# Youngs Moduli (GPa) = 72.89372 56.55270 50.77814
#
# Poissons Ratio (x) = 0.35971 0.22386
# Poissons Ratio (y) = 0.46365 0.24953
# Poissons Ratio (z) = 0.32135 0.27791
#
# Static dielectric constant tensor:
#      x y z
#    x 3.573600 0.000000 0.244170 
#    y 0.000000 3.736050 0.000000 
#    z 0.244170 0.000000 3.540350 
# 
# 
# High freq. dielectric constant tensor:
#      x y z
#    x 1.785210 0.000000 0.022830 
#    y 0.000000 1.796300 0.000000 
#    z 0.022830 0.000000 1.777510 
# 
# From -- ./inp_files/6459.got.cif
#   From: 2010.03.12/outbox.cif.g09.slc.cpg/sg4_4_cif.got.tgz:6459.got - 2010.03.31 09:31:35.
