data_PCOD8045456
_publ_section_title
;
Structure prediction by ZEFSAII (Michael W. Deem and Ramdas Pophale) SiO2 
 PCOD8045456
Probable space group: P 2
;
_chemical_formula_sum "Si O2"
_cell_formula_units_Z 16
_cell_length_a 18.808460
_cell_length_b 9.234644
_cell_length_c 14.839650
_cell_angle_alpha 90.000000
_cell_angle_beta 161.150671
_cell_angle_gamma 90.000000
_cell_volume 832.737131
_symmetry_space_group_name_H-M "P 2"
_symmetry_group_IT_number 3
_symmetry_cell_setting 'monoclinic'
loop_
_space_group_symop_operation_xyz
x,y,z
-x,y,-z
loop_
_atom_site_type_symbol
_atom_site_label
_atom_site_fract_x
_atom_site_fract_y
_atom_site_fract_z
Si Si1 0.322429 0.607470 0.950200
Si Si2 0.712432 0.975927 0.818621
Si Si3 0.847716 0.596345 0.446469
Si Si4 0.948555 0.733286 0.836314
Si Si5 0.761766 0.468116 0.517951
Si Si6 0.942513 0.196138 0.834109
Si Si7 0.603623 0.960600 0.404768
Si Si8 0.571373 0.864028 0.180796
O O1 0.274384 0.549412 0.791457
O O2 0.107257 0.608714 0.751539
O O3 0.504720 0.512658 0.222321
O O4 0.382013 0.775181 0.005861
O O5 0.500000 0.965891 0.500000
O O6 0.631669 0.973004 0.826644
O O7 0.869195 0.838294 0.989294
O O8 0.845333 0.125802 0.961058
O O9 0.798156 0.465048 0.454427
O O10 0.764369 0.748543 0.390166
O O11 0.934762 0.582219 0.767305
O O12 0.704097 0.801116 0.539655
O O13 0.000000 0.695704 0.000000
O O14 0.817227 0.311576 0.622562
O O15 0.768128 0.072075 0.649564
O O16 0.000000 0.266590 0.000000
O O17 0.614904 0.988274 0.308488
O O18 0.500000 0.936466 0.000000
#
# Coordination Sequence:
#
# PCOD8045456 Si02
#       8
#     2   2   2   2   2   2   2   2
#     4   9  18  34  59  85 120 152 184 238 301 353
#     4  11  21  39  62  79 112 159 205 238 294 349
#     4   9  18  35  57  88 118 151 189 234 298 362
#     4  11  21  35  56  87 114 146 195 252 291 345
#     4  11  22  36  56  87 122 149 193 243 298 338
#     4  11  24  41  57  80 119 166 197 237 287 362
#     4  11  20  38  61  80 114 157 198 237 296 347
#     4   9  18  33  56  89 118 146 192 245 297 342
#
# _framework density 19.213746
#
# number of rings (size 3 to 8) (size 9 to 14) (size 15 to 20)
#    0.000    1.750    5.000    2.250    1.750    1.000 
#    0.000    1.875    0.000    0.000    0.000    1.750 
#    0.000    0.000    0.000    0.000    0.000    0.000 
#
# Total GULP energy -198244.755388 kJ/mol
# GULP energy per Si atom -12390.297212 kJ/mol
# Density = 1.917001 g / cm^3
# Si number density = 19.213746 Si / 1000 Ang^3
#
#
#
# Elastic Constant Matrix: (Units=GPa)
#
#
# Indices 1 2 3 4 5 6 
#
# 1 111.1111 17.7148 41.5146 0.0000 -0.9320 0.0000
# 2 17.7148 48.7010 21.3693 0.0000 1.4707 0.0000
# 3 41.5146 21.3693 93.2627 0.0000 5.5161 0.0000
# 4 0.0000 0.0000 0.0000 20.9316 0.0000 -11.5905
# 5 -0.9320 1.4707 5.5161 0.0000 37.2462 0.0000
# 6 0.0000 0.0000 0.0000 -11.5905 0.0000 20.4016
#
#
#
# Elastic Compliance Matrix: (Units=1/GPa)
#
#
# Indices 1 2 3 4 5 6 
#
# 1 0.011016 -0.002068 -0.004490 0.000000 0.001022 0.000000
# 2 -0.002068 0.023217 -0.004381 0.000000 -0.000320 0.000000
# 3 -0.004490 -0.004381 0.013843 0.000000 -0.001989 0.000000
# 4 0.000000 0.000000 0.000000 0.069702 0.000000 0.039599
# 5 0.001022 -0.000320 -0.001989 0.000000 0.027181 0.000000
# 6 0.000000 0.000000 0.000000 0.039599 0.000000 0.071513
#
#
# Mechanical properties :
#
#
# Convention : Reuss Voigt Hill
#
# Bulk Modulus (GPa) = 38.16941 46.03023 42.09982
# Shear Modulus (GPa) = 20.23623 27.21428 23.72525
#
# Velocity S-wave (km/s) = 3.24885 3.76759 3.51779
# Velocity P-wave (km/s) = 5.82942 6.55250 6.20151
#
# Compressibility (1/GPa) = 0.02619899
#
# Stress axis : x y z
#
# Youngs Moduli (GPa) = 90.77752 43.07132 72.24087
#
# Poissons Ratio (x) = 0.08905 0.32438
# Poissons Ratio (y) = 0.18769 0.31645
# Poissons Ratio (z) = 0.40762 0.18867
#
# Static dielectric constant tensor:
#      x y z
#    x 3.823020 0.000000 -0.199360 
#    y 0.000000 3.084080 0.000000 
#    z -0.199360 0.000000 3.893310 
# 
# 
# High freq. dielectric constant tensor:
#      x y z
#    x 1.762350 0.000000 -0.006740 
#    y 0.000000 1.698530 0.000000 
#    z -0.006740 0.000000 1.755620 
# 
# From -- ./inp_files/14161.got.cif
#   From: 2010.03.12/outbox.cif.g09.slc.cpg/sg3_8_cif.got.tgz:14161.got - 2010.03.31 09:20:49.
