data_PCOD8045612
_publ_section_title
;
Structure prediction by ZEFSAII (Michael W. Deem and Ramdas Pophale) SiO2 
 PCOD8045612
Probable space group: P 21
;
_chemical_formula_sum "Si O2"
_cell_formula_units_Z 16
_cell_length_a 19.363262
_cell_length_b 4.967759
_cell_length_c 8.628883
_cell_angle_alpha 90.000000
_cell_angle_beta 101.897498
_cell_angle_gamma 90.000000
_cell_volume 812.198971
_symmetry_space_group_name_H-M "P 21"
_symmetry_group_IT_number 4
_symmetry_cell_setting 'monoclinic'
loop_
_space_group_symop_operation_xyz
x,y,z
-x,1/2+y,-z
loop_
_atom_site_type_symbol
_atom_site_label
_atom_site_fract_x
_atom_site_fract_y
_atom_site_fract_z
Si Si1 0.154651 0.742760 0.641763
Si Si2 0.717811 0.680065 0.671966
Si Si3 0.005061 0.630441 0.602227
Si Si4 0.341474 0.674966 0.194200
Si Si5 0.695247 0.179731 0.169136
Si Si6 0.642354 0.682902 0.317870
Si Si7 0.856071 0.742922 0.575081
Si Si8 0.504535 0.147252 0.608109
O O1 0.082046 0.704246 0.709133
O O2 0.219834 0.685992 0.784841
O O3 0.153608 0.543206 0.494023
O O4 0.160365 0.042399 0.575691
O O5 0.696372 0.379564 0.706744
O O6 0.681472 0.763998 0.494128
O O7 0.802419 0.695646 0.692031
O O8 0.691746 0.881700 0.793023
O O9 0.003791 0.316515 0.556205
O O10 0.936374 0.696053 0.676928
O O11 0.424679 0.675257 0.261105
O O12 0.328380 0.763502 0.012618
O O13 0.662206 0.381415 0.279089
O O14 0.666604 0.883512 0.194004
O O15 0.558682 0.707425 0.302662
O O16 0.503552 0.347626 0.461962
#
# Coordination Sequence:
#
# PCOD8045612 Si02
#       8
#     2   2   2   2   2   2   2   2
#     4  10  17  32  53  80 114 145 176 231 283 323
#     4  12  21  39  62  85 112 151 195 230 276 336
#     4   8  16  27  46  80 111 137 177 230 276 311
#     4  12  26  40  58  86 118 149 185 235 292 337
#     4  12  24  39  58  89 118 147 187 235 286 336
#     4  12  23  39  65  83 110 153 194 230 278 338
#     4  10  18  30  56  83 107 141 193 232 262 325
#     4  12  23  40  62  84 112 147 189 237 281 332
#
# _framework density 19.699605999999999
#
# number of rings (size 3 to 8) (size 9 to 14) (size 15 to 20)
#    0.000    1.000    5.000    3.000    0.000    1.000 
#    0.000    0.000    0.000    1.500    0.000    0.000 
#    0.000    0.000    0.000    0.000    0.000    0.000 
#
# Total GULP energy -198433.189162 kJ/mol
# GULP energy per Si atom -12402.074323 kJ/mol
# Density = 1.965477 g / cm^3
# Si number density = 19.699606 Si / 1000 Ang^3
#
#
#
# Elastic Constant Matrix: (Units=GPa)
#
#
# Indices 1 2 3 4 5 6 
#
# 1 190.1596 16.1924 46.6827 0.0000 13.4565 0.0000
# 2 16.1924 76.4545 8.2162 0.0000 1.2776 0.0000
# 3 46.6827 8.2162 59.7434 0.0000 6.0543 0.0000
# 4 0.0000 0.0000 0.0000 21.7442 0.0000 -5.0020
# 5 13.4565 1.2776 6.0543 0.0000 18.8986 0.0000
# 6 0.0000 0.0000 0.0000 -5.0020 0.0000 31.2402
#
#
#
# Elastic Compliance Matrix: (Units=1/GPa)
#
#
# Indices 1 2 3 4 5 6 
#
# 1 0.006743 -0.000856 -0.004827 0.000000 -0.003197 0.000000
# 2 -0.000856 0.013386 -0.001181 0.000000 0.000083 0.000000
# 3 -0.004827 -0.001181 0.020998 0.000000 -0.003210 0.000000
# 4 0.000000 0.000000 0.000000 0.047748 0.000000 0.007645
# 5 -0.003197 0.000083 -0.003210 0.000000 0.056213 0.000000
# 6 0.000000 0.000000 0.000000 0.007645 0.000000 0.033234
#
#
# Mechanical properties :
#
#
# Convention : Reuss Voigt Hill
#
# Bulk Modulus (GPa) = 36.49653 52.06002 44.27827
# Shear Modulus (GPa) = 24.85303 31.39434 28.12368
#
# Velocity S-wave (km/s) = 3.55575 3.99639 3.78249
# Velocity P-wave (km/s) = 5.95186 6.91225 6.44995
#
# Compressibility (1/GPa) = 0.02739986
#
# Stress axis : x y z
#
# Youngs Moduli (GPa) = 148.30489 74.70250 47.62423
#
# Poissons Ratio (x) = 0.06394 0.22989
# Poissons Ratio (y) = 0.12694 0.05622
# Poissons Ratio (z) = 0.71588 0.08819
#
# Static dielectric constant tensor:
#      x y z
#    x 4.115110 0.000000 0.087890 
#    y 0.000000 3.687280 0.000000 
#    z 0.087890 0.000000 2.959600 
# 
# 
# High freq. dielectric constant tensor:
#      x y z
#    x 1.796730 0.000000 0.004660 
#    y 0.000000 1.790010 0.000000 
#    z 0.004660 0.000000 1.700850 
# 
# From -- ./inp_files/9367.got.cif
#   From: 2010.03.12/outbox.cif.g09.slc.cpg/sg4_5_cif.got.tgz:9367.got - 2010.03.31 09:31:35.
