data_PCOD8045408
_publ_section_title
;
Structure prediction by ZEFSAII (Michael W. Deem and Ramdas Pophale) SiO2 
 PCOD8045408
Probable space group: P 2
;
_chemical_formula_sum "Si O2"
_cell_formula_units_Z 12
_cell_length_a 21.194125
_cell_length_b 5.172523
_cell_length_c 5.159740
_cell_angle_alpha 90.000000
_cell_angle_beta 72.276357
_cell_angle_gamma 90.000000
_cell_volume 538.799410
_symmetry_space_group_name_H-M "P 2"
_symmetry_group_IT_number 3
_symmetry_cell_setting 'monoclinic'
loop_
_space_group_symop_operation_xyz
x,y,z
-x,y,-z
loop_
_atom_site_type_symbol
_atom_site_label
_atom_site_fract_x
_atom_site_fract_y
_atom_site_fract_z
Si Si1 0.378329 0.546380 0.308023
Si Si2 0.926811 0.200264 0.647587
Si Si3 0.128780 0.408560 0.797462
Si Si4 0.569291 0.033958 0.543716
Si Si5 0.677130 0.757293 0.137998
Si Si6 0.819673 0.920546 0.048506
O O1 0.434146 0.771109 0.279861
O O2 0.343559 0.577104 0.075353
O O3 0.412061 0.267291 0.287024
O O4 0.322869 0.578967 0.603263
O O5 0.875990 0.959688 0.754467
O O6 0.000000 0.089752 0.500000
O O7 0.902801 0.383971 0.445301
O O8 0.927614 0.373301 0.908990
O O9 0.162052 0.687197 0.782618
O O10 0.183883 0.182262 0.773820
O O11 0.500000 0.099954 0.500000
O O12 0.624810 0.992692 0.248698
O O13 0.749747 0.872346 0.995905
#
# Coordination Sequence:
#
# PCOD8045408 Si02
#       6
#     2   2   2   2   2   2
#     4  10  25  40  69  94 136 170 223 265 337 390
#     4  10  24  45  67 101 130 177 218 277 327 399
#     4  10  25  41  67  96 134 173 219 269 333 393
#     4  10  24  46  66 101 130 177 217 278 327 398
#     4  10  26  44  67 101 130 177 217 279 325 401
#     4  10  26  43  70  97 134 173 222 272 333 392
#
# _framework density 22.271739
#
# number of rings (size 3 to 8) (size 9 to 14) (size 15 to 20)
#    2.000    0.000    0.000    1.000    9.333    1.333 
#    3.000    0.000    0.000    0.000    0.000    0.000 
#    0.000    0.000    0.000    0.000    0.000    0.000 
#
# Total GULP energy -148676.459241 kJ/mol
# GULP energy per Si atom -12389.704937 kJ/mol
# Density = 2.222105 g / cm^3
# Si number density = 22.271739 Si / 1000 Ang^3
#
#
#
# Elastic Constant Matrix: (Units=GPa)
#
#
# Indices 1 2 3 4 5 6 
#
# 1 135.7516 37.3489 43.1409 0.0000 -8.9513 0.0000
# 2 37.3489 134.7956 34.5389 0.0000 0.8334 0.0000
# 3 43.1409 34.5389 110.0764 0.0000 23.6507 0.0000
# 4 0.0000 0.0000 0.0000 21.0314 0.0000 10.5989
# 5 -8.9513 0.8334 23.6507 0.0000 30.4220 0.0000
# 6 0.0000 0.0000 0.0000 10.5989 0.0000 21.8808
#
#
#
# Elastic Compliance Matrix: (Units=1/GPa)
#
#
# Indices 1 2 3 4 5 6 
#
# 1 0.009731 -0.001518 -0.004756 0.000000 0.006602 0.000000
# 2 -0.001518 0.008417 -0.002282 0.000000 0.001096 0.000000
# 3 -0.004756 -0.002282 0.014348 0.000000 -0.012491 0.000000
# 4 0.000000 0.000000 0.000000 0.062903 0.000000 -0.030470
# 5 0.006602 0.001096 -0.012491 0.000000 0.044494 0.000000
# 6 0.000000 0.000000 0.000000 -0.030470 0.000000 0.060462
#
#
# Mechanical properties :
#
#
# Convention : Reuss Voigt Hill
#
# Bulk Modulus (GPa) = 64.99914 67.85345 66.42630
# Shear Modulus (GPa) = 22.46230 32.37317 27.41774
#
# Velocity S-wave (km/s) = 3.17922 3.81669 3.51245
# Velocity P-wave (km/s) = 6.53640 7.06789 6.80734
#
# Compressibility (1/GPa) = 0.01538482
#
# Stress axis : x y z
#
# Youngs Moduli (GPa) = 102.76637 118.80446 69.69532
#
# Poissons Ratio (x) = 0.18040 0.33145
# Poissons Ratio (y) = 0.15605 0.15901
# Poissons Ratio (z) = 0.48873 0.27106
#
# Static dielectric constant tensor:
#      x y z
#    x 3.760610 0.000000 -0.056290 
#    y 0.000000 3.756040 0.000000 
#    z -0.056290 0.000000 3.810450 
# 
# 
# High freq. dielectric constant tensor:
#      x y z
#    x 1.861220 0.000000 0.007930 
#    y 0.000000 1.869260 0.000000 
#    z 0.007930 0.000000 1.869410 
# 
# From -- ./inp_files/3405.got.cif
#   From: 2010.03.12/outbox.cif.g09.slc.cpg/sg3_2_cif.got.tgz:3405.got - 2010.03.31 09:20:49.
