data_PCOD8045014
_publ_section_title
;
Structure prediction by ZEFSAII (Michael W. Deem and Ramdas Pophale) SiO2 
 PCOD8045014
Probable space group: P 2
;
_chemical_formula_sum "Si O2"
_cell_formula_units_Z 16
_cell_length_a 8.613140
_cell_length_b 9.364403
_cell_length_c 20.150280
_cell_angle_alpha 90.000000
_cell_angle_beta 29.509793
_cell_angle_gamma 90.000000
_cell_volume 800.557785
_symmetry_space_group_name_H-M "P 2"
_symmetry_group_IT_number 3
_symmetry_cell_setting 'monoclinic'
loop_
_space_group_symop_operation_xyz
x,y,z
-x,y,-z
loop_
_atom_site_type_symbol
_atom_site_label
_atom_site_fract_x
_atom_site_fract_y
_atom_site_fract_z
Si Si1 0.862381 0.897040 0.364508
Si Si2 0.754607 0.498341 0.042711
Si Si3 0.649378 0.187614 0.122772
Si Si4 0.920317 0.086311 0.602042
Si Si5 0.063759 0.575682 0.291308
Si Si6 0.934006 0.395119 0.210204
Si Si7 0.749987 0.106430 0.857298
Si Si8 0.804235 0.384919 0.506504
O O1 0.500000 0.934252 0.500000
O O2 0.915077 0.730077 0.338840
O O3 0.018883 0.952878 0.373560
O O4 0.001965 0.982090 0.249914
O O5 0.669230 0.357509 0.116687
O O6 0.440775 0.593131 0.156451
O O7 0.000000 0.581697 0.000000
O O8 0.893335 0.459843 0.918744
O O9 0.448904 0.131811 0.260085
O O10 0.447308 0.147711 0.133887
O O11 0.000000 0.120094 0.000000
O O12 0.000000 0.030605 0.500000
O O13 0.123804 0.225665 0.547458
O O14 0.997988 0.492650 0.248890
O O15 0.897496 0.497706 0.415111
O O16 0.561110 0.391515 0.337709
O O17 0.076830 0.239759 0.172389
O O18 0.500000 0.037972 0.000000
O O19 0.000000 0.418237 0.500000
#
# Coordination Sequence:
#
# PCOD8045014 Si02
#       8
#     2   2   2   2   2   2   2   2
#     4  11  25  42  60  86 126 170 204 251 304 366
#     4  11  22  39  64  94 125 155 200 263 319 365
#     4  10  20  35  60  91 124 156 192 252 312 363
#     4  10  22  40  62  92 122 158 205 256 308 365
#     4  12  23  43  60  89 127 166 212 252 305 368
#     4  12  22  38  66  93 122 159 206 263 315 366
#     4  11  21  39  61  93 120 159 205 257 309 366
#     4  11  23  38  64  96 122 157 209 262 312 366
#
# _framework density 19.986065
#
# number of rings (size 3 to 8) (size 9 to 14) (size 15 to 20)
#    0.000    1.000    3.750    3.750    5.250    2.500 
#    0.000    3.750    0.000    0.000    0.000    0.000 
#    0.000    0.000    0.000    0.000    0.000    0.000 
#
# Total GULP energy -198362.074058 kJ/mol
# GULP energy per Si atom -12397.629629 kJ/mol
# Density = 1.994058 g / cm^3
# Si number density = 19.986065 Si / 1000 Ang^3
#
#
#
# Elastic Constant Matrix: (Units=GPa)
#
#
# Indices 1 2 3 4 5 6 
#
# 1 79.5514 3.9401 38.5774 0.0000 -0.4664 0.0000
# 2 3.9401 66.5645 22.5288 0.0000 12.2590 0.0000
# 3 38.5774 22.5288 158.0809 0.0000 -4.5745 0.0000
# 4 0.0000 0.0000 0.0000 36.7276 0.0000 2.9005
# 5 -0.4664 12.2590 -4.5745 0.0000 47.0979 0.0000
# 6 0.0000 0.0000 0.0000 2.9005 0.0000 11.6171
#
#
#
# Elastic Compliance Matrix: (Units=1/GPa)
#
#
# Indices 1 2 3 4 5 6 
#
# 1 0.014270 0.000414 -0.003550 0.000000 -0.000311 0.000000
# 2 0.000414 0.016733 -0.002619 0.000000 -0.004606 0.000000
# 3 -0.003550 -0.002619 0.007606 0.000000 0.001385 0.000000
# 4 0.000000 0.000000 0.000000 0.027775 0.000000 -0.006935
# 5 -0.000311 -0.004606 0.001385 0.000000 0.022563 0.000000
# 6 0.000000 0.000000 0.000000 -0.006935 0.000000 0.087811
#
#
# Mechanical properties :
#
#
# Convention : Reuss Voigt Hill
#
# Bulk Modulus (GPa) = 36.90269 48.25438 42.57853
# Shear Modulus (GPa) = 25.34197 35.03188 30.18693
#
# Velocity S-wave (km/s) = 3.56474 4.19121 3.89060
# Velocity P-wave (km/s) = 5.95377 6.90058 6.44459
#
# Compressibility (1/GPa) = 0.02709830
#
# Stress axis : x y z
#
# Youngs Moduli (GPa) = 70.07769 59.76154 131.48113
#
# Poissons Ratio (x) = -0.02476 0.46681
# Poissons Ratio (y) = -0.02904 0.34436
# Poissons Ratio (z) = 0.24881 0.15652
#
# Static dielectric constant tensor:
#      x y z
#    x 3.829590 0.000000 -0.041960 
#    y 0.000000 3.338480 0.000000 
#    z -0.041960 0.000000 4.343590 
# 
# 
# High freq. dielectric constant tensor:
#      x y z
#    x 1.788810 0.000000 -0.002330 
#    y 0.000000 1.745620 0.000000 
#    z -0.002330 0.000000 1.811430 
# 
# From -- ./inp_files/15820.got.cif
#   From: 2010.03.12/outbox.cif.g09.slc.cpg/sg3_8_cif.got.tgz:15820.got - 2010.03.31 09:20:49.
