data_PCOD8045257
_publ_section_title
;
Structure prediction by ZEFSAII (Michael W. Deem and Ramdas Pophale) SiO2 
 PCOD8045257
Probable space group: P 2
;
_chemical_formula_sum "Si O2"
_cell_formula_units_Z 10
_cell_length_a 10.634831
_cell_length_b 5.042357
_cell_length_c 15.091121
_cell_angle_alpha 90.000000
_cell_angle_beta 34.636242
_cell_angle_gamma 90.000000
_cell_volume 459.951962
_symmetry_space_group_name_H-M "P 2"
_symmetry_group_IT_number 3
_symmetry_cell_setting 'monoclinic'
loop_
_space_group_symop_operation_xyz
x,y,z
-x,y,-z
loop_
_atom_site_type_symbol
_atom_site_label
_atom_site_fract_x
_atom_site_fract_y
_atom_site_fract_z
Si Si1 0.613754 0.818220 0.523430
Si Si2 0.163343 0.939758 0.824476
Si Si3 0.119678 0.445939 0.736153
Si Si4 0.951430 0.938502 0.629112
Si Si5 0.747552 0.421193 0.824290
O O1 0.500000 0.949977 0.500000
O O2 0.407376 0.823703 0.712463
O O3 0.695947 0.521054 0.446981
O O4 0.821512 0.975221 0.445029
O O5 0.059993 0.726141 0.817394
O O6 0.199790 0.226622 0.758622
O O7 0.000000 0.977782 0.000000
O O8 0.894998 0.342475 0.823246
O O9 0.798456 0.712087 0.759164
O O10 0.000000 0.862448 0.500000
O O11 0.808732 0.207802 0.712889
O O12 0.500000 0.397257 0.000000
#
# Coordination Sequence:
#
# PCOD8045257 Si02
#       5
#     2   2   2   2   2
#     4   9  21  39  64  87 121 165 203 240 300 376
#     4  11  23  39  62  95 124 155 202 265 310 348
#     4  10  22  40  60  89 123 163 208 246 304 377
#     4  11  24  41  62  94 125 159 206 257 307 358
#     4  11  23  41  64  87 120 166 208 250 303 369
#
# _framework density 21.741399000000001
#
# number of rings (size 3 to 8) (size 9 to 14) (size 15 to 20)
#    0.000    1.600    0.000    5.400    0.000   18.400 
#    0.000    0.000    0.000    0.000    0.000    0.000 
#    0.000    0.000    0.000    0.000    0.000    0.000 
#
# Total GULP energy -123888.080434 kJ/mol
# GULP energy per Si atom -12388.808043 kJ/mol
# Density = 2.169191 g / cm^3
# Si number density = 21.741399 Si / 1000 Ang^3
#
#
#
# Elastic Constant Matrix: (Units=GPa)
#
#
# Indices 1 2 3 4 5 6 
#
# 1 82.5532 19.6090 55.1453 0.0000 -13.2898 0.0000
# 2 19.6090 108.5472 54.5495 0.0000 1.7544 0.0000
# 3 55.1453 54.5495 200.1677 0.0000 -17.8124 0.0000
# 4 0.0000 0.0000 0.0000 27.3611 0.0000 5.3007
# 5 -13.2898 1.7544 -17.8124 0.0000 26.7273 0.0000
# 6 0.0000 0.0000 0.0000 5.3007 0.0000 24.0886
#
#
#
# Elastic Compliance Matrix: (Units=1/GPa)
#
#
# Indices 1 2 3 4 5 6 
#
# 1 0.015609 -0.001152 -0.003496 0.000000 0.005507 0.000000
# 2 -0.001152 0.010961 -0.002960 0.000000 -0.003265 0.000000
# 3 -0.003496 -0.002960 0.007046 0.000000 0.003152 0.000000
# 4 0.000000 0.000000 0.000000 0.038176 0.000000 -0.008401
# 5 0.005507 -0.003265 0.003152 0.000000 0.042468 0.000000
# 6 0.000000 0.000000 0.000000 -0.008401 0.000000 0.043362
#
#
# Mechanical properties :
#
#
# Convention : Reuss Voigt Hill
#
# Bulk Modulus (GPa) = 54.34905 72.20841 63.27873
# Shear Modulus (GPa) = 27.93736 33.09972 30.51854
#
# Velocity S-wave (km/s) = 3.58856 3.90606 3.75067
# Velocity P-wave (km/s) = 6.49789 7.32309 6.92279
#
# Compressibility (1/GPa) = 0.01839959
#
# Stress axis : x y z
#
# Youngs Moduli (GPa) = 64.06556 91.23154 141.91938
#
# Poissons Ratio (x) = 0.10507 0.49619
# Poissons Ratio (y) = 0.07379 0.42013
# Poissons Ratio (z) = 0.22399 0.27008
#
# Static dielectric constant tensor:
#      x y z
#    x 3.829420 0.000000 -0.156040 
#    y 0.000000 3.886310 0.000000 
#    z -0.156040 0.000000 4.252820 
# 
# 
# High freq. dielectric constant tensor:
#      x y z
#    x 1.829030 0.000000 -0.011940 
#    y 0.000000 1.863210 0.000000 
#    z -0.011940 0.000000 1.859480 
# 
# From -- ./inp_files/15143.got.cif
#   From: 2010.03.12/outbox.cif.g09.slc.cpg/sg3_8_cif.got.tgz:15143.got - 2010.03.31 09:20:49.
