data_PCOD8045538
_publ_section_title
;
Structure prediction by ZEFSAII (Michael W. Deem and Ramdas Pophale) SiO2 
 PCOD8045538
Probable space group: P 2
;
_chemical_formula_sum "Si O2"
_cell_formula_units_Z 13
_cell_length_a 21.184263
_cell_length_b 5.198838
_cell_length_c 15.027434
_cell_angle_alpha 90.000000
_cell_angle_beta 19.542559
_cell_angle_gamma 90.000000
_cell_volume 553.617267
_symmetry_space_group_name_H-M "P 2"
_symmetry_group_IT_number 3
_symmetry_cell_setting 'monoclinic'
loop_
_space_group_symop_operation_xyz
x,y,z
-x,y,-z
loop_
_atom_site_type_symbol
_atom_site_label
_atom_site_fract_x
_atom_site_fract_y
_atom_site_fract_z
Si Si1 0.418609 0.406690 0.011019
Si Si2 0.000000 0.753933 0.000000
Si Si3 0.232578 0.385025 0.573251
Si Si4 0.704555 0.854173 0.092042
Si Si5 0.311571 0.075022 0.636845
Si Si6 0.777270 0.886964 0.793982
Si Si7 0.153911 0.338641 0.004712
O O1 0.590414 0.480954 0.717902
O O2 0.500000 0.356462 0.000000
O O3 0.276953 0.650428 0.199308
O O4 0.314460 0.149962 0.117813
O O5 0.841842 0.603073 0.262890
O O6 0.881176 0.918270 0.086397
O O7 0.303764 0.158955 0.543943
O O8 0.065157 0.309685 0.729344
O O9 0.798946 0.613337 0.015470
O O10 0.494008 0.899084 0.409774
O O11 0.817454 0.116894 0.960339
O O12 0.701465 0.806164 0.991415
O O13 0.294005 0.304163 0.732874
O O14 0.000000 0.924373 0.500000
#
# Coordination Sequence:
#
# PCOD8045538 Si02
#       7
#     2   1   2   2   2   2   2
#     4  12  29  52  83 115 144 198 263 321 370 452
#     4  12  22  44  76 106 152 204 252 300 378 444
#     4  12  26  45  77 106 157 196 257 310 381 433
#     4  12  29  47  74 107 159 195 249 304 382 451
#     4  12  25  47  70 111 152 205 248 306 371 454
#     4  12  28  54  80 110 152 199 247 317 395 442
#     4  12  27  45  72 112 149 204 244 306 360 466
#
# _framework density 23.481926000000001
#
# number of rings (size 3 to 8) (size 9 to 14) (size 15 to 20)
#    0.000    0.000    4.615    4.154    6.462    2.462 
#    0.000    0.000    0.000    0.000    0.000    0.000 
#    0.000    0.000    0.000    0.000    0.000    0.000 
#
# Total GULP energy -161204.465596 kJ/mol
# GULP energy per Si atom -12400.343507 kJ/mol
# Density = 2.342848 g / cm^3
# Si number density = 23.481926 Si / 1000 Ang^3
#
#
#
# Elastic Constant Matrix: (Units=GPa)
#
#
# Indices 1 2 3 4 5 6 
#
# 1 117.0829 46.9863 41.9471 0.0000 -7.0045 0.0000
# 2 46.9863 134.9624 43.1282 0.0000 -7.1472 0.0000
# 3 41.9471 43.1282 117.2816 0.0000 -1.1743 0.0000
# 4 0.0000 0.0000 0.0000 33.4132 0.0000 -12.8553
# 5 -7.0045 -7.1472 -1.1743 0.0000 33.0177 0.0000
# 6 0.0000 0.0000 0.0000 -12.8553 0.0000 42.6049
#
#
#
# Elastic Compliance Matrix: (Units=1/GPa)
#
#
# Indices 1 2 3 4 5 6 
#
# 1 0.010752 -0.002760 -0.002815 0.000000 0.001583 0.000000
# 2 -0.002760 0.009202 -0.002384 0.000000 0.001322 0.000000
# 3 -0.002815 -0.002384 0.010402 0.000000 -0.000743 0.000000
# 4 0.000000 0.000000 0.000000 0.033859 0.000000 0.010216
# 5 0.001583 0.001322 -0.000743 0.000000 0.030882 0.000000
# 6 0.000000 0.000000 0.000000 0.010216 0.000000 0.026554
#
#
# Mechanical properties :
#
#
# Convention : Reuss Voigt Hill
#
# Bulk Modulus (GPa) = 69.25342 70.38335 69.81839
# Shear Modulus (GPa) = 35.11715 37.62485 36.37100
#
# Velocity S-wave (km/s) = 3.87136 4.00720 3.93987
# Velocity P-wave (km/s) = 7.03843 7.17278 7.10592
#
# Compressibility (1/GPa) = 0.01443972
#
# Stress axis : x y z
#
# Youngs Moduli (GPa) = 93.00908 108.67265 96.13285
#
# Poissons Ratio (x) = 0.29991 0.27059
# Poissons Ratio (y) = 0.25669 0.22914
# Poissons Ratio (z) = 0.26179 0.25903
#
# Static dielectric constant tensor:
#      x y z
#    x 4.689610 0.000000 -0.214840 
#    y 0.000000 4.247350 0.000000 
#    z -0.214840 0.000000 4.201350 
# 
# 
# High freq. dielectric constant tensor:
#      x y z
#    x 1.947640 0.000000 -0.018910 
#    y 0.000000 1.938270 0.000000 
#    z -0.018910 0.000000 1.928380 
# 
# From -- ./inp_files/14272.got.cif
#   From: 2010.03.12/outbox.cif.g09.slc.cpg/sg3_8_cif.got.tgz:14272.got - 2010.03.31 09:20:49.
