data_PCOD8045934
_publ_section_title
;
Structure prediction by ZEFSAII (Michael W. Deem and Ramdas Pophale) SiO2 
 PCOD8045934
Probable space group: P 21
;
_chemical_formula_sum "Si O2"
_cell_formula_units_Z 14
_cell_length_a 11.515479
_cell_length_b 8.518893
_cell_length_c 15.409431
_cell_angle_alpha 90.000000
_cell_angle_beta 25.191779
_cell_angle_gamma 90.000000
_cell_volume 643.433783
_symmetry_space_group_name_H-M "P 21"
_symmetry_group_IT_number 4
_symmetry_cell_setting 'monoclinic'
loop_
_space_group_symop_operation_xyz
x,y,z
-x,1/2+y,-z
loop_
_atom_site_type_symbol
_atom_site_label
_atom_site_fract_x
_atom_site_fract_y
_atom_site_fract_z
Si Si1 0.391095 0.211900 0.830848
Si Si2 0.274985 0.143533 0.452708
Si Si3 0.511223 0.874387 0.804342
Si Si4 0.130755 0.916195 0.410392
Si Si5 0.850418 0.142115 0.283560
Si Si6 0.448035 0.388086 0.622816
Si Si7 0.099399 0.918187 0.238712
O O1 0.642530 0.299625 0.705353
O O2 0.320608 0.278606 0.783453
O O3 0.470461 0.029504 0.774424
O O4 0.112424 0.235002 0.071875
O O5 0.541804 0.228806 0.227140
O O6 0.090829 0.266590 0.628560
O O7 0.105178 0.067109 0.488799
O O8 0.349626 0.013654 0.472186
O O9 0.828207 0.844878 0.613748
O O10 0.334533 0.876469 0.010561
O O11 0.224615 0.958844 0.248354
O O12 0.608748 0.269567 0.449987
O O13 0.782200 0.986910 0.271980
O O14 0.926440 0.071599 0.326530
#
# Coordination Sequence:
#
# PCOD8045934 Si02
#       7
#     2   2   2   2   2   2   2
#     4  10  24  42  63  92 124 162 208 255 304 363
#     4  10  22  37  59  89 122 162 203 251 307 362
#     4  10  20  37  61  90 124 162 203 251 311 363
#     4  10  21  38  59  91 127 164 201 249 308 362
#     4  11  25  42  66  93 121 165 207 253 311 361
#     4  11  24  43  64  88 124 161 206 258 304 364
#     4  10  22  39  62  91 124 160 208 255 301 369
#
# _framework density 21.75826
#
# number of rings (size 3 to 8) (size 9 to 14) (size 15 to 20)
#    0.000    1.714    0.000    4.286    0.000   13.714 
#    0.000    0.000    0.000    0.000    0.000    0.000 
#    0.000    0.000    0.000    0.000    0.000    0.000 
#
# Total GULP energy -173509.600594 kJ/mol
# GULP energy per Si atom -12393.542900 kJ/mol
# Density = 2.170874 g / cm^3
# Si number density = 21.758260 Si / 1000 Ang^3
#
#
#
# Elastic Constant Matrix: (Units=GPa)
#
#
# Indices 1 2 3 4 5 6 
#
# 1 63.7189 4.8591 17.8666 0.0000 7.9079 0.0000
# 2 4.8591 68.8973 26.6764 0.0000 0.3141 0.0000
# 3 17.8666 26.6764 113.3592 0.0000 7.7829 0.0000
# 4 0.0000 0.0000 0.0000 34.4506 0.0000 3.2196
# 5 7.9079 0.3141 7.7829 0.0000 24.1436 0.0000
# 6 0.0000 0.0000 0.0000 3.2196 0.0000 37.3546
#
#
#
# Elastic Compliance Matrix: (Units=1/GPa)
#
#
# Indices 1 2 3 4 5 6 
#
# 1 0.016951 -0.000294 -0.002272 0.000000 -0.004816 0.000000
# 2 -0.000294 0.015999 -0.003795 0.000000 0.001111 0.000000
# 3 -0.002272 -0.003795 0.010245 0.000000 -0.002509 0.000000
# 4 0.000000 0.000000 0.000000 0.029263 0.000000 -0.002522
# 5 -0.004816 0.001111 -0.002509 0.000000 0.043791 0.000000
# 6 0.000000 0.000000 0.000000 -0.002522 0.000000 0.026988
#
#
# Mechanical properties :
#
#
# Convention : Reuss Voigt Hill
#
# Bulk Modulus (GPa) = 32.81515 38.30887 35.56201
# Shear Modulus (GPa) = 30.09938 32.29462 31.19700
#
# Velocity S-wave (km/s) = 3.72338 3.85677 3.79066
# Velocity P-wave (km/s) = 5.79648 6.12191 5.96141
#
# Compressibility (1/GPa) = 0.03047372
#
# Stress axis : x y z
#
# Youngs Moduli (GPa) = 58.99343 62.50216 97.60926
#
# Poissons Ratio (x) = 0.01837 0.22175
# Poissons Ratio (y) = 0.01734 0.37044
# Poissons Ratio (z) = 0.13402 0.23720
#
# Static dielectric constant tensor:
#      x y z
#    x 4.040250 0.000000 0.187750 
#    y 0.000000 4.327310 0.000000 
#    z 0.187750 0.000000 3.857520 
# 
# 
# High freq. dielectric constant tensor:
#      x y z
#    x 1.854320 0.000000 0.013880 
#    y 0.000000 1.871920 0.000000 
#    z 0.013880 0.000000 1.848390 
# 
# From -- ./inp_files/11925.got.cif
#   From: 2010.03.12/outbox.cif.g09.slc.cpg/sg4_6_cif.got.tgz:11925.got - 2010.03.31 09:31:35.
