data_PCOD8045384
_publ_section_title
;
Structure prediction by ZEFSAII (Michael W. Deem and Ramdas Pophale) SiO2 
 PCOD8045384
Probable space group: P 2
;
_chemical_formula_sum "Si O2"
_cell_formula_units_Z 13
_cell_length_a 15.859092
_cell_length_b 6.364316
_cell_length_c 9.472920
_cell_angle_alpha 90.000000
_cell_angle_beta 35.607584
_cell_angle_gamma 90.000000
_cell_volume 556.684262
_symmetry_space_group_name_H-M "P 2"
_symmetry_group_IT_number 3
_symmetry_cell_setting 'monoclinic'
loop_
_space_group_symop_operation_xyz
x,y,z
-x,y,-z
loop_
_atom_site_type_symbol
_atom_site_label
_atom_site_fract_x
_atom_site_fract_y
_atom_site_fract_z
Si Si1 0.500000 0.471160 0.500000
Si Si2 0.986164 0.751831 0.336229
Si Si3 0.500000 0.592976 0.000000
Si Si4 0.000000 0.386094 0.500000
Si Si5 0.511313 0.241225 0.193743
Si Si6 0.284763 0.910951 0.430332
Si Si7 0.787727 0.049091 0.897085
Si Si8 0.759187 0.787319 0.189269
O O1 0.488466 0.314670 0.383889
O O2 0.640361 0.618992 0.300235
O O3 0.924783 0.535936 0.484055
O O4 0.863717 0.924196 0.458657
O O5 0.103196 0.856202 0.291204
O O6 0.080696 0.697644 0.066586
O O7 0.439168 0.444078 0.959727
O O8 0.626990 0.731230 0.766137
O O9 0.876182 0.262103 0.751885
O O10 0.367434 0.134470 0.322344
O O11 0.638902 0.063561 0.010002
O O12 0.252485 0.834038 0.631137
O O13 0.741549 0.007188 0.124073
#
# Coordination Sequence:
#
# PCOD8045384 Si02
#       8
#     1   2   1   1   2   2   2   2
#     4  12  22  48  80 108 138 200 256 314 358 444
#     4  10  26  43  76 105 151 193 237 310 366 439
#     4  12  28  44  72 112 150 196 244 312 376 432
#     4  12  22  46  74 112 146 196 254 292 372 450
#     4  12  26  45  76 108 144 196 255 301 373 443
#     4  12  25  49  71 107 154 192 244 311 375 442
#     4  10  25  43  73 107 141 196 249 303 355 442
#     4  10  23  46  73 105 145 192 246 306 372 425
#
# _framework density 23.352556
#
# number of rings (size 3 to 8) (size 9 to 14) (size 15 to 20)
#    0.923    0.000    1.538    5.077    0.000    6.154 
#    0.000    0.000    3.385    0.000    0.000    0.000 
#    0.000    0.000    0.000    0.000    0.000    0.000 
#
# Total GULP energy -161066.004833 kJ/mol
# GULP energy per Si atom -12389.692679 kJ/mol
# Density = 2.329940 g / cm^3
# Si number density = 23.352556 Si / 1000 Ang^3
#
#
#
# Elastic Constant Matrix: (Units=GPa)
#
#
# Indices 1 2 3 4 5 6 
#
# 1 97.9677 41.1837 37.0517 0.0000 -11.5153 0.0000
# 2 41.1837 114.3089 59.8401 0.0000 -0.7128 0.0000
# 3 37.0517 59.8401 108.4962 0.0000 -6.2026 0.0000
# 4 0.0000 0.0000 0.0000 105.6502 0.0000 26.4973
# 5 -11.5153 -0.7128 -6.2026 0.0000 40.0094 0.0000
# 6 0.0000 0.0000 0.0000 26.4973 0.0000 55.4782
#
#
#
# Elastic Compliance Matrix: (Units=1/GPa)
#
#
# Indices 1 2 3 4 5 6 
#
# 1 0.012912 -0.003405 -0.002343 0.000000 0.003292 0.000000
# 2 -0.003405 0.013225 -0.006229 0.000000 -0.001710 0.000000
# 3 -0.002343 -0.006229 0.013528 0.000000 0.001312 0.000000
# 4 0.000000 0.000000 0.000000 0.010753 0.000000 -0.005136
# 5 0.003292 -0.001710 0.001312 0.000000 0.026115 0.000000
# 6 0.000000 0.000000 0.000000 -0.005136 0.000000 0.020478
#
#
# Mechanical properties :
#
#
# Convention : Reuss Voigt Hill
#
# Bulk Modulus (GPa) = 63.65261 66.32488 64.98875
# Shear Modulus (GPa) = 39.61878 52.40738 46.01308
#
# Velocity S-wave (km/s) = 4.12339 4.74242 4.44370
# Velocity P-wave (km/s) = 7.07009 7.64530 7.36331
#
# Compressibility (1/GPa) = 0.01571027
#
# Stress axis : x y z
#
# Youngs Moduli (GPa) = 77.44739 75.61308 73.92122
#
# Poissons Ratio (x) = 0.25744 0.17323
# Poissons Ratio (y) = 0.26368 0.46048
# Poissons Ratio (z) = 0.18149 0.47102
#
# Static dielectric constant tensor:
#      x y z
#    x 3.540150 0.000000 0.446390 
#    y 0.000000 4.045070 0.000000 
#    z 0.446390 0.000000 4.284330 
# 
# 
# High freq. dielectric constant tensor:
#      x y z
#    x 1.914460 0.000000 0.009550 
#    y 0.000000 1.914770 0.000000 
#    z 0.009550 0.000000 1.954050 
# 
# From -- ./inp_files/8202.got.cif
#   From: 2010.03.12/outbox.cif.g09.slc.cpg/sg3_5_cif.got.tgz:8202.got - 2010.03.31 09:20:49.
