data_PCOD8045229
_publ_section_title
;
Structure prediction by ZEFSAII (Michael W. Deem and Ramdas Pophale) SiO2 
 PCOD8045229
Probable space group: P 2
;
_chemical_formula_sum "Si O2"
_cell_formula_units_Z 12
_cell_length_a 14.363043
_cell_length_b 8.862002
_cell_length_c 7.075773
_cell_angle_alpha 90.000000
_cell_angle_beta 139.655090
_cell_angle_gamma 90.000000
_cell_volume 583.064266
_symmetry_space_group_name_H-M "P 2"
_symmetry_group_IT_number 3
_symmetry_cell_setting 'monoclinic'
loop_
_space_group_symop_operation_xyz
x,y,z
-x,y,-z
loop_
_atom_site_type_symbol
_atom_site_label
_atom_site_fract_x
_atom_site_fract_y
_atom_site_fract_z
Si Si1 0.338080 0.692960 0.700622
Si Si2 0.838080 0.405531 0.700621
Si Si3 0.353778 0.905338 0.370502
Si Si4 0.157031 0.854569 0.724220
Si Si5 0.342969 0.243922 0.275781
Si Si6 0.146222 0.193153 0.629499
O O1 0.249999 0.549246 0.500000
O O2 0.333244 0.824904 0.538479
O O3 0.264918 0.749676 0.778123
O O4 0.500000 0.644812 0.000000
O O5 0.764916 0.348816 0.778120
O O6 0.833243 0.273587 0.538478
O O7 0.000000 0.453678 0.000000
O O8 0.500000 0.845766 0.500000
O O9 0.362316 0.085078 0.415423
O O10 0.216975 0.872147 0.028071
O O11 0.000000 0.777463 0.500000
O O12 0.137684 0.013413 0.584578
O O13 0.500000 0.321028 0.500000
O O14 0.283024 0.226344 0.971929
O O15 0.000000 0.252726 0.500000
#
# Coordination Sequence:
#
# PCOD8045229 Si02
#       6
#     2   2   2   2   2   2
#     4  12  27  43  62  94 133 173 209 255 315 381
#     4  12  27  43  62  94 133 173 209 255 315 381
#     4  10  21  44  69  93 124 165 213 267 316 367
#     4  10  23  42  70  96 121 162 216 267 316 369
#     4  10  23  42  70  96 121 162 216 267 316 369
#     4  10  21  44  69  93 124 165 213 267 316 367
#
# _framework density 20.580922000000001
#
# number of rings (size 3 to 8) (size 9 to 14) (size 15 to 20)
#    0.000    1.333    3.333    1.000    4.667    2.667 
#    0.000    0.000    0.000    0.000    0.000    0.000 
#    0.000    0.000    0.000    0.000    0.000    0.000 
#
# Total GULP energy -148852.144862 kJ/mol
# GULP energy per Si atom -12404.345405 kJ/mol
# Density = 2.053408 g / cm^3
# Si number density = 20.580922 Si / 1000 Ang^3
#
#
#
# Elastic Constant Matrix: (Units=GPa)
#
#
# Indices 1 2 3 4 5 6 
#
# 1 114.4788 27.0732 43.3821 0.0000 28.0289 0.0000
# 2 27.0732 64.4645 32.2412 0.0000 5.4045 0.0000
# 3 43.3821 32.2412 121.5346 0.0000 28.9063 0.0000
# 4 0.0000 0.0000 0.0000 28.4193 0.0000 6.1139
# 5 28.0289 5.4045 28.9063 0.0000 44.2711 0.0000
# 6 0.0000 0.0000 0.0000 6.1139 0.0000 17.4210
#
#
#
# Elastic Compliance Matrix: (Units=1/GPa)
#
#
# Indices 1 2 3 4 5 6 
#
# 1 0.011676 -0.003483 -0.001879 0.000000 -0.005741 0.000000
# 2 -0.003483 0.018968 -0.004454 0.000000 0.002798 0.000000
# 3 -0.001879 -0.004454 0.011446 0.000000 -0.005740 0.000000
# 4 0.000000 0.000000 0.000000 0.038061 0.000000 -0.013358
# 5 -0.005741 0.002798 -0.005740 0.000000 0.029629 0.000000
# 6 0.000000 0.000000 0.000000 -0.013358 0.000000 0.062090
#
#
# Mechanical properties :
#
#
# Convention : Reuss Voigt Hill
#
# Bulk Modulus (GPa) = 44.52577 56.20788 50.36683
# Shear Modulus (GPa) = 25.12717 31.20770 28.16744
#
# Velocity S-wave (km/s) = 3.49792 3.89825 3.70350
# Velocity P-wave (km/s) = 6.16404 6.90158 6.54321
#
# Compressibility (1/GPa) = 0.02245890
#
# Stress axis : x y z
#
# Youngs Moduli (GPa) = 85.64304 52.71956 87.37033
#
# Poissons Ratio (x) = 0.18362 0.16413
# Poissons Ratio (y) = 0.29829 0.38916
# Poissons Ratio (z) = 0.16088 0.23482
#
# Static dielectric constant tensor:
#      x y z
#    x 2.881940 0.000000 1.625970 
#    y 0.000000 3.657220 0.000000 
#    z 1.625970 0.000000 1.623490 
# 
# 
# High freq. dielectric constant tensor:
#      x y z
#    x 1.811900 0.000000 0.012840 
#    y 0.000000 1.789810 0.000000 
#    z 0.012840 0.000000 1.820090 
# 
# From -- ./inp_files/3120.got.cif
#   From: 2010.03.12/outbox.cif.g09.slc.cpg/sg3_2_cif.got.tgz:3120.got - 2010.03.31 09:20:49.
