data_PCOD8045200
_publ_section_title
;
Structure prediction by ZEFSAII (Michael W. Deem and Ramdas Pophale) SiO2 
 PCOD8045200
Probable space group: P 2
;
_chemical_formula_sum "Si O2"
_cell_formula_units_Z 10
_cell_length_a 13.405924
_cell_length_b 6.426839
_cell_length_c 14.249589
_cell_angle_alpha 90.000000
_cell_angle_beta 19.671977
_cell_angle_gamma 90.000000
_cell_volume 413.290534
_symmetry_space_group_name_H-M "P 2"
_symmetry_group_IT_number 3
_symmetry_cell_setting 'monoclinic'
loop_
_space_group_symop_operation_xyz
x,y,z
-x,y,-z
loop_
_atom_site_type_symbol
_atom_site_label
_atom_site_fract_x
_atom_site_fract_y
_atom_site_fract_z
Si Si1 0.314191 0.578940 0.249526
Si Si2 0.630231 0.952588 0.061449
Si Si3 0.436316 0.453158 0.454130
Si Si4 0.137552 0.227724 0.554853
Si Si5 0.059308 0.736449 0.050322
O O1 0.201787 0.414020 0.426180
O O2 0.000000 0.687881 0.500000
O O3 0.566924 0.741757 0.059994
O O4 0.500000 0.469541 0.000000
O O5 0.303035 0.022768 0.375527
O O6 0.797957 0.144031 0.859466
O O7 0.809047 0.909835 0.998316
O O8 0.500000 0.351763 0.500000
O O9 0.257197 0.288776 0.551190
O O10 0.249135 0.664666 0.631765
O O11 0.737449 0.528121 0.136900
O O12 0.000000 0.834808 0.000000
#
# Coordination Sequence:
#
# PCOD8045200 Si02
#       5
#     2   2   2   2   2
#     4  12  28  50  76  98 144 190 238 308 370 416
#     4  12  26  44  75 107 140 182 240 292 355 432
#     4  10  21  40  69 102 144 190 227 276 349 424
#     4  12  26  44  75 107 140 182 240 292 355 432
#     4  10  21  40  69 102 144 190 227 276 349 424
#
# _framework density 24.196055000000001
#
# number of rings (size 3 to 8) (size 9 to 14) (size 15 to 20)
#    0.000    0.800    2.000    4.800    2.800    4.800 
#    0.000    0.000    0.000    0.000    0.000    0.000 
#    0.000    0.000    0.000    0.000    0.000    0.000 
#
# Total GULP energy -123943.744317 kJ/mol
# GULP energy per Si atom -12394.374432 kJ/mol
# Density = 2.414098 g / cm^3
# Si number density = 24.196055 Si / 1000 Ang^3
#
#
#
# Elastic Constant Matrix: (Units=GPa)
#
#
# Indices 1 2 3 4 5 6 
#
# 1 126.0497 52.0585 42.6632 0.0000 -0.5390 0.0000
# 2 52.0585 87.9167 23.1441 0.0000 8.2628 0.0000
# 3 42.6632 23.1441 105.7327 0.0000 1.0309 0.0000
# 4 0.0000 0.0000 0.0000 46.4808 0.0000 -5.3461
# 5 -0.5390 8.2628 1.0309 0.0000 35.3099 0.0000
# 6 0.0000 0.0000 0.0000 -5.3461 0.0000 18.6134
#
#
#
# Elastic Compliance Matrix: (Units=1/GPa)
#
#
# Indices 1 2 3 4 5 6 
#
# 1 0.011621 -0.006158 -0.003358 0.000000 0.001717 0.000000
# 2 -0.006158 0.015606 -0.000895 0.000000 -0.003720 0.000000
# 3 -0.003358 -0.000895 0.011010 0.000000 -0.000163 0.000000
# 4 0.000000 0.000000 0.000000 0.022249 0.000000 0.006390
# 5 0.001717 -0.003720 -0.000163 0.000000 0.029222 0.000000
# 6 0.000000 0.000000 0.000000 0.006390 0.000000 0.055560
#
#
# Mechanical properties :
#
#
# Convention : Reuss Voigt Hill
#
# Bulk Modulus (GPa) = 57.42161 61.71454 59.56807
# Shear Modulus (GPa) = 29.08749 33.53637 31.31193
#
# Velocity S-wave (km/s) = 3.47098 3.72698 3.60125
# Velocity P-wave (km/s) = 6.31244 6.63942 6.47799
#
# Compressibility (1/GPa) = 0.01741505
#
# Stress axis : x y z
#
# Youngs Moduli (GPa) = 86.05448 64.07724 90.82573
#
# Poissons Ratio (x) = 0.39461 0.30496
# Poissons Ratio (y) = 0.52995 0.08128
# Poissons Ratio (z) = 0.28894 0.05734
#
# Static dielectric constant tensor:
#      x y z
#    x 4.661900 0.000000 -0.014820 
#    y 0.000000 3.736030 0.000000 
#    z -0.014820 0.000000 4.627700 
# 
# 
# High freq. dielectric constant tensor:
#      x y z
#    x 1.971630 0.000000 -0.002560 
#    y 0.000000 1.928650 0.000000 
#    z -0.002560 0.000000 1.984930 
# 
# From -- ./inp_files/9663.got.cif
#   From: 2010.03.12/outbox.cif.g09.slc.cpg/sg3_5_cif.got.tgz:9663.got - 2010.03.31 09:20:49.
