data_PCOD8045009
_publ_section_title
;
Structure prediction by ZEFSAII (Michael W. Deem and Ramdas Pophale) SiO2 
 PCOD8045009
Probable space group: P 2
;
_chemical_formula_sum "Si O2"
_cell_formula_units_Z 14
_cell_length_a 10.987750
_cell_length_b 13.608437
_cell_length_c 10.858868
_cell_angle_alpha 90.000000
_cell_angle_beta 154.183366
_cell_angle_gamma 90.000000
_cell_volume 707.102236
_symmetry_space_group_name_H-M "P 2"
_symmetry_group_IT_number 3
_symmetry_cell_setting 'monoclinic'
loop_
_space_group_symop_operation_xyz
x,y,z
-x,y,-z
loop_
_atom_site_type_symbol
_atom_site_label
_atom_site_fract_x
_atom_site_fract_y
_atom_site_fract_z
Si Si1 0.216817 0.664080 0.806683
Si Si2 0.830272 0.381599 0.469679
Si Si3 0.785444 0.879010 0.198140
Si Si4 0.969895 0.081691 0.324654
Si Si5 0.265365 0.482736 0.012001
Si Si6 0.485900 0.190480 0.746717
Si Si7 0.500000 0.283187 0.500000
Si Si8 0.000000 0.412777 0.000000
O O1 0.237798 0.772844 0.890840
O O2 0.156144 0.585669 0.858248
O O3 0.000000 0.656393 0.500000
O O4 0.500000 0.634789 0.000000
O O5 0.686003 0.275416 0.338671
O O6 0.000000 0.403596 0.500000
O O7 0.074773 0.391529 0.792768
O O8 0.589150 0.463234 0.274474
O O9 0.000000 0.856957 0.500000
O O10 0.883940 0.970853 0.204353
O O11 0.500000 0.913667 0.000000
O O12 0.000000 0.089645 0.500000
O O13 0.272901 0.099317 0.541219
O O14 0.751077 0.160701 0.071224
O O15 0.197649 0.482004 0.095565
O O16 0.576532 0.220509 0.691500
O O17 0.223443 0.346405 0.279726
#
# Coordination Sequence:
#
# PCOD8045009 Si02
#       8
#     2   2   2   2   2   2   1   1
#     4  10  20  35  57  86 116 146 187 235 299 358
#     4  12  24  37  55  85 119 152 186 242 307 350
#     4   9  18  34  56  83 116 150 182 230 291 366
#     4  11  22  37  59  89 119 148 192 241 302 356
#     4  12  22  38  58  83 115 156 197 243 284 348
#     4  12  23  39  59  83 116 158 200 243 283 350
#     4  12  24  44  60  78 114 164 218 240 278 344
#     4  12  22  42  60  78 114 162 214 242 278 338
#
# _framework density 19.799119000000001
#
# number of rings (size 3 to 8) (size 9 to 14) (size 15 to 20)
#    0.000    0.857    2.857    6.857    0.000    1.143 
#    0.000    0.714    0.000    1.714    0.000    0.000 
#    0.000    0.000    0.000    0.000    0.000    0.000 
#
# Total GULP energy -173498.875317 kJ/mol
# GULP energy per Si atom -12392.776808 kJ/mol
# Density = 1.975406 g / cm^3
# Si number density = 19.799119 Si / 1000 Ang^3
#
#
#
# Elastic Constant Matrix: (Units=GPa)
#
#
# Indices 1 2 3 4 5 6 
#
# 1 116.2315 43.7675 30.8898 0.0000 9.9907 0.0000
# 2 43.7675 97.9058 8.9870 0.0000 -1.9833 0.0000
# 3 30.8898 8.9870 100.7646 0.0000 7.9656 0.0000
# 4 0.0000 0.0000 0.0000 27.3283 0.0000 4.1581
# 5 9.9907 -1.9833 7.9656 0.0000 29.3318 0.0000
# 6 0.0000 0.0000 0.0000 4.1581 0.0000 17.7614
#
#
#
# Elastic Compliance Matrix: (Units=1/GPa)
#
#
# Indices 1 2 3 4 5 6 
#
# 1 0.011520 -0.004963 -0.002813 0.000000 -0.003496 0.000000
# 2 -0.004963 0.012463 0.000214 0.000000 0.002475 0.000000
# 3 -0.002813 0.000214 0.010925 0.000000 -0.001994 0.000000
# 4 0.000000 0.000000 0.000000 0.037944 0.000000 -0.008883
# 5 -0.003496 0.002475 -0.001994 0.000000 0.035992 0.000000
# 6 0.000000 0.000000 0.000000 -0.008883 0.000000 0.058381
#
#
# Mechanical properties :
#
#
# Convention : Reuss Voigt Hill
#
# Bulk Modulus (GPa) = 50.54140 53.57672 52.05906
# Shear Modulus (GPa) = 26.46307 30.30148 28.38228
#
# Velocity S-wave (km/s) = 3.65989 3.91634 3.79028
# Velocity P-wave (km/s) = 6.59107 6.89704 6.74579
#
# Compressibility (1/GPa) = 0.01978576
#
# Stress axis : x y z
#
# Youngs Moduli (GPa) = 86.80445 80.23862 91.53395
#
# Poissons Ratio (x) = 0.39819 0.25745
# Poissons Ratio (y) = 0.43077 -0.01960
# Poissons Ratio (z) = 0.24415 -0.01718
#
# Static dielectric constant tensor:
#      x y z
#    x 3.378650 0.000000 0.127890 
#    y 0.000000 3.868250 0.000000 
#    z 0.127890 0.000000 3.841540 
# 
# 
# High freq. dielectric constant tensor:
#      x y z
#    x 1.736880 0.000000 0.016830 
#    y 0.000000 1.766530 0.000000 
#    z 0.016830 0.000000 1.799530 
# 
# From -- ./inp_files/11953.got.cif
#   From: 2010.03.12/outbox.cif.g09.slc.cpg/sg3_6_cif.got.tgz:11953.got - 2010.03.31 09:20:49.
