data_PCOD8045118
_publ_section_title
;
Structure prediction by ZEFSAII (Michael W. Deem and Ramdas Pophale) SiO2 
 PCOD8045118
Probable space group: P 2
;
_chemical_formula_sum "Si O2"
_cell_formula_units_Z 13
_cell_length_a 13.782326
_cell_length_b 11.260237
_cell_length_c 8.550295
_cell_angle_alpha 90.000000
_cell_angle_beta 29.742094
_cell_angle_gamma 90.000000
_cell_volume 658.290347
_symmetry_space_group_name_H-M "P 2"
_symmetry_group_IT_number 3
_symmetry_cell_setting 'monoclinic'
loop_
_space_group_symop_operation_xyz
x,y,z
-x,y,-z
loop_
_atom_site_type_symbol
_atom_site_label
_atom_site_fract_x
_atom_site_fract_y
_atom_site_fract_z
Si Si1 0.298628 0.685220 0.993821
Si Si2 0.642850 0.429512 0.164142
Si Si3 0.091081 0.685217 0.616471
Si Si4 0.790892 0.260247 0.709105
Si Si5 0.050164 0.429511 0.756826
Si Si6 0.500000 0.067481 0.000000
Si Si7 0.597106 0.840525 0.708675
O O1 0.180078 0.683046 0.319923
O O2 0.143081 0.706733 0.070752
O O3 0.416822 0.560826 0.810176
O O4 0.462739 0.789817 0.755275
O O5 0.500000 0.383635 0.500000
O O6 0.641477 0.333215 0.027971
O O7 0.862698 0.440195 0.911911
O O8 0.143829 0.560824 0.629169
O O9 0.180757 0.789816 0.601224
O O10 0.810925 0.333207 0.519618
O O11 0.680693 0.139341 0.819315
O O12 0.000000 0.232314 0.500000
O O13 0.000000 0.383638 0.000000
O O14 0.587723 0.984045 0.736838
O O15 0.500000 0.782674 0.000000
#
# Coordination Sequence:
#
# PCOD8045118 Si02
#       7
#     2   2   2   2   2   1   2
#     4   9  16  31  54  79 114 142 170 227 289 342
#     4  10  21  35  56  90 117 150 185 231 299 357
#     4   9  16  31  54  79 114 142 170 227 289 342
#     4  10  22  39  55  81 121 150 195 240 280 338
#     4  10  21  35  56  90 117 150 185 231 299 357
#     4  10  22  34  58  86 100 158 212 232 274 328
#     4   8  18  31  50  87 102 138 192 231 270 335
#
# _framework density 19.748124000000001
#
# number of rings (size 3 to 8) (size 9 to 14) (size 15 to 20)
#    0.462    2.154    1.538    0.000    4.308    1.231 
#    0.000    0.000    0.000    1.846    0.000    0.000 
#    0.000    0.000    0.000    0.000    0.000    0.000 
#
# Total GULP energy -161075.573228 kJ/mol
# GULP energy per Si atom -12390.428710 kJ/mol
# Density = 1.970318 g / cm^3
# Si number density = 19.748124 Si / 1000 Ang^3
#
#
#
# Elastic Constant Matrix: (Units=GPa)
#
#
# Indices 1 2 3 4 5 6 
#
# 1 83.1461 61.9632 34.9174 0.0000 -13.2623 0.0000
# 2 61.9632 157.3559 48.4280 0.0000 -13.7696 0.0000
# 3 34.9174 48.4280 71.0814 0.0000 0.9938 0.0000
# 4 0.0000 0.0000 0.0000 16.1514 0.0000 -15.2213
# 5 -13.2623 -13.7696 0.9938 0.0000 32.0954 0.0000
# 6 0.0000 0.0000 0.0000 -15.2213 0.0000 31.1090
#
#
#
# Elastic Compliance Matrix: (Units=1/GPa)
#
#
# Indices 1 2 3 4 5 6 
#
# 1 0.019447 -0.005277 -0.006041 0.000000 0.005959 0.000000
# 2 -0.005277 0.009917 -0.004195 0.000000 0.002204 0.000000
# 3 -0.006041 -0.004195 0.019963 0.000000 -0.004914 0.000000
# 4 0.000000 0.000000 0.000000 0.114893 0.000000 0.056216
# 5 0.005959 0.002204 -0.004914 0.000000 0.034717 0.000000
# 6 0.000000 0.000000 0.000000 0.056216 0.000000 0.059651
#
#
# Mechanical properties :
#
#
# Convention : Reuss Voigt Hill
#
# Bulk Modulus (GPa) = 54.64337 66.91118 60.77727
# Shear Modulus (GPa) = 16.90821 26.95612 21.93216
#
# Velocity S-wave (km/s) = 2.92925 3.69859 3.33617
# Velocity P-wave (km/s) = 6.25867 7.22463 6.75893
#
# Compressibility (1/GPa) = 0.01830048
#
# Stress axis : x y z
#
# Youngs Moduli (GPa) = 51.42125 100.83728 50.09365
#
# Poissons Ratio (x) = 0.53215 0.30261
# Poissons Ratio (y) = 0.27136 0.21014
# Poissons Ratio (z) = 0.31063 0.42300
#
# Static dielectric constant tensor:
#      x y z
#    x 3.511400 0.000000 -0.371070 
#    y 0.000000 3.422820 0.000000 
#    z -0.371070 0.000000 3.146560 
# 
# 
# High freq. dielectric constant tensor:
#      x y z
#    x 1.768310 0.000000 -0.017000 
#    y 0.000000 1.744110 0.000000 
#    z -0.017000 0.000000 1.751590 
# 
# From -- ./inp_files/5509.got.cif
#   From: 2010.03.12/outbox.cif.g09.slc.cpg/sg3_3_cif.got.tgz:5509.got - 2010.03.31 09:20:49.
