data_PCOD8045099
_publ_section_title
;
Structure prediction by ZEFSAII (Michael W. Deem and Ramdas Pophale) SiO2 
 PCOD8045099
Probable space group: P 2
;
_chemical_formula_sum "Si O2"
_cell_formula_units_Z 8
_cell_length_a 12.556412
_cell_length_b 6.314690
_cell_length_c 6.349344
_cell_angle_alpha 90.000000
_cell_angle_beta 133.192327
_cell_angle_gamma 90.000000
_cell_volume 367.037042
_symmetry_space_group_name_H-M "P 2"
_symmetry_group_IT_number 3
_symmetry_cell_setting 'monoclinic'
loop_
_space_group_symop_operation_xyz
x,y,z
-x,y,-z
loop_
_atom_site_type_symbol
_atom_site_label
_atom_site_fract_x
_atom_site_fract_y
_atom_site_fract_z
Si Si1 0.609036 0.771870 0.476725
Si Si2 0.250433 0.385558 0.553018
Si Si3 0.500000 0.090444 0.000000
Si Si4 0.000000 0.283660 0.500000
Si Si5 0.858240 0.068507 0.930435
O O1 0.500000 0.665329 0.500000
O O2 0.668429 0.603310 0.389475
O O3 0.743773 0.877195 0.782290
O O4 0.515346 0.948908 0.228772
O O5 0.357406 0.236805 0.834355
O O6 0.105648 0.428990 0.498128
O O7 0.206403 0.273910 0.275522
O O8 0.100655 0.131584 0.777608
O O9 0.000000 0.982630 0.000000
#
# Coordination Sequence:
#
# PCOD8045099 Si02
#       5
#     2   2   1   1   2
#     4  11  23  39  63  92 122 158 200 246 298 359
#     4  10  22  39  62  93 122 155 201 249 299 354
#     4  10  22  42  62  88 122 158 200 246 302 356
#     4  10  20  42  66  84 122 164 196 248 302 350
#     4   9  21  40  61  89 122 157 201 250 298 351
#
# _framework density 21.796165999999999
#
# number of rings (size 3 to 8) (size 9 to 14) (size 15 to 20)
#    0.000    2.000    0.000    2.250    0.000   11.000 
#    0.000   12.500    0.000    0.000    0.000    0.000 
#    0.000    0.000    0.000    0.000    0.000    0.000 
#
# Total GULP energy -99219.665045 kJ/mol
# GULP energy per Si atom -12402.458131 kJ/mol
# Density = 2.174656 g / cm^3
# Si number density = 21.796166 Si / 1000 Ang^3
#
#
#
# Elastic Constant Matrix: (Units=GPa)
#
#
# Indices 1 2 3 4 5 6 
#
# 1 151.7657 66.5074 39.1266 0.0000 6.1998 0.0000
# 2 66.5074 104.4598 45.1596 0.0000 6.6117 0.0000
# 3 39.1266 45.1596 139.1092 0.0000 7.3052 0.0000
# 4 0.0000 0.0000 0.0000 10.7486 0.0000 3.2032
# 5 6.1998 6.6117 7.3052 0.0000 29.0146 0.0000
# 6 0.0000 0.0000 0.0000 3.2032 0.0000 26.4393
#
#
#
# Elastic Compliance Matrix: (Units=1/GPa)
#
#
# Indices 1 2 3 4 5 6 
#
# 1 0.009222 -0.005501 -0.000781 0.000000 -0.000520 0.000000
# 2 -0.005501 0.014496 -0.003088 0.000000 -0.001350 0.000000
# 3 -0.000781 -0.003088 0.008477 0.000000 -0.001264 0.000000
# 4 0.000000 0.000000 0.000000 0.096520 0.000000 -0.011694
# 5 -0.000520 -0.001350 -0.001264 0.000000 0.035203 0.000000
# 6 0.000000 0.000000 0.000000 -0.011694 0.000000 0.039239
#
#
# Mechanical properties :
#
#
# Convention : Reuss Voigt Hill
#
# Bulk Modulus (GPa) = 74.31632 77.43578 75.87605
# Shear Modulus (GPa) = 22.08660 29.54325 25.81492
#
# Velocity S-wave (km/s) = 3.18673 3.68561 3.44521
# Velocity P-wave (km/s) = 6.90727 7.32912 7.12132
#
# Compressibility (1/GPa) = 0.01345600
#
# Stress axis : x y z
#
# Youngs Moduli (GPa) = 108.43130 68.98497 117.96755
#
# Poissons Ratio (x) = 0.37950 0.09210
# Poissons Ratio (y) = 0.59651 0.36424
# Poissons Ratio (z) = 0.08465 0.21300
#
# Static dielectric constant tensor:
#      x y z
#    x 3.859600 0.000000 0.263900 
#    y 0.000000 3.546730 0.000000 
#    z 0.263900 0.000000 4.158130 
# 
# 
# High freq. dielectric constant tensor:
#      x y z
#    x 1.861500 0.000000 0.013470 
#    y 0.000000 1.826950 0.000000 
#    z 0.013470 0.000000 1.874790 
# 
# From -- ./inp_files/739.got.cif
#   From: 2010.03.12/outbox.cif.g09.slc.cpg/sg3_1_cif.got.tgz:739.got - 2010.03.31 09:20:49.
