data_PCOD8045136
_publ_section_title
;
Structure prediction by ZEFSAII (Michael W. Deem and Ramdas Pophale) SiO2 
 PCOD8045136
Probable space group: P 2
;
_chemical_formula_sum "Si O2"
_cell_formula_units_Z 12
_cell_length_a 5.277041
_cell_length_b 12.748660
_cell_length_c 8.733267
_cell_angle_alpha 90.000000
_cell_angle_beta 95.269872
_cell_angle_gamma 90.000000
_cell_volume 585.048876
_symmetry_space_group_name_H-M "P 2"
_symmetry_group_IT_number 3
_symmetry_cell_setting 'monoclinic'
loop_
_space_group_symop_operation_xyz
x,y,z
-x,y,-z
loop_
_atom_site_type_symbol
_atom_site_label
_atom_site_fract_x
_atom_site_fract_y
_atom_site_fract_z
Si Si1 0.683032 0.505240 0.708009
Si Si2 0.475827 0.099867 0.824523
Si Si3 0.678336 0.326766 0.213443
Si Si4 0.500000 0.685786 0.500000
Si Si5 0.000000 0.820050 0.500000
Si Si6 0.040550 0.021259 0.334276
Si Si7 0.000000 0.435603 0.000000
Si Si8 0.000000 0.379061 0.500000
O O1 0.457872 0.433376 0.751695
O O2 0.577869 0.619201 0.655560
O O3 0.789830 0.455779 0.558502
O O4 0.889473 0.509928 0.858399
O O5 0.500543 0.225547 0.807037
O O6 0.688791 0.050178 0.726574
O O7 0.191922 0.061433 0.777764
O O8 0.500000 0.064635 0.000000
O O9 0.888096 0.305694 0.358564
O O10 0.797134 0.352434 0.055005
O O11 0.255078 0.752762 0.535973
O O12 0.033214 0.894381 0.351682
O O13 0.000000 0.073401 0.500000
#
# Coordination Sequence:
#
# PCOD8045136 Si02
#       8
#     2   2   2   1   1   2   1   1
#     4  11  22  39  63 101 133 182 220 277 314 410
#     4  12  25  41  72 102 140 185 222 267 347 416
#     4  11  24  39  61  97 143 188 214 268 318 411
#     4  12  22  42  78  96 130 172 236 280 352 400
#     4  10  25  47  74  98 124 170 231 305 358 390
#     4  10  25  47  70  99 129 175 230 293 343 401
#     4  10  24  40  60  88 162 178 220 256 340 382
#     4  10  21  37  58  92 144 172 233 263 312 364
#
# _framework density 20.511106999999999
#
# number of rings (size 3 to 8) (size 9 to 14) (size 15 to 20)
#    0.500    0.667    1.667    4.000   10.500    1.333 
#    0.000    0.000    7.333    0.000    0.000    0.000 
#    0.000    0.000    0.000    0.000    0.000    0.000 
#
# Total GULP energy -148741.639987 kJ/mol
# GULP energy per Si atom -12395.136666 kJ/mol
# Density = 2.046442 g / cm^3
# Si number density = 20.511107 Si / 1000 Ang^3
#
#
#
# Elastic Constant Matrix: (Units=GPa)
#
#
# Indices 1 2 3 4 5 6 
#
# 1 107.0190 45.4484 20.1719 0.0000 -17.8103 0.0000
# 2 45.4484 113.7758 34.6562 0.0000 -5.0436 0.0000
# 3 20.1719 34.6562 106.0196 0.0000 -5.6106 0.0000
# 4 0.0000 0.0000 0.0000 14.3820 0.0000 -2.4810
# 5 -17.8103 -5.0436 -5.6106 0.0000 48.4189 0.0000
# 6 0.0000 0.0000 0.0000 -2.4810 0.0000 44.5658
#
#
#
# Elastic Compliance Matrix: (Units=1/GPa)
#
#
# Indices 1 2 3 4 5 6 
#
# 1 0.011987 -0.004425 -0.000629 0.000000 0.003875 0.000000
# 2 -0.004425 0.011415 -0.002931 0.000000 -0.000778 0.000000
# 3 -0.000629 -0.002931 0.010546 0.000000 0.000685 0.000000
# 4 0.000000 0.000000 0.000000 0.070206 0.000000 0.003908
# 5 0.003875 -0.000778 0.000685 0.000000 0.022077 0.000000
# 6 0.000000 0.000000 0.000000 0.003908 0.000000 0.022656
#
#
# Mechanical properties :
#
#
# Convention : Reuss Voigt Hill
#
# Bulk Modulus (GPa) = 55.62154 58.59638 57.10896
# Shear Modulus (GPa) = 29.26566 36.57588 32.92077
#
# Velocity S-wave (km/s) = 3.78143 4.22740 4.01062
# Velocity P-wave (km/s) = 6.80016 7.24279 7.02497
#
# Compressibility (1/GPa) = 0.01797865
#
# Stress axis : x y z
#
# Youngs Moduli (GPa) = 83.42542 87.60483 94.82096
#
# Poissons Ratio (x) = 0.38763 0.05966
# Poissons Ratio (y) = 0.36914 0.27789
# Poissons Ratio (z) = 0.05249 0.25674
#
# Static dielectric constant tensor:
#      x y z
#    x 3.816940 0.000000 0.203810 
#    y 0.000000 3.530730 0.000000 
#    z 0.203810 0.000000 3.896210 
# 
# 
# High freq. dielectric constant tensor:
#      x y z
#    x 1.822060 0.000000 0.004710 
#    y 0.000000 1.777120 0.000000 
#    z 0.004710 0.000000 1.810480 
# 
# From -- ./inp_files/4276.got.cif
#   From: 2010.03.12/outbox.cif.g09.slc.cpg/sg3_3_cif.got.tgz:4276.got - 2010.03.31 09:20:49.
