data_PCOD8045490
_publ_section_title
;
Structure prediction by ZEFSAII (Michael W. Deem and Ramdas Pophale) SiO2 
 PCOD8045490
Probable space group: P 2
;
_chemical_formula_sum "Si O2"
_cell_formula_units_Z 14
_cell_length_a 9.887665
_cell_length_b 8.841250
_cell_length_c 13.138522
_cell_angle_alpha 90.000000
_cell_angle_beta 147.356574
_cell_angle_gamma 90.000000
_cell_volume 619.544113
_symmetry_space_group_name_H-M "P 2"
_symmetry_group_IT_number 3
_symmetry_cell_setting 'monoclinic'
loop_
_space_group_symop_operation_xyz
x,y,z
-x,y,-z
loop_
_atom_site_type_symbol
_atom_site_label
_atom_site_fract_x
_atom_site_fract_y
_atom_site_fract_z
Si Si1 0.738812 0.346700 0.432988
Si Si2 0.718023 0.774799 0.814468
Si Si3 0.506329 0.161297 0.889447
Si Si4 0.763088 0.434347 0.785403
Si Si5 0.929037 0.208251 0.737229
Si Si6 0.000000 0.615456 0.500000
Si Si7 0.567082 0.815148 0.158808
Si Si8 0.500000 0.970745 0.500000
O O1 0.678951 0.272934 0.286651
O O2 0.480210 0.349476 0.329225
O O3 0.933459 0.239884 0.618372
O O4 0.849581 0.513007 0.485304
O O5 0.730385 0.613722 0.765488
O O6 0.616424 0.757275 0.866352
O O7 0.537519 0.874792 0.627997
O O8 0.000000 0.842102 0.000000
O O9 0.400452 0.993621 0.806430
O O10 0.500000 0.217600 0.000000
O O11 0.799774 0.168934 0.043312
O O12 0.817931 0.367642 0.708558
O O13 0.000000 0.381219 0.000000
O O14 0.750879 0.067308 0.647510
O O15 0.824572 0.726809 0.327140
O O16 0.500000 0.777699 0.000000
#
# Coordination Sequence:
#
# PCOD8045490 Si02
#       8
#     2   2   2   2   2   1   2   1
#     4  12  24  46  71 104 143 182 239 291 356 417
#     4  11  26  46  70 106 146 190 237 299 362 429
#     4  11  26  47  71 102 142 190 238 293 354 426
#     4  11  23  44  72 100 143 185 229 295 355 421
#     4  12  25  44  73 108 140 186 237 298 357 421
#     4  12  28  44  74 104 140 194 238 294 354 434
#     4  11  27  49  73 102 148 192 243 292 364 428
#     4  12  26  40  74 110 144 186 240 298 364 428
#
# _framework density 22.597261
#
# number of rings (size 3 to 8) (size 9 to 14) (size 15 to 20)
#    0.000    0.571    4.286    2.571    2.000   10.857 
#    0.000    0.000    0.000    0.000    0.000    0.000 
#    0.000    0.000    0.000    0.000    0.000    0.000 
#
# Total GULP energy -173559.447817 kJ/mol
# GULP energy per Si atom -12397.103415 kJ/mol
# Density = 2.254583 g / cm^3
# Si number density = 22.597261 Si / 1000 Ang^3
#
#
#
# Elastic Constant Matrix: (Units=GPa)
#
#
# Indices 1 2 3 4 5 6 
#
# 1 114.7634 43.5782 46.8651 0.0000 -13.7103 0.0000
# 2 43.5782 125.5929 65.8275 0.0000 -8.8005 0.0000
# 3 46.8651 65.8275 113.6393 0.0000 -12.8375 0.0000
# 4 0.0000 0.0000 0.0000 40.1682 0.0000 0.3871
# 5 -13.7103 -8.8005 -12.8375 0.0000 30.8495 0.0000
# 6 0.0000 0.0000 0.0000 0.3871 0.0000 33.1504
#
#
#
# Elastic Compliance Matrix: (Units=1/GPa)
#
#
# Indices 1 2 3 4 5 6 
#
# 1 0.011101 -0.002037 -0.003050 0.000000 0.003083 0.000000
# 2 -0.002037 0.011816 -0.006008 0.000000 -0.000035 0.000000
# 3 -0.003050 -0.006008 0.013842 0.000000 0.002691 0.000000
# 4 0.000000 0.000000 0.000000 0.024898 0.000000 -0.000291
# 5 0.003083 -0.000035 0.002691 0.000000 0.034895 0.000000
# 6 0.000000 0.000000 0.000000 -0.000291 0.000000 0.030169
#
#
# Mechanical properties :
#
#
# Convention : Reuss Voigt Hill
#
# Bulk Modulus (GPa) = 68.64285 74.05966 71.35125
# Shear Modulus (GPa) = 32.51666 34.01528 33.26597
#
# Velocity S-wave (km/s) = 3.79748 3.88401 3.84099
# Velocity P-wave (km/s) = 7.04772 7.27729 7.16342
#
# Compressibility (1/GPa) = 0.01456816
#
# Stress axis : x y z
#
# Youngs Moduli (GPa) = 90.08298 84.63220 72.24519
#
# Poissons Ratio (x) = 0.17243 0.22031
# Poissons Ratio (y) = 0.18353 0.43407
# Poissons Ratio (z) = 0.27471 0.50849
#
# Static dielectric constant tensor:
#      x y z
#    x 4.145280 0.000000 -0.008160 
#    y 0.000000 3.964970 0.000000 
#    z -0.008160 0.000000 4.334020 
# 
# 
# High freq. dielectric constant tensor:
#      x y z
#    x 1.898040 0.000000 0.001060 
#    y 0.000000 1.890960 0.000000 
#    z 0.001060 0.000000 1.908740 
# 
# From -- ./inp_files/10882.got.cif
#   From: 2010.03.12/outbox.cif.g09.slc.cpg/sg3_6_cif.got.tgz:10882.got - 2010.03.31 09:20:49.
