data_PCOD8045707
_publ_section_title
;
Structure prediction by ZEFSAII (Michael W. Deem and Ramdas Pophale) SiO2 
 PCOD8045707
Probable space group: P 21
;
_chemical_formula_sum "Si O2"
_cell_formula_units_Z 12
_cell_length_a 11.208435
_cell_length_b 4.988594
_cell_length_c 18.454394
_cell_angle_alpha 90.000000
_cell_angle_beta 32.658678
_cell_angle_gamma 90.000000
_cell_volume 556.828750
_symmetry_space_group_name_H-M "P 21"
_symmetry_group_IT_number 4
_symmetry_cell_setting 'monoclinic'
loop_
_space_group_symop_operation_xyz
x,y,z
-x,1/2+y,-z
loop_
_atom_site_type_symbol
_atom_site_label
_atom_site_fract_x
_atom_site_fract_y
_atom_site_fract_z
Si Si1 0.699551 0.919380 0.682816
Si Si2 0.113416 0.684184 0.549510
Si Si3 0.644666 0.373826 0.438799
Si Si4 0.796038 0.418795 0.816574
Si Si5 0.473558 0.430676 0.859911
Si Si6 0.897325 0.917287 0.853979
O O1 0.561742 0.640530 0.754731
O O2 0.939783 0.878868 0.596906
O O3 0.731223 0.022771 0.585301
O O4 0.550119 0.133568 0.800939
O O5 0.260168 0.866165 0.528040
O O6 0.991913 0.456374 0.658044
O O7 0.449899 0.586488 0.535075
O O8 0.836549 0.445571 0.282002
O O9 0.570022 0.491323 0.890792
O O10 0.828573 0.617714 0.866910
O O11 0.800698 0.117373 0.842803
O O12 0.208685 0.458829 0.010970
#
# Coordination Sequence:
#
# PCOD8045707 Si02
#       6
#     2   2   2   2   2   2
#     4  11  23  36  61  90 123 157 187 241 301 368
#     4  10  22  40  61  92 124 154 201 244 297 351
#     4  11  24  40  62  88 116 159 206 252 292 337
#     4  10  19  32  56  84 117 155 188 241 302 352
#     4  11  21  34  54  88 121 155 189 231 308 366
#     4  11  21  36  56  82 119 152 197 249 290 350
#
# _framework density 21.550611
#
# number of rings (size 3 to 8) (size 9 to 14) (size 15 to 20)
#    0.000    1.333    0.000    9.000    0.000    6.667 
#    0.000    0.000    0.000    4.000    0.000    0.000 
#    0.000    0.000    0.000    0.000    0.000    0.000 
#
# Total GULP energy -148779.194390 kJ/mol
# GULP energy per Si atom -12398.266199 kJ/mol
# Density = 2.150156 g / cm^3
# Si number density = 21.550611 Si / 1000 Ang^3
#
#
#
# Elastic Constant Matrix: (Units=GPa)
#
#
# Indices 1 2 3 4 5 6 
#
# 1 47.7589 13.6611 30.0696 0.0000 0.1396 0.0000
# 2 13.6611 85.3368 25.6233 0.0000 -1.7078 0.0000
# 3 30.0696 25.6233 145.9975 0.0000 4.4620 0.0000
# 4 0.0000 0.0000 0.0000 31.5189 0.0000 4.3314
# 5 0.1396 -1.7078 4.4620 0.0000 21.3271 0.0000
# 6 0.0000 0.0000 0.0000 4.3314 0.0000 27.2969
#
#
#
# Elastic Compliance Matrix: (Units=1/GPa)
#
#
# Indices 1 2 3 4 5 6 
#
# 1 0.024580 -0.002530 -0.004637 0.000000 0.000607 0.000000
# 2 -0.002530 0.012676 -0.001746 0.000000 0.001397 0.000000
# 3 -0.004637 -0.001746 0.008166 0.000000 -0.001818 0.000000
# 4 0.000000 0.000000 0.000000 0.032434 0.000000 -0.005147
# 5 0.000607 0.001397 -0.001818 0.000000 0.047377 0.000000
# 6 0.000000 0.000000 0.000000 -0.005147 0.000000 0.037451
#
#
# Mechanical properties :
#
#
# Convention : Reuss Voigt Hill
#
# Bulk Modulus (GPa) = 36.23841 46.42236 41.33039
# Shear Modulus (GPa) = 26.35609 30.01120 28.18365
#
# Velocity S-wave (km/s) = 3.50092 3.73579 3.62026
# Velocity P-wave (km/s) = 5.76141 6.34004 6.05764
#
# Compressibility (1/GPa) = 0.02759503
#
# Stress axis : x y z
#
# Youngs Moduli (GPa) = 40.68345 78.89164 122.45184
#
# Poissons Ratio (x) = 0.19963 0.56780
# Poissons Ratio (y) = 0.10295 0.21382
# Poissons Ratio (z) = 0.18865 0.13776
#
# Static dielectric constant tensor:
#      x y z
#    x 3.514050 0.000000 -0.086990 
#    y 0.000000 3.917340 0.000000 
#    z -0.086990 0.000000 4.225460 
# 
# 
# High freq. dielectric constant tensor:
#      x y z
#    x 1.780770 0.000000 0.002370 
#    y 0.000000 1.861610 0.000000 
#    z 0.002370 0.000000 1.865070 
# 
# From -- ./inp_files/13503.got.cif
#   From: 2010.03.12/outbox.cif.g09.slc.cpg/sg4_7_cif.got.tgz:13503.got - 2010.03.31 09:31:35.
