data_PCOD8045521
_publ_section_title
;
Structure prediction by ZEFSAII (Michael W. Deem and Ramdas Pophale) SiO2 
 PCOD8045521
Probable space group: P 2
;
_chemical_formula_sum "Si O2"
_cell_formula_units_Z 14
_cell_length_a 14.684987
_cell_length_b 6.049561
_cell_length_c 18.928646
_cell_angle_alpha 90.000000
_cell_angle_beta 159.396023
_cell_angle_gamma 90.000000
_cell_volume 591.758376
_symmetry_space_group_name_H-M "P 2"
_symmetry_group_IT_number 3
_symmetry_cell_setting 'monoclinic'
loop_
_space_group_symop_operation_xyz
x,y,z
-x,y,-z
loop_
_atom_site_type_symbol
_atom_site_label
_atom_site_fract_x
_atom_site_fract_y
_atom_site_fract_z
Si Si1 0.500000 0.552840 0.000000
Si Si2 0.846408 0.196082 0.323073
Si Si3 0.419280 0.366537 0.291813
Si Si4 0.000000 0.016130 0.000000
Si Si5 0.120472 0.065909 0.390611
Si Si6 0.840743 0.684513 0.004493
Si Si7 0.345581 0.727251 0.451609
Si Si8 0.617141 0.897836 0.968248
O O1 0.729279 0.399090 0.195049
O O2 0.367063 0.700565 0.963528
O O3 0.000000 0.300233 0.500000
O O4 0.025530 0.041832 0.402708
O O5 0.637330 0.036156 0.205111
O O6 0.712536 0.290706 0.488311
O O7 0.276196 0.469918 0.119152
O O8 0.445417 0.542894 0.373461
O O9 0.248227 0.166699 0.196992
O O10 0.948040 0.865936 0.029327
O O11 0.303316 0.872531 0.491835
O O12 0.862272 0.065145 0.154525
O O13 0.614800 0.796246 0.887768
O O14 0.074721 0.622260 0.228010
O O15 0.500000 0.852997 0.500000
#
# Coordination Sequence:
#
# PCOD8045521 Si02
#       8
#     1   2   2   1   2   2   2   2
#     4  12  24  52  74 106 150 190 244 304 350 442
#     4  12  28  47  76 110 144 194 243 293 370 428
#     4  12  27  45  78 106 144 191 249 301 355 443
#     4  12  26  52  72 104 156 184 244 310 360 430
#     4  11  25  47  72 107 149 184 239 304 360 426
#     4  11  27  47  75 106 148 196 238 301 368 425
#     4  11  25  46  73 106 143 194 242 297 368 427
#     4  11  26  50  74 103 157 190 235 305 364 426
#
# _framework density 23.658306
#
# number of rings (size 3 to 8) (size 9 to 14) (size 15 to 20)
#    0.000    0.571    2.857    3.857   10.000    5.714 
#    0.000    1.429    0.000    0.000    0.000    0.000 
#    0.000    0.000    0.000    0.000    0.000    0.000 
#
# Total GULP energy -173573.366213 kJ/mol
# GULP energy per Si atom -12398.097587 kJ/mol
# Density = 2.360446 g / cm^3
# Si number density = 23.658306 Si / 1000 Ang^3
#
#
#
# Elastic Constant Matrix: (Units=GPa)
#
#
# Indices 1 2 3 4 5 6 
#
# 1 130.4450 48.8646 56.2640 0.0000 6.4332 0.0000
# 2 48.8646 90.4304 55.9283 0.0000 -9.3270 0.0000
# 3 56.2640 55.9283 115.1325 0.0000 -3.0737 0.0000
# 4 0.0000 0.0000 0.0000 39.1339 0.0000 13.9241
# 5 6.4332 -9.3270 -3.0737 0.0000 46.8633 0.0000
# 6 0.0000 0.0000 0.0000 13.9241 0.0000 23.1690
#
#
#
# Elastic Compliance Matrix: (Units=1/GPa)
#
#
# Indices 1 2 3 4 5 6 
#
# 1 0.010733 -0.003961 -0.003387 0.000000 -0.002484 0.000000
# 2 -0.003961 0.017604 -0.006519 0.000000 0.003620 0.000000
# 3 -0.003387 -0.006519 0.013509 0.000000 0.000054 0.000000
# 4 0.000000 0.000000 0.000000 0.032504 0.000000 -0.019534
# 5 -0.002484 0.003620 0.000054 0.000000 0.022404 0.000000
# 6 0.000000 0.000000 0.000000 -0.019534 0.000000 0.054901
#
#
# Mechanical properties :
#
#
# Convention : Reuss Voigt Hill
#
# Bulk Modulus (GPa) = 70.86505 73.12466 71.99485
# Shear Modulus (GPa) = 27.16014 33.49664 30.32839
#
# Velocity S-wave (km/s) = 3.39192 3.76686 3.58430
# Velocity P-wave (km/s) = 6.73489 7.06362 6.90121
#
# Compressibility (1/GPa) = 0.01411133
#
# Stress axis : x y z
#
# Youngs Moduli (GPa) = 93.16651 56.80589 74.02307
#
# Poissons Ratio (x) = 0.22501 0.25075
# Poissons Ratio (y) = 0.36904 0.48256
# Poissons Ratio (z) = 0.31560 0.37032
#
# Static dielectric constant tensor:
#      x y z
#    x 4.463450 0.000000 0.110250 
#    y 0.000000 4.110860 0.000000 
#    z 0.110250 0.000000 4.396610 
# 
# 
# High freq. dielectric constant tensor:
#      x y z
#    x 1.950100 0.000000 0.010610 
#    y 0.000000 1.918540 0.000000 
#    z 0.010610 0.000000 1.953970 
# 
# From -- ./inp_files/16053.got.cif
#   From: 2010.03.12/outbox.cif.g09.slc.cpg/sg3_9_cif.got.tgz:16053.got - 2010.03.31 09:20:49.
