data_PCOD8045784
_publ_section_title
;
Structure prediction by ZEFSAII (Michael W. Deem and Ramdas Pophale) SiO2 
 PCOD8045784
Probable space group: P 21
;
_chemical_formula_sum "Si O2"
_cell_formula_units_Z 16
_cell_length_a 11.347781
_cell_length_b 8.864315
_cell_length_c 9.523070
_cell_angle_alpha 90.000000
_cell_angle_beta 123.157489
_cell_angle_gamma 90.000000
_cell_volume 801.949355
_symmetry_space_group_name_H-M "P 21"
_symmetry_group_IT_number 4
_symmetry_cell_setting 'monoclinic'
loop_
_space_group_symop_operation_xyz
x,y,z
-x,1/2+y,-z
loop_
_atom_site_type_symbol
_atom_site_label
_atom_site_fract_x
_atom_site_fract_y
_atom_site_fract_z
Si Si1 0.525970 0.251600 0.851671
Si Si2 0.781365 0.784867 0.379094
Si Si3 0.208027 0.265960 0.933270
Si Si4 0.201990 0.589291 0.044617
Si Si5 0.478781 0.100895 0.115402
Si Si6 0.052415 0.589098 0.229604
Si Si7 0.779033 0.134399 0.397573
Si Si8 0.041258 0.772984 0.722093
O O1 0.376910 0.246444 0.670044
O O2 0.554342 0.423984 0.911049
O O3 0.654836 0.186683 0.844160
O O4 0.516370 0.150947 0.983460
O O5 0.800379 0.718886 0.235983
O O6 0.892868 0.712674 0.560741
O O7 0.814265 0.961736 0.384267
O O8 0.230837 0.442440 0.970315
O O9 0.063012 0.206363 0.906012
O O10 0.342219 0.183527 0.089366
O O11 0.079773 0.683305 0.887826
O O12 0.150933 0.539180 0.165017
O O13 0.610097 0.148431 0.299393
O O14 0.149791 0.674701 0.407295
O O15 0.971745 0.447776 0.245515
O O16 0.837139 0.247071 0.315106
#
# Coordination Sequence:
#
# PCOD8045784 Si02
#       8
#     2   2   2   2   2   2   2   2
#     4  10  19  37  60  89 122 156 197 257 305 358
#     4   9  19  35  61  94 113 146 204 257 293 348
#     4  11  21  37  58  91 123 154 206 255 294 361
#     4  12  23  41  58  87 130 166 195 248 314 368
#     4  10  20  35  63  92 116 154 210 254 299 353
#     4  11  25  39  60  91 124 161 202 251 312 368
#     4  10  19  39  61  90 115 152 203 253 295 355
#     4  11  20  39  65  88 117 163 203 251 304 355
#
# _framework density 19.951384999999998
#
# number of rings (size 3 to 8) (size 9 to 14) (size 15 to 20)
#    0.000    1.500    3.750    3.000    0.000    0.000 
#    0.000    5.000    0.000    0.000    0.000    0.000 
#    0.000    0.000    0.000    0.000    0.000    0.000 
#
# Total GULP energy -198372.414189 kJ/mol
# GULP energy per Si atom -12398.275887 kJ/mol
# Density = 1.990597 g / cm^3
# Si number density = 19.951385 Si / 1000 Ang^3
#
#
#
# Elastic Constant Matrix: (Units=GPa)
#
#
# Indices 1 2 3 4 5 6 
#
# 1 112.4618 46.7893 53.9793 0.0000 21.4919 0.0000
# 2 46.7893 89.4807 29.7535 0.0000 16.4679 0.0000
# 3 53.9793 29.7535 81.9634 0.0000 16.2708 0.0000
# 4 0.0000 0.0000 0.0000 21.8865 0.0000 6.9054
# 5 21.4919 16.4679 16.2708 0.0000 38.6095 0.0000
# 6 0.0000 0.0000 0.0000 6.9054 0.0000 26.2913
#
#
#
# Elastic Compliance Matrix: (Units=1/GPa)
#
#
# Indices 1 2 3 4 5 6 
#
# 1 0.015147 -0.004809 -0.007599 0.000000 -0.003178 0.000000
# 2 -0.004809 0.014767 -0.001609 0.000000 -0.002943 0.000000
# 3 -0.007599 -0.001609 0.018348 0.000000 -0.002816 0.000000
# 4 0.000000 0.000000 0.000000 0.049819 0.000000 -0.013085
# 5 -0.003178 -0.002943 -0.002816 0.000000 0.030112 0.000000
# 6 0.000000 0.000000 0.000000 -0.013085 0.000000 0.041472
#
#
# Mechanical properties :
#
#
# Convention : Reuss Voigt Hill
#
# Bulk Modulus (GPa) = 49.43580 60.55001 54.99290
# Shear Modulus (GPa) = 24.45675 27.58303 26.01989
#
# Velocity S-wave (km/s) = 3.50497 3.72225 3.61524
# Velocity P-wave (km/s) = 6.41963 6.99201 6.71192
#
# Compressibility (1/GPa) = 0.02022826
#
# Stress axis : x y z
#
# Youngs Moduli (GPa) = 66.01780 67.71901 54.50064
#
# Poissons Ratio (x) = 0.32565 0.41416
# Poissons Ratio (y) = 0.31747 0.08770
# Poissons Ratio (z) = 0.50168 0.10898
#
# Static dielectric constant tensor:
#      x y z
#    x 3.640230 0.000000 0.471590 
#    y 0.000000 3.501760 0.000000 
#    z 0.471590 0.000000 3.763160 
# 
# 
# High freq. dielectric constant tensor:
#      x y z
#    x 1.771030 0.000000 0.031030 
#    y 0.000000 1.772670 0.000000 
#    z 0.031030 0.000000 1.769390 
# 
# From -- ./inp_files/7890.got.cif
#   From: 2010.03.12/outbox.cif.g09.slc.cpg/sg4_4_cif.got.tgz:7890.got - 2010.03.31 09:31:35.
