data_PCOD8045505
_publ_section_title
;
Structure prediction by ZEFSAII (Michael W. Deem and Ramdas Pophale) SiO2 
 PCOD8045505
Probable space group: P 2
;
_chemical_formula_sum "Si O2"
_cell_formula_units_Z 14
_cell_length_a 5.247853
_cell_length_b 15.149921
_cell_length_c 9.183622
_cell_angle_alpha 90.000000
_cell_angle_beta 123.040825
_cell_angle_gamma 90.000000
_cell_volume 612.063268
_symmetry_space_group_name_H-M "P 2"
_symmetry_group_IT_number 3
_symmetry_cell_setting 'monoclinic'
loop_
_space_group_symop_operation_xyz
x,y,z
-x,y,-z
loop_
_atom_site_type_symbol
_atom_site_label
_atom_site_fract_x
_atom_site_fract_y
_atom_site_fract_z
Si Si1 0.746535 0.102800 0.313681
Si Si2 0.835292 0.694650 0.151142
Si Si3 0.457460 0.926192 0.649391
Si Si4 0.000000 0.851700 0.000000
Si Si5 0.890152 0.190893 0.808950
Si Si6 0.138326 0.504870 0.895776
Si Si7 0.000000 0.772440 0.500000
Si Si8 0.846824 0.365355 0.606633
O O1 0.425321 0.139252 0.269701
O O2 0.000000 0.142624 0.500000
O O3 0.849081 0.128416 0.182004
O O4 0.743729 0.995923 0.322507
O O5 0.009135 0.604462 0.160881
O O6 0.896355 0.787710 0.095628
O O7 0.915698 0.707344 0.343897
O O8 0.500000 0.669613 0.000000
O O9 0.500000 0.966784 0.500000
O O10 0.294587 0.833145 0.569639
O O11 0.750419 0.913189 0.844778
O O12 0.855913 0.277499 0.704176
O O13 0.000000 0.221537 0.000000
O O14 0.037270 0.445573 0.730179
O O15 0.500000 0.503238 0.000000
O O16 0.000000 0.463000 0.000000
O O17 0.500000 0.397482 0.500000
O O18 0.000000 0.343182 0.500000
#
# Coordination Sequence:
#
# PCOD8045505 Si02
#       8
#     2   2   2   1   2   2   1   2
#     4  12  26  48  75 104 146 189 238 300 359 426
#     4  11  24  44  71 103 144 191 244 301 361 426
#     4  12  26  44  71 104 144 193 247 306 365 423
#     4  12  24  46  70 100 142 194 248 302 356 434
#     4  12  27  49  75 106 143 189 237 291 361 436
#     4  11  25  47  75 106 148 189 234 298 360 425
#     4  12  24  44  70 102 140 194 244 300 364 430
#     4  12  26  47  76 111 144 186 236 290 360 433
#
# _framework density 22.873453000000001
#
# number of rings (size 3 to 8) (size 9 to 14) (size 15 to 20)
#    0.000    0.286    4.286    5.143    2.000    1.143 
#    7.714    0.000    0.000    0.000    0.000    0.000 
#    0.000    0.000    0.000    0.000    0.000    0.000 
#
# Total GULP energy -173523.089937 kJ/mol
# GULP energy per Si atom -12394.506424 kJ/mol
# Density = 2.282139 g / cm^3
# Si number density = 22.873453 Si / 1000 Ang^3
#
#
#
# Elastic Constant Matrix: (Units=GPa)
#
#
# Indices 1 2 3 4 5 6 
#
# 1 139.7634 38.2323 52.7223 0.0000 -6.1199 0.0000
# 2 38.2323 105.0600 50.5843 0.0000 -0.9649 0.0000
# 3 52.7223 50.5843 164.0815 0.0000 -7.0270 0.0000
# 4 0.0000 0.0000 0.0000 -10.4298 0.0000 34.0433
# 5 -6.1199 -0.9649 -7.0270 0.0000 44.0809 0.0000
# 6 0.0000 0.0000 0.0000 34.0433 0.0000 -13.7617
#
#
#
# Elastic Compliance Matrix: (Units=1/GPa)
#
#
# Indices 1 2 3 4 5 6 
#
# 1 0.008545 -0.002110 -0.002060 0.000000 0.000812 0.000000
# 2 -0.002110 0.011703 -0.002952 0.000000 -0.000507 0.000000
# 3 -0.002060 -0.002952 0.007704 0.000000 0.000877 0.000000
# 4 0.000000 0.000000 0.000000 0.013553 0.000000 0.033526
# 5 0.000812 -0.000507 0.000877 0.000000 0.022927 0.000000
# 6 0.000000 0.000000 0.000000 0.033526 0.000000 0.010271
#
#
# Mechanical properties :
#
#
# Convention : Reuss Voigt Hill
#
# Bulk Modulus (GPa) = 72.95150 76.88698 74.91924
# Shear Modulus (GPa) = 53.46672 21.80228 37.63450
#
# Velocity S-wave (km/s) = 4.84002 3.09069 4.06067
# Velocity P-wave (km/s) = 7.94966 6.81348 7.40340
#
# Compressibility (1/GPa) = 0.01370774
#
# Stress axis : x y z
#
# Youngs Moduli (GPa) = 117.02847 85.45049 129.80180
#
# Poissons Ratio (x) = 0.18031 0.26744
# Poissons Ratio (y) = 0.24694 0.38311
# Poissons Ratio (z) = 0.24112 0.25221
#
# Static dielectric constant tensor:
#      x y z
#    x 4.471410 0.000000 -0.027160 
#    y 0.000000 4.259160 0.000000 
#    z -0.027160 0.000000 4.261200 
# 
# 
# High freq. dielectric constant tensor:
#      x y z
#    x 1.903820 0.000000 -0.002410 
#    y 0.000000 1.914240 0.000000 
#    z -0.002410 0.000000 1.916970 
# 
# From -- ./inp_files/4559.got.cif
#   From: 2010.03.12/outbox.cif.g09.slc.cpg/sg3_3_cif.got.tgz:4559.got - 2010.03.31 09:20:49.
