data_PCOD8045068
_publ_section_title
;
Structure prediction by ZEFSAII (Michael W. Deem and Ramdas Pophale) SiO2 
 PCOD8045068
Probable space group: P 2
;
_chemical_formula_sum "Si O2"
_cell_formula_units_Z 16
_cell_length_a 10.085276
_cell_length_b 11.889786
_cell_length_c 9.318112
_cell_angle_alpha 90.000000
_cell_angle_beta 134.964566
_cell_angle_gamma 90.000000
_cell_volume 790.575176
_symmetry_space_group_name_H-M "P 2"
_symmetry_group_IT_number 3
_symmetry_cell_setting 'monoclinic'
loop_
_space_group_symop_operation_xyz
x,y,z
-x,y,-z
loop_
_atom_site_type_symbol
_atom_site_label
_atom_site_fract_x
_atom_site_fract_y
_atom_site_fract_z
Si Si1 0.646824 0.773250 0.988583
Si Si2 0.411260 0.644476 0.587608
Si Si3 0.085137 0.403879 0.908097
Si Si4 0.499906 0.404004 0.328162
Si Si5 0.588312 0.163473 0.411867
Si Si6 0.997136 0.626624 0.666622
Si Si7 0.352716 0.034747 0.010761
Si Si8 0.003373 0.181274 0.333962
O O1 0.553480 0.728080 0.773221
O O2 0.500000 0.747049 0.000000
O O3 0.840969 0.712884 0.169128
O O4 0.690486 0.903980 0.004542
O O5 0.500000 0.634423 0.500000
O O6 0.400476 0.518535 0.649155
O O7 0.197201 0.687492 0.432937
O O8 0.018458 0.512020 0.770218
O O9 0.017831 0.295108 0.771262
O O10 0.304573 0.403670 0.096978
O O11 0.000000 0.404821 0.000000
O O12 0.500000 0.404105 0.500000
O O13 0.599928 0.289540 0.351428
O O14 0.500000 0.173217 0.500000
O O15 0.802169 0.120125 0.565656
O O16 0.445126 0.080472 0.225478
O O17 0.000000 0.601404 0.500000
O O18 0.158399 0.094614 0.829152
O O19 0.500000 0.060875 0.000000
O O20 0.000000 0.207684 0.500000
#
# Coordination Sequence:
#
# PCOD8045068 Si02
#       8
#     2   2   2   2   2   2   2   2
#     4  11  25  46  69  96 132 180 230 281 335 392
#     4  11  23  43  68  99 138 173 220 281 341 396
#     4  12  23  40  70 103 142 173 215 273 337 406
#     4  10  20  38  63  96 135 172 204 263 342 394
#     4  11  23  43  68  99 138 173 220 281 341 396
#     4  12  25  43  68 103 135 178 225 272 334 403
#     4  11  25  46  69  96 132 180 230 281 335 392
#     4  12  25  43  68 103 135 178 225 272 334 403
#
# _framework density 20.238430000000001
#
# number of rings (size 3 to 8) (size 9 to 14) (size 15 to 20)
#    0.000    0.750    5.000    4.125    0.000    2.000 
#    0.000    3.750    0.000    0.000    0.000    0.000 
#    0.000    0.000    0.000    0.000    0.000    0.000 
#
# Total GULP energy -198376.364040 kJ/mol
# GULP energy per Si atom -12398.522752 kJ/mol
# Density = 2.019237 g / cm^3
# Si number density = 20.238430 Si / 1000 Ang^3
#
#
#
# Elastic Constant Matrix: (Units=GPa)
#
#
# Indices 1 2 3 4 5 6 
#
# 1 123.2148 67.0540 67.0904 0.0000 12.2673 0.0000
# 2 67.0540 104.4074 57.9586 0.0000 10.3438 0.0000
# 3 67.0904 57.9586 154.7548 0.0000 19.4841 0.0000
# 4 0.0000 0.0000 0.0000 424.7457 0.0000 -133.7558
# 5 12.2673 10.3438 19.4841 0.0000 37.2459 0.0000
# 6 0.0000 0.0000 0.0000 -133.7558 0.0000 43.3752
#
#
#
# Elastic Compliance Matrix: (Units=1/GPa)
#
#
# Indices 1 2 3 4 5 6 
#
# 1 0.013751 -0.006938 -0.003249 0.000000 -0.000902 0.000000
# 2 -0.006938 0.015632 -0.002770 0.000000 -0.000607 0.000000
# 3 -0.003249 -0.002770 0.009288 0.000000 -0.003019 0.000000
# 4 0.000000 0.000000 0.000000 0.081412 0.000000 0.251049
# 5 -0.000902 -0.000607 -0.003019 0.000000 0.028894 0.000000
# 6 0.000000 0.000000 0.000000 0.251049 0.000000 0.797215
#
#
# Mechanical properties :
#
#
# Convention : Reuss Voigt Hill
#
# Bulk Modulus (GPa) = 78.39710 85.17588 81.78649
# Shear Modulus (GPa) = 5.12107 113.75827 59.43967
#
# Velocity S-wave (km/s) = 1.59244 7.50540 5.42526
# Velocity P-wave (km/s) = 6.49631 10.82985 8.92994
#
# Compressibility (1/GPa) = 0.01275557
#
# Stress axis : x y z
#
# Youngs Moduli (GPa) = 72.72375 63.97320 107.66508
#
# Poissons Ratio (x) = 0.44385 0.34983
# Poissons Ratio (y) = 0.50456 0.29824
# Poissons Ratio (z) = 0.23630 0.17721
#
# Static dielectric constant tensor:
#      x y z
#    x 3.683540 0.000000 0.134730 
#    y 0.000000 4.333330 0.000000 
#    z 0.134730 0.000000 3.922730 
# 
# 
# High freq. dielectric constant tensor:
#      x y z
#    x 1.790900 0.000000 0.011010 
#    y 0.000000 1.789240 0.000000 
#    z 0.011010 0.000000 1.813530 
# 
# From -- ./inp_files/6074.got.cif
#   From: 2010.03.12/outbox.cif.g09.slc.cpg/sg3_4_cif.got.tgz:6074.got - 2010.03.31 09:20:49.
