data_PCOD8045781
_publ_section_title
;
Structure prediction by ZEFSAII (Michael W. Deem and Ramdas Pophale) SiO2 
 PCOD8045781
Probable space group: P 21
;
_chemical_formula_sum "Si O2"
_cell_formula_units_Z 16
_cell_length_a 27.389810
_cell_length_b 5.115504
_cell_length_c 13.908125
_cell_angle_alpha 90.000000
_cell_angle_beta 24.892576
_cell_angle_gamma 90.000000
_cell_volume 820.245435
_symmetry_space_group_name_H-M "P 21"
_symmetry_group_IT_number 4
_symmetry_cell_setting 'monoclinic'
loop_
_space_group_symop_operation_xyz
x,y,z
-x,1/2+y,-z
loop_
_atom_site_type_symbol
_atom_site_label
_atom_site_fract_x
_atom_site_fract_y
_atom_site_fract_z
Si Si1 0.266320 0.852570 0.140850
Si Si2 0.359664 0.332529 0.300541
Si Si3 0.597048 0.260788 0.479104
Si Si4 0.988080 0.460558 0.458785
Si Si5 0.369237 0.831403 0.163911
Si Si6 0.675957 0.768484 0.427908
Si Si7 0.655139 0.845792 0.109002
Si Si8 0.214144 0.459698 0.944084
O O1 0.306970 0.782468 0.174600
O O2 0.308970 0.632485 0.991026
O O3 0.126953 0.862349 0.388276
O O4 0.315075 0.134322 0.024970
O O5 0.327098 0.606900 0.311664
O O6 0.283924 0.299789 0.533247
O O7 0.329470 0.107130 0.278586
O O8 0.493025 0.314474 0.095814
O O9 0.618890 0.486123 0.517906
O O10 0.581134 0.992317 0.568952
O O11 0.707002 0.223720 0.210095
O O12 0.482271 0.329870 0.623857
O O13 0.963066 0.726110 0.562091
O O14 0.083797 0.529365 0.206798
O O15 0.785170 0.801540 0.158911
O O16 0.722334 0.784752 0.087855
#
# Coordination Sequence:
#
# PCOD8045781 Si02
#       8
#     2   2   2   2   2   2   2   2
#     4  12  24  40  63  91 122 167 205 263 298 375
#     4  10  19  37  58  87 122 156 192 257 309 386
#     4  10  23  35  57  88 126 160 196 248 304 383
#     4  12  24  45  62  85 123 172 219 257 298 354
#     4  10  21  34  61  86 119 157 202 246 320 361
#     4  10  22  37  58  87 123 160 202 240 311 378
#     4  12  23  37  60  88 130 155 203 249 316 369
#     4  10  26  37  61  86 123 165 207 246 310 368
#
# _framework density 19.506354000000002
#
# number of rings (size 3 to 8) (size 9 to 14) (size 15 to 20)
#    0.750    0.500    2.500    3.750    5.250    2.000 
#    0.000    0.000    0.000    1.500    0.000    0.000 
#    0.000    0.000    0.000    0.000    0.000    0.000 
#
# Total GULP energy -198370.111179 kJ/mol
# GULP energy per Si atom -12398.131949 kJ/mol
# Density = 1.946196 g / cm^3
# Si number density = 19.506354 Si / 1000 Ang^3
#
#
#
# Elastic Constant Matrix: (Units=GPa)
#
#
# Indices 1 2 3 4 5 6 
#
# 1 83.5468 14.4092 33.8447 0.0000 17.0114 0.0000
# 2 14.4092 99.2762 25.7445 0.0000 0.5755 0.0000
# 3 33.8447 25.7445 101.4298 0.0000 4.4320 0.0000
# 4 0.0000 0.0000 0.0000 22.8437 0.0000 3.9206
# 5 17.0114 0.5755 4.4320 0.0000 31.7176 0.0000
# 6 0.0000 0.0000 0.0000 3.9206 0.0000 27.3044
#
#
#
# Elastic Compliance Matrix: (Units=1/GPa)
#
#
# Indices 1 2 3 4 5 6 
#
# 1 0.015576 -0.001023 -0.004602 0.000000 -0.007693 0.000000
# 2 -0.001023 0.010851 -0.002443 0.000000 0.000693 0.000000
# 3 -0.004602 -0.002443 0.011978 0.000000 0.000839 0.000000
# 4 0.000000 0.000000 0.000000 0.044882 0.000000 -0.006445
# 5 -0.007693 0.000693 0.000839 0.000000 0.035524 0.000000
# 6 0.000000 0.000000 0.000000 -0.006445 0.000000 0.037549
#
#
# Mechanical properties :
#
#
# Convention : Reuss Voigt Hill
#
# Bulk Modulus (GPa) = 44.90387 48.02774 46.46580
# Shear Modulus (GPa) = 27.79026 30.39011 29.09019
#
# Velocity S-wave (km/s) = 3.77858 3.95138 3.86595
# Velocity P-wave (km/s) = 6.48899 6.74484 6.61816
#
# Compressibility (1/GPa) = 0.02226980
#
# Stress axis : x y z
#
# Youngs Moduli (GPa) = 64.20045 92.15817 83.48665
#
# Poissons Ratio (x) = 0.09426 0.38418
# Poissons Ratio (y) = 0.06567 0.20397
# Poissons Ratio (z) = 0.29543 0.22515
#
# Static dielectric constant tensor:
#      x y z
#    x 3.322590 0.000000 0.136520 
#    y 0.000000 3.629950 0.000000 
#    z 0.136520 0.000000 3.450740 
# 
# 
# High freq. dielectric constant tensor:
#      x y z
#    x 1.739770 0.000000 0.020900 
#    y 0.000000 1.774970 0.000000 
#    z 0.020900 0.000000 1.738630 
# 
# From -- ./inp_files/13101.got.cif
#   From: 2010.03.12/outbox.cif.g09.slc.cpg/sg4_7_cif.got.tgz:13101.got - 2010.03.31 09:31:35.
