data_PCOD8045535
_publ_section_title
;
Structure prediction by ZEFSAII (Michael W. Deem and Ramdas Pophale) SiO2 
 PCOD8045535
Probable space group: P 2
;
_chemical_formula_sum "Si O2"
_cell_formula_units_Z 14
_cell_length_a 8.256200
_cell_length_b 8.216248
_cell_length_c 9.294338
_cell_angle_alpha 90.000000
_cell_angle_beta 114.547910
_cell_angle_gamma 90.000000
_cell_volume 573.494733
_symmetry_space_group_name_H-M "P 2"
_symmetry_group_IT_number 3
_symmetry_cell_setting 'monoclinic'
loop_
_space_group_symop_operation_xyz
x,y,z
-x,y,-z
loop_
_atom_site_type_symbol
_atom_site_label
_atom_site_fract_x
_atom_site_fract_y
_atom_site_fract_z
Si Si1 0.500000 0.462960 0.500000
Si Si2 0.539116 0.931026 0.852950
Si Si3 0.715622 0.742718 0.697647
Si Si4 0.700767 0.418527 0.078055
Si Si5 0.329726 0.241274 0.656815
Si Si6 0.146891 0.110496 0.950205
Si Si7 0.904295 0.011997 0.600108
Si Si8 0.000000 0.603921 0.000000
O O1 0.669562 0.578796 0.593773
O O2 0.477842 0.345650 0.628532
O O3 0.541644 0.787154 0.733909
O O4 0.412265 0.080123 0.763212
O O5 0.500000 0.866812 0.000000
O O6 0.752877 0.965354 0.931537
O O7 0.752468 0.893653 0.604823
O O8 0.896882 0.715622 0.850549
O O9 0.756090 0.372139 0.262595
O O10 0.692365 0.240143 0.003190
O O11 0.853055 0.511980 0.045426
O O12 0.500000 0.496013 0.000000
O O13 0.183682 0.180546 0.487970
O O14 0.061492 0.058760 0.767646
O O15 0.000000 0.186984 0.000000
O O16 0.000000 0.923870 0.500000
#
# Coordination Sequence:
#
# PCOD8045535 Si02
#       8
#     1   2   2   2   2   2   2   1
#     4  12  30  44  66 102 162 200 236 296 382 458
#     4  12  23  46  78 107 139 189 257 312 363 430
#     4  12  28  47  67 106 153 203 239 298 379 455
#     4  12  24  45  77 117 142 188 255 312 376 431
#     4  12  25  44  75 108 142 192 252 312 368 432
#     4  12  22  41  76 110 141 183 247 322 363 421
#     4  12  25  44  74 108 142 186 251 313 367 429
#     4  12  30  48  76 106 156 202 246 304 376 458
#
# _framework density 24.411729000000001
#
# number of rings (size 3 to 8) (size 9 to 14) (size 15 to 20)
#    0.000    0.000    6.429    3.429    2.000    2.857 
#    0.000    0.000    0.000    0.000    0.000    0.000 
#    0.000    0.000    0.000    0.000    0.000    0.000 
#
# Total GULP energy -173435.246841 kJ/mol
# GULP energy per Si atom -12388.231917 kJ/mol
# Density = 2.435617 g / cm^3
# Si number density = 24.411729 Si / 1000 Ang^3
#
#
#
# Elastic Constant Matrix: (Units=GPa)
#
#
# Indices 1 2 3 4 5 6 
#
# 1 146.4665 40.4665 27.3765 0.0000 -25.3969 0.0000
# 2 40.4665 75.4027 28.4813 0.0000 -13.3051 0.0000
# 3 27.3765 28.4813 95.7913 0.0000 -2.7736 0.0000
# 4 0.0000 0.0000 0.0000 28.3360 0.0000 5.0144
# 5 -25.3969 -13.3051 -2.7736 0.0000 57.2532 0.0000
# 6 0.0000 0.0000 0.0000 5.0144 0.0000 25.5923
#
#
#
# Elastic Compliance Matrix: (Units=1/GPa)
#
#
# Indices 1 2 3 4 5 6 
#
# 1 0.008566 -0.003596 -0.001295 0.000000 0.002901 0.000000
# 2 -0.003596 0.017084 -0.003988 0.000000 0.002182 0.000000
# 3 -0.001295 -0.003988 0.011969 0.000000 -0.000921 0.000000
# 4 0.000000 0.000000 0.000000 0.036558 0.000000 -0.007163
# 5 0.002901 0.002182 -0.000921 0.000000 0.019216 0.000000
# 6 0.000000 0.000000 0.000000 -0.007163 0.000000 0.040478
#
#
# Mechanical properties :
#
#
# Convention : Reuss Voigt Hill
#
# Bulk Modulus (GPa) = 50.35420 56.70101 53.52761
# Shear Modulus (GPa) = 31.59577 36.99205 34.29391
#
# Velocity S-wave (km/s) = 3.60152 3.89696 3.75215
# Velocity P-wave (km/s) = 6.16169 6.59741 6.38327
#
# Compressibility (1/GPa) = 0.01985932
#
# Stress axis : x y z
#
# Youngs Moduli (GPa) = 116.73788 58.53572 83.55166
#
# Poissons Ratio (x) = 0.21050 0.10819
# Poissons Ratio (y) = 0.41981 0.33324
# Poissons Ratio (z) = 0.15117 0.23347
#
# Static dielectric constant tensor:
#      x y z
#    x 4.484520 0.000000 -0.301090 
#    y 0.000000 4.227510 0.000000 
#    z -0.301090 0.000000 4.561160 
# 
# 
# High freq. dielectric constant tensor:
#      x y z
#    x 1.983330 0.000000 -0.012910 
#    y 0.000000 1.953470 0.000000 
#    z -0.012910 0.000000 1.983590 
# 
# From -- ./inp_files/5679.got.cif
#   From: 2010.03.12/outbox.cif.g09.slc.cpg/sg3_3_cif.got.tgz:5679.got - 2010.03.31 09:20:49.
