data_PCOD8045698
_publ_section_title
;
Structure prediction by ZEFSAII (Michael W. Deem and Ramdas Pophale) SiO2 
 PCOD8045698
Probable space group: P 21
;
_chemical_formula_sum "Si O2"
_cell_formula_units_Z 10
_cell_length_a 14.231913
_cell_length_b 4.864887
_cell_length_c 5.806465
_cell_angle_alpha 90.000000
_cell_angle_beta 93.585327
_cell_angle_gamma 90.000000
_cell_volume 401.233333
_symmetry_space_group_name_H-M "P 21"
_symmetry_group_IT_number 4
_symmetry_cell_setting 'monoclinic'
loop_
_space_group_symop_operation_xyz
x,y,z
-x,1/2+y,-z
loop_
_atom_site_type_symbol
_atom_site_label
_atom_site_fract_x
_atom_site_fract_y
_atom_site_fract_z
Si Si1 0.747599 0.478560 0.588248
Si Si2 0.855908 0.128376 0.942751
Si Si3 0.995012 0.795766 0.656593
Si Si4 0.561693 0.699794 0.485413
Si Si5 0.274377 0.443285 0.713969
O O1 0.816630 0.393470 0.803249
O O2 0.643765 0.576846 0.666966
O O3 0.729220 0.237715 0.404248
O O4 0.791321 0.736402 0.450564
O O5 0.907727 0.919598 0.781141
O O6 0.767557 0.960706 0.035217
O O7 0.920446 0.243896 0.154754
O O8 0.968081 0.505106 0.534773
O O9 0.492281 0.452795 0.400384
O O10 0.618186 0.822771 0.269403
#
# Coordination Sequence:
#
# PCOD8045698 Si02
#       5
#     2   2   2   2   2
#     4  10  24  43  74 111 147 199 250 307 370 447
#     4  12  28  50  78 112 152 206 254 308 382 438
#     4  12  30  52  74 114 154 200 256 316 370 456
#     4  10  18  44  76 108 154 198 238 312 382 434
#     4  10  24  43  74 111 147 199 250 307 370 447
#
# _framework density 24.923152999999999
#
# number of rings (size 3 to 8) (size 9 to 14) (size 15 to 20)
#    1.200    0.000    2.000    2.400    0.000   17.600 
#    0.000    0.000    8.800    0.000    0.000    0.000 
#    0.000    0.000    0.000    0.000    0.000    0.000 
#
# Total GULP energy -123910.976722 kJ/mol
# GULP energy per Si atom -12391.097672 kJ/mol
# Density = 2.486643 g / cm^3
# Si number density = 24.923153 Si / 1000 Ang^3
#
#
#
# Elastic Constant Matrix: (Units=GPa)
#
#
# Indices 1 2 3 4 5 6 
#
# 1 107.4209 46.2963 40.2470 0.0000 -27.5890 0.0000
# 2 46.2963 143.1826 30.8114 0.0000 -12.4516 0.0000
# 3 40.2470 30.8114 81.9026 0.0000 -16.6806 0.0000
# 4 0.0000 0.0000 0.0000 38.9558 0.0000 12.6842
# 5 -27.5890 -12.4516 -16.6806 0.0000 24.9050 0.0000
# 6 0.0000 0.0000 0.0000 12.6842 0.0000 45.4768
#
#
#
# Elastic Compliance Matrix: (Units=1/GPa)
#
#
# Indices 1 2 3 4 5 6 
#
# 1 0.015357 -0.003027 -0.003765 0.000000 0.012977 0.000000
# 2 -0.003027 0.008300 -0.001705 0.000000 -0.000346 0.000000
# 3 -0.003765 -0.001705 0.015839 0.000000 0.005585 0.000000
# 4 0.000000 0.000000 0.000000 0.028234 0.000000 -0.007875
# 5 0.012977 -0.000346 0.005585 0.000000 0.058097 0.000000
# 6 0.000000 0.000000 0.000000 -0.007875 0.000000 0.024186
#
#
# Mechanical properties :
#
#
# Convention : Reuss Voigt Hill
#
# Bulk Modulus (GPa) = 44.44130 63.02394 53.73262
# Shear Modulus (GPa) = 28.65220 36.21094 32.43157
#
# Velocity S-wave (km/s) = 3.39429 3.81583 3.61122
# Velocity P-wave (km/s) = 5.76469 6.69002 6.24451
#
# Compressibility (1/GPa) = 0.02250159
#
# Stress axis : x y z
#
# Youngs Moduli (GPa) = 65.11567 120.48638 63.13664
#
# Poissons Ratio (x) = 0.36470 0.23770
# Poissons Ratio (y) = 0.19710 0.10767
# Poissons Ratio (z) = 0.24515 0.20547
#
# Static dielectric constant tensor:
#      x y z
#    x 4.782210 0.000000 -0.199470 
#    y 0.000000 4.824630 0.000000 
#    z -0.199470 0.000000 4.103930 
# 
# 
# High freq. dielectric constant tensor:
#      x y z
#    x 2.007340 0.000000 -0.009010 
#    y 0.000000 2.025060 0.000000 
#    z -0.009010 0.000000 1.944980 
# 
# From -- ./inp_files/3332.got.cif
#   From: 2010.03.12/outbox.cif.g09.slc.cpg/sg4_2_cif.got.tgz:3332.got - 2010.03.31 09:31:35.
