data_PCOD8045064
_publ_section_title
;
Structure prediction by ZEFSAII (Michael W. Deem and Ramdas Pophale) SiO2 
 PCOD8045064
Probable space group: P 2
;
_chemical_formula_sum "Si O2"
_cell_formula_units_Z 12
_cell_length_a 8.710152
_cell_length_b 9.529099
_cell_length_c 8.889220
_cell_angle_alpha 90.000000
_cell_angle_beta 59.065087
_cell_angle_gamma 90.000000
_cell_volume 632.853049
_symmetry_space_group_name_H-M "P 2"
_symmetry_group_IT_number 3
_symmetry_cell_setting 'monoclinic'
loop_
_space_group_symop_operation_xyz
x,y,z
-x,y,-z
loop_
_atom_site_type_symbol
_atom_site_label
_atom_site_fract_x
_atom_site_fract_y
_atom_site_fract_z
Si Si1 0.529251 0.638950 0.813126
Si Si2 0.298740 0.914659 0.673605
Si Si3 0.176653 0.461953 0.505195
Si Si4 0.168131 0.631300 0.807205
Si Si5 0.673249 0.164383 0.513240
Si Si6 0.520173 0.956430 0.821055
O O1 0.665221 0.536501 0.662989
O O2 0.345213 0.619042 0.816873
O O3 0.605884 0.798862 0.769513
O O4 0.500000 0.591537 0.000000
O O5 0.500000 0.891889 0.500000
O O6 0.171677 0.780398 0.716215
O O7 0.209780 0.052719 0.644211
O O8 0.325998 0.942646 0.838185
O O9 0.157286 0.512873 0.686121
O O10 0.211320 0.296582 0.498457
O O11 0.000000 0.491094 0.500000
O O12 0.000000 0.617871 0.000000
O O13 0.500000 0.208391 0.500000
O O14 0.631026 0.079453 0.686618
O O15 0.500000 0.007451 0.000000
#
# Coordination Sequence:
#
# PCOD8045064 Si02
#       6
#     2   2   2   2   2   2
#     4  10  20  38  62  87 113 146 185 231 282 334
#     4   8  16  34  58  81 106 144 184 221 277 336
#     4  12  24  38  54  81 117 154 192 231 275 331
#     4  11  21  37  60  87 113 145 186 234 282 333
#     4   9  18  35  56  77 106 150 186 222 277 332
#     4   8  15  30  56  85 107 133 181 229 273 330
#
# _framework density 18.961746999999999
#
# number of rings (size 3 to 8) (size 9 to 14) (size 15 to 20)
#    0.000    2.667    0.000    5.500    0.000    0.667 
#    0.000   12.500    0.000    0.000    0.000    0.000 
#    0.000    0.000    0.000    0.000    0.000    0.000 
#
# Total GULP energy -148680.220647 kJ/mol
# GULP energy per Si atom -12390.018387 kJ/mol
# Density = 1.891859 g / cm^3
# Si number density = 18.961747 Si / 1000 Ang^3
#
#
#
# Elastic Constant Matrix: (Units=GPa)
#
#
# Indices 1 2 3 4 5 6 
#
# 1 89.8395 38.6935 49.6512 0.0000 4.4222 0.0000
# 2 38.6935 135.1399 67.7334 0.0000 -2.0120 0.0000
# 3 49.6512 67.7334 137.1756 0.0000 12.5384 0.0000
# 4 0.0000 0.0000 0.0000 17.5251 0.0000 10.5943
# 5 4.4222 -2.0120 12.5384 0.0000 33.9253 0.0000
# 6 0.0000 0.0000 0.0000 10.5943 0.0000 22.0267
#
#
#
# Elastic Compliance Matrix: (Units=1/GPa)
#
#
# Indices 1 2 3 4 5 6 
#
# 1 0.014315 -0.002033 -0.004136 0.000000 -0.000458 0.000000
# 2 -0.002033 0.010325 -0.004598 0.000000 0.002577 0.000000
# 3 -0.004136 -0.004598 0.011419 0.000000 -0.003954 0.000000
# 4 0.000000 0.000000 0.000000 0.080454 0.000000 -0.038696
# 5 -0.000458 0.002577 -0.003954 0.000000 0.031150 0.000000
# 6 0.000000 0.000000 0.000000 -0.038696 0.000000 0.064011
#
#
# Mechanical properties :
#
#
# Convention : Reuss Voigt Hill
#
# Bulk Modulus (GPa) = 68.84441 74.92345 71.88393
# Shear Modulus (GPa) = 21.00428 28.43388 24.71908
#
# Velocity S-wave (km/s) = 3.33185 3.87659 3.61450
# Velocity P-wave (km/s) = 7.15454 7.72243 7.44390
#
# Compressibility (1/GPa) = 0.01452551
#
# Stress axis : x y z
#
# Youngs Moduli (GPa) = 69.85885 96.85692 87.57697
#
# Poissons Ratio (x) = 0.19686 0.36220
# Poissons Ratio (y) = 0.14199 0.40266
# Poissons Ratio (z) = 0.28892 0.44533
#
# Static dielectric constant tensor:
#      x y z
#    x 3.189510 0.000000 0.316000 
#    y 0.000000 3.619980 0.000000 
#    z 0.316000 0.000000 3.579280 
# 
# 
# High freq. dielectric constant tensor:
#      x y z
#    x 1.708900 0.000000 0.029860 
#    y 0.000000 1.742980 0.000000 
#    z 0.029860 0.000000 1.740650 
# 
# From -- ./inp_files/5078.got.cif
#   From: 2010.03.12/outbox.cif.g09.slc.cpg/sg3_3_cif.got.tgz:5078.got - 2010.03.31 09:20:49.
