data_PCOD8045204
_publ_section_title
;
Structure prediction by ZEFSAII (Michael W. Deem and Ramdas Pophale) SiO2 
 PCOD8045204
Probable space group: P 2
;
_chemical_formula_sum "Si O2"
_cell_formula_units_Z 8
_cell_length_a 7.773449
_cell_length_b 5.245422
_cell_length_c 14.252501
_cell_angle_alpha 90.000000
_cell_angle_beta 144.896478
_cell_angle_gamma 90.000000
_cell_volume 334.191240
_symmetry_space_group_name_H-M "P 2"
_symmetry_group_IT_number 3
_symmetry_cell_setting 'monoclinic'
loop_
_space_group_symop_operation_xyz
x,y,z
-x,y,-z
loop_
_atom_site_type_symbol
_atom_site_label
_atom_site_fract_x
_atom_site_fract_y
_atom_site_fract_z
Si Si1 0.154885 0.678880 0.318755
Si Si2 0.574235 0.593190 0.142372
Si Si3 0.301379 0.178880 0.318755
Si Si4 0.352881 0.093190 0.142373
O O1 0.500000 0.722228 0.500000
O O2 0.115899 0.444412 0.227683
O O3 0.936979 0.630038 0.310370
O O4 0.067149 0.944412 0.227684
O O5 0.488843 0.310090 0.136604
O O6 0.420966 0.810090 0.136602
O O7 0.500000 0.632920 0.000000
O O8 0.500000 0.222230 0.500000
O O9 0.494131 0.130036 0.310370
O O10 0.000000 0.132921 0.000000
#
# Coordination Sequence:
#
# PCOD8045204 Si02
#       4
#     2   2   2   2
#     4  10  21  41  63  88 127 168 204 257 314 368
#     4  12  24  41  66  96 126 166 213 261 315 376
#     4  10  21  41  63  88 127 168 204 257 314 368
#     4  12  24  41  66  96 126 166 213 261 315 376
#
# _framework density 23.938386999999999
#
# number of rings (size 3 to 8) (size 9 to 14) (size 15 to 20)
#    0.000    1.000    0.000    7.500    0.000    0.000 
#    0.000   30.000    0.000    0.000    0.000    0.000 
#    0.000    0.000    0.000    0.000    0.000    0.000 
#
# Total GULP energy -99123.296147 kJ/mol
# GULP energy per Si atom -12390.412018 kJ/mol
# Density = 2.388390 g / cm^3
# Si number density = 23.938387 Si / 1000 Ang^3
#
#
#
# Elastic Constant Matrix: (Units=GPa)
#
#
# Indices 1 2 3 4 5 6 
#
# 1 112.6268 19.9594 17.1946 0.0000 2.0798 0.0000
# 2 19.9594 189.3718 -26.9634 0.0000 -3.9170 0.0000
# 3 17.1946 -26.9634 55.8981 0.0000 -6.8153 0.0000
# 4 0.0000 0.0000 0.0000 5.4959 0.0000 -5.1908
# 5 2.0798 -3.9170 -6.8153 0.0000 59.4310 0.0000
# 6 0.0000 0.0000 0.0000 -5.1908 0.0000 67.6791
#
#
#
# Elastic Compliance Matrix: (Units=1/GPa)
#
#
# Indices 1 2 3 4 5 6 
#
# 1 0.009773 -0.001602 -0.003888 0.000000 -0.000893 0.000000
# 2 -0.001602 0.005961 0.003472 0.000000 0.000847 0.000000
# 3 -0.003888 0.003472 0.021100 0.000000 0.002785 0.000000
# 4 0.000000 0.000000 0.000000 0.196164 0.000000 0.015045
# 5 -0.000893 0.000847 0.002785 0.000000 0.017233 0.000000
# 6 0.000000 0.000000 0.000000 0.015045 0.000000 0.015930
#
#
# Mechanical properties :
#
#
# Convention : Reuss Voigt Hill
#
# Bulk Modulus (GPa) = 30.49046 42.03087 36.26066
# Shear Modulus (GPa) = 17.78541 49.70161 33.74351
#
# Velocity S-wave (km/s) = 2.72870 4.56151 3.75853
# Velocity P-wave (km/s) = 4.76366 6.73344 5.83231
#
# Compressibility (1/GPa) = 0.03279714
#
# Stress axis : x y z
#
# Youngs Moduli (GPa) = 102.32412 167.74865 47.39389
#
# Poissons Ratio (x) = 0.26875 0.18426
# Poissons Ratio (y) = 0.16393 -0.16453
# Poissons Ratio (z) = 0.39783 -0.58236
#
# Static dielectric constant tensor:
#      x y z
#    x 4.905930 0.000000 -0.033180 
#    y 0.000000 5.669840 0.000000 
#    z -0.033180 0.000000 4.508480 
# 
# 
# High freq. dielectric constant tensor:
#      x y z
#    x 1.949430 0.000000 -0.001920 
#    y 0.000000 1.992650 0.000000 
#    z -0.001920 0.000000 1.926440 
# 
# From -- ./inp_files/732.got.cif
#   From: 2010.03.12/outbox.cif.g09.slc.cpg/sg3_1_cif.got.tgz:732.got - 2010.03.31 09:20:49.
