data_PCOD8045670
_publ_section_title
;
Structure prediction by ZEFSAII (Michael W. Deem and Ramdas Pophale) SiO2 
 PCOD8045670
Probable space group: P 21
;
_chemical_formula_sum "Si O2"
_cell_formula_units_Z 14
_cell_length_a 12.116706
_cell_length_b 9.125959
_cell_length_c 8.679223
_cell_angle_alpha 90.000000
_cell_angle_beta 49.431438
_cell_angle_gamma 90.000000
_cell_volume 729.029412
_symmetry_space_group_name_H-M "P 21"
_symmetry_group_IT_number 4
_symmetry_cell_setting 'monoclinic'
loop_
_space_group_symop_operation_xyz
x,y,z
-x,1/2+y,-z
loop_
_atom_site_type_symbol
_atom_site_label
_atom_site_fract_x
_atom_site_fract_y
_atom_site_fract_z
Si Si1 0.155970 0.878650 0.228564
Si Si2 0.322919 0.297335 0.067872
Si Si3 0.434096 0.012906 0.108453
Si Si4 0.939367 0.661133 0.537144
Si Si5 0.252711 0.073996 0.558316
Si Si6 0.910972 0.448546 0.038997
Si Si7 0.821720 0.763152 0.117395
O O1 0.319669 0.899369 0.137744
O O2 0.094992 0.737311 0.374802
O O3 0.148867 0.853740 0.050882
O O4 0.056394 0.022347 0.352666
O O5 0.174046 0.283732 0.297972
O O6 0.428631 0.160712 0.012874
O O7 0.405124 0.445996 0.042602
O O8 0.289560 0.303972 0.916951
O O9 0.392586 0.040857 0.326122
O O10 0.887381 0.603473 0.419688
O O11 0.276001 0.219738 0.643436
O O12 0.205423 0.937549 0.712921
O O13 0.070868 0.397347 0.944537
O O14 0.919753 0.620927 0.982778
#
# Coordination Sequence:
#
# PCOD8045670 Si02
#       7
#     2   2   2   2   2   2   2
#     4  10  19  35  58  84 113 147 184 242 287 330
#     4  10  22  39  58  81 117 156 189 236 282 335
#     4  10  21  40  58  80 116 157 190 236 277 342
#     4  10  19  33  58  85 111 143 192 237 280 335
#     4   8  18  34  57  79 114 142 185 228 289 327
#     4  10  18  35  60  85 118 142 180 239 294 332
#     4  10  19  36  59  84 119 145 182 238 293 335
#
# _framework density 19.203614000000002
#
# number of rings (size 3 to 8) (size 9 to 14) (size 15 to 20)
#    0.857    1.714    4.286    0.000    4.000    1.143 
#    2.571    5.714    3.143    0.000    0.000    0.000 
#    0.000    0.000    0.000    0.000    0.000    0.000 
#
# Total GULP energy -173441.941255 kJ/mol
# GULP energy per Si atom -12388.710090 kJ/mol
# Density = 1.915991 g / cm^3
# Si number density = 19.203614 Si / 1000 Ang^3
#
#
#
# Elastic Constant Matrix: (Units=GPa)
#
#
# Indices 1 2 3 4 5 6 
#
# 1 80.6302 18.0272 23.5656 0.0000 20.7197 0.0000
# 2 18.0272 29.3469 -0.4288 0.0000 -5.0250 0.0000
# 3 23.5656 -0.4288 54.1149 0.0000 19.9946 0.0000
# 4 0.0000 0.0000 0.0000 28.4957 0.0000 -12.4186
# 5 20.7197 -5.0250 19.9946 0.0000 28.4679 0.0000
# 6 0.0000 0.0000 0.0000 -12.4186 0.0000 34.2842
#
#
#
# Elastic Compliance Matrix: (Units=1/GPa)
#
#
# Indices 1 2 3 4 5 6 
#
# 1 0.020870 -0.015521 -0.003493 0.000000 -0.015476 0.000000
# 2 -0.015521 0.046979 -0.000144 0.000000 0.019690 0.000000
# 3 -0.003493 -0.000144 0.025752 0.000000 -0.015570 0.000000
# 4 0.000000 0.000000 0.000000 0.041671 0.000000 0.015094
# 5 -0.015476 0.019690 -0.015570 0.000000 0.060803 0.000000
# 6 0.000000 0.000000 0.000000 0.015094 0.000000 0.034635
#
#
# Mechanical properties :
#
#
# Convention : Reuss Voigt Hill
#
# Bulk Modulus (GPa) = 18.08817 27.37999 22.73408
# Shear Modulus (GPa) = 17.39397 26.44476 21.91937
#
# Velocity S-wave (km/s) = 3.01286 3.71492 3.38215
# Velocity P-wave (km/s) = 4.64141 5.71747 5.20731
#
# Compressibility (1/GPa) = 0.05528477
#
# Stress axis : x y z
#
# Youngs Moduli (GPa) = 47.91462 21.28614 38.83167
#
# Poissons Ratio (x) = 0.33039 0.13565
# Poissons Ratio (y) = 0.74370 0.00558
# Poissons Ratio (z) = 0.16738 0.00306
#
# Static dielectric constant tensor:
#      x y z
#    x 3.325330 0.000000 0.328310 
#    y 0.000000 3.319780 0.000000 
#    z 0.328310 0.000000 3.424290 
# 
# 
# High freq. dielectric constant tensor:
#      x y z
#    x 1.736690 0.000000 0.029660 
#    y 0.000000 1.726650 0.000000 
#    z 0.029660 0.000000 1.731510 
# 
# From -- ./inp_files/8171.got.cif
#   From: 2010.03.12/outbox.cif.g09.slc.cpg/sg4_5_cif.got.tgz:8171.got - 2010.03.31 09:31:35.
