data_PCOD8045731
_publ_section_title
;
Structure prediction by ZEFSAII (Michael W. Deem and Ramdas Pophale) SiO2 
 PCOD8045731
Probable space group: P 21
;
_chemical_formula_sum "Si O2"
_cell_formula_units_Z 14
_cell_length_a 15.093272
_cell_length_b 5.297975
_cell_length_c 9.778270
_cell_angle_alpha 90.000000
_cell_angle_beta 59.682834
_cell_angle_gamma 90.000000
_cell_volume 674.977156
_symmetry_space_group_name_H-M "P 21"
_symmetry_group_IT_number 4
_symmetry_cell_setting 'monoclinic'
loop_
_space_group_symop_operation_xyz
x,y,z
-x,1/2+y,-z
loop_
_atom_site_type_symbol
_atom_site_label
_atom_site_fract_x
_atom_site_fract_y
_atom_site_fract_z
Si Si1 0.714468 0.520490 0.475459
Si Si2 0.091863 0.680105 0.737873
Si Si3 0.293935 0.197696 0.814372
Si Si4 0.828498 0.192455 0.034351
Si Si5 0.946072 0.019993 0.704252
Si Si6 0.493943 0.797880 0.417659
Si Si7 0.861615 0.791574 0.519368
O O1 0.810524 0.342584 0.378297
O O2 0.703035 0.706118 0.353992
O O3 0.611257 0.360154 0.582189
O O4 0.747206 0.677411 0.586112
O O5 0.091488 0.662840 0.902652
O O6 0.106243 0.417193 0.649898
O O7 0.982782 0.794508 0.775655
O O8 0.234779 0.432258 0.925249
O O9 0.414774 0.225415 0.760092
O O10 0.247533 0.930762 0.897874
O O11 0.894372 0.227751 0.844158
O O12 0.858323 0.951447 0.661125
O O13 0.044491 0.095028 0.535526
O O14 0.472466 0.554089 0.529143
#
# Coordination Sequence:
#
# PCOD8045731 Si02
#       7
#     2   2   2   2   2   2   2
#     4   9  20  34  59  91 120 162 197 262 313 362
#     4  10  21  37  56  83 125 156 211 253 305 366
#     4  10  20  38  57  93 128 154 204 259 315 376
#     4  11  24  38  60  90 126 167 203 259 315 365
#     4  11  25  36  61  85 123 175 210 256 309 369
#     4  10  19  33  62  95 129 159 201 262 327 369
#     4  11  21  40  55  87 125 161 216 255 300 377
#
# _framework density 20.741441999999999
#
# number of rings (size 3 to 8) (size 9 to 14) (size 15 to 20)
#    0.000    1.714    2.857    2.571    6.000    0.000 
#    0.000    0.000    0.000    0.000    3.714    0.000 
#    0.000    0.000    0.000    0.000    0.000    0.000 
#
# Total GULP energy -173452.878857 kJ/mol
# GULP energy per Si atom -12389.491347 kJ/mol
# Density = 2.069423 g / cm^3
# Si number density = 20.741442 Si / 1000 Ang^3
#
#
#
# Elastic Constant Matrix: (Units=GPa)
#
#
# Indices 1 2 3 4 5 6 
#
# 1 118.0212 35.3996 47.0101 0.0000 0.2047 0.0000
# 2 35.3996 99.7810 18.6095 0.0000 -1.4266 0.0000
# 3 47.0101 18.6095 77.6129 0.0000 8.3194 0.0000
# 4 0.0000 0.0000 0.0000 26.0775 0.0000 -5.4632
# 5 0.2047 -1.4266 8.3194 0.0000 26.3965 0.0000
# 6 0.0000 0.0000 0.0000 -5.4632 0.0000 35.8040
#
#
#
# Elastic Compliance Matrix: (Units=1/GPa)
#
#
# Indices 1 2 3 4 5 6 
#
# 1 0.012074 -0.002989 -0.006799 0.000000 0.001888 0.000000
# 2 -0.002989 0.011282 -0.000996 0.000000 0.000947 0.000000
# 3 -0.006799 -0.000996 0.017845 0.000000 -0.005625 0.000000
# 4 0.000000 0.000000 0.000000 0.039614 0.000000 0.006045
# 5 0.001888 0.000947 -0.005625 0.000000 0.039693 0.000000
# 6 0.000000 0.000000 0.000000 0.006045 0.000000 0.028852
#
#
# Mechanical properties :
#
#
# Convention : Reuss Voigt Hill
#
# Bulk Modulus (GPa) = 50.93652 55.27262 53.10457
# Shear Modulus (GPa) = 28.17345 30.61534 29.39439
#
# Velocity S-wave (km/s) = 3.68953 3.84610 3.76863
# Velocity P-wave (km/s) = 6.53922 6.81393 6.67798
#
# Compressibility (1/GPa) = 0.01963228
#
# Stress axis : x y z
#
# Youngs Moduli (GPa) = 82.81938 88.64004 56.03928
#
# Poissons Ratio (x) = 0.26491 0.38103
# Poissons Ratio (y) = 0.24752 0.05583
# Poissons Ratio (z) = 0.56311 0.08831
#
# Static dielectric constant tensor:
#      x y z
#    x 4.349910 0.000000 -0.051530 
#    y 0.000000 3.969890 0.000000 
#    z -0.051530 0.000000 3.418140 
# 
# 
# High freq. dielectric constant tensor:
#      x y z
#    x 1.811270 0.000000 -0.011640 
#    y 0.000000 1.822700 0.000000 
#    z -0.011640 0.000000 1.766370 
# 
# From -- ./inp_files/8910.got.cif
#   From: 2010.03.12/outbox.cif.g09.slc.cpg/sg4_5_cif.got.tgz:8910.got - 2010.03.31 09:31:35.
