data_PCOD8045552
_publ_section_title
;
Structure prediction by ZEFSAII (Michael W. Deem and Ramdas Pophale) SiO2 
 PCOD8045552
Probable space group: P 2
;
_chemical_formula_sum "Si O2"
_cell_formula_units_Z 9
_cell_length_a 18.070823
_cell_length_b 5.240802
_cell_length_c 12.013432
_cell_angle_alpha 90.000000
_cell_angle_beta 18.807113
_cell_angle_gamma 90.000000
_cell_volume 366.788069
_symmetry_space_group_name_H-M "P 2"
_symmetry_group_IT_number 3
_symmetry_cell_setting 'monoclinic'
loop_
_space_group_symop_operation_xyz
x,y,z
-x,y,-z
loop_
_atom_site_type_symbol
_atom_site_label
_atom_site_fract_x
_atom_site_fract_y
_atom_site_fract_z
Si Si1 0.985312 0.990390 0.850623
Si Si2 0.403400 0.251858 0.331816
Si Si3 0.183372 0.927782 0.328802
Si Si4 0.702896 0.488604 0.293554
Si Si5 0.500000 0.552027 0.000000
O O1 0.054945 0.012283 0.622771
O O2 0.891303 0.711252 0.017548
O O3 0.202931 0.035972 0.624888
O O4 0.796449 0.208741 0.132579
O O5 0.396860 0.458754 0.439783
O O6 0.332256 0.384430 0.315777
O O7 0.662588 0.147038 0.949025
O O8 0.354386 0.703807 0.117429
O O9 0.000000 0.829456 0.500000
O O10 0.500000 0.566315 0.500000
#
# Coordination Sequence:
#
# PCOD8045552 Si02
#       5
#     2   2   2   2   1
#     4  12  26  51  76 119 153 214 259 328 400 473
#     4  12  27  50  77 113 159 210 263 332 394 480
#     4  12  27  47  80 113 159 206 270 326 393 471
#     4  12  30  50  80 115 161 206 270 322 405 471
#     4  12  24  48  76 114 154 206 266 322 394 464
#
# _framework density 24.537331999999999
#
# number of rings (size 3 to 8) (size 9 to 14) (size 15 to 20)
#    0.000    0.000    4.444    4.000    6.222    4.444 
#    0.000    0.000    0.000    0.000    0.000    0.000 
#    0.000    0.000    0.000    0.000    0.000    0.000 
#
# Total GULP energy -111585.738809 kJ/mol
# GULP energy per Si atom -12398.415423 kJ/mol
# Density = 2.448148 g / cm^3
# Si number density = 24.537332 Si / 1000 Ang^3
#
#
#
# Elastic Constant Matrix: (Units=GPa)
#
#
# Indices 1 2 3 4 5 6 
#
# 1 161.1286 43.8943 60.1367 0.0000 -11.6160 0.0000
# 2 43.8943 121.6406 51.5715 0.0000 7.4645 0.0000
# 3 60.1367 51.5715 122.2386 0.0000 11.5906 0.0000
# 4 0.0000 0.0000 0.0000 134.7007 0.0000 -57.0300
# 5 -11.6160 7.4645 11.5906 0.0000 43.4675 0.0000
# 6 0.0000 0.0000 0.0000 -57.0300 0.0000 80.9571
#
#
#
# Elastic Compliance Matrix: (Units=1/GPa)
#
#
# Indices 1 2 3 4 5 6 
#
# 1 0.008290 -0.001627 -0.003723 0.000000 0.003488 0.000000
# 2 -0.001627 0.010347 -0.003442 0.000000 -0.001294 0.000000
# 3 -0.003723 -0.003442 0.011801 0.000000 -0.003550 0.000000
# 4 0.000000 0.000000 0.000000 0.010579 0.000000 0.007452
# 5 0.003488 -0.001294 -0.003550 0.000000 0.025107 0.000000
# 6 0.000000 0.000000 0.000000 0.007452 0.000000 0.017602
#
#
# Mechanical properties :
#
#
# Convention : Reuss Voigt Hill
#
# Bulk Modulus (GPa) = 77.79573 79.57918 78.68745
# Shear Modulus (GPa) = 47.35092 68.45207 57.90150
#
# Velocity S-wave (km/s) = 4.39766 5.28750 4.86298
# Velocity P-wave (km/s) = 7.58681 8.35339 7.97931
#
# Compressibility (1/GPa) = 0.01285418
#
# Stress axis : x y z
#
# Youngs Moduli (GPa) = 120.62241 96.64780 84.73906
#
# Poissons Ratio (x) = 0.15728 0.31545
# Poissons Ratio (y) = 0.19629 0.29167
# Poissons Ratio (z) = 0.44904 0.33266
#
# Static dielectric constant tensor:
#      x y z
#    x 4.425000 0.000000 0.387110 
#    y 0.000000 4.406030 0.000000 
#    z 0.387110 0.000000 4.109710 
# 
# 
# High freq. dielectric constant tensor:
#      x y z
#    x 1.981290 0.000000 0.017990 
#    y 0.000000 1.980050 0.000000 
#    z 0.017990 0.000000 1.991980 
# 
# From -- ./inp_files/4744.got.cif
#   From: 2010.03.12/outbox.cif.g09.slc.cpg/sg3_3_cif.got.tgz:4744.got - 2010.03.31 09:20:49.
