data_PCOD8045488
_publ_section_title
;
Structure prediction by ZEFSAII (Michael W. Deem and Ramdas Pophale) SiO2 
 PCOD8045488
Probable space group: P 2
;
_chemical_formula_sum "Si O2"
_cell_formula_units_Z 16
_cell_length_a 8.405227
_cell_length_b 9.049053
_cell_length_c 11.779615
_cell_angle_alpha 90.000000
_cell_angle_beta 126.978276
_cell_angle_gamma 90.000000
_cell_volume 715.741710
_symmetry_space_group_name_H-M "P 2"
_symmetry_group_IT_number 3
_symmetry_cell_setting 'monoclinic'
loop_
_space_group_symop_operation_xyz
x,y,z
-x,y,-z
loop_
_atom_site_type_symbol
_atom_site_label
_atom_site_fract_x
_atom_site_fract_y
_atom_site_fract_z
Si Si1 0.210156 0.787990 0.558611
Si Si2 0.298655 0.085495 0.476817
Si Si3 0.714590 0.564581 0.599240
Si Si4 0.792336 0.385409 0.973661
Si Si5 0.025606 0.307255 0.719525
Si Si6 0.215298 0.697837 0.121163
Si Si7 0.602460 0.215487 0.254216
Si Si8 0.476305 0.891187 0.858350
O O1 0.316269 0.680147 0.516260
O O2 0.304564 0.796289 0.724681
O O3 0.000000 0.720430 0.500000
O O4 0.194893 0.947545 0.493071
O O5 0.500000 0.033527 0.500000
O O6 0.375805 0.199464 0.602850
O O7 0.124765 0.167086 0.329277
O O8 0.500000 0.481032 0.500000
O O9 0.756157 0.649058 0.735676
O O10 0.893784 0.453953 0.650142
O O11 0.745197 0.559386 0.945512
O O12 0.594225 0.312986 0.839804
O O13 0.822594 0.324579 0.111686
O O14 0.000000 0.347271 0.000000
O O15 0.184830 0.288503 0.686969
O O16 0.337804 0.842947 0.139343
O O17 0.000000 0.758326 0.000000
O O18 0.566036 0.064793 0.169356
O O19 0.500000 0.846322 0.000000
#
# Coordination Sequence:
#
# PCOD8045488 Si02
#       8
#     2   2   2   2   2   2   2   2
#     4  11  26  44  69 104 143 185 238 303 364 430
#     4  11  24  44  71  99 137 186 241 301 362 428
#     4  12  25  47  73 105 143 191 248 296 360 431
#     4  11  23  44  66 100 140 182 239 290 358 423
#     4  12  24  44  70 100 144 184 235 302 353 434
#     4  11  25  47  69 104 143 187 239 296 352 433
#     4  11  26  45  69 105 140 186 240 294 369 426
#     4  11  25  46  70 102 144 186 237 295 361 434
#
# _framework density 22.354433
#
# number of rings (size 3 to 8) (size 9 to 14) (size 15 to 20)
#    0.000    0.750    3.750    4.500    5.250    3.500 
#    0.000    0.000    0.000    0.000    0.000    0.000 
#    0.000    0.000    0.000    0.000    0.000    0.000 
#
# Total GULP energy -198263.920065 kJ/mol
# GULP energy per Si atom -12391.495004 kJ/mol
# Density = 2.230355 g / cm^3
# Si number density = 22.354433 Si / 1000 Ang^3
#
#
#
# Elastic Constant Matrix: (Units=GPa)
#
#
# Indices 1 2 3 4 5 6 
#
# 1 120.6432 33.2032 32.9241 0.0000 20.8285 0.0000
# 2 33.2032 71.3890 34.3614 0.0000 5.2771 0.0000
# 3 32.9241 34.3614 101.7924 0.0000 2.4200 0.0000
# 4 0.0000 0.0000 0.0000 34.6642 0.0000 6.8019
# 5 20.8285 5.2771 2.4200 0.0000 50.6615 0.0000
# 6 0.0000 0.0000 0.0000 6.8019 0.0000 36.0249
#
#
#
# Elastic Compliance Matrix: (Units=1/GPa)
#
#
# Indices 1 2 3 4 5 6 
#
# 1 0.010515 -0.003598 -0.002095 0.000000 -0.003848 0.000000
# 2 -0.003598 0.018067 -0.004931 0.000000 -0.000167 0.000000
# 3 -0.002095 -0.004931 0.012147 0.000000 0.000795 0.000000
# 4 0.000000 0.000000 0.000000 0.029958 0.000000 -0.005656
# 5 -0.003848 -0.000167 0.000795 0.000000 0.021300 0.000000
# 6 0.000000 0.000000 0.000000 -0.005656 0.000000 0.028827
#
#
# Mechanical properties :
#
#
# Convention : Reuss Voigt Hill
#
# Bulk Modulus (GPa) = 51.33090 54.97801 53.15445
# Shear Modulus (GPa) = 33.65728 37.15918 35.40823
#
# Velocity S-wave (km/s) = 3.88444 4.08152 3.98420
# Velocity P-wave (km/s) = 6.56739 6.84536 6.70782
#
# Compressibility (1/GPa) = 0.01948144
#
# Stress axis : x y z
#
# Youngs Moduli (GPa) = 95.10010 55.34981 82.32331
#
# Poissons Ratio (x) = 0.19913 0.17248
# Poissons Ratio (y) = 0.34215 0.40594
# Poissons Ratio (z) = 0.19925 0.27293
#
# Static dielectric constant tensor:
#      x y z
#    x 3.899050 0.000000 -0.191630 
#    y 0.000000 3.878840 0.000000 
#    z -0.191630 0.000000 4.071150 
# 
# 
# High freq. dielectric constant tensor:
#      x y z
#    x 1.887830 0.000000 0.011820 
#    y 0.000000 1.871960 0.000000 
#    z 0.011820 0.000000 1.901190 
# 
# From -- ./inp_files/10792.got.cif
#   From: 2010.03.12/outbox.cif.g09.slc.cpg/sg3_6_cif.got.tgz:10792.got - 2010.03.31 09:20:49.
