data_PCOD8045616
_publ_section_title
;
Structure prediction by ZEFSAII (Michael W. Deem and Ramdas Pophale) SiO2 
 PCOD8045616
Probable space group: P 21
;
_chemical_formula_sum "Si O2"
_cell_formula_units_Z 16
_cell_length_a 8.971610
_cell_length_b 10.415875
_cell_length_c 18.168251
_cell_angle_alpha 90.000000
_cell_angle_beta 146.588156
_cell_angle_gamma 90.000000
_cell_volume 934.883548
_symmetry_space_group_name_H-M "P 21"
_symmetry_group_IT_number 4
_symmetry_cell_setting 'monoclinic'
loop_
_space_group_symop_operation_xyz
x,y,z
-x,1/2+y,-z
loop_
_atom_site_type_symbol
_atom_site_label
_atom_site_fract_x
_atom_site_fract_y
_atom_site_fract_z
Si Si1 0.328227 0.579950 0.719352
Si Si2 0.951438 0.387828 0.631117
Si Si3 0.974849 0.780595 0.928399
Si Si4 0.380391 0.626346 0.902288
Si Si5 0.525147 0.833127 0.071599
Si Si6 0.880390 0.487375 0.902288
Si Si7 0.451436 0.725892 0.631116
Si Si8 0.171773 0.033770 0.280648
O O1 0.408432 0.656655 0.826970
O O2 0.566986 0.478769 0.798556
O O3 0.285828 0.677019 0.634274
O O4 0.049767 0.504688 0.619900
O O5 0.750005 0.306859 0.500002
O O6 0.785828 0.436700 0.634274
O O7 0.217135 0.311014 0.768482
O O8 0.976562 0.633995 0.958630
O O9 0.717133 0.802708 0.768479
O O10 0.249999 0.806859 1.000000
O O11 0.943695 0.881924 0.982241
O O12 0.476572 0.479728 0.958633
O O13 0.066987 0.634950 0.798556
O O14 0.556302 0.731801 0.017756
O O15 0.908431 0.457065 0.826970
O O16 0.549766 0.609032 0.619898
#
# Coordination Sequence:
#
# PCOD8045616 Si02
#       8
#     2   2   2   2   2   2   2   2
#     4   8  18  35  55  74 110 144 171 219 287 313
#     4  10  20  37  55  76 111 143 180 218 275 324
#     4  10  19  36  57  83 111 139 181 231 266 321
#     4  10  17  34  59  81 108 143 180 223 278 312
#     4  10  19  36  57  83 111 139 181 231 266 321
#     4  10  17  34  59  81 108 143 180 223 278 312
#     4  10  20  37  55  76 111 143 180 218 275 324
#     4   8  18  35  55  74 110 144 171 219 287 313
#
# _framework density 17.114429999999999
#
# number of rings (size 3 to 8) (size 9 to 14) (size 15 to 20)
#    0.000    3.000    5.000    0.000    0.000    4.000 
#    4.500    5.000    0.000    0.000    0.000    0.000 
#    0.000    0.000    0.000    0.000    0.000    0.000 
#
# Total GULP energy -198239.585012 kJ/mol
# GULP energy per Si atom -12389.974063 kJ/mol
# Density = 1.707548 g / cm^3
# Si number density = 17.114430 Si / 1000 Ang^3
#
#
#
# Elastic Constant Matrix: (Units=GPa)
#
#
# Indices 1 2 3 4 5 6 
#
# 1 129.6695 48.7967 60.0651 0.0000 -16.0664 0.0000
# 2 48.7967 110.9167 70.8621 0.0000 -17.8116 0.0000
# 3 60.0651 70.8621 125.1743 0.0000 -19.9604 0.0000
# 4 0.0000 0.0000 0.0000 42.7395 0.0000 -12.5758
# 5 -16.0664 -17.8116 -19.9604 0.0000 24.1846 0.0000
# 6 0.0000 0.0000 0.0000 -12.5758 0.0000 27.4775
#
#
#
# Elastic Compliance Matrix: (Units=1/GPa)
#
#
# Indices 1 2 3 4 5 6 
#
# 1 0.010366 -0.001926 -0.003468 0.000000 0.002605 0.000000
# 2 -0.001926 0.014897 -0.006867 0.000000 0.004024 0.000000
# 3 -0.003468 -0.006867 0.014241 0.000000 0.004392 0.000000
# 4 0.000000 0.000000 0.000000 0.027039 0.000000 0.012375
# 5 0.002605 0.004024 0.004392 0.000000 0.049668 0.000000
# 6 0.000000 0.000000 0.000000 0.012375 0.000000 0.042057
#
#
# Mechanical properties :
#
#
# Convention : Reuss Voigt Hill
#
# Bulk Modulus (GPa) = 66.75397 80.57870 73.66634
# Shear Modulus (GPa) = 26.62631 31.28279 28.95455
#
# Velocity S-wave (km/s) = 3.94862 4.27999 4.11764
# Velocity P-wave (km/s) = 7.73808 8.46220 8.10823
#
# Compressibility (1/GPa) = 0.01498038
#
# Stress axis : x y z
#
# Youngs Moduli (GPa) = 96.46747 67.12917 70.21976
#
# Poissons Ratio (x) = 0.12931 0.24354
# Poissons Ratio (y) = 0.18583 0.48221
# Poissons Ratio (z) = 0.33458 0.46098
#
# Static dielectric constant tensor:
#      x y z
#    x 3.575920 0.000000 -0.067040 
#    y 0.000000 3.117630 0.000000 
#    z -0.067040 0.000000 2.993390 
# 
# 
# High freq. dielectric constant tensor:
#      x y z
#    x 1.685990 0.000000 -0.002690 
#    y 0.000000 1.638240 0.000000 
#    z -0.002690 0.000000 1.634800 
# 
# From -- ./inp_files/8195.got.cif
#   From: 2010.03.12/outbox.cif.g09.slc.cpg/sg4_5_cif.got.tgz:8195.got - 2010.03.31 09:31:35.
