data_PCOD8045359
_publ_section_title
;
Structure prediction by ZEFSAII (Michael W. Deem and Ramdas Pophale) SiO2 
 PCOD8045359
Probable space group: P 2
;
_chemical_formula_sum "Si O2"
_cell_formula_units_Z 14
_cell_length_a 14.494195
_cell_length_b 5.391966
_cell_length_c 10.182476
_cell_angle_alpha 90.000000
_cell_angle_beta 135.657878
_cell_angle_gamma 90.000000
_cell_volume 556.205543
_symmetry_space_group_name_H-M "P 2"
_symmetry_group_IT_number 3
_symmetry_cell_setting 'monoclinic'
loop_
_space_group_symop_operation_xyz
x,y,z
-x,y,-z
loop_
_atom_site_type_symbol
_atom_site_label
_atom_site_fract_x
_atom_site_fract_y
_atom_site_fract_z
Si Si1 0.945563 0.203210 0.083212
Si Si2 0.607008 0.050778 0.005168
Si Si3 0.829944 0.500908 0.586832
Si Si4 0.251417 0.544285 0.790872
Si Si5 0.091287 0.700684 0.860325
Si Si6 0.384678 0.982019 0.278014
Si Si7 0.341366 0.481194 0.333996
O O1 0.866927 0.471541 0.996811
O O2 0.076455 0.256246 0.305646
O O3 0.854476 0.978100 0.050775
O O4 0.000000 0.115620 0.000000
O O5 0.709835 0.278096 0.108726
O O6 0.650852 0.776025 0.092148
O O7 0.500000 0.143165 0.000000
O O8 0.552115 0.027129 0.800839
O O9 0.765501 0.503858 0.379619
O O10 0.714664 0.520005 0.577115
O O11 0.931474 0.732683 0.707542
O O12 0.122669 0.623371 0.742728
O O13 0.500000 0.938454 0.500000
O O14 0.290514 0.213653 0.225536
O O15 0.304958 0.717237 0.201223
O O16 0.500000 0.445700 0.500000
#
# Coordination Sequence:
#
# PCOD8045359 Si02
#       7
#     2   2   2   2   2   2   2
#     4  10  23  43  71 102 144 184 238 295 356 424
#     4  12  29  47  76 105 147 189 245 299 361 424
#     4  10  27  43  75 103 145 190 236 295 362 422
#     4  12  27  47  75 104 147 190 242 294 361 432
#     4  10  24  46  69 105 141 186 238 287 363 419
#     4  10  24  45  70  99 141 184 239 292 359 419
#     4  10  23  40  72 100 139 180 242 287 354 421
#
# _framework density 25.170549999999999
#
# number of rings (size 3 to 8) (size 9 to 14) (size 15 to 20)
#    0.857    0.571    0.000    3.000   12.000    3.429 
#    2.571    0.000    0.000    0.000    0.000    0.000 
#    0.000    0.000    0.000    0.000    0.000    0.000 
#
# Total GULP energy -173500.149975 kJ/mol
# GULP energy per Si atom -12392.867855 kJ/mol
# Density = 2.511326 g / cm^3
# Si number density = 25.170550 Si / 1000 Ang^3
#
#
#
# Elastic Constant Matrix: (Units=GPa)
#
#
# Indices 1 2 3 4 5 6 
#
# 1 158.8546 65.8124 33.0431 0.0000 -37.6908 0.0000
# 2 65.8124 199.5523 75.7234 0.0000 -13.9875 0.0000
# 3 33.0431 75.7234 91.8078 0.0000 -36.3172 0.0000
# 4 0.0000 0.0000 0.0000 20.4661 0.0000 -4.2920
# 5 -37.6908 -13.9875 -36.3172 0.0000 52.2017 0.0000
# 6 0.0000 0.0000 0.0000 -4.2920 0.0000 36.6764
#
#
#
# Elastic Compliance Matrix: (Units=1/GPa)
#
#
# Indices 1 2 3 4 5 6 
#
# 1 0.008884 -0.003336 0.002398 0.000000 0.007189 0.000000
# 2 -0.003336 0.008924 -0.008508 0.000000 -0.005937 0.000000
# 3 0.002398 -0.008508 0.023220 0.000000 0.015606 0.000000
# 4 0.000000 0.000000 0.000000 0.050091 0.000000 0.005862
# 5 0.007189 -0.005937 0.015606 0.000000 0.033613 0.000000
# 6 0.000000 0.000000 0.000000 0.005862 0.000000 0.027951
#
#
# Mechanical properties :
#
#
# Convention : Reuss Voigt Hill
#
# Bulk Modulus (GPa) = 45.17681 88.81917 66.99799
# Shear Modulus (GPa) = 27.94001 40.24456 34.09229
#
# Velocity S-wave (km/s) = 3.33532 4.00293 3.68428
# Velocity P-wave (km/s) = 5.72885 7.53181 6.69133
#
# Compressibility (1/GPa) = 0.02213525
#
# Stress axis : x y z
#
# Youngs Moduli (GPa) = 112.56203 112.05953 43.06578
#
# Poissons Ratio (x) = 0.37382 -0.10325
# Poissons Ratio (y) = 0.37549 0.36641
# Poissons Ratio (z) = -0.26988 0.95342
#
# Static dielectric constant tensor:
#      x y z
#    x 4.563320 0.000000 0.070590 
#    y 0.000000 5.314470 0.000000 
#    z 0.070590 0.000000 4.425090 
# 
# 
# High freq. dielectric constant tensor:
#      x y z
#    x 2.012380 0.000000 0.008910 
#    y 0.000000 2.037560 0.000000 
#    z 0.008910 0.000000 2.006990 
# 
# From -- ./inp_files/8382.got.cif
#   From: 2010.03.12/outbox.cif.g09.slc.cpg/sg3_5_cif.got.tgz:8382.got - 2010.03.31 09:20:49.
