data_PCOD8045264
_publ_section_title
;
Structure prediction by ZEFSAII (Michael W. Deem and Ramdas Pophale) SiO2 
 PCOD8045264
Probable space group: P 2
;
_chemical_formula_sum "Si O2"
_cell_formula_units_Z 12
_cell_length_a 15.428155
_cell_length_b 6.511796
_cell_length_c 8.442606
_cell_angle_alpha 90.000000
_cell_angle_beta 39.924844
_cell_angle_gamma 90.000000
_cell_volume 544.350949
_symmetry_space_group_name_H-M "P 2"
_symmetry_group_IT_number 3
_symmetry_cell_setting 'monoclinic'
loop_
_space_group_symop_operation_xyz
x,y,z
-x,y,-z
loop_
_atom_site_type_symbol
_atom_site_label
_atom_site_fract_x
_atom_site_fract_y
_atom_site_fract_z
Si Si1 0.498962 0.081730 0.682782
Si Si2 0.139026 0.694506 0.584305
Si Si3 0.729965 0.396757 0.011214
Si Si4 0.000000 0.019395 0.000000
Si Si5 0.233399 0.335878 0.691791
Si Si6 0.605961 0.725660 0.965849
Si Si7 0.000000 0.477797 0.500000
O O1 0.500000 0.998980 0.500000
O O2 0.360690 0.202702 0.893135
O O3 0.627747 0.221107 0.550236
O O4 0.486097 0.904310 0.830017
O O5 0.185898 0.502668 0.629181
O O6 0.267746 0.797343 0.318504
O O7 0.032778 0.615752 0.605455
O O8 0.059004 0.874423 0.782107
O O9 0.743825 0.455824 0.175994
O O10 0.660686 0.593200 0.032222
O O11 0.871570 0.340399 0.727909
O O12 0.879185 0.164799 0.111196
O O13 0.500000 0.605176 0.000000
#
# Coordination Sequence:
#
# PCOD8045264 Si02
#       7
#     2   2   2   1   2   2   1
#     4  10  24  42  65  97 130 172 221 269 324 390
#     4  11  25  43  66  97 133 173 218 275 332 390
#     4  10  23  42  65  91 130 173 215 274 328 384
#     4  12  24  42  70  96 130 176 224 272 328 398
#     4  11  24  44  68  98 131 173 226 274 325 391
#     4  11  24  41  65  96 130 170 217 267 330 394
#     4  10  22  40  62  94 130 168 214 268 330 386
#
# _framework density 22.044599999999999
#
# number of rings (size 3 to 8) (size 9 to 14) (size 15 to 20)
#    0.000    1.333    0.000    4.500    0.000   18.667 
#    0.000    1.667    0.000    0.000    0.000    0.000 
#    0.000    0.000    0.000    0.000    0.000    0.000 
#
# Total GULP energy -148748.556895 kJ/mol
# GULP energy per Si atom -12395.713075 kJ/mol
# Density = 2.199443 g / cm^3
# Si number density = 22.044600 Si / 1000 Ang^3
#
#
#
# Elastic Constant Matrix: (Units=GPa)
#
#
# Indices 1 2 3 4 5 6 
#
# 1 162.7307 61.7977 65.9708 0.0000 -2.3576 0.0000
# 2 61.7977 91.0977 70.5818 0.0000 7.9796 0.0000
# 3 65.9708 70.5818 160.9645 0.0000 -4.6902 0.0000
# 4 0.0000 0.0000 0.0000 40.3223 0.0000 10.4891
# 5 -2.3576 7.9796 -4.6902 0.0000 36.6967 0.0000
# 6 0.0000 0.0000 0.0000 10.4891 0.0000 31.7708
#
#
#
# Elastic Compliance Matrix: (Units=1/GPa)
#
#
# Indices 1 2 3 4 5 6 
#
# 1 0.008567 -0.004924 -0.001310 0.000000 0.001454 0.000000
# 2 -0.004924 0.020254 -0.007027 0.000000 -0.005619 0.000000
# 3 -0.001310 -0.007027 0.009909 0.000000 0.002710 0.000000
# 4 0.000000 0.000000 0.000000 0.027130 0.000000 -0.008957
# 5 0.001454 -0.005619 0.002710 0.000000 0.028912 0.000000
# 6 0.000000 0.000000 0.000000 -0.008957 0.000000 0.034433
#
#
# Mechanical properties :
#
#
# Convention : Reuss Voigt Hill
#
# Bulk Modulus (GPa) = 81.90452 90.16596 86.03524
# Shear Modulus (GPa) = 31.28971 36.18746 33.73859
#
# Velocity S-wave (km/s) = 3.77156 4.05601 3.91637
# Velocity P-wave (km/s) = 7.49672 7.93255 7.71771
#
# Compressibility (1/GPa) = 0.01220934
#
# Stress axis : x y z
#
# Youngs Moduli (GPa) = 116.72525 49.37230 100.91375
#
# Poissons Ratio (x) = 0.24313 0.13215
# Poissons Ratio (y) = 0.57480 0.70910
# Poissons Ratio (z) = 0.15286 0.34693
#
# Static dielectric constant tensor:
#      x y z
#    x 4.300530 0.000000 -0.123710 
#    y 0.000000 3.679570 0.000000 
#    z -0.123710 0.000000 4.155180 
# 
# 
# High freq. dielectric constant tensor:
#      x y z
#    x 1.890670 0.000000 -0.006630 
#    y 0.000000 1.839900 0.000000 
#    z -0.006630 0.000000 1.895060 
# 
# From -- ./inp_files/8154.got.cif
#   From: 2010.03.12/outbox.cif.g09.slc.cpg/sg3_5_cif.got.tgz:8154.got - 2010.03.31 09:20:49.
