data_PCOD8045628
_publ_section_title
;
Structure prediction by ZEFSAII (Michael W. Deem and Ramdas Pophale) SiO2 
 PCOD8045628
Probable space group: P 21
;
_chemical_formula_sum "Si O2"
_cell_formula_units_Z 16
_cell_length_a 19.260937
_cell_length_b 5.311360
_cell_length_c 9.152908
_cell_angle_alpha 90.000000
_cell_angle_beta 56.559012
_cell_angle_gamma 90.000000
_cell_volume 781.348115
_symmetry_space_group_name_H-M "P 21"
_symmetry_group_IT_number 4
_symmetry_cell_setting 'monoclinic'
loop_
_space_group_symop_operation_xyz
x,y,z
-x,1/2+y,-z
loop_
_atom_site_type_symbol
_atom_site_label
_atom_site_fract_x
_atom_site_fract_y
_atom_site_fract_z
Si Si1 0.891736 0.619470 0.650657
Si Si2 0.488360 0.095549 0.423785
Si Si3 0.303908 0.126714 0.651058
Si Si4 0.768241 0.126603 0.222402
Si Si5 0.052825 0.621695 0.912428
Si Si6 0.653135 0.123423 0.068327
Si Si7 0.073472 0.619506 0.556500
Si Si8 0.716079 0.623513 0.980829
O O1 0.886358 0.369066 0.558975
O O2 0.815471 0.620196 0.851932
O O3 0.974193 0.619822 0.652027
O O4 0.886633 0.868538 0.557445
O O5 0.493841 0.814559 0.480694
O O6 0.395030 0.130678 0.471494
O O7 0.555579 0.121458 0.217677
O O8 0.254786 0.376900 0.657381
O O9 0.254461 0.876783 0.657963
O O10 0.312294 0.125950 0.817402
O O11 0.867182 0.125779 0.072245
O O12 0.714962 0.125889 0.136477
O O13 0.091789 0.620712 0.706236
O O14 0.001070 0.369968 0.999955
O O15 0.675007 0.376625 0.952564
O O16 0.676895 0.872405 0.949689
#
# Coordination Sequence:
#
# PCOD8045628 Si02
#       8
#     2   2   2   2   2   2   2   2
#     4  10  21  38  59  72 106 139 186 236 277 315
#     4  12  16  30  45  74 117 152 165 212 275 335
#     4  10  19  31  50  78 113 141 178 215 269 345
#     4  10  20  33  47  74 104 144 177 212 265 324
#     4  12  26  39  59  81 111 147 187 234 278 331
#     4  10  19  28  48  78 113 137 174 213 266 343
#     4  10  23  40  53  80 100 142 185 233 280 322
#     4  10  18  29  49  75  98 140 172 215 262 313
#
# _framework density 20.477429000000001
#
# number of rings (size 3 to 8) (size 9 to 14) (size 15 to 20)
#    0.000    1.500    5.000    2.250    7.000    0.000 
#    0.000    0.000    0.000    0.000    0.000    0.000 
#    0.000   34.000    0.000    0.000    0.000    0.000 
#
# Total GULP energy -198312.162119 kJ/mol
# GULP energy per Si atom -12394.510132 kJ/mol
# Density = 2.043082 g / cm^3
# Si number density = 20.477429 Si / 1000 Ang^3
#
#
#
# Elastic Constant Matrix: (Units=GPa)
#
#
# Indices 1 2 3 4 5 6 
#
# 1 60.6812 30.7906 28.8924 0.0000 -35.1789 0.0000
# 2 30.7906 214.8050 28.7429 0.0000 -27.1498 0.0000
# 3 28.8924 28.7429 62.7498 0.0000 -30.6196 0.0000
# 4 0.0000 0.0000 0.0000 30.2247 0.0000 -13.8389
# 5 -35.1789 -27.1498 -30.6196 0.0000 46.1011 0.0000
# 6 0.0000 0.0000 0.0000 -13.8389 0.0000 21.1163
#
#
#
# Elastic Compliance Matrix: (Units=1/GPa)
#
#
# Indices 1 2 3 4 5 6 
#
# 1 0.030551 -0.001352 -0.003640 0.000000 0.020099 0.000000
# 2 -0.001352 0.005159 -0.001127 0.000000 0.001258 0.000000
# 3 -0.003640 -0.001127 0.024337 0.000000 0.012723 0.000000
# 4 0.000000 0.000000 0.000000 0.047270 0.000000 0.030979
# 5 0.020099 0.001258 0.012723 0.000000 0.046220 0.000000
# 6 0.000000 0.000000 0.000000 0.030979 0.000000 0.067659
#
#
# Mechanical properties :
#
#
# Convention : Reuss Voigt Hill
#
# Bulk Modulus (GPa) = 20.91633 57.23200 39.07416
# Shear Modulus (GPa) = 20.05062 36.14240 28.09651
#
# Velocity S-wave (km/s) = 3.13254 4.20573 3.70817
# Velocity P-wave (km/s) = 4.82911 7.18288 6.12021
#
# Compressibility (1/GPa) = 0.04780954
#
# Stress axis : x y z
#
# Youngs Moduli (GPa) = 32.73262 193.83754 41.09020
#
# Poissons Ratio (x) = 0.26202 0.14957
# Poissons Ratio (y) = 0.04425 0.04629
# Poissons Ratio (z) = 0.11914 0.21838
#
# Static dielectric constant tensor:
#      x y z
#    x 3.362310 0.000000 -0.474960 
#    y 0.000000 6.221600 0.000000 
#    z -0.474960 0.000000 3.415270 
# 
# 
# High freq. dielectric constant tensor:
#      x y z
#    x 1.754660 0.000000 -0.053990 
#    y 0.000000 1.847480 0.000000 
#    z -0.053990 0.000000 1.765970 
# 
# From -- ./inp_files/8654.got.cif
#   From: 2010.03.12/outbox.cif.g09.slc.cpg/sg4_5_cif.got.tgz:8654.got - 2010.03.31 09:31:35.
