data_PCOD8045059
_publ_section_title
;
Structure prediction by ZEFSAII (Michael W. Deem and Ramdas Pophale) SiO2 
 PCOD8045059
Probable space group: P 2
;
_chemical_formula_sum "Si O2"
_cell_formula_units_Z 10
_cell_length_a 12.752469
_cell_length_b 5.184612
_cell_length_c 16.309950
_cell_angle_alpha 90.000000
_cell_angle_beta 152.764263
_cell_angle_gamma 90.000000
_cell_volume 493.513564
_symmetry_space_group_name_H-M "P 2"
_symmetry_group_IT_number 3
_symmetry_cell_setting 'monoclinic'
loop_
_space_group_symop_operation_xyz
x,y,z
-x,y,-z
loop_
_atom_site_type_symbol
_atom_site_label
_atom_site_fract_x
_atom_site_fract_y
_atom_site_fract_z
Si Si1 0.342916 0.275210 0.598423
Si Si2 0.836515 0.462152 0.960127
Si Si3 0.958161 0.254628 0.207120
Si Si4 0.291487 0.746050 0.978148
Si Si5 0.244221 0.772549 0.631838
O O1 0.610747 0.322424 0.767563
O O2 0.239240 0.494208 0.585298
O O3 0.211542 0.276709 0.420246
O O4 0.308844 0.996296 0.613738
O O5 0.970938 0.270766 0.116653
O O6 0.763335 0.715551 0.961599
O O7 0.000000 0.545744 0.000000
O O8 0.799168 0.489276 0.131130
O O9 0.837104 0.989782 0.150014
O O10 0.566854 0.772917 0.163045
O O11 0.000000 0.835000 0.500000
#
# Coordination Sequence:
#
# PCOD8045059 Si02
#       5
#     2   2   2   2   2
#     4  11  22  39  62  87 118 154 190 245 286 341
#     4   9  21  38  63  82 121 155 194 232 293 337
#     4  10  20  38  60  83 124 144 194 236 290 334
#     4   9  19  39  56  83 120 146 188 245 277 340
#     4  11  21  40  63  85 115 157 195 236 295 346
#
# _framework density 20.262868999999998
#
# number of rings (size 3 to 8) (size 9 to 14) (size 15 to 20)
#    1.200    0.800    2.000    1.800    0.000    1.600 
#    0.000    6.000    4.400    0.000    0.000    0.000 
#    0.000    0.000    0.000    0.000    0.000    0.000 
#
# Total GULP energy -123921.289039 kJ/mol
# GULP energy per Si atom -12392.128904 kJ/mol
# Density = 2.021675 g / cm^3
# Si number density = 20.262869 Si / 1000 Ang^3
#
#
#
# Elastic Constant Matrix: (Units=GPa)
#
#
# Indices 1 2 3 4 5 6 
#
# 1 20.2174 -0.0265 32.8700 0.0000 9.8003 0.0000
# 2 -0.0265 109.4647 20.4585 0.0000 -9.5434 0.0000
# 3 32.8700 20.4585 159.9802 0.0000 -20.7817 0.0000
# 4 0.0000 0.0000 0.0000 31.1604 0.0000 -3.7470
# 5 9.8003 -9.5434 -20.7817 0.0000 37.6177 0.0000
# 6 0.0000 0.0000 0.0000 -3.7470 0.0000 16.1195
#
#
#
# Elastic Compliance Matrix: (Units=1/GPa)
#
#
# Indices 1 2 3 4 5 6 
#
# 1 0.128630 0.001775 -0.033343 0.000000 -0.051481 0.000000
# 2 0.001775 0.009504 -0.001429 0.000000 0.001159 0.000000
# 3 -0.033343 -0.001429 0.015476 0.000000 0.016874 0.000000
# 4 0.000000 0.000000 0.000000 0.033015 0.000000 0.007674
# 5 -0.051481 0.001159 0.016874 0.000000 0.049611 0.000000
# 6 0.000000 0.000000 0.000000 0.007674 0.000000 0.063821
#
#
# Mechanical properties :
#
#
# Convention : Reuss Voigt Hill
#
# Bulk Modulus (GPa) = 11.41362 44.02959 27.72160
# Shear Modulus (GPa) = 12.64996 32.73687 22.69341
#
# Velocity S-wave (km/s) = 2.50130 4.02382 3.35020
# Velocity P-wave (km/s) = 3.73992 6.58518 5.35498
#
# Compressibility (1/GPa) = 0.08761463
#
# Stress axis : x y z
#
# Youngs Moduli (GPa) = 7.77421 105.21876 64.61484
#
# Poissons Ratio (x) = -0.18673 2.15447
# Poissons Ratio (y) = -0.01380 0.09236
# Poissons Ratio (z) = 0.25922 0.15040
#
# Static dielectric constant tensor:
#      x y z
#    x 3.082450 0.000000 -0.148410 
#    y 0.000000 3.634350 0.000000 
#    z -0.148410 0.000000 3.871040 
# 
# 
# High freq. dielectric constant tensor:
#      x y z
#    x 1.737640 0.000000 -0.014190 
#    y 0.000000 1.800850 0.000000 
#    z -0.014190 0.000000 1.808370 
# 
# From -- ./inp_files/6414.got.cif
#   From: 2010.03.12/outbox.cif.g09.slc.cpg/sg3_4_cif.got.tgz:6414.got - 2010.03.31 09:20:49.
