data_PCOD8045986
_publ_section_title
;
Structure prediction by ZEFSAII (Michael W. Deem and Ramdas Pophale) SiO2 
 PCOD8045986
Probable space group: P 21
;
_chemical_formula_sum "Si O2"
_cell_formula_units_Z 14
_cell_length_a 7.069414
_cell_length_b 9.099811
_cell_length_c 8.451234
_cell_angle_alpha 90.000000
_cell_angle_beta 68.448360
_cell_angle_gamma 90.000000
_cell_volume 505.660962
_symmetry_space_group_name_H-M "P 21"
_symmetry_group_IT_number 4
_symmetry_cell_setting 'monoclinic'
loop_
_space_group_symop_operation_xyz
x,y,z
-x,1/2+y,-z
loop_
_atom_site_type_symbol
_atom_site_label
_atom_site_fract_x
_atom_site_fract_y
_atom_site_fract_z
Si Si1 0.454298 0.895880 0.407126
Si Si2 0.969581 0.651133 0.154753
Si Si3 0.933591 0.565404 0.527972
Si Si4 0.523391 0.574212 0.300110
Si Si5 0.890866 0.979178 0.219319
Si Si6 0.367732 0.490515 0.027989
Si Si7 0.749840 0.673013 0.862557
O O1 0.462760 0.721029 0.410686
O O2 0.647491 0.967637 0.245608
O O3 0.235845 0.937739 0.409214
O O4 0.471148 0.939076 0.583765
O O5 0.986973 0.608344 0.335285
O O6 0.749484 0.598304 0.155325
O O7 0.997745 0.826079 0.135241
O O8 0.161817 0.562688 0.012854
O O9 0.115389 0.501159 0.584922
O O10 0.831296 0.703494 0.657744
O O11 0.363032 0.539374 0.212720
O O12 0.042900 0.112312 0.107918
O O13 0.347679 0.313676 0.022280
O O14 0.580815 0.545367 0.892695
#
# Coordination Sequence:
#
# PCOD8045986 Si02
#       7
#     2   2   2   2   2   2   2
#     4  10  20  38  64  95 129 159 210 260 324 363
#     4  10  21  39  66  92 126 157 221 259 330 363
#     4   9  21  37  62  96 120 169 203 263 312 377
#     4  10  24  37  66  96 129 166 211 266 316 382
#     4   9  20  38  60  92 121 166 202 265 310 377
#     4  12  24  46  61  93 130 174 209 269 310 387
#     4  10  26  41  65  88 129 171 218 248 328 371
#
# _framework density 27.686539
#
# number of rings (size 3 to 8) (size 9 to 14) (size 15 to 20)
#    0.857    1.143    0.000    2.571   10.000    2.286 
#    2.571    0.000    0.000    0.000    0.000    0.000 
#    0.000    0.000    0.000    0.000    0.000    0.000 
#
# Total GULP energy -173500.046947 kJ/mol
# GULP energy per Si atom -12392.860496 kJ/mol
# Density = 2.762352 g / cm^3
# Si number density = 27.686539 Si / 1000 Ang^3
#
#
#
# Elastic Constant Matrix: (Units=GPa)
#
#
# Indices 1 2 3 4 5 6 
#
# 1 178.0611 41.1525 10.6136 0.0000 -6.0351 0.0000
# 2 41.1525 122.1934 19.6870 0.0000 -4.4697 0.0000
# 3 10.6136 19.6870 58.4765 0.0000 -2.9220 0.0000
# 4 0.0000 0.0000 0.0000 43.8452 0.0000 -0.5086
# 5 -6.0351 -4.4697 -2.9220 0.0000 23.0911 0.0000
# 6 0.0000 0.0000 0.0000 -0.5086 0.0000 32.3756
#
#
#
# Elastic Compliance Matrix: (Units=1/GPa)
#
#
# Indices 1 2 3 4 5 6 
#
# 1 0.006132 -0.001959 -0.000395 0.000000 0.001174 0.000000
# 2 -0.001959 0.009319 -0.002734 0.000000 0.000946 0.000000
# 3 -0.000395 -0.002734 0.018177 0.000000 0.001668 0.000000
# 4 0.000000 0.000000 0.000000 0.022812 0.000000 0.000358
# 5 0.001174 0.000946 0.001668 0.000000 0.044008 0.000000
# 6 0.000000 0.000000 0.000000 0.000358 0.000000 0.030893
#
#
# Mechanical properties :
#
#
# Convention : Reuss Voigt Hill
#
# Bulk Modulus (GPa) = 42.64205 55.73748 49.18976
# Shear Modulus (GPa) = 33.48233 39.01422 36.24827
#
# Velocity S-wave (km/s) = 3.48132 3.75792 3.62226
# Velocity P-wave (km/s) = 5.62091 6.24537 5.94135
#
# Compressibility (1/GPa) = 0.02345103
#
# Stress axis : x y z
#
# Youngs Moduli (GPa) = 163.07816 107.31305 55.01606
#
# Poissons Ratio (x) = 0.21018 0.02173
# Poissons Ratio (y) = 0.31940 0.15044
# Poissons Ratio (z) = 0.06441 0.29345
#
# Static dielectric constant tensor:
#      x y z
#    x 5.541760 0.000000 0.177920 
#    y 0.000000 4.486220 0.000000 
#    z 0.177920 0.000000 5.240470 
# 
# 
# High freq. dielectric constant tensor:
#      x y z
#    x 2.162820 0.000000 0.022010 
#    y 0.000000 2.085880 0.000000 
#    z 0.022010 0.000000 2.163760 
# 
# From -- ./inp_files/11015.got.cif
#   From: 2010.03.12/outbox.cif.g09.slc.cpg/sg4_6_cif.got.tgz:11015.got - 2010.03.31 09:31:35.
