data_PCOD8045090
_publ_section_title
;
Structure prediction by ZEFSAII (Michael W. Deem and Ramdas Pophale) SiO2 
 PCOD8045090
Probable space group: P 2
;
_chemical_formula_sum "Si O2"
_cell_formula_units_Z 16
_cell_length_a 16.762734
_cell_length_b 6.590212
_cell_length_c 7.710522
_cell_angle_alpha 90.000000
_cell_angle_beta 64.380668
_cell_angle_gamma 90.000000
_cell_volume 768.039713
_symmetry_space_group_name_H-M "P 2"
_symmetry_group_IT_number 3
_symmetry_cell_setting 'monoclinic'
loop_
_space_group_symop_operation_xyz
x,y,z
-x,y,-z
loop_
_atom_site_type_symbol
_atom_site_label
_atom_site_fract_x
_atom_site_fract_y
_atom_site_fract_z
Si Si1 0.970898 0.211800 0.326968
Si Si2 0.684955 0.202567 0.693752
Si Si3 0.265780 0.736955 0.798577
Si Si4 0.825965 0.506011 0.417328
Si Si5 0.164725 0.917261 0.421893
Si Si6 0.147628 0.066296 0.073850
Si Si7 0.398645 0.080823 0.571599
Si Si8 0.688218 0.349920 0.057415
O O1 0.922339 0.409539 0.291821
O O2 0.000000 0.254676 0.500000
O O3 0.051889 0.161415 0.117888
O O4 0.898424 0.031241 0.381025
O O5 0.765822 0.341910 0.565121
O O6 0.612657 0.177852 0.610016
O O7 0.731749 0.984215 0.675970
O O8 0.643782 0.294621 0.911525
O O9 0.224293 0.576577 0.706693
O O10 0.302884 0.595071 0.921505
O O11 0.345046 0.870611 0.644492
O O12 0.187157 0.895195 0.911563
O O13 0.838431 0.681503 0.543040
O O14 0.124509 0.952507 0.272294
O O15 0.214562 0.252745 0.032074
O O16 0.500000 0.022430 0.500000
O O17 0.371516 0.250425 0.736935
#
# Coordination Sequence:
#
# PCOD8045090 Si02
#       8
#     2   2   2   2   2   2   2   2
#     4   9  20  35  55  88 124 166 222 268 308 371
#     4  10  20  40  67  91 126 168 207 261 327 389
#     4  11  22  40  64  94 129 169 219 265 326 398
#     4  11  20  35  65  88 122 171 216 259 324 379
#     4   9  18  35  59  86 117 169 214 258 319 378
#     4   9  20  37  58  85 127 166 212 270 317 374
#     4  11  24  43  69  95 130 165 210 273 332 394
#     4  10  22  41  66  94 126 169 215 257 327 393
#
# _framework density 20.832256000000001
#
# number of rings (size 3 to 8) (size 9 to 14) (size 15 to 20)
#    0.000    2.000    2.500    1.500    0.000    3.500 
#    0.000    3.750    0.000    0.000    0.000    0.000 
#    0.000    0.000    0.000    0.000    0.000    0.000 
#
# Total GULP energy -198281.858019 kJ/mol
# GULP energy per Si atom -12392.616126 kJ/mol
# Density = 2.078484 g / cm^3
# Si number density = 20.832256 Si / 1000 Ang^3
#
#
#
# Elastic Constant Matrix: (Units=GPa)
#
#
# Indices 1 2 3 4 5 6 
#
# 1 101.6844 42.6790 49.3109 0.0000 -4.1936 0.0000
# 2 42.6790 109.4535 32.2287 0.0000 0.9520 0.0000
# 3 49.3109 32.2287 80.7091 0.0000 5.5509 0.0000
# 4 0.0000 0.0000 0.0000 25.7723 0.0000 7.5302
# 5 -4.1936 0.9520 5.5509 0.0000 27.0888 0.0000
# 6 0.0000 0.0000 0.0000 7.5302 0.0000 28.4030
#
#
#
# Elastic Compliance Matrix: (Units=1/GPa)
#
#
# Indices 1 2 3 4 5 6 
#
# 1 0.015601 -0.003658 -0.008364 0.000000 0.004258 0.000000
# 2 -0.003658 0.011218 -0.002210 0.000000 -0.000508 0.000000
# 3 -0.008364 -0.002210 0.018731 0.000000 -0.005055 0.000000
# 4 0.000000 0.000000 0.000000 0.042059 0.000000 -0.011151
# 5 0.004258 -0.000508 -0.005055 0.000000 0.038628 0.000000
# 6 0.000000 0.000000 0.000000 -0.011151 0.000000 0.038164
#
#
# Mechanical properties :
#
#
# Convention : Reuss Voigt Hill
#
# Bulk Modulus (GPa) = 58.52662 60.03158 59.27910
# Shear Modulus (GPa) = 25.18135 27.42805 26.30470
#
# Velocity S-wave (km/s) = 3.48050 3.63245 3.55729
# Velocity P-wave (km/s) = 6.65636 6.81705 6.73718
#
# Compressibility (1/GPa) = 0.01708624
#
# Stress axis : x y z
#
# Youngs Moduli (GPa) = 64.09740 89.14574 53.38858
#
# Poissons Ratio (x) = 0.32606 0.44655
# Poissons Ratio (y) = 0.23444 0.11798
# Poissons Ratio (z) = 0.53612 0.19700
#
# Static dielectric constant tensor:
#      x y z
#    x 3.678980 0.000000 0.124380 
#    y 0.000000 3.869370 0.000000 
#    z 0.124380 0.000000 3.807590 
# 
# 
# High freq. dielectric constant tensor:
#      x y z
#    x 1.797800 0.000000 0.009600 
#    y 0.000000 1.819480 0.000000 
#    z 0.009600 0.000000 1.807710 
# 
# From -- ./inp_files/8771.got.cif
#   From: 2010.03.12/outbox.cif.g09.slc.cpg/sg3_5_cif.got.tgz:8771.got - 2010.03.31 09:20:49.
