data_PCOD8045360
_publ_section_title
;
Structure prediction by ZEFSAII (Michael W. Deem and Ramdas Pophale) SiO2 
 PCOD8045360
Probable space group: P 2
;
_chemical_formula_sum "Si O2"
_cell_formula_units_Z 14
_cell_length_a 13.156638
_cell_length_b 5.113449
_cell_length_c 20.422652
_cell_angle_alpha 90.000000
_cell_angle_beta 28.183957
_cell_angle_gamma 90.000000
_cell_volume 648.922145
_symmetry_space_group_name_H-M "P 2"
_symmetry_group_IT_number 3
_symmetry_cell_setting 'monoclinic'
loop_
_space_group_symop_operation_xyz
x,y,z
-x,y,-z
loop_
_atom_site_type_symbol
_atom_site_label
_atom_site_fract_x
_atom_site_fract_y
_atom_site_fract_z
Si Si1 0.516374 0.500000 0.657812
Si Si2 0.224260 0.089368 0.310771
Si Si3 0.206256 0.001003 0.513980
Si Si4 0.721686 0.479854 0.334687
Si Si5 0.564886 0.850069 0.033640
Si Si6 0.566899 0.599470 0.768429
Si Si7 0.044900 0.989018 0.749408
O O1 0.599622 0.204282 0.603978
O O2 0.325537 0.545024 0.714510
O O3 0.425786 0.542452 0.783390
O O4 0.710226 0.703695 0.535171
O O5 0.373676 0.053098 0.161010
O O6 0.301486 0.868961 0.319238
O O7 0.257118 0.373377 0.322499
O O8 0.972861 0.052809 0.439557
O O9 0.096198 0.055846 0.645847
O O10 0.500000 0.456463 0.500000
O O11 0.846747 0.206077 0.266106
O O12 0.867855 0.704449 0.281895
O O13 0.577740 0.625840 0.083342
O O14 0.500000 0.726266 0.000000
O O15 0.789693 0.000357 0.904358
#
# Coordination Sequence:
#
# PCOD8045360 Si02
#       7
#     2   2   2   2   2   2   2
#     4  12  25  41  65  92 136 169 218 265 321 387
#     4  10  23  41  62  96 131 166 212 257 327 387
#     4  12  22  38  68 100 127 172 210 265 327 389
#     4  12  24  42  65  96 129 166 216 273 323 377
#     4  10  24  44  69  95 132 165 215 268 321 398
#     4  10  24  43  63  91 136 174 206 264 326 380
#     4  12  23  41  68 100 122 169 218 266 329 376
#
# _framework density 21.574238000000001
#
# number of rings (size 3 to 8) (size 9 to 14) (size 15 to 20)
#    0.857    0.000    4.286    3.000    2.000    5.143 
#    0.000    0.714    0.000    0.000    0.000    0.000 
#    0.000    0.000    0.000    0.000    0.000    0.000 
#
# Total GULP energy -173574.721693 kJ/mol
# GULP energy per Si atom -12398.194407 kJ/mol
# Density = 2.152513 g / cm^3
# Si number density = 21.574238 Si / 1000 Ang^3
#
#
#
# Elastic Constant Matrix: (Units=GPa)
#
#
# Indices 1 2 3 4 5 6 
#
# 1 114.7004 4.7884 11.7309 0.0000 14.8906 0.0000
# 2 4.7884 99.7293 12.6544 0.0000 2.2455 0.0000
# 3 11.7309 12.6544 68.5776 0.0000 3.0947 0.0000
# 4 0.0000 0.0000 0.0000 24.7369 0.0000 -2.9391
# 5 14.8906 2.2455 3.0947 0.0000 32.2284 0.0000
# 6 0.0000 0.0000 0.0000 -2.9391 0.0000 34.2357
#
#
#
# Elastic Compliance Matrix: (Units=1/GPa)
#
#
# Indices 1 2 3 4 5 6 
#
# 1 0.009414 -0.000181 -0.001387 0.000000 -0.004204 0.000000
# 2 -0.000181 0.010280 -0.001845 0.000000 -0.000455 0.000000
# 3 -0.001387 -0.001845 0.015191 0.000000 -0.000689 0.000000
# 4 0.000000 0.000000 0.000000 0.040842 0.000000 0.003506
# 5 -0.004204 -0.000455 -0.000689 0.000000 0.033069 0.000000
# 6 0.000000 0.000000 0.000000 0.003506 0.000000 0.029510
#
#
# Mechanical properties :
#
#
# Convention : Reuss Voigt Hill
#
# Bulk Modulus (GPa) = 35.64178 37.92831 36.78505
# Shear Modulus (GPa) = 32.36547 35.16244 33.76396
#
# Velocity S-wave (km/s) = 3.87743 4.04150 3.96032
# Velocity P-wave (km/s) = 6.04999 6.27669 6.16438
#
# Compressibility (1/GPa) = 0.02805696
#
# Stress axis : x y z
#
# Youngs Moduli (GPa) = 106.23026 97.27381 65.82876
#
# Poissons Ratio (x) = 0.01764 0.09131
# Poissons Ratio (y) = 0.01926 0.12148
# Poissons Ratio (z) = 0.14736 0.17951
#
# Static dielectric constant tensor:
#      x y z
#    x 4.176670 0.000000 0.162270 
#    y 0.000000 3.810000 0.000000 
#    z 0.162270 0.000000 3.629810 
# 
# 
# High freq. dielectric constant tensor:
#      x y z
#    x 1.862810 0.000000 0.012660 
#    y 0.000000 1.850620 0.000000 
#    z 0.012660 0.000000 1.820690 
# 
# From -- ./inp_files/11245.got.cif
#   From: 2010.03.12/outbox.cif.g09.slc.cpg/sg3_6_cif.got.tgz:11245.got - 2010.03.31 09:20:49.
