data_PCOD8045063
_publ_section_title
;
Structure prediction by ZEFSAII (Michael W. Deem and Ramdas Pophale) SiO2 
 PCOD8045063
Probable space group: P 2
;
_chemical_formula_sum "Si O2"
_cell_formula_units_Z 12
_cell_length_a 8.829606
_cell_length_b 9.437538
_cell_length_c 8.478091
_cell_angle_alpha 90.000000
_cell_angle_beta 57.243247
_cell_angle_gamma 90.000000
_cell_volume 594.129785
_symmetry_space_group_name_H-M "P 2"
_symmetry_group_IT_number 3
_symmetry_cell_setting 'monoclinic'
loop_
_space_group_symop_operation_xyz
x,y,z
-x,y,-z
loop_
_atom_site_type_symbol
_atom_site_label
_atom_site_fract_x
_atom_site_fract_y
_atom_site_fract_z
Si Si1 0.963458 0.207050 0.206162
Si Si2 0.845743 0.476372 0.456167
Si Si3 0.652126 0.170762 0.031553
Si Si4 0.682957 0.984546 0.309599
Si Si5 0.535336 0.478325 0.162633
Si Si6 0.814209 0.675454 0.188967
O O1 0.856940 0.331659 0.351722
O O2 0.161454 0.189582 0.171697
O O3 0.850411 0.063779 0.298789
O O4 0.000000 0.241289 0.000000
O O5 0.650398 0.492426 0.641184
O O6 0.869075 0.603278 0.321208
O O7 0.000000 0.486721 0.500000
O O8 0.604354 0.317995 0.144314
O O9 0.672956 0.042537 0.139091
O O10 0.500000 0.120801 0.000000
O O11 0.500000 0.023522 0.500000
O O12 0.709275 0.817637 0.291040
O O13 0.686016 0.580243 0.151006
O O14 0.500000 0.516605 0.000000
O O15 0.000000 0.713855 0.000000
#
# Coordination Sequence:
#
# PCOD8045063 Si02
#       6
#     2   2   2   2   2   2
#     4  10  21  39  62  89 120 157 198 243 296 351
#     4  12  23  39  63  92 120 157 202 248 296 353
#     4  10  20  38  61  89 119 153 195 245 295 347
#     4  11  23  40  60  86 118 159 199 240 296 357
#     4  11  23  40  63  92 122 157 199 247 298 352
#     4  12  24  42  62  86 122 161 199 247 299 356
#
# _framework density 20.197607999999999
#
# number of rings (size 3 to 8) (size 9 to 14) (size 15 to 20)
#    0.000    1.000    0.000   10.500    0.000    0.667 
#    0.000    5.833    0.000    0.000    0.000    0.000 
#    0.000    0.000    0.000    0.000    0.000    0.000 
#
# Total GULP energy -148816.977772 kJ/mol
# GULP energy per Si atom -12401.414814 kJ/mol
# Density = 2.015164 g / cm^3
# Si number density = 20.197608 Si / 1000 Ang^3
#
#
#
# Elastic Constant Matrix: (Units=GPa)
#
#
# Indices 1 2 3 4 5 6 
#
# 1 114.5930 26.9053 18.8587 0.0000 -7.7447 0.0000
# 2 26.9053 99.7283 5.5857 0.0000 18.5914 0.0000
# 3 18.8587 5.5857 89.4311 0.0000 -15.7050 0.0000
# 4 0.0000 0.0000 0.0000 11.1795 0.0000 -26.4046
# 5 -7.7447 18.5914 -15.7050 0.0000 41.9869 0.0000
# 6 0.0000 0.0000 0.0000 -26.4046 0.0000 10.7316
#
#
#
# Elastic Compliance Matrix: (Units=1/GPa)
#
#
# Indices 1 2 3 4 5 6 
#
# 1 0.009861 -0.003075 -0.001422 0.000000 0.002648 0.000000
# 2 -0.003075 0.012117 -0.001231 0.000000 -0.006393 0.000000
# 3 -0.001422 -0.001231 0.012424 0.000000 0.004930 0.000000
# 4 0.000000 0.000000 0.000000 -0.018592 0.000000 -0.045744
# 5 0.002648 -0.006393 0.004930 0.000000 0.028980 0.000000
# 6 0.000000 0.000000 0.000000 -0.045744 0.000000 -0.019368
#
#
# Mechanical properties :
#
#
# Convention : Reuss Voigt Hill
#
# Bulk Modulus (GPa) = 43.57854 45.16132 44.36993
# Shear Modulus (GPa) = 112.28434 29.60646 70.94540
#
# Velocity S-wave (km/s) = 7.46415 3.83278 5.93312
# Velocity P-wave (km/s) = 9.79325 6.48037 8.30370
#
# Compressibility (1/GPa) = 0.02294708
#
# Stress axis : x y z
#
# Youngs Moduli (GPa) = 101.40467 82.52547 80.48665
#
# Poissons Ratio (x) = 0.25373 0.11449
# Poissons Ratio (y) = 0.31177 0.09909
# Poissons Ratio (z) = 0.14424 0.10160
#
# Static dielectric constant tensor:
#      x y z
#    x 4.545780 0.000000 -0.173370 
#    y 0.000000 3.569750 0.000000 
#    z -0.173370 0.000000 3.805160 
# 
# 
# High freq. dielectric constant tensor:
#      x y z
#    x 1.807870 0.000000 -0.018210 
#    y 0.000000 1.784210 0.000000 
#    z -0.018210 0.000000 1.797250 
# 
# From -- ./inp_files/5149.got.cif
#   From: 2010.03.12/outbox.cif.g09.slc.cpg/sg3_3_cif.got.tgz:5149.got - 2010.03.31 09:20:49.
