data_PCOD8045424
_publ_section_title
;
Structure prediction by ZEFSAII (Michael W. Deem and Ramdas Pophale) SiO2 
 PCOD8045424
Probable space group: P 2
;
_chemical_formula_sum "Si O2"
_cell_formula_units_Z 15
_cell_length_a 20.878442
_cell_length_b 6.778295
_cell_length_c 15.114661
_cell_angle_alpha 90.000000
_cell_angle_beta 162.811578
_cell_angle_gamma 90.000000
_cell_volume 632.115594
_symmetry_space_group_name_H-M "P 2"
_symmetry_group_IT_number 3
_symmetry_cell_setting 'monoclinic'
loop_
_space_group_symop_operation_xyz
x,y,z
-x,y,-z
loop_
_atom_site_type_symbol
_atom_site_label
_atom_site_fract_x
_atom_site_fract_y
_atom_site_fract_z
Si Si1 0.393347 0.671060 0.452804
Si Si2 0.063297 0.307619 0.771238
Si Si3 0.001459 0.627464 0.827275
Si Si4 0.226757 0.357823 0.348854
Si Si5 0.790650 0.956648 0.443587
Si Si6 0.686117 0.847959 0.121169
Si Si7 0.435026 0.040091 0.211607
Si Si8 0.000000 0.505752 0.500000
O O1 0.500000 0.637595 0.500000
O O2 0.405762 0.471216 0.525844
O O3 0.491557 0.852866 0.635054
O O4 0.139767 0.695186 0.094837
O O5 0.019555 0.371556 0.612814
O O6 0.116547 0.494893 0.903508
O O7 0.273097 0.168438 0.056940
O O8 0.853294 0.188738 0.535198
O O9 0.804203 0.496606 0.605724
O O10 0.950421 0.832293 0.714249
O O11 0.346200 0.153387 0.531194
O O12 0.000000 0.309852 0.000000
O O13 0.838636 0.917249 0.402868
O O14 0.557424 0.874120 0.164359
O O15 0.776070 0.631226 0.214201
O O16 0.703163 0.981165 0.056862
#
# Coordination Sequence:
#
# PCOD8045424 Si02
#       8
#     2   2   2   2   2   2   2   1
#     4  11  25  43  68 102 141 188 237 298 373 438
#     4  12  26  44  75 106 147 190 252 304 374 436
#     4  11  24  46  72 100 147 188 242 299 371 432
#     4  10  25  45  70 107 145 191 247 303 364 445
#     4  11  24  48  70 108 139 198 237 311 359 455
#     4  11  25  46  75 101 149 188 248 292 388 431
#     4  12  26  43  74 106 144 194 242 307 370 444
#     4  12  26  48  76 108 152 198 240 330 370 442
#
# _framework density 23.729837
#
# number of rings (size 3 to 8) (size 9 to 14) (size 15 to 20)
#    0.000    0.800    1.333    4.800    5.600    7.467 
#    4.800    0.000    0.000    0.000    0.000    0.000 
#    0.000    0.000    0.000    0.000    0.000    0.000 
#
# Total GULP energy -185868.545976 kJ/mol
# GULP energy per Si atom -12391.236398 kJ/mol
# Density = 2.367583 g / cm^3
# Si number density = 23.729837 Si / 1000 Ang^3
#
#
#
# Elastic Constant Matrix: (Units=GPa)
#
#
# Indices 1 2 3 4 5 6 
#
# 1 87.2781 11.9666 9.9878 0.0000 0.6351 0.0000
# 2 11.9666 73.1297 23.5524 0.0000 5.1195 0.0000
# 3 9.9878 23.5524 62.7730 0.0000 5.4661 0.0000
# 4 0.0000 0.0000 0.0000 42.0898 0.0000 -2.6933
# 5 0.6351 5.1195 5.4661 0.0000 44.1520 0.0000
# 6 0.0000 0.0000 0.0000 -2.6933 0.0000 35.9422
#
#
#
# Elastic Compliance Matrix: (Units=1/GPa)
#
#
# Indices 1 2 3 4 5 6 
#
# 1 0.011816 -0.001519 -0.001325 0.000000 0.000170 0.000000
# 2 -0.001519 0.015801 -0.005590 0.000000 -0.001118 0.000000
# 3 -0.001325 -0.005590 0.018379 0.000000 -0.001608 0.000000
# 4 0.000000 0.000000 0.000000 0.023873 0.000000 0.001789
# 5 0.000170 -0.001118 -0.001608 0.000000 0.022975 0.000000
# 6 0.000000 0.000000 0.000000 0.001789 0.000000 0.027956
#
#
# Mechanical properties :
#
#
# Convention : Reuss Voigt Hill
#
# Bulk Modulus (GPa) = 34.32975 34.91049 34.62012
# Shear Modulus (GPa) = 33.92642 36.28174 35.10408
#
# Velocity S-wave (km/s) = 3.78523 3.91442 3.85037
# Velocity P-wave (km/s) = 5.79675 5.93075 5.86413
#
# Compressibility (1/GPa) = 0.02912926
#
# Stress axis : x y z
#
# Youngs Moduli (GPa) = 84.62911 63.28567 54.41136
#
# Poissons Ratio (x) = 0.09611 0.07210
# Poissons Ratio (y) = 0.12853 0.30414
# Poissons Ratio (z) = 0.11214 0.35374
#
# Static dielectric constant tensor:
#      x y z
#    x 4.593150 0.000000 -0.202840 
#    y 0.000000 4.180910 0.000000 
#    z -0.202840 0.000000 4.662130 
# 
# 
# High freq. dielectric constant tensor:
#      x y z
#    x 1.959310 0.000000 -0.003300 
#    y 0.000000 1.938580 0.000000 
#    z -0.003300 0.000000 1.942170 
# 
# From -- ./inp_files/14324.got.cif
#   From: 2010.03.12/outbox.cif.g09.slc.cpg/sg3_8_cif.got.tgz:14324.got - 2010.03.31 09:20:49.
