data_PCOD8045080
_publ_section_title
;
Structure prediction by ZEFSAII (Michael W. Deem and Ramdas Pophale) SiO2 
 PCOD8045080
Probable space group: P 2
;
_chemical_formula_sum "Si O2"
_cell_formula_units_Z 16
_cell_length_a 10.838243
_cell_length_b 6.777402
_cell_length_c 10.395371
_cell_angle_alpha 90.000000
_cell_angle_beta 80.644797
_cell_angle_gamma 90.000000
_cell_volume 753.437197
_symmetry_space_group_name_H-M "P 2"
_symmetry_group_IT_number 3
_symmetry_cell_setting 'monoclinic'
loop_
_space_group_symop_operation_xyz
x,y,z
-x,y,-z
loop_
_atom_site_type_symbol
_atom_site_label
_atom_site_fract_x
_atom_site_fract_y
_atom_site_fract_z
Si Si1 0.701409 0.649850 0.478971
Si Si2 0.946942 0.378045 0.837649
Si Si3 0.972112 0.652489 0.360931
Si Si4 0.563106 0.295456 0.618842
Si Si5 0.830886 0.608836 0.054877
Si Si6 0.425200 0.636389 0.752826
Si Si7 0.654971 0.904883 0.722872
Si Si8 0.892792 0.925979 0.856661
O O1 0.824817 0.619276 0.373345
O O2 0.670395 0.446781 0.556435
O O3 0.598534 0.712655 0.389779
O O4 0.718261 0.816846 0.583696
O O5 0.952263 0.448146 0.687046
O O6 0.072125 0.489529 0.871218
O O7 0.946222 0.146615 0.860866
O O8 0.824322 0.474429 0.925801
O O9 0.000000 0.720318 0.500000
O O10 0.008443 0.820919 0.253479
O O11 0.500000 0.207849 0.500000
O O12 0.466652 0.409170 0.729510
O O13 0.618333 0.127045 0.697995
O O14 0.694335 0.641066 0.135353
O O15 0.884200 0.823653 0.999488
O O16 0.535087 0.776365 0.789472
O O17 0.754323 0.915804 0.820313
#
# Coordination Sequence:
#
# PCOD8045080 Si02
#       8
#     2   2   2   2   2   2   2   2
#     4  10  20  39  64  92 133 170 212 259 324 388
#     4  10  24  43  67  92 129 170 214 273 323 389
#     4  11  22  40  65  99 131 169 205 267 334 388
#     4   9  20  36  60  94 131 166 211 257 317 389
#     4  10  23  46  64  89 125 172 222 272 322 378
#     4  10  21  41  66  92 124 176 219 263 317 383
#     4  11  22  39  62  97 133 168 209 270 324 389
#     4  11  26  42  64  98 131 169 219 272 331 379
#
# _framework density 21.23601
#
# number of rings (size 3 to 8) (size 9 to 14) (size 15 to 20)
#    0.000    1.750    2.500    1.875    1.750    8.000 
#    2.250    0.000    0.000    0.000    0.000    0.000 
#    0.000    0.000    0.000    0.000    0.000    0.000 
#
# Total GULP energy -198265.502561 kJ/mol
# GULP energy per Si atom -12391.593910 kJ/mol
# Density = 2.118768 g / cm^3
# Si number density = 21.236010 Si / 1000 Ang^3
#
#
#
# Elastic Constant Matrix: (Units=GPa)
#
#
# Indices 1 2 3 4 5 6 
#
# 1 102.3530 40.6316 42.2287 0.0000 -19.7932 0.0000
# 2 40.6316 142.1060 44.9224 0.0000 -16.3416 0.0000
# 3 42.2287 44.9224 100.5964 0.0000 -32.1281 0.0000
# 4 0.0000 0.0000 0.0000 15.0287 0.0000 0.5898
# 5 -19.7932 -16.3416 -32.1281 0.0000 46.9723 0.0000
# 6 0.0000 0.0000 0.0000 0.5898 0.0000 20.0068
#
#
#
# Elastic Compliance Matrix: (Units=1/GPa)
#
#
# Indices 1 2 3 4 5 6 
#
# 1 0.012535 -0.002203 -0.003629 0.000000 0.002034 0.000000
# 2 -0.002203 0.008588 -0.002882 0.000000 0.000088 0.000000
# 3 -0.003629 -0.002882 0.015280 0.000000 0.007920 0.000000
# 4 0.000000 0.000000 0.000000 0.066617 0.000000 -0.001964
# 5 0.002034 0.000088 0.007920 0.000000 0.027594 0.000000
# 6 0.000000 0.000000 0.000000 -0.001964 0.000000 0.050041
#
#
# Mechanical properties :
#
#
# Convention : Reuss Voigt Hill
#
# Bulk Modulus (GPa) = 52.69894 66.73563 59.71728
# Shear Modulus (GPa) = 24.46089 30.88641 27.67365
#
# Velocity S-wave (km/s) = 3.39759 3.81784 3.61383
# Velocity P-wave (km/s) = 6.34517 7.13642 6.75239
#
# Compressibility (1/GPa) = 0.01897571
#
# Stress axis : x y z
#
# Youngs Moduli (GPa) = 79.77607 116.43932 65.44328
#
# Poissons Ratio (x) = 0.25653 0.23747
# Poissons Ratio (y) = 0.17576 0.18862
# Poissons Ratio (z) = 0.28948 0.33560
#
# Static dielectric constant tensor:
#      x y z
#    x 4.010860 0.000000 -0.223790 
#    y 0.000000 3.747500 0.000000 
#    z -0.223790 0.000000 4.303910 
# 
# 
# High freq. dielectric constant tensor:
#      x y z
#    x 1.834420 0.000000 -0.004170 
#    y 0.000000 1.821830 0.000000 
#    z -0.004170 0.000000 1.838470 
# 
# From -- ./inp_files/11295.got.cif
#   From: 2010.03.12/outbox.cif.g09.slc.cpg/sg3_6_cif.got.tgz:11295.got - 2010.03.31 09:20:49.
