data_PCOD8045971
_publ_section_title
;
Structure prediction by ZEFSAII (Michael W. Deem and Ramdas Pophale) SiO2 
 PCOD8045971
Probable space group: P 21
;
_chemical_formula_sum "Si O2"
_cell_formula_units_Z 16
_cell_length_a 6.684316
_cell_length_b 9.596073
_cell_length_c 11.961865
_cell_angle_alpha 90.000000
_cell_angle_beta 58.855053
_cell_angle_gamma 90.000000
_cell_volume 656.678748
_symmetry_space_group_name_H-M "P 21"
_symmetry_group_IT_number 4
_symmetry_cell_setting 'monoclinic'
loop_
_space_group_symop_operation_xyz
x,y,z
-x,1/2+y,-z
loop_
_atom_site_type_symbol
_atom_site_label
_atom_site_fract_x
_atom_site_fract_y
_atom_site_fract_z
Si Si1 0.227905 0.617220 0.852018
Si Si2 0.973500 0.990851 0.766606
Si Si3 0.060161 0.920948 0.199314
Si Si4 0.405872 0.381116 0.961872
Si Si5 0.651537 0.365252 0.500180
Si Si6 0.599193 0.671377 0.584874
Si Si7 0.914264 0.237733 0.614831
Si Si8 0.850875 0.698632 0.116438
O O1 0.346339 0.494597 0.886588
O O2 0.438462 0.706913 0.737619
O O3 0.039697 0.570430 0.809898
O O4 0.088136 0.716292 0.975427
O O5 0.143031 0.050524 0.818455
O O6 0.867953 0.117643 0.721327
O O7 0.123149 0.888521 0.644773
O O8 0.760400 0.902771 0.881661
O O9 0.325379 0.895400 0.078189
O O10 0.051355 0.888708 0.334361
O O11 0.868971 0.816833 0.203267
O O12 0.362626 0.231163 0.909369
O O13 0.541740 0.512644 0.567101
O O14 0.450685 0.279315 0.498793
O O15 0.702349 0.266142 0.592164
O O16 0.872824 0.692651 0.527886
#
# Coordination Sequence:
#
# PCOD8045971 Si02
#       8
#     2   2   2   2   2   2   2   2
#     4  10  21  36  58  88 118 154 207 261 315 383
#     4   9  21  40  61  93 128 169 226 269 320 399
#     4  10  21  37  59  86 119 158 207 258 319 391
#     4  10  20  38  62  88 124 166 205 268 335 375
#     4  11  24  42  65  93 130 174 222 272 325 391
#     4  11  24  42  66  93 125 172 221 271 331 387
#     4  10  23  41  59  88 129 169 214 266 320 389
#     4   9  20  38  58  87 123 158 206 267 325 385
#
# _framework density 24.365034000000001
#
# number of rings (size 3 to 8) (size 9 to 14) (size 15 to 20)
#    0.000    2.000    0.000    2.250    0.000   13.000 
#    0.000    6.250    0.000    0.000    0.000    0.000 
#    0.000    0.000    0.000    0.000    0.000    0.000 
#
# Total GULP energy -198221.629441 kJ/mol
# GULP energy per Si atom -12388.851840 kJ/mol
# Density = 2.430958 g / cm^3
# Si number density = 24.365034 Si / 1000 Ang^3
#
#
#
# Elastic Constant Matrix: (Units=GPa)
#
#
# Indices 1 2 3 4 5 6 
#
# 1 45.8681 4.4916 -2.5353 0.0000 0.1646 0.0000
# 2 4.4916 49.8606 -9.9933 0.0000 8.8948 0.0000
# 3 -2.5353 -9.9933 82.9657 0.0000 4.1620 0.0000
# 4 0.0000 0.0000 0.0000 27.6578 0.0000 -6.4389
# 5 0.1646 8.8948 4.1620 0.0000 27.2619 0.0000
# 6 0.0000 0.0000 0.0000 -6.4389 0.0000 26.3543
#
#
#
# Elastic Compliance Matrix: (Units=1/GPa)
#
#
# Indices 1 2 3 4 5 6 
#
# 1 0.022017 -0.001981 0.000412 0.000000 0.000451 0.000000
# 2 -0.001981 0.022208 0.003000 0.000000 -0.007692 0.000000
# 3 0.000412 0.003000 0.012573 0.000000 -0.002901 0.000000
# 4 0.000000 0.000000 0.000000 0.038337 0.000000 0.009366
# 5 0.000451 -0.007692 -0.002901 0.000000 0.039631 0.000000
# 6 0.000000 0.000000 0.000000 0.009366 0.000000 0.040233
#
#
# Mechanical properties :
#
#
# Convention : Reuss Voigt Hill
#
# Bulk Modulus (GPa) = 16.76207 18.06893 17.41550
# Shear Modulus (GPa) = 26.03856 28.70357 27.37107
#
# Velocity S-wave (km/s) = 3.27262 3.43602 3.35531
# Velocity P-wave (km/s) = 4.60158 4.81390 4.70894
#
# Compressibility (1/GPa) = 0.05965849
#
# Stress axis : x y z
#
# Youngs Moduli (GPa) = 45.41990 45.02907 79.53771
#
# Poissons Ratio (x) = 0.08921 -0.03273
# Poissons Ratio (y) = 0.08999 -0.23863
# Poissons Ratio (z) = -0.01869 -0.13510
#
# Static dielectric constant tensor:
#      x y z
#    x 4.318270 0.000000 0.105900 
#    y 0.000000 4.264800 0.000000 
#    z 0.105900 0.000000 4.582500 
# 
# 
# High freq. dielectric constant tensor:
#      x y z
#    x 1.952700 0.000000 -0.000450 
#    y 0.000000 1.944550 0.000000 
#    z -0.000450 0.000000 1.982850 
# 
# From -- ./inp_files/2769.got.cif
#   From: 2010.03.12/outbox.cif.g09.slc.cpg/sg4_2_cif.got.tgz:2769.got - 2010.03.31 09:31:35.
