data_PCOD8045887
_publ_section_title
;
Structure prediction by ZEFSAII (Michael W. Deem and Ramdas Pophale) SiO2 
 PCOD8045887
Probable space group: P 21
;
_chemical_formula_sum "Si O2"
_cell_formula_units_Z 14
_cell_length_a 11.651399
_cell_length_b 5.103602
_cell_length_c 14.442496
_cell_angle_alpha 90.000000
_cell_angle_beta 137.084351
_cell_angle_gamma 90.000000
_cell_volume 584.781746
_symmetry_space_group_name_H-M "P 21"
_symmetry_group_IT_number 4
_symmetry_cell_setting 'monoclinic'
loop_
_space_group_symop_operation_xyz
x,y,z
-x,1/2+y,-z
loop_
_atom_site_type_symbol
_atom_site_label
_atom_site_fract_x
_atom_site_fract_y
_atom_site_fract_z
Si Si1 0.277051 0.613490 0.894524
Si Si2 0.181161 0.837239 0.276129
Si Si3 0.904707 0.652282 0.462616
Si Si4 0.910587 0.821542 0.669733
Si Si5 0.824500 0.824319 0.998997
Si Si6 0.409014 0.328594 0.809048
Si Si7 0.671448 0.333768 0.821357
O O1 0.112742 0.800509 0.807916
O O2 0.309606 0.558237 0.805166
O O3 0.237994 0.347120 0.930191
O O4 0.445758 0.736688 0.035917
O O5 0.338587 0.834359 0.296861
O O6 0.163283 0.585204 0.330458
O O7 0.197539 0.087951 0.350228
O O8 0.023840 0.870310 0.113427
O O9 0.732218 0.613524 0.301838
O O10 0.979574 0.363654 0.525172
O O11 0.873441 0.808808 0.539311
O O12 0.800767 0.540503 0.941354
O O13 0.725131 0.042335 0.882132
O O14 0.491144 0.415594 0.759651
#
# Coordination Sequence:
#
# PCOD8045887 Si02
#       7
#     2   2   2   2   2   2   2
#     4  10  22  39  66 104 134 177 216 290 338 398
#     4  11  21  39  65  92 131 176 226 269 317 403
#     4  12  27  47  69  97 135 179 223 274 337 412
#     4  11  24  43  67  97 130 177 225 269 329 396
#     4  10  20  35  60  94 135 174 215 272 332 396
#     4  11  24  41  67 103 138 174 221 281 346 401
#     4  11  22  38  60  97 133 175 216 273 339 386
#
# _framework density 23.940557999999999
#
# number of rings (size 3 to 8) (size 9 to 14) (size 15 to 20)
#    0.000    1.143    1.429    6.000    4.000    2.286 
#    0.000    1.429    0.000    0.000    0.000    0.000 
#    0.000    0.000    0.000    0.000    0.000    0.000 
#
# Total GULP energy -173495.550396 kJ/mol
# GULP energy per Si atom -12392.539314 kJ/mol
# Density = 2.388607 g / cm^3
# Si number density = 23.940558 Si / 1000 Ang^3
#
#
#
# Elastic Constant Matrix: (Units=GPa)
#
#
# Indices 1 2 3 4 5 6 
#
# 1 144.4949 17.0789 -1.9623 0.0000 -18.5948 0.0000
# 2 17.0789 62.5675 -9.1930 0.0000 5.5262 0.0000
# 3 -1.9623 -9.1930 52.3854 0.0000 -0.7893 0.0000
# 4 0.0000 0.0000 0.0000 20.5396 0.0000 -14.5748
# 5 -18.5948 5.5262 -0.7893 0.0000 18.3146 0.0000
# 6 0.0000 0.0000 0.0000 -14.5748 0.0000 31.6305
#
#
#
# Elastic Compliance Matrix: (Units=1/GPa)
#
#
# Indices 1 2 3 4 5 6 
#
# 1 0.008536 -0.003194 -0.000096 0.000000 0.009626 0.000000
# 2 -0.003194 0.018039 0.002917 0.000000 -0.008561 0.000000
# 3 -0.000096 0.002917 0.019596 0.000000 -0.000133 0.000000
# 4 0.000000 0.000000 0.000000 0.072339 0.000000 0.033333
# 5 0.009626 -0.008561 -0.000133 0.000000 0.066952 0.000000
# 6 0.000000 0.000000 0.000000 0.033333 0.000000 0.046974
#
#
# Mechanical properties :
#
#
# Convention : Reuss Voigt Hill
#
# Bulk Modulus (GPa) = 22.01446 30.14390 26.07918
# Shear Modulus (GPa) = 20.13507 30.99856 25.56681
#
# Velocity S-wave (km/s) = 2.90322 3.60226 3.27146
# Velocity P-wave (km/s) = 4.52258 5.46993 5.01866
#
# Compressibility (1/GPa) = 0.04542470
#
# Stress axis : x y z
#
# Youngs Moduli (GPa) = 117.15578 55.43436 51.03188
#
# Poissons Ratio (x) = 0.17707 0.00489
# Poissons Ratio (y) = 0.37422 -0.14886
# Poissons Ratio (z) = 0.01122 -0.16170
#
# Static dielectric constant tensor:
#      x y z
#    x 4.932220 0.000000 -0.057110 
#    y 0.000000 4.031300 0.000000 
#    z -0.057110 0.000000 3.979790 
# 
# 
# High freq. dielectric constant tensor:
#      x y z
#    x 1.965760 0.000000 -0.012050 
#    y 0.000000 1.938500 0.000000 
#    z -0.012050 0.000000 1.921880 
# 
# From -- ./inp_files/13863.got.cif
#   From: 2010.03.12/outbox.cif.g09.slc.cpg/sg4_7_cif.got.tgz:13863.got - 2010.03.31 09:31:35.
