data_PCOD8045457
_publ_section_title
;
Structure prediction by ZEFSAII (Michael W. Deem and Ramdas Pophale) SiO2 
 PCOD8045457
Probable space group: P 2
;
_chemical_formula_sum "Si O2"
_cell_formula_units_Z 15
_cell_length_a 17.380294
_cell_length_b 7.997311
_cell_length_c 9.501463
_cell_angle_alpha 90.000000
_cell_angle_beta 34.981511
_cell_angle_gamma 90.000000
_cell_volume 757.151298
_symmetry_space_group_name_H-M "P 2"
_symmetry_group_IT_number 3
_symmetry_cell_setting 'monoclinic'
loop_
_space_group_symop_operation_xyz
x,y,z
-x,y,-z
loop_
_atom_site_type_symbol
_atom_site_label
_atom_site_fract_x
_atom_site_fract_y
_atom_site_fract_z
Si Si1 0.834903 0.120350 0.964361
Si Si2 0.216573 0.901646 0.208936
Si Si3 0.000000 0.660636 0.500000
Si Si4 0.787310 0.410641 0.827294
Si Si5 0.323981 0.150670 0.512626
Si Si6 0.488467 0.829413 0.179124
Si Si7 0.494548 0.458907 0.172661
Si Si8 0.141166 0.187779 0.522445
O O1 0.775676 0.260019 0.951540
O O2 0.987598 0.145254 0.780388
O O3 0.825699 0.949973 0.887596
O O4 0.743697 0.122153 0.237037
O O5 0.100811 0.775990 0.442462
O O6 0.221468 0.054043 0.309208
O O7 0.363395 0.823269 0.976821
O O8 0.109875 0.544124 0.255190
O O9 0.849515 0.358799 0.581293
O O10 0.641364 0.484193 0.017702
O O11 0.422619 0.310846 0.367027
O O12 0.212110 0.196275 0.565930
O O13 0.399047 0.975064 0.378978
O O14 0.424089 0.642399 0.295805
O O15 0.500000 0.873892 0.000000
O O16 0.500000 0.406352 0.000000
#
# Coordination Sequence:
#
# PCOD8045457 Si02
#       8
#     2   2   1   2   2   2   2   2
#     4  11  24  40  59  92 126 162 205 248 315 366
#     4  11  21  39  68  89 118 162 207 256 300 364
#     4  12  20  38  66 100 120 150 210 264 302 346
#     4  11  21  39  68  89 118 162 207 256 300 364
#     4  12  24  42  62  90 131 167 196 257 310 364
#     4  11  23  40  65  94 119 160 213 254 302 367
#     4  11  23  40  65  94 119 160 213 254 302 367
#     4  11  20  41  65  87 117 170 211 240 304 368
#
# _framework density 19.8111
#
# number of rings (size 3 to 8) (size 9 to 14) (size 15 to 20)
#    0.000    0.800    6.667    3.200    0.000    2.133 
#    2.400    1.333    0.000    3.200    0.000    0.000 
#    0.000    0.000    0.000    0.000    0.000    0.000 
#
# Total GULP energy -185870.018150 kJ/mol
# GULP energy per Si atom -12391.334543 kJ/mol
# Density = 1.976601 g / cm^3
# Si number density = 19.811100 Si / 1000 Ang^3
#
#
#
# Elastic Constant Matrix: (Units=GPa)
#
#
# Indices 1 2 3 4 5 6 
#
# 1 102.4044 30.8232 48.2758 0.0000 -12.3948 0.0000
# 2 30.8232 111.3222 51.1745 0.0000 0.3851 0.0000
# 3 48.2758 51.1745 110.9144 0.0000 1.9093 0.0000
# 4 0.0000 0.0000 0.0000 71.7997 0.0000 5.1579
# 5 -12.3948 0.3851 1.9093 0.0000 31.4092 0.0000
# 6 0.0000 0.0000 0.0000 5.1579 0.0000 21.9839
#
#
#
# Elastic Compliance Matrix: (Units=1/GPa)
#
#
# Indices 1 2 3 4 5 6 
#
# 1 0.013329 -0.001268 -0.005313 0.000000 0.005598 0.000000
# 2 -0.001268 0.011523 -0.004759 0.000000 -0.000352 0.000000
# 3 -0.005313 -0.004759 0.013573 0.000000 -0.002863 0.000000
# 4 0.000000 0.000000 0.000000 0.014166 0.000000 -0.003324
# 5 0.005598 -0.000352 -0.002863 0.000000 0.034225 0.000000
# 6 0.000000 0.000000 0.000000 -0.003324 0.000000 0.046268
#
#
# Mechanical properties :
#
#
# Convention : Reuss Voigt Hill
#
# Bulk Modulus (GPa) = 63.50588 65.02087 64.26337
# Shear Modulus (GPa) = 31.05361 37.99640 34.52501
#
# Velocity S-wave (km/s) = 3.96344 4.38417 4.17911
# Velocity P-wave (km/s) = 7.28495 7.64981 7.46961
#
# Compressibility (1/GPa) = 0.01574657
#
# Stress axis : x y z
#
# Youngs Moduli (GPa) = 75.02409 86.78564 73.67381
#
# Poissons Ratio (x) = 0.11001 0.39143
# Poissons Ratio (y) = 0.09510 0.35059
# Poissons Ratio (z) = 0.39861 0.41298
#
# Static dielectric constant tensor:
#      x y z
#    x 3.605910 0.000000 -0.042600 
#    y 0.000000 3.995930 0.000000 
#    z -0.042600 0.000000 3.138430 
# 
# 
# High freq. dielectric constant tensor:
#      x y z
#    x 1.773830 0.000000 -0.029520 
#    y 0.000000 1.788790 0.000000 
#    z -0.029520 0.000000 1.747080 
# 
# From -- ./inp_files/7136.got.cif
#   From: 2010.03.12/outbox.cif.g09.slc.cpg/sg3_4_cif.got.tgz:7136.got - 2010.03.31 09:20:49.
