data_PCOD8045036
_publ_section_title
;
Structure prediction by ZEFSAII (Michael W. Deem and Ramdas Pophale) SiO2 
 PCOD8045036
Probable space group: P 2
;
_chemical_formula_sum "Si O2"
_cell_formula_units_Z 16
_cell_length_a 15.390535
_cell_length_b 5.229787
_cell_length_c 11.773633
_cell_angle_alpha 90.000000
_cell_angle_beta 54.820292
_cell_angle_gamma 90.000000
_cell_volume 774.561215
_symmetry_space_group_name_H-M "P 2"
_symmetry_group_IT_number 3
_symmetry_cell_setting 'monoclinic'
loop_
_space_group_symop_operation_xyz
x,y,z
-x,y,-z
loop_
_atom_site_type_symbol
_atom_site_label
_atom_site_fract_x
_atom_site_fract_y
_atom_site_fract_z
Si Si1 0.800686 0.528610 0.138096
Si Si2 0.554455 0.607199 0.335200
Si Si3 0.238822 0.189504 0.466286
Si Si4 0.893565 0.033179 0.962560
Si Si5 0.928171 0.322910 0.236937
Si Si6 0.831840 0.704204 0.584744
Si Si7 0.047638 0.720406 0.284706
Si Si8 0.536860 0.110998 0.603181
O O1 0.680620 0.619594 0.242985
O O2 0.842895 0.490960 0.233639
O O3 0.812231 0.266212 0.054930
O O4 0.865826 0.767602 0.041668
O O5 0.500000 0.589525 0.500000
O O6 0.520108 0.351843 0.293602
O O7 0.507089 0.852860 0.304645
O O8 0.132238 0.165190 0.621025
O O9 0.238622 0.467376 0.407434
O O10 0.337470 0.146705 0.477023
O O11 0.238235 0.963122 0.373182
O O12 0.015714 0.128336 0.895417
O O13 0.904969 0.968395 0.817704
O O14 0.025922 0.490688 0.212666
O O15 0.862307 0.644642 0.691580
O O16 0.936343 0.762855 0.432219
O O17 0.500000 0.092800 0.500000
#
# Coordination Sequence:
#
# PCOD8045036 Si02
#       8
#     2   2   2   2   2   2   2   2
#     4  12  27  38  61  90 128 173 209 244 306 385
#     4  10  21  41  59  84 119 159 201 255 304 358
#     4  11  22  38  62  96 121 164 201 255 320 368
#     4  12  25  40  57  90 130 175 210 243 297 373
#     4  11  24  39  60  89 136 172 208 246 298 375
#     4  10  23  38  62  88 126 162 216 253 305 355
#     4  10  23  40  59  86 127 174 208 258 292 355
#     4  10  20  36  61  88 122 152 192 251 317 367
#
# _framework density 20.656853999999999
#
# number of rings (size 3 to 8) (size 9 to 14) (size 15 to 20)
#    0.000    1.250    2.500    3.375    5.250    5.000 
#    0.000    0.000    0.000    0.000    0.000   13.125 
#    0.000    0.000    0.000    0.000    0.000    0.000 
#
# Total GULP energy -198212.450915 kJ/mol
# GULP energy per Si atom -12388.278182 kJ/mol
# Density = 2.060984 g / cm^3
# Si number density = 20.656854 Si / 1000 Ang^3
#
#
#
# Elastic Constant Matrix: (Units=GPa)
#
#
# Indices 1 2 3 4 5 6 
#
# 1 104.5450 46.9150 24.9429 0.0000 -2.1226 0.0000
# 2 46.9150 171.7506 30.4278 0.0000 -2.8413 0.0000
# 3 24.9429 30.4278 43.3845 0.0000 -2.6356 0.0000
# 4 0.0000 0.0000 0.0000 25.2744 0.0000 3.3209
# 5 -2.1226 -2.8413 -2.6356 0.0000 27.3101 0.0000
# 6 0.0000 0.0000 0.0000 3.3209 0.0000 15.9555
#
#
#
# Elastic Compliance Matrix: (Units=1/GPa)
#
#
# Indices 1 2 3 4 5 6 
#
# 1 0.011842 -0.002315 -0.005174 0.000000 0.000180 0.000000
# 2 -0.002315 0.007103 -0.003638 0.000000 0.000208 0.000000
# 3 -0.005174 -0.003638 0.028696 0.000000 0.001989 0.000000
# 4 0.000000 0.000000 0.000000 0.040678 0.000000 -0.008467
# 5 0.000180 0.000208 0.001989 0.000000 0.036844 0.000000
# 6 0.000000 0.000000 0.000000 -0.008467 0.000000 0.064436
#
#
# Mechanical properties :
#
#
# Convention : Reuss Voigt Hill
#
# Bulk Modulus (GPa) = 39.38877 58.25018 48.81947
# Shear Modulus (GPa) = 22.69465 28.20095 25.44780
#
# Velocity S-wave (km/s) = 3.31818 3.69888 3.51369
# Velocity P-wave (km/s) = 5.81292 6.81927 6.33611
#
# Compressibility (1/GPa) = 0.02538795
#
# Stress axis : x y z
#
# Youngs Moduli (GPa) = 84.44333 140.79069 34.84760
#
# Poissons Ratio (x) = 0.32596 0.18029
# Poissons Ratio (y) = 0.19551 0.12677
# Poissons Ratio (z) = 0.43688 0.51217
#
# Static dielectric constant tensor:
#      x y z
#    x 3.566900 0.000000 -0.005130 
#    y 0.000000 5.130870 0.000000 
#    z -0.005130 0.000000 3.649800 
# 
# 
# High freq. dielectric constant tensor:
#      x y z
#    x 1.786980 0.000000 -0.005600 
#    y 0.000000 1.840430 0.000000 
#    z -0.005600 0.000000 1.771270 
# 
# From -- ./inp_files/12006.got.cif
#   From: 2010.03.12/outbox.cif.g09.slc.cpg/sg3_7_cif.got.tgz:12006.got - 2010.03.31 09:20:49.
