data_PCOD8045962
_publ_section_title
;
Structure prediction by ZEFSAII (Michael W. Deem and Ramdas Pophale) SiO2 
 PCOD8045962
Probable space group: P 21
;
_chemical_formula_sum "Si O2"
_cell_formula_units_Z 12
_cell_length_a 7.878036
_cell_length_b 15.518090
_cell_length_c 9.443117
_cell_angle_alpha 90.000000
_cell_angle_beta 148.040194
_cell_angle_gamma 90.000000
_cell_volume 611.073371
_symmetry_space_group_name_H-M "P 21"
_symmetry_group_IT_number 4
_symmetry_cell_setting 'monoclinic'
loop_
_space_group_symop_operation_xyz
x,y,z
-x,1/2+y,-z
loop_
_atom_site_type_symbol
_atom_site_label
_atom_site_fract_x
_atom_site_fract_y
_atom_site_fract_z
Si Si1 0.195326 0.425340 0.138399
Si Si2 0.374903 0.343492 0.755147
Si Si3 0.460386 0.990115 0.339111
Si Si4 0.374910 0.831079 0.755154
Si Si5 0.804669 0.249232 0.861595
Si Si6 0.460381 0.184456 0.339105
O O1 0.348752 0.445502 0.398411
O O2 0.483640 0.413703 0.230401
O O3 0.925157 0.495410 0.903803
O O4 0.000000 0.337285 0.000001
O O5 0.475093 0.434625 0.756318
O O6 0.516354 0.260868 0.769594
O O7 0.999997 0.337286 0.499997
O O8 0.499996 0.337286 0.999996
O O9 0.587080 0.087286 0.407496
O O10 0.475099 0.739946 0.756325
O O11 0.651241 0.229071 0.601581
O O12 0.074836 0.179160 0.096189
#
# Coordination Sequence:
#
# PCOD8045962 Si02
#       6
#     2   2   2   2   2   2
#     4  10  20  38  61  82 111 155 200 232 281 360
#     4  11  21  37  60  85 116 152 189 235 294 356
#     4  11  22  39  60  85 116 155 201 249 289 338
#     4  11  21  37  60  85 116 152 189 235 294 356
#     4  10  20  38  61  82 111 155 200 232 281 360
#     4  11  22  39  60  85 116 155 201 249 289 338
#
# _framework density 19.637575999999999
#
# number of rings (size 3 to 8) (size 9 to 14) (size 15 to 20)
#    0.000    1.333    0.000   11.000    0.000    0.000 
#    0.000   10.000    0.000    0.000    0.000    0.000 
#    0.000    0.000    0.000    0.000    0.000    0.000 
#
# Total GULP energy -148723.519960 kJ/mol
# GULP energy per Si atom -12393.626663 kJ/mol
# Density = 1.959288 g / cm^3
# Si number density = 19.637576 Si / 1000 Ang^3
#
#
#
# Elastic Constant Matrix: (Units=GPa)
#
#
# Indices 1 2 3 4 5 6 
#
# 1 131.8271 59.2286 77.7543 0.0000 5.5838 0.0000
# 2 59.2286 116.5234 51.4098 0.0000 -16.3289 0.0000
# 3 77.7543 51.4098 189.4856 0.0000 -10.8951 0.0000
# 4 0.0000 0.0000 0.0000 21.9910 0.0000 2.7753
# 5 5.5838 -16.3289 -10.8951 0.0000 52.3026 0.0000
# 6 0.0000 0.0000 0.0000 2.7753 0.0000 20.6416
#
#
#
# Elastic Compliance Matrix: (Units=1/GPa)
#
#
# Indices 1 2 3 4 5 6 
#
# 1 0.012312 -0.005060 -0.003892 0.000000 -0.003705 0.000000
# 2 -0.005060 0.012169 -0.000988 0.000000 0.004134 0.000000
# 3 -0.003892 -0.000988 0.007235 0.000000 0.001614 0.000000
# 4 0.000000 0.000000 0.000000 0.046258 0.000000 -0.006220
# 5 -0.003705 0.004134 0.001614 0.000000 0.021142 0.000000
# 6 0.000000 0.000000 0.000000 -0.006220 0.000000 0.049282
#
#
# Mechanical properties :
#
#
# Convention : Reuss Voigt Hill
#
# Bulk Modulus (GPa) = 84.48474 90.51349 87.49911
# Shear Modulus (GPa) = 29.03211 35.61659 32.32435
#
# Velocity S-wave (km/s) = 3.84916 4.26337 4.06155
# Velocity P-wave (km/s) = 7.92907 8.39209 8.16386
#
# Compressibility (1/GPa) = 0.01183646
#
# Stress axis : x y z
#
# Youngs Moduli (GPa) = 81.22335 82.17659 138.20986
#
# Poissons Ratio (x) = 0.41581 0.53795
# Poissons Ratio (y) = 0.41099 0.13649
# Poissons Ratio (z) = 0.31614 0.08116
#
# Static dielectric constant tensor:
#      x y z
#    x 4.105490 0.000000 0.399930 
#    y 0.000000 3.718020 0.000000 
#    z 0.399930 0.000000 3.909490 
# 
# 
# High freq. dielectric constant tensor:
#      x y z
#    x 1.760210 0.000000 0.010360 
#    y 0.000000 1.747450 0.000000 
#    z 0.010360 0.000000 1.796270 
# 
# From -- ./inp_files/6511.got.cif
#   From: 2010.03.12/outbox.cif.g09.slc.cpg/sg4_4_cif.got.tgz:6511.got - 2010.03.31 09:31:35.
