data_PCOD8045274
_publ_section_title
;
Structure prediction by ZEFSAII (Michael W. Deem and Ramdas Pophale) SiO2 
 PCOD8045274
Probable space group: P 2
;
_chemical_formula_sum "Si O2"
_cell_formula_units_Z 15
_cell_length_a 9.034804
_cell_length_b 6.271832
_cell_length_c 20.726668
_cell_angle_alpha 90.000000
_cell_angle_beta 36.692596
_cell_angle_gamma 90.000000
_cell_volume 701.772271
_symmetry_space_group_name_H-M "P 2"
_symmetry_group_IT_number 3
_symmetry_cell_setting 'monoclinic'
loop_
_space_group_symop_operation_xyz
x,y,z
-x,y,-z
loop_
_atom_site_type_symbol
_atom_site_label
_atom_site_fract_x
_atom_site_fract_y
_atom_site_fract_z
Si Si1 0.073624 0.294810 0.214381
Si Si2 0.750449 0.985021 0.951995
Si Si3 0.157521 0.678319 0.771267
Si Si4 0.119969 0.837322 0.346598
Si Si5 0.408995 0.447679 0.303517
Si Si6 0.249926 0.942907 0.622617
Si Si7 0.483166 0.162905 0.160618
Si Si8 0.000000 0.149679 0.500000
O O1 0.325323 0.309979 0.167082
O O2 0.977745 0.526370 0.231929
O O3 0.115563 0.173291 0.132762
O O4 0.879263 0.172350 0.327400
O O5 0.942637 0.786929 0.889865
O O6 0.500000 0.917604 0.000000
O O7 0.710361 0.070393 0.038960
O O8 0.366752 0.562186 0.739049
O O9 0.295383 0.850853 0.678211
O O10 0.211570 0.618646 0.346256
O O11 0.920252 0.783584 0.360899
O O12 0.351226 0.951972 0.232716
O O13 0.981738 0.996733 0.444487
O O14 0.547330 0.313733 0.198750
O O15 0.250097 0.293496 0.406375
O O16 0.500000 0.988484 0.500000
#
# Coordination Sequence:
#
# PCOD8045274 Si02
#       8
#     2   2   2   2   2   2   2   1
#     4   9  20  40  61  91 126 159 215 264 316 375
#     4   9  20  40  67  92 124 170 208 267 324 370
#     4  11  24  39  63 100 130 159 216 271 318 382
#     4  10  22  41  62  88 124 169 215 259 316 388
#     4  11  24  40  64  94 130 172 216 263 321 392
#     4  10  23  37  62  91 123 166 211 266 317 371
#     4   9  20  41  65  91 123 170 216 257 317 387
#     4  10  24  38  64  84 128 178 214 260 326 376
#
# _framework density 21.374455000000001
#
# number of rings (size 3 to 8) (size 9 to 14) (size 15 to 20)
#    0.000    2.133    0.000    2.000    5.600    6.400 
#    0.000    4.000    0.000    0.000    0.000    0.000 
#    0.000    0.000    0.000    0.000    0.000    0.000 
#
# Total GULP energy -185939.494514 kJ/mol
# GULP energy per Si atom -12395.966301 kJ/mol
# Density = 2.132581 g / cm^3
# Si number density = 21.374455 Si / 1000 Ang^3
#
#
#
# Elastic Constant Matrix: (Units=GPa)
#
#
# Indices 1 2 3 4 5 6 
#
# 1 77.1268 28.1314 47.1927 0.0000 7.9919 0.0000
# 2 28.1314 69.8378 48.3704 0.0000 2.5681 0.0000
# 3 47.1927 48.3704 159.0965 0.0000 9.8976 0.0000
# 4 0.0000 0.0000 0.0000 32.1175 0.0000 5.2418
# 5 7.9919 2.5681 9.8976 0.0000 26.3481 0.0000
# 6 0.0000 0.0000 0.0000 5.2418 0.0000 36.8186
#
#
#
# Elastic Compliance Matrix: (Units=1/GPa)
#
#
# Indices 1 2 3 4 5 6 
#
# 1 0.017052 -0.004290 -0.003541 0.000000 -0.003424 0.000000
# 2 -0.004290 0.019220 -0.004644 0.000000 0.001172 0.000000
# 3 -0.003541 -0.004644 0.008860 0.000000 -0.001802 0.000000
# 4 0.000000 0.000000 0.000000 0.031876 0.000000 -0.004538
# 5 -0.003424 0.001172 -0.001802 0.000000 0.039554 0.000000
# 6 0.000000 0.000000 0.000000 -0.004538 0.000000 0.027806
#
#
# Mechanical properties :
#
#
# Convention : Reuss Voigt Hill
#
# Bulk Modulus (GPa) = 49.54906 61.49443 55.52174
# Shear Modulus (GPa) = 28.40162 31.21460 29.80811
#
# Velocity S-wave (km/s) = 3.64918 3.82562 3.73844
# Velocity P-wave (km/s) = 6.40212 6.95316 6.68332
#
# Compressibility (1/GPa) = 0.02018202
#
# Stress axis : x y z
#
# Youngs Moduli (GPa) = 58.64478 52.02802 112.87054
#
# Poissons Ratio (x) = 0.22322 0.39963
# Poissons Ratio (y) = 0.25161 0.52416
# Poissons Ratio (z) = 0.20764 0.24161
#
# Static dielectric constant tensor:
#      x y z
#    x 3.767960 0.000000 0.196640 
#    y 0.000000 3.793190 0.000000 
#    z 0.196640 0.000000 4.001620 
# 
# 
# High freq. dielectric constant tensor:
#      x y z
#    x 1.825130 0.000000 0.014120 
#    y 0.000000 1.836170 0.000000 
#    z 0.014120 0.000000 1.846910 
# 
# From -- ./inp_files/8070.got.cif
#   From: 2010.03.12/outbox.cif.g09.slc.cpg/sg3_5_cif.got.tgz:8070.got - 2010.03.31 09:20:49.
