data_PCOD8045547
_publ_section_title
;
Structure prediction by ZEFSAII (Michael W. Deem and Ramdas Pophale) SiO2 
 PCOD8045547
Probable space group: P 2
;
_chemical_formula_sum "Si O2"
_cell_formula_units_Z 9
_cell_length_a 9.435221
_cell_length_b 8.399303
_cell_length_c 9.787682
_cell_angle_alpha 90.000000
_cell_angle_beta 150.049202
_cell_angle_gamma 90.000000
_cell_volume 387.256379
_symmetry_space_group_name_H-M "P 2"
_symmetry_group_IT_number 3
_symmetry_cell_setting 'monoclinic'
loop_
_space_group_symop_operation_xyz
x,y,z
-x,y,-z
loop_
_atom_site_type_symbol
_atom_site_label
_atom_site_fract_x
_atom_site_fract_y
_atom_site_fract_z
Si Si1 0.818424 0.838120 0.219811
Si Si2 0.032155 0.125362 0.239543
Si Si3 0.467001 0.324575 0.310524
Si Si4 0.500000 0.910014 0.500000
Si Si5 0.754575 0.658968 0.902155
O O1 0.000000 0.784252 0.500000
O O2 0.500000 0.822404 0.000000
O O3 0.891212 0.716964 0.157515
O O4 0.879121 0.018710 0.225114
O O5 0.236925 0.247510 0.494090
O O6 0.225619 0.017180 0.300723
O O7 0.799195 0.216593 0.954960
O O8 0.500000 0.330467 0.500000
O O9 0.433949 0.502929 0.226321
O O10 0.559905 0.801778 0.682507
O O11 0.000000 0.612566 0.000000
#
# Coordination Sequence:
#
# PCOD8045547 Si02
#       5
#     2   2   2   1   2
#     4  12  28  51  75 108 149 201 254 304 362 443
#     4  12  26  45  73 107 149 195 239 305 367 434
#     4  12  26  43  70 115 156 182 239 313 381 431
#     4  12  24  42  74 114 144 190 242 312 354 434
#     4  12  26  46  76 114 151 192 247 310 372 442
#
# _framework density 23.240417999999998
#
# number of rings (size 3 to 8) (size 9 to 14) (size 15 to 20)
#    0.000    0.000    4.444    6.000    3.111    0.000 
#    0.000    4.444    0.000    2.667    0.000    0.000 
#    0.000    0.000    0.000    0.000    0.000    0.000 
#
# Total GULP energy -111632.456224 kJ/mol
# GULP energy per Si atom -12403.606247 kJ/mol
# Density = 2.318752 g / cm^3
# Si number density = 23.240418 Si / 1000 Ang^3
#
#
#
# Elastic Constant Matrix: (Units=GPa)
#
#
# Indices 1 2 3 4 5 6 
#
# 1 87.9103 30.7693 49.1882 0.0000 -13.2969 0.0000
# 2 30.7693 144.7064 71.0470 0.0000 -23.7045 0.0000
# 3 49.1882 71.0470 196.6245 0.0000 -15.9261 0.0000
# 4 0.0000 0.0000 0.0000 46.6988 0.0000 6.8659
# 5 -13.2969 -23.7045 -15.9261 0.0000 41.9371 0.0000
# 6 0.0000 0.0000 0.0000 6.8659 0.0000 8.2948
#
#
#
# Elastic Compliance Matrix: (Units=1/GPa)
#
#
# Indices 1 2 3 4 5 6 
#
# 1 0.013744 -0.001099 -0.002825 0.000000 0.002664 0.000000
# 2 -0.001099 0.009088 -0.002704 0.000000 0.003762 0.000000
# 3 -0.002825 -0.002704 0.006782 0.000000 0.000151 0.000000
# 4 0.000000 0.000000 0.000000 0.024381 0.000000 -0.020181
# 5 0.002664 0.003762 0.000151 0.000000 0.026873 0.000000
# 6 0.000000 0.000000 0.000000 -0.020181 0.000000 0.137262
#
#
# Mechanical properties :
#
#
# Convention : Reuss Voigt Hill
#
# Bulk Modulus (GPa) = 61.13669 81.25004 71.19336
# Shear Modulus (GPa) = 21.11141 37.93525 29.52333
#
# Velocity S-wave (km/s) = 3.01722 4.04455 3.56806
# Velocity P-wave (km/s) = 6.20496 7.53975 6.90468
#
# Compressibility (1/GPa) = 0.01635679
#
# Stress axis : x y z
#
# Youngs Moduli (GPa) = 72.76129 110.03392 147.44874
#
# Poissons Ratio (x) = 0.12091 0.41659
# Poissons Ratio (y) = 0.07995 0.39874
# Poissons Ratio (z) = 0.20558 0.29756
#
# Static dielectric constant tensor:
#      x y z
#    x 3.972310 0.000000 0.127820 
#    y 0.000000 4.696970 0.000000 
#    z 0.127820 0.000000 4.573320 
# 
# 
# High freq. dielectric constant tensor:
#      x y z
#    x 1.884110 0.000000 0.008910 
#    y 0.000000 1.931740 0.000000 
#    z 0.008910 0.000000 1.945660 
# 
# From -- ./inp_files/4089.got.cif
#   From: 2010.03.12/outbox.cif.g09.slc.cpg/sg3_3_cif.got.tgz:4089.got - 2010.03.31 09:20:49.
