data_PCOD8045171
_publ_section_title
;
Structure prediction by ZEFSAII (Michael W. Deem and Ramdas Pophale) SiO2 
 PCOD8045171
Probable space group: P 2
;
_chemical_formula_sum "Si O2"
_cell_formula_units_Z 14
_cell_length_a 15.441941
_cell_length_b 7.655859
_cell_length_c 5.191033
_cell_angle_alpha 90.000000
_cell_angle_beta 69.751861
_cell_angle_gamma 90.000000
_cell_volume 575.766280
_symmetry_space_group_name_H-M "P 2"
_symmetry_group_IT_number 3
_symmetry_cell_setting 'monoclinic'
loop_
_space_group_symop_operation_xyz
x,y,z
-x,y,-z
loop_
_atom_site_type_symbol
_atom_site_label
_atom_site_fract_x
_atom_site_fract_y
_atom_site_fract_z
Si Si1 0.406101 0.843760 0.450048
Si Si2 0.057787 0.589493 0.186819
Si Si3 0.246350 0.078889 0.149919
Si Si4 0.267885 0.706592 0.999000
Si Si5 0.400937 0.510208 0.175533
Si Si6 0.053818 0.178287 0.192940
Si Si7 0.329539 0.202749 0.548214
O O1 0.500000 0.812089 0.500000
O O2 0.416975 0.715750 0.199540
O O3 0.398873 0.048451 0.382612
O O4 0.314301 0.773409 0.688811
O O5 0.159869 0.668912 0.070608
O O6 0.072120 0.383076 0.159236
O O7 0.000000 0.644691 0.500000
O O8 0.000000 0.655848 0.000000
O O9 0.148772 0.074948 0.109657
O O10 0.245541 0.182600 0.424431
O O11 0.276189 0.878245 0.177415
O O12 0.311300 0.177185 0.870218
O O13 0.318780 0.527816 0.046712
O O14 0.369850 0.396158 0.455946
O O15 0.500000 0.426310 0.000000
O O16 0.000000 0.122366 0.500000
O O17 0.000000 0.108588 0.000000
#
# Coordination Sequence:
#
# PCOD8045171 Si02
#       7
#     2   2   2   2   2   2   2
#     4  11  25  47  70 104 149 189 237 302 354 427
#     4  10  24  41  65 100 136 181 236 294 352 419
#     4  11  24  45  68 101 138 189 236 294 357 424
#     4  11  25  44  71  99 146 186 238 298 358 424
#     4  12  26  44  74 105 142 194 241 291 363 429
#     4  10  21  39  63  95 135 177 231 295 352 418
#     4  11  27  44  71 102 142 188 239 289 353 424
#
# _framework density 24.31542
#
# number of rings (size 3 to 8) (size 9 to 14) (size 15 to 20)
#    0.000    1.143    2.857    1.714    6.000    5.714 
#    0.000    0.000    0.000    0.000    0.000    0.000 
#    0.000    0.000    0.000    0.000    0.000    0.000 
#
# Total GULP energy -173449.479986 kJ/mol
# GULP energy per Si atom -12389.248570 kJ/mol
# Density = 2.426008 g / cm^3
# Si number density = 24.315420 Si / 1000 Ang^3
#
#
#
# Elastic Constant Matrix: (Units=GPa)
#
#
# Indices 1 2 3 4 5 6 
#
# 1 134.7766 22.3875 32.2830 0.0000 -17.2753 0.0000
# 2 22.3875 92.5524 14.5693 0.0000 -7.0438 0.0000
# 3 32.2830 14.5693 88.6918 0.0000 2.6387 0.0000
# 4 0.0000 0.0000 0.0000 35.5585 0.0000 2.8190
# 5 -17.2753 -7.0438 2.6387 0.0000 39.4047 0.0000
# 6 0.0000 0.0000 0.0000 2.8190 0.0000 29.2957
#
#
#
# Elastic Compliance Matrix: (Units=1/GPa)
#
#
# Indices 1 2 3 4 5 6 
#
# 1 0.008890 -0.001364 -0.003127 0.000000 0.003863 0.000000
# 2 -0.001364 0.011479 -0.001435 0.000000 0.001550 0.000000
# 3 -0.003127 -0.001435 0.012723 0.000000 -0.002479 0.000000
# 4 0.000000 0.000000 0.000000 0.028339 0.000000 -0.002727
# 5 0.003863 0.001550 -0.002479 0.000000 0.027514 0.000000
# 6 0.000000 0.000000 0.000000 -0.002727 0.000000 0.034397
#
#
# Mechanical properties :
#
#
# Convention : Reuss Voigt Hill
#
# Bulk Modulus (GPa) = 47.08281 50.50005 48.79143
# Shear Modulus (GPa) = 35.14340 37.30385 36.22363
#
# Velocity S-wave (km/s) = 3.80585 3.92109 3.86390
# Velocity P-wave (km/s) = 6.22238 6.42758 6.32581
#
# Compressibility (1/GPa) = 0.02123917
#
# Stress axis : x y z
#
# Youngs Moduli (GPa) = 112.48027 87.11902 78.59998
#
# Poissons Ratio (x) = 0.11885 0.24577
# Poissons Ratio (y) = 0.15345 0.11280
# Poissons Ratio (z) = 0.35171 0.12502
#
# Static dielectric constant tensor:
#      x y z
#    x 5.046720 0.000000 0.473360 
#    y 0.000000 4.436950 0.000000 
#    z 0.473360 0.000000 4.606660 
# 
# 
# High freq. dielectric constant tensor:
#      x y z
#    x 1.975230 0.000000 0.006130 
#    y 0.000000 1.972680 0.000000 
#    z 0.006130 0.000000 1.955640 
# 
# From -- ./inp_files/3153.got.cif
#   From: 2010.03.12/outbox.cif.g09.slc.cpg/sg3_2_cif.got.tgz:3153.got - 2010.03.31 09:20:49.
