data_PCOD8045423
_publ_section_title
;
Structure prediction by ZEFSAII (Michael W. Deem and Ramdas Pophale) SiO2 
 PCOD8045423
Probable space group: P 2
;
_chemical_formula_sum "Si O2"
_cell_formula_units_Z 11
_cell_length_a 19.303482
_cell_length_b 5.502137
_cell_length_c 13.378846
_cell_angle_alpha 90.000000
_cell_angle_beta 160.434713
_cell_angle_gamma 90.000000
_cell_volume 475.856386
_symmetry_space_group_name_H-M "P 2"
_symmetry_group_IT_number 3
_symmetry_cell_setting 'monoclinic'
loop_
_space_group_symop_operation_xyz
x,y,z
-x,y,-z
loop_
_atom_site_type_symbol
_atom_site_label
_atom_site_fract_x
_atom_site_fract_y
_atom_site_fract_z
Si Si1 0.542782 0.774490 0.721167
Si Si2 0.500000 0.780929 0.000000
Si Si3 0.821504 0.768175 0.919013
Si Si4 0.030072 0.247025 0.155130
Si Si5 0.756210 0.053043 0.189471
Si Si6 0.449832 0.434459 0.761952
O O1 0.722609 0.696947 0.890070
O O2 0.345126 0.861639 0.389495
O O3 0.462592 0.538173 0.668456
O O4 0.629465 0.963155 0.920199
O O5 0.614640 0.624890 0.240577
O O6 0.685782 0.924158 0.196625
O O7 0.942396 0.521586 0.052806
O O8 0.947260 0.018751 0.106952
O O9 0.270006 0.234861 0.513525
O O10 0.000000 0.174699 0.000000
O O11 0.000000 0.034171 0.500000
O O12 0.677869 0.328558 0.098376
#
# Coordination Sequence:
#
# PCOD8045423 Si02
#       6
#     2   1   2   2   2   2
#     4  10  25  45  69 104 146 187 246 300 362 451
#     4  10  26  48  70 104 142 192 254 314 364 442
#     4  11  26  44  73 110 149 191 238 299 377 439
#     4  12  25  43  75 109 148 193 239 298 373 445
#     4  11  26  47  73 101 146 195 249 309 371 433
#     4  11  25  46  72 101 146 188 255 303 368 441
#
# _framework density 23.116216999999999
#
# number of rings (size 3 to 8) (size 9 to 14) (size 15 to 20)
#    0.000    1.091    1.818    2.182   10.182    5.818 
#    0.000    0.000    0.000    0.000    0.000    0.000 
#    0.000    0.000    0.000    0.000    0.000    0.000 
#
# Total GULP energy -136286.000676 kJ/mol
# GULP energy per Si atom -12389.636425 kJ/mol
# Density = 2.306360 g / cm^3
# Si number density = 23.116217 Si / 1000 Ang^3
#
#
#
# Elastic Constant Matrix: (Units=GPa)
#
#
# Indices 1 2 3 4 5 6 
#
# 1 165.3277 44.5859 57.5539 0.0000 9.7186 0.0000
# 2 44.5859 102.7464 29.1912 0.0000 13.6657 0.0000
# 3 57.5539 29.1912 98.2645 0.0000 24.8518 0.0000
# 4 0.0000 0.0000 0.0000 35.2789 0.0000 8.7458
# 5 9.7186 13.6657 24.8518 0.0000 37.9161 0.0000
# 6 0.0000 0.0000 0.0000 8.7458 0.0000 -1.0372
#
#
#
# Elastic Compliance Matrix: (Units=1/GPa)
#
#
# Indices 1 2 3 4 5 6 
#
# 1 0.008186 -0.002509 -0.004492 0.000000 0.001750 0.000000
# 2 -0.002509 0.011542 -0.001282 0.000000 -0.002676 0.000000
# 3 -0.004492 -0.001282 0.015320 0.000000 -0.008428 0.000000
# 4 0.000000 0.000000 0.000000 0.009172 0.000000 0.077341
# 5 0.001750 -0.002676 -0.008428 0.000000 0.032414 0.000000
# 6 0.000000 0.000000 0.000000 0.077341 0.000000 -0.311977
#
#
# Mechanical properties :
#
#
# Convention : Reuss Voigt Hill
#
# Bulk Modulus (GPa) = 54.10850 69.88896 61.99873
# Shear Modulus (GPa) = -23.51656 30.09872 3.29108
#
# Velocity S-wave (km/s) = -3.19300 3.61232 1.19449
# Velocity P-wave (km/s) = 3.14075 6.90636 5.36480
#
# Compressibility (1/GPa) = 0.01848138
#
# Stress axis : x y z
#
# Youngs Moduli (GPa) = 122.15923 86.64253 65.27421
#
# Poissons Ratio (x) = 0.21737 0.29321
# Poissons Ratio (y) = 0.30648 0.08371
# Poissons Ratio (z) = 0.54873 0.11111
#
# Static dielectric constant tensor:
#      x y z
#    x 4.418670 0.000000 0.055400 
#    y 0.000000 4.039190 0.000000 
#    z 0.055400 0.000000 4.059870 
# 
# 
# High freq. dielectric constant tensor:
#      x y z
#    x 1.931890 0.000000 -0.000110 
#    y 0.000000 1.912060 0.000000 
#    z -0.000110 0.000000 1.912570 
# 
# From -- ./inp_files/12447.got.cif
#   From: 2010.03.12/outbox.cif.g09.slc.cpg/sg3_7_cif.got.tgz:12447.got - 2010.03.31 09:20:49.
