data_PCOD8045245
_publ_section_title
;
Structure prediction by ZEFSAII (Michael W. Deem and Ramdas Pophale) SiO2 
 PCOD8045245
Probable space group: P 2
;
_chemical_formula_sum "Si O2"
_cell_formula_units_Z 10
_cell_length_a 17.339018
_cell_length_b 6.072061
_cell_length_c 12.836804
_cell_angle_alpha 90.000000
_cell_angle_beta 20.606228
_cell_angle_gamma 90.000000
_cell_volume 475.653123
_symmetry_space_group_name_H-M "P 2"
_symmetry_group_IT_number 3
_symmetry_cell_setting 'monoclinic'
loop_
_space_group_symop_operation_xyz
x,y,z
-x,y,-z
loop_
_atom_site_type_symbol
_atom_site_label
_atom_site_fract_x
_atom_site_fract_y
_atom_site_fract_z
Si Si1 0.801646 0.866750 0.182148
Si Si2 0.068740 0.557347 0.701983
Si Si3 0.254608 0.192033 0.927869
Si Si4 0.894785 0.815986 0.743912
Si Si5 0.480347 0.569239 0.319754
O O1 0.600534 0.772062 0.505202
O O2 0.706246 0.052635 0.226933
O O3 0.000000 0.969586 0.000000
O O4 0.897422 0.657695 0.000584
O O5 0.305164 0.516588 0.452296
O O6 0.081364 0.724560 0.587606
O O7 0.973934 0.321813 0.791522
O O8 0.466112 0.349947 0.679933
O O9 0.217803 0.038909 0.074490
O O10 0.000000 0.860421 0.500000
O O11 0.703983 0.633262 0.978675
#
# Coordination Sequence:
#
# PCOD8045245 Si02
#       5
#     2   2   2   2   2
#     4   9  20  38  59  88 124 155 188 237 295 355
#     4   9  21  40  60  87 120 152 191 241 295 352
#     4  10  22  38  61  88 119 155 197 241 290 348
#     4  10  23  41  59  84 119 156 199 248 292 340
#     4  10  22  40  63  88 118 158 196 237 293 350
#
# _framework density 21.023723
#
# number of rings (size 3 to 8) (size 9 to 14) (size 15 to 20)
#    0.000    2.400    0.000    0.000    0.000   21.600 
#    0.000    4.000    0.000    0.000    0.000    0.000 
#    0.000    0.000    0.000    0.000    0.000    0.000 
#
# Total GULP energy -124005.103063 kJ/mol
# GULP energy per Si atom -12400.510306 kJ/mol
# Density = 2.097587 g / cm^3
# Si number density = 21.023723 Si / 1000 Ang^3
#
#
#
# Elastic Constant Matrix: (Units=GPa)
#
#
# Indices 1 2 3 4 5 6 
#
# 1 149.4080 54.5607 66.6126 0.0000 -17.5434 0.0000
# 2 54.5607 88.5142 35.1786 0.0000 -17.4846 0.0000
# 3 66.6126 35.1786 92.7331 0.0000 -0.6590 0.0000
# 4 0.0000 0.0000 0.0000 19.2318 0.0000 -3.1289
# 5 -17.5434 -17.4846 -0.6590 0.0000 39.6092 0.0000
# 6 0.0000 0.0000 0.0000 -3.1289 0.0000 29.6410
#
#
#
# Elastic Compliance Matrix: (Units=1/GPa)
#
#
# Indices 1 2 3 4 5 6 
#
# 1 0.011476 -0.003708 -0.006813 0.000000 0.003333 0.000000
# 2 -0.003708 0.015976 -0.003359 0.000000 0.005354 0.000000
# 3 -0.006813 -0.003359 0.016922 0.000000 -0.004219 0.000000
# 4 0.000000 0.000000 0.000000 0.052906 0.000000 0.005585
# 5 0.003333 0.005354 -0.004219 0.000000 0.029016 0.000000
# 6 0.000000 0.000000 0.000000 0.005585 0.000000 0.034327
#
#
# Mechanical properties :
#
#
# Convention : Reuss Voigt Hill
#
# Bulk Modulus (GPa) = 60.19131 71.48436 65.83784
# Shear Modulus (GPa) = 25.78374 29.31661 27.55017
#
# Velocity S-wave (km/s) = 3.50582 3.73829 3.62392
# Velocity P-wave (km/s) = 6.71416 7.26007 6.99245
#
# Compressibility (1/GPa) = 0.01661369
#
# Stress axis : x y z
#
# Youngs Moduli (GPa) = 87.13758 62.59516 59.09414
#
# Poissons Ratio (x) = 0.23208 0.40263
# Poissons Ratio (y) = 0.32308 0.19850
# Poissons Ratio (z) = 0.59370 0.21026
#
# Static dielectric constant tensor:
#      x y z
#    x 4.100690 0.000000 -0.187200 
#    y 0.000000 3.823810 0.000000 
#    z -0.187200 0.000000 3.431120 
# 
# 
# High freq. dielectric constant tensor:
#      x y z
#    x 1.831070 0.000000 -0.016950 
#    y 0.000000 1.829360 0.000000 
#    z -0.016950 0.000000 1.799680 
# 
# From -- ./inp_files/12410.got.cif
#   From: 2010.03.12/outbox.cif.g09.slc.cpg/sg3_7_cif.got.tgz:12410.got - 2010.03.31 09:20:49.
