data_PCOD8045108
_publ_section_title
;
Structure prediction by ZEFSAII (Michael W. Deem and Ramdas Pophale) SiO2 
 PCOD8045108
Probable space group: P 2
;
_chemical_formula_sum "Si O2"
_cell_formula_units_Z 13
_cell_length_a 9.249707
_cell_length_b 7.981485
_cell_length_c 12.536147
_cell_angle_alpha 90.000000
_cell_angle_beta 39.126908
_cell_angle_gamma 90.000000
_cell_volume 584.026800
_symmetry_space_group_name_H-M "P 2"
_symmetry_group_IT_number 3
_symmetry_cell_setting 'monoclinic'
loop_
_space_group_symop_operation_xyz
x,y,z
-x,y,-z
loop_
_atom_site_type_symbol
_atom_site_label
_atom_site_fract_x
_atom_site_fract_y
_atom_site_fract_z
Si Si1 0.720302 0.727960 0.299623
Si Si2 0.996361 0.797438 0.666337
Si Si3 0.322806 0.109976 0.194637
Si Si4 0.765816 0.452073 0.828235
Si Si5 0.500000 0.180510 0.500000
Si Si6 0.424359 0.957368 0.351170
Si Si7 0.088867 0.383848 0.838142
O O1 0.500000 0.689588 0.500000
O O2 0.658718 0.855886 0.238993
O O3 0.806018 0.563152 0.191605
O O4 0.920797 0.802578 0.258486
O O5 0.881961 0.616414 0.708545
O O6 0.209537 0.827590 0.462729
O O7 0.829169 0.952396 0.747625
O O8 0.195665 0.291453 0.273395
O O9 0.450597 0.073243 0.232729
O O10 0.500000 0.138864 0.000000
O O11 0.881608 0.401775 0.873912
O O12 0.500000 0.496027 0.000000
O O13 0.298363 0.282471 0.669550
O O14 0.372236 0.068980 0.484886
O O15 0.000000 0.301954 0.000000
#
# Coordination Sequence:
#
# PCOD8045108 Si02
#       7
#     2   2   2   2   1   2   2
#     4   9  19  42  66  97 134 179 240 296 351 427
#     4  10  20  43  69  95 139 185 236 289 357 426
#     4  11  25  43  65 101 142 184 232 290 358 434
#     4  10  24  44  69 104 147 185 243 296 353 443
#     4  12  24  44  74 104 148 182 242 312 356 434
#     4  11  23  44  70  99 138 185 239 297 365 426
#     4  11  25  42  72 105 143 190 241 301 367 426
#
# _framework density 22.259252
#
# number of rings (size 3 to 8) (size 9 to 14) (size 15 to 20)
#    0.000    1.538    3.077    1.846    4.308    3.692 
#    0.000    5.385    0.000    0.000    0.000    0.000 
#    0.000    0.000    0.000    0.000    0.000    0.000 
#
# Total GULP energy -161146.024589 kJ/mol
# GULP energy per Si atom -12395.848045 kJ/mol
# Density = 2.220859 g / cm^3
# Si number density = 22.259252 Si / 1000 Ang^3
#
#
#
# Elastic Constant Matrix: (Units=GPa)
#
#
# Indices 1 2 3 4 5 6 
#
# 1 113.7490 68.4549 46.7217 0.0000 0.1139 0.0000
# 2 68.4549 167.9206 43.9585 0.0000 0.5355 0.0000
# 3 46.7217 43.9585 92.3484 0.0000 9.6849 0.0000
# 4 0.0000 0.0000 0.0000 18.2195 0.0000 35.3112
# 5 0.1139 0.5355 9.6849 0.0000 31.1472 0.0000
# 6 0.0000 0.0000 0.0000 35.3112 0.0000 167.5744
#
#
#
# Elastic Compliance Matrix: (Units=1/GPa)
#
#
# Indices 1 2 3 4 5 6 
#
# 1 0.013303 -0.004139 -0.004923 0.000000 0.001553 0.000000
# 2 -0.004139 0.008116 -0.001815 0.000000 0.000440 0.000000
# 3 -0.004923 -0.001815 0.014656 0.000000 -0.004508 0.000000
# 4 0.000000 0.000000 0.000000 0.092775 0.000000 -0.019550
# 5 0.001553 0.000440 -0.004508 0.000000 0.033494 0.000000
# 6 0.000000 0.000000 0.000000 -0.019550 0.000000 0.010087
#
#
# Mechanical properties :
#
#
# Convention : Reuss Voigt Hill
#
# Bulk Modulus (GPa) = 69.83142 76.92090 73.37616
# Shear Modulus (GPa) = 25.13064 57.71374 41.42219
#
# Velocity S-wave (km/s) = 3.36370 5.09748 4.31849
# Velocity P-wave (km/s) = 6.82099 8.32331 7.60932
#
# Compressibility (1/GPa) = 0.01432020
#
# Stress axis : x y z
#
# Youngs Moduli (GPa) = 75.17210 123.20596 68.23099
#
# Poissons Ratio (x) = 0.50999 0.33589
# Poissons Ratio (y) = 0.31116 0.12387
# Poissons Ratio (z) = 0.37006 0.22368
#
# Static dielectric constant tensor:
#      x y z
#    x 4.268530 0.000000 -0.163090 
#    y 0.000000 4.468410 0.000000 
#    z -0.163090 0.000000 3.740640 
# 
# 
# High freq. dielectric constant tensor:
#      x y z
#    x 1.889120 0.000000 -0.010830 
#    y 0.000000 1.890860 0.000000 
#    z -0.010830 0.000000 1.852430 
# 
# From -- ./inp_files/10657.got.cif
#   From: 2010.03.12/outbox.cif.g09.slc.cpg/sg3_6_cif.got.tgz:10657.got - 2010.03.31 09:20:49.
