data_PCOD8045658
_publ_section_title
;
Structure prediction by ZEFSAII (Michael W. Deem and Ramdas Pophale) SiO2 
 PCOD8045658
Probable space group: P 21
;
_chemical_formula_sum "Si O2"
_cell_formula_units_Z 16
_cell_length_a 9.262340
_cell_length_b 10.811915
_cell_length_c 17.159528
_cell_angle_alpha 90.000000
_cell_angle_beta 150.233275
_cell_angle_gamma 90.000000
_cell_volume 853.142576
_symmetry_space_group_name_H-M "P 21"
_symmetry_group_IT_number 4
_symmetry_cell_setting 'monoclinic'
loop_
_space_group_symop_operation_xyz
x,y,z
-x,1/2+y,-z
loop_
_atom_site_type_symbol
_atom_site_label
_atom_site_fract_x
_atom_site_fract_y
_atom_site_fract_z
Si Si1 0.844646 0.959160 0.424503
Si Si2 0.232304 0.661765 0.727474
Si Si3 0.717834 0.804761 0.222650
Si Si4 0.563814 0.582827 0.247572
Si Si5 0.979198 0.221250 0.786830
Si Si6 0.402171 0.245283 0.594543
Si Si7 0.415704 0.007371 0.995595
Si Si8 0.615040 0.883724 0.931338
O O1 0.902191 0.861996 0.380912
O O2 0.653291 0.886125 0.400413
O O3 0.682750 0.076128 0.307722
O O4 0.138380 0.007851 0.600058
O O5 0.338390 0.604542 0.859643
O O6 0.373491 0.794172 0.781316
O O7 0.887559 0.679919 0.571715
O O8 0.596921 0.672375 0.189128
O O9 0.940145 0.786574 0.255966
O O10 0.442312 0.890381 0.067256
O O11 0.459458 0.660936 0.272263
O O12 0.318833 0.483266 0.106248
O O13 0.631893 0.233280 0.631937
O O14 0.105185 0.080393 0.852367
O O15 0.102177 0.305592 0.914895
O O16 0.476562 0.958726 0.938254
#
# Coordination Sequence:
#
# PCOD8045658 Si02
#       8
#     2   2   2   2   2   2   2   2
#     4   9  18  34  56  80 105 146 189 219 268 337
#     4   9  18  34  56  77 107 149 188 220 265 340
#     4   9  18  34  56  77 107 149 188 220 265 340
#     4  10  18  34  55  79 106 151 186 219 270 344
#     4  10  20  35  56  84 113 138 183 240 281 315
#     4  10  20  35  56  84 113 138 183 240 281 315
#     4   9  18  34  56  80 105 146 189 219 268 337
#     4  10  18  34  55  79 106 151 186 219 270 344
#
# _framework density 18.754192
#
# number of rings (size 3 to 8) (size 9 to 14) (size 15 to 20)
#    0.000    2.500    2.500    0.000    0.000    0.000 
#    9.000   10.000    0.000    1.500    0.000    0.000 
#    0.000    0.000    0.000    0.000    0.000    0.000 
#
# Total GULP energy -198209.626555 kJ/mol
# GULP energy per Si atom -12388.101660 kJ/mol
# Density = 1.871151 g / cm^3
# Si number density = 18.754192 Si / 1000 Ang^3
#
#
#
# Elastic Constant Matrix: (Units=GPa)
#
#
# Indices 1 2 3 4 5 6 
#
# 1 50.8487 22.1002 14.2302 0.0000 10.0097 0.0000
# 2 22.1002 105.0480 24.5463 0.0000 -4.3951 0.0000
# 3 14.2302 24.5463 42.4169 0.0000 4.9045 0.0000
# 4 0.0000 0.0000 0.0000 30.9927 0.0000 -8.3061
# 5 10.0097 -4.3951 4.9045 0.0000 24.5823 0.0000
# 6 0.0000 0.0000 0.0000 -8.3061 0.0000 26.3420
#
#
#
# Elastic Compliance Matrix: (Units=1/GPa)
#
#
# Indices 1 2 3 4 5 6 
#
# 1 0.024917 -0.004604 -0.004531 0.000000 -0.010065 0.000000
# 2 -0.004604 0.012129 -0.006082 0.000000 0.005257 0.000000
# 3 -0.004531 -0.006082 0.029201 0.000000 -0.005069 0.000000
# 4 0.000000 0.000000 0.000000 0.035244 0.000000 0.011113
# 5 -0.010065 0.005257 -0.005069 0.000000 0.046729 0.000000
# 6 0.000000 0.000000 0.000000 0.011113 0.000000 0.041466
#
#
# Mechanical properties :
#
#
# Convention : Reuss Voigt Hill
#
# Bulk Modulus (GPa) = 27.92335 35.56300 31.74317
# Shear Modulus (GPa) = 21.54620 25.54587 23.54604
#
# Velocity S-wave (km/s) = 3.39318 3.69472 3.54716
# Velocity P-wave (km/s) = 5.50209 6.09960 5.80854
#
# Compressibility (1/GPa) = 0.03581232
#
# Stress axis : x y z
#
# Youngs Moduli (GPa) = 40.13369 82.44495 34.24497
#
# Poissons Ratio (x) = 0.37961 0.15516
# Poissons Ratio (y) = 0.18479 0.20829
# Poissons Ratio (z) = 0.18184 0.50145
#
# Static dielectric constant tensor:
#      x y z
#    x 3.126100 0.000000 -0.368130 
#    y 0.000000 3.927800 0.000000 
#    z -0.368130 0.000000 3.332130 
# 
# 
# High freq. dielectric constant tensor:
#      x y z
#    x 1.690300 0.000000 -0.039470 
#    y 0.000000 1.755550 0.000000 
#    z -0.039470 0.000000 1.712380 
# 
# From -- ./inp_files/5911.got.cif
#   From: 2010.03.12/outbox.cif.g09.slc.cpg/sg4_3_cif.got.tgz:5911.got - 2010.03.31 09:31:35.
