data_PCOD8045406
_publ_section_title
;
Structure prediction by ZEFSAII (Michael W. Deem and Ramdas Pophale) SiO2 
 PCOD8045406
Probable space group: P 2
;
_chemical_formula_sum "Si O2"
_cell_formula_units_Z 13
_cell_length_a 24.113413
_cell_length_b 5.010565
_cell_length_c 11.795079
_cell_angle_alpha 90.000000
_cell_angle_beta 23.838521
_cell_angle_gamma 90.000000
_cell_volume 575.970106
_symmetry_space_group_name_H-M "P 2"
_symmetry_group_IT_number 3
_symmetry_cell_setting 'monoclinic'
loop_
_space_group_symop_operation_xyz
x,y,z
-x,y,-z
loop_
_atom_site_type_symbol
_atom_site_label
_atom_site_fract_x
_atom_site_fract_y
_atom_site_fract_z
Si Si1 0.134889 0.037960 0.556046
Si Si2 0.266186 0.137749 0.080586
Si Si3 0.438117 0.640900 0.731456
Si Si4 0.645807 0.061183 0.665184
Si Si5 0.326014 0.566868 0.536627
Si Si6 0.968871 0.539666 0.807818
Si Si7 0.000000 0.373091 0.500000
O O1 0.226200 0.119740 0.492395
O O2 0.013876 0.250681 0.767168
O O3 0.061133 0.752448 0.703021
O O4 0.235882 0.024422 0.260979
O O5 0.328272 0.430357 0.981333
O O6 0.368354 0.925603 0.832565
O O7 0.130160 0.174001 0.259252
O O8 0.500000 0.525802 0.500000
O O9 0.553244 0.673258 0.610172
O O10 0.648460 0.267912 0.555893
O O11 0.673874 0.762417 0.570514
O O12 0.500000 0.080426 0.000000
O O13 0.188959 0.582758 0.867050
O O14 0.990945 0.557773 0.629771
#
# Coordination Sequence:
#
# PCOD8045406 Si02
#       7
#     2   2   2   2   2   2   1
#     4  11  24  43  67  95 130 174 220 273 325 390
#     4  11  24  42  66  95 129 172 223 268 326 395
#     4  12  25  42  65  95 133 171 215 274 334 392
#     4  12  26  45  69  95 132 176 222 274 331 389
#     4  12  26  43  68  99 132 171 222 275 326 396
#     4  11  25  43  68 101 134 173 221 270 332 392
#     4  10  24  44  70  98 136 178 218 272 330 402
#
# _framework density 22.570615
#
# number of rings (size 3 to 8) (size 9 to 14) (size 15 to 20)
#    0.000    0.615    0.000    8.308    0.000   12.923 
#    0.000    0.000    0.000    0.000    0.000    0.000 
#    0.000    0.000    0.000    0.000    0.000    0.000 
#
# Total GULP energy -161280.166605 kJ/mol
# GULP energy per Si atom -12406.166662 kJ/mol
# Density = 2.251924 g / cm^3
# Si number density = 22.570615 Si / 1000 Ang^3
#
#
#
# Elastic Constant Matrix: (Units=GPa)
#
#
# Indices 1 2 3 4 5 6 
#
# 1 95.2680 24.1576 46.6405 0.0000 -21.8054 0.0000
# 2 24.1576 107.5939 40.2084 0.0000 -5.9294 0.0000
# 3 46.6405 40.2084 142.3353 0.0000 -14.7192 0.0000
# 4 0.0000 0.0000 0.0000 38.9394 0.0000 -1.9858
# 5 -21.8054 -5.9294 -14.7192 0.0000 36.5045 0.0000
# 6 0.0000 0.0000 0.0000 -1.9858 0.0000 32.5952
#
#
#
# Elastic Compliance Matrix: (Units=1/GPa)
#
#
# Indices 1 2 3 4 5 6 
#
# 1 0.014149 -0.001490 -0.003513 0.000000 0.006793 0.000000
# 2 -0.001490 0.010558 -0.002514 0.000000 -0.000189 0.000000
# 3 -0.003513 -0.002514 0.009003 0.000000 0.001123 0.000000
# 4 0.000000 0.000000 0.000000 0.025761 0.000000 0.001569
# 5 0.006793 -0.000189 0.001123 0.000000 0.031874 0.000000
# 6 0.000000 0.000000 0.000000 0.001569 0.000000 0.030775
#
#
# Mechanical properties :
#
#
# Convention : Reuss Voigt Hill
#
# Bulk Modulus (GPa) = 53.54191 63.02338 58.28264
# Shear Modulus (GPa) = 34.87261 37.22053 36.04657
#
# Velocity S-wave (km/s) = 3.93497 4.06528 4.00066
# Velocity P-wave (km/s) = 6.66474 7.07239 6.87159
#
# Compressibility (1/GPa) = 0.01867696
#
# Stress axis : x y z
#
# Youngs Moduli (GPa) = 70.67510 94.71756 111.07228
#
# Poissons Ratio (x) = 0.14109 0.39021
# Poissons Ratio (y) = 0.10528 0.27922
# Poissons Ratio (z) = 0.24829 0.23810
#
# Static dielectric constant tensor:
#      x y z
#    x 4.058310 0.000000 -0.025610 
#    y 0.000000 3.980410 0.000000 
#    z -0.025610 0.000000 4.220240 
# 
# 
# High freq. dielectric constant tensor:
#      x y z
#    x 1.891490 0.000000 -0.008810 
#    y 0.000000 1.897930 0.000000 
#    z -0.008810 0.000000 1.905460 
# 
# From -- ./inp_files/12680.got.cif
#   From: 2010.03.12/outbox.cif.g09.slc.cpg/sg3_7_cif.got.tgz:12680.got - 2010.03.31 09:20:49.
