data_PCOD8045995
_publ_section_title
;
Structure prediction by ZEFSAII (Michael W. Deem and Ramdas Pophale) SiO2 
 PCOD8045995
Probable space group: P 21
;
_chemical_formula_sum "Si O2"
_cell_formula_units_Z 14
_cell_length_a 29.172910
_cell_length_b 5.070508
_cell_length_c 23.357368
_cell_angle_alpha 90.000000
_cell_angle_beta 11.081765
_cell_angle_gamma 90.000000
_cell_volume 664.095160
_symmetry_space_group_name_H-M "P 21"
_symmetry_group_IT_number 4
_symmetry_cell_setting 'monoclinic'
loop_
_space_group_symop_operation_xyz
x,y,z
-x,1/2+y,-z
loop_
_atom_site_type_symbol
_atom_site_label
_atom_site_fract_x
_atom_site_fract_y
_atom_site_fract_z
Si Si1 0.686762 0.654070 0.915464
Si Si2 0.929020 0.570522 0.056031
Si Si3 0.608941 0.760598 0.790333
Si Si4 0.039108 0.450487 0.791750
Si Si5 0.726662 0.457189 0.544906
Si Si6 0.528163 0.296651 0.428320
Si Si7 0.834169 0.957441 0.625927
O O1 0.805011 0.737726 0.710474
O O2 0.893361 0.550910 0.703750
O O3 0.470099 0.458747 0.163683
O O4 0.555985 0.881547 0.113250
O O5 0.662872 0.690928 0.382908
O O6 0.908263 0.289374 0.112812
O O7 0.033035 0.525936 0.865619
O O8 0.753655 0.530291 0.579672
O O9 0.795046 0.858801 0.609430
O O10 0.362936 0.682516 0.123054
O O11 0.103979 0.711747 0.677015
O O12 0.220650 0.207581 0.560267
O O13 0.778168 0.355634 0.090478
O O14 0.428221 0.567437 0.578167
#
# Coordination Sequence:
#
# PCOD8045995 Si02
#       7
#     2   2   2   2   2   2   2
#     4  11  22  40  66 101 131 173 229 273 347 384
#     4  11  22  39  69 104 130 160 218 281 317 371
#     4  11  22  40  66 101 129 171 233 276 339 387
#     4  11  22  43  70  92 134 180 209 260 336 390
#     4  11  24  42  65  93 135 180 215 260 339 420
#     4  10  20  38  67  99 119 166 221 255 309 385
#     4  11  22  38  69  98 130 170 229 299 321 381
#
# _framework density 21.081313999999999
#
# number of rings (size 3 to 8) (size 9 to 14) (size 15 to 20)
#    0.000    1.143    4.286    4.286    0.000    0.000 
#    0.000    1.429    9.429    0.000    0.000    0.000 
#    0.000    0.000    0.000    0.000    0.000    0.000 
#
# Total GULP energy -173506.995350 kJ/mol
# GULP energy per Si atom -12393.356811 kJ/mol
# Density = 2.103333 g / cm^3
# Si number density = 21.081314 Si / 1000 Ang^3
#
#
#
# Elastic Constant Matrix: (Units=GPa)
#
#
# Indices 1 2 3 4 5 6 
#
# 1 111.2282 52.8759 81.7610 0.0000 -11.7353 0.0000
# 2 52.8759 128.6250 61.7225 0.0000 8.3907 0.0000
# 3 81.7610 61.7225 118.7197 0.0000 4.5443 0.0000
# 4 0.0000 0.0000 0.0000 44.2479 0.0000 4.8720
# 5 -11.7353 8.3907 4.5443 0.0000 35.8551 0.0000
# 6 0.0000 0.0000 0.0000 4.8720 0.0000 44.1594
#
#
#
# Elastic Compliance Matrix: (Units=1/GPa)
#
#
# Indices 1 2 3 4 5 6 
#
# 1 0.021281 -0.002870 -0.013522 0.000000 0.009350 0.000000
# 2 -0.002870 0.010856 -0.003552 0.000000 -0.003030 0.000000
# 3 -0.013522 -0.003552 0.019816 0.000000 -0.006106 0.000000
# 4 0.000000 0.000000 0.000000 0.022878 0.000000 -0.002524
# 5 0.009350 -0.003030 -0.006106 0.000000 0.032433 0.000000
# 6 0.000000 0.000000 0.000000 -0.002524 0.000000 0.022924
#
#
# Mechanical properties :
#
#
# Convention : Reuss Voigt Hill
#
# Bulk Modulus (GPa) = 82.87615 83.47684 83.17649
# Shear Modulus (GPa) = 28.71968 35.66673 32.19320
#
# Velocity S-wave (km/s) = 3.69498 4.11769 3.91205
# Velocity P-wave (km/s) = 7.58958 7.89244 7.74249
#
# Compressibility (1/GPa) = 0.01206620
#
# Stress axis : x y z
#
# Youngs Moduli (GPa) = 46.99081 92.11263 50.46433
#
# Poissons Ratio (x) = 0.26432 0.68237
# Poissons Ratio (y) = 0.13484 0.17925
# Poissons Ratio (z) = 0.63540 0.32718
#
# Static dielectric constant tensor:
#      x y z
#    x 3.738040 0.000000 -0.042640 
#    y 0.000000 4.212140 0.000000 
#    z -0.042640 0.000000 3.879810 
# 
# 
# High freq. dielectric constant tensor:
#      x y z
#    x 1.799930 0.000000 0.004550 
#    y 0.000000 1.850200 0.000000 
#    z 0.004550 0.000000 1.821350 
# 
# From -- ./inp_files/15346.got.cif
#   From: 2010.03.12/outbox.cif.g09.slc.cpg/sg4_8_cif.got.tgz:15346.got - 2010.03.31 09:31:35.
