data_PCOD8045371
_publ_section_title
;
Structure prediction by ZEFSAII (Michael W. Deem and Ramdas Pophale) SiO2 
 PCOD8045371
Probable space group: P 2
;
_chemical_formula_sum "Si O2"
_cell_formula_units_Z 16
_cell_length_a 8.827776
_cell_length_b 10.011386
_cell_length_c 16.740347
_cell_angle_alpha 90.000000
_cell_angle_beta 148.443227
_cell_angle_gamma 90.000000
_cell_volume 774.277299
_symmetry_space_group_name_H-M "P 2"
_symmetry_group_IT_number 3
_symmetry_cell_setting 'monoclinic'
loop_
_space_group_symop_operation_xyz
x,y,z
-x,y,-z
loop_
_atom_site_type_symbol
_atom_site_label
_atom_site_fract_x
_atom_site_fract_y
_atom_site_fract_z
Si Si1 0.294796 0.371630 0.095836
Si Si2 0.736688 0.145956 0.537881
Si Si3 0.513797 0.643630 0.598673
Si Si4 0.710407 0.399463 0.419327
Si Si5 0.540095 0.852994 0.109961
Si Si6 0.601888 0.157074 0.131022
Si Si7 0.114939 0.870779 0.463801
Si Si8 0.100177 0.632806 0.955041
O O1 0.454337 0.432410 0.243892
O O2 0.485311 0.252116 0.147257
O O3 0.260017 0.489139 0.013196
O O4 0.000000 0.311661 0.000000
O O5 0.500000 0.167855 0.500000
O O6 0.692355 0.251326 0.446951
O O7 0.053064 0.162153 0.717508
O O8 0.710140 0.998993 0.489156
O O9 0.500000 0.682989 0.500000
O O10 0.340827 0.504577 0.532063
O O11 0.346329 0.753523 0.575399
O O12 0.846460 0.645435 0.776275
O O13 0.000000 0.424395 0.500000
O O14 0.860010 0.825480 0.288537
O O15 0.474162 0.009969 0.091964
O O16 0.500000 0.812150 0.000000
O O17 0.308727 0.760790 0.050380
O O18 0.500000 0.210115 0.000000
O O19 0.000000 0.905275 0.500000
O O20 0.000000 0.617133 0.000000
#
# Coordination Sequence:
#
# PCOD8045371 Si02
#       8
#     2   2   2   2   2   2   2   2
#     4  11  24  44  66  95 133 173 220 276 325 397
#     4  11  25  43  67  98 134 171 219 281 334 396
#     4  12  25  42  66  99 134 172 222 271 333 397
#     4  12  24  44  67  94 133 174 225 276 334 392
#     4  10  23  43  64  93 131 167 214 263 324 394
#     4  10  24  43  65  97 131 173 220 267 335 400
#     4  11  24  42  69  99 131 172 221 271 334 395
#     4  11  23  44  63  94 131 167 216 268 320 391
#
# _framework density 20.664431
#
# number of rings (size 3 to 8) (size 9 to 14) (size 15 to 20)
#    0.000    1.000    3.750    3.000    5.250    4.000 
#    0.000    0.000    0.000    0.000    0.000    0.000 
#    0.000    0.000    0.000    0.000    0.000    0.000 
#
# Total GULP energy -198415.710478 kJ/mol
# GULP energy per Si atom -12400.981905 kJ/mol
# Density = 2.061740 g / cm^3
# Si number density = 20.664431 Si / 1000 Ang^3
#
#
#
# Elastic Constant Matrix: (Units=GPa)
#
#
# Indices 1 2 3 4 5 6 
#
# 1 78.0629 26.9433 26.1062 0.0000 10.7544 0.0000
# 2 26.9433 106.5296 38.8479 0.0000 13.4574 0.0000
# 3 26.1062 38.8479 114.4965 0.0000 -0.5355 0.0000
# 4 0.0000 0.0000 0.0000 28.5445 0.0000 5.6795
# 5 10.7544 13.4574 -0.5355 0.0000 37.6652 0.0000
# 6 0.0000 0.0000 0.0000 5.6795 0.0000 35.4128
#
#
#
# Elastic Compliance Matrix: (Units=1/GPa)
#
#
# Indices 1 2 3 4 5 6 
#
# 1 0.014991 -0.002399 -0.002620 0.000000 -0.003461 0.000000
# 2 -0.002399 0.011695 -0.003438 0.000000 -0.003542 0.000000
# 3 -0.002620 -0.003438 0.010508 0.000000 0.002126 0.000000
# 4 0.000000 0.000000 0.000000 0.036188 0.000000 -0.005804
# 5 -0.003461 -0.003542 0.002126 0.000000 0.028834 0.000000
# 6 0.000000 0.000000 0.000000 -0.005804 0.000000 0.029169
#
#
# Mechanical properties :
#
#
# Convention : Reuss Voigt Hill
#
# Bulk Modulus (GPa) = 49.30951 53.65376 51.48164
# Shear Modulus (GPa) = 32.24601 34.13728 33.19165
#
# Velocity S-wave (km/s) = 3.95455 4.06887 4.01212
# Velocity P-wave (km/s) = 6.69067 6.93505 6.81396
#
# Compressibility (1/GPa) = 0.02028006
#
# Stress axis : x y z
#
# Youngs Moduli (GPa) = 66.70581 85.50781 95.16862
#
# Poissons Ratio (x) = 0.20512 0.24938
# Poissons Ratio (y) = 0.16001 0.32715
# Poissons Ratio (z) = 0.17480 0.29394
#
# Static dielectric constant tensor:
#      x y z
#    x 3.604530 0.000000 -0.017200 
#    y 0.000000 3.833550 0.000000 
#    z -0.017200 0.000000 3.765570 
# 
# 
# High freq. dielectric constant tensor:
#      x y z
#    x 1.804820 0.000000 -0.002390 
#    y 0.000000 1.820350 0.000000 
#    z -0.002390 0.000000 1.820790 
# 
# From -- ./inp_files/15060.got.cif
#   From: 2010.03.12/outbox.cif.g09.slc.cpg/sg3_8_cif.got.tgz:15060.got - 2010.03.31 09:20:49.
