data_PCOD8045242
_publ_section_title
;
Structure prediction by ZEFSAII (Michael W. Deem and Ramdas Pophale) SiO2 
 PCOD8045242
Probable space group: P 2
;
_chemical_formula_sum "Si O2"
_cell_formula_units_Z 13
_cell_length_a 18.270451
_cell_length_b 6.120533
_cell_length_c 13.133082
_cell_angle_alpha 90.000000
_cell_angle_beta 27.512910
_cell_angle_gamma 90.000000
_cell_volume 678.420083
_symmetry_space_group_name_H-M "P 2"
_symmetry_group_IT_number 3
_symmetry_cell_setting 'monoclinic'
loop_
_space_group_symop_operation_xyz
x,y,z
-x,y,-z
loop_
_atom_site_type_symbol
_atom_site_label
_atom_site_fract_x
_atom_site_fract_y
_atom_site_fract_z
Si Si1 0.283821 0.878780 0.148541
Si Si2 0.505346 0.259961 0.179398
Si Si3 0.500000 0.565421 0.000000
Si Si4 0.000000 0.878775 0.000000
Si Si5 0.796994 0.259266 0.310461
Si Si6 0.000000 0.192146 0.500000
Si Si7 0.809906 0.497581 0.874842
Si Si8 0.904430 0.498287 0.988125
O O1 0.201671 0.740044 0.159309
O O2 0.347446 0.713381 0.157351
O O3 0.147756 0.044178 0.357034
O O4 0.437373 0.017495 0.923617
O O5 0.368960 0.244202 0.429943
O O6 0.446320 0.406031 0.157376
O O7 0.645857 0.378736 0.062452
O O8 0.930594 0.743475 0.992130
O O9 0.146649 0.014079 0.776041
O O10 0.925756 0.378809 0.222725
O O11 0.785690 0.378747 0.214309
O O12 0.949999 0.351543 0.653694
O O13 0.832128 0.513348 0.966780
#
# Coordination Sequence:
#
# PCOD8045242 Si02
#       8
#     2   2   1   1   2   1   2   2
#     4  10  22  38  59  85 114 151 191 230 284 340
#     4  10  22  39  57  83 117 149 186 232 282 337
#     4  10  22  40  58  84 116 148 190 236 282 336
#     4   8  18  36  58  84 108 140 192 230 272 336
#     4   9  20  38  58  81 110 146 186 231 280 330
#     4  10  22  40  58  84 116 148 190 236 282 336
#     4  10  22  39  57  83 117 149 186 232 282 337
#     4   9  20  38  58  81 110 146 186 231 280 330
#
# _framework density 19.162168000000001
#
# number of rings (size 3 to 8) (size 9 to 14) (size 15 to 20)
#    0.000    2.769    0.000    0.923    0.000   16.615 
#    0.000    3.077    0.000    0.000    0.000    0.000 
#    0.000    0.000    0.000    0.000    0.000    0.000 
#
# Total GULP energy -161152.042682 kJ/mol
# GULP energy per Si atom -12396.310976 kJ/mol
# Density = 1.911855 g / cm^3
# Si number density = 19.162168 Si / 1000 Ang^3
#
#
#
# Elastic Constant Matrix: (Units=GPa)
#
#
# Indices 1 2 3 4 5 6 
#
# 1 141.9742 56.6606 45.3474 0.0000 24.4475 0.0000
# 2 56.6606 142.1258 62.3375 0.0000 10.3556 0.0000
# 3 45.3474 62.3375 158.3805 0.0000 5.4755 0.0000
# 4 0.0000 0.0000 0.0000 15.7777 0.0000 -10.4028
# 5 24.4475 10.3556 5.4755 0.0000 20.4623 0.0000
# 6 0.0000 0.0000 0.0000 -10.4028 0.0000 21.4885
#
#
#
# Elastic Compliance Matrix: (Units=1/GPa)
#
#
# Indices 1 2 3 4 5 6 
#
# 1 0.010469 -0.002708 -0.001561 0.000000 -0.010719 0.000000
# 2 -0.002708 0.009451 -0.002918 0.000000 -0.000767 0.000000
# 3 -0.001561 -0.002918 0.007867 0.000000 0.001237 0.000000
# 4 0.000000 0.000000 0.000000 0.093096 0.000000 0.045069
# 5 -0.010719 -0.000767 0.001237 0.000000 0.061735 0.000000
# 6 0.000000 0.000000 0.000000 0.045069 0.000000 0.068355
#
#
# Mechanical properties :
#
#
# Convention : Reuss Voigt Hill
#
# Bulk Modulus (GPa) = 74.55611 85.68572 80.12091
# Shear Modulus (GPa) = 18.53103 30.08803 24.30953
#
# Velocity S-wave (km/s) = 3.11314 3.96685 3.56564
# Velocity P-wave (km/s) = 7.20518 8.11137 7.67167
#
# Compressibility (1/GPa) = 0.01341272
#
# Stress axis : x y z
#
# Youngs Moduli (GPa) = 95.52355 105.80505 127.11855
#
# Poissons Ratio (x) = 0.28650 0.19843
# Poissons Ratio (y) = 0.25866 0.37095
# Poissons Ratio (z) = 0.14911 0.30876
#
# Static dielectric constant tensor:
#      x y z
#    x 3.403590 0.000000 -0.056590 
#    y 0.000000 3.849990 0.000000 
#    z -0.056590 0.000000 3.372660 
# 
# 
# High freq. dielectric constant tensor:
#      x y z
#    x 1.736500 0.000000 -0.002580 
#    y 0.000000 1.766360 0.000000 
#    z -0.002580 0.000000 1.735080 
# 
# From -- ./inp_files/8982.got.cif
#   From: 2010.03.12/outbox.cif.g09.slc.cpg/sg3_5_cif.got.tgz:8982.got - 2010.03.31 09:20:49.
