data_PCOD8045574
_publ_section_title
;
Structure prediction by ZEFSAII (Michael W. Deem and Ramdas Pophale) SiO2 
 PCOD8045574
Probable space group: P 2
;
_chemical_formula_sum "Si O2"
_cell_formula_units_Z 8
_cell_length_a 8.139503
_cell_length_b 5.436562
_cell_length_c 9.096039
_cell_angle_alpha 90.000000
_cell_angle_beta 50.686974
_cell_angle_gamma 90.000000
_cell_volume 311.418929
_symmetry_space_group_name_H-M "P 2"
_symmetry_group_IT_number 3
_symmetry_cell_setting 'monoclinic'
loop_
_space_group_symop_operation_xyz
x,y,z
-x,y,-z
loop_
_atom_site_type_symbol
_atom_site_label
_atom_site_fract_x
_atom_site_fract_y
_atom_site_fract_z
Si Si1 0.000000 0.077461 0.500000
Si Si2 0.264199 0.805673 0.131327
Si Si3 0.108386 0.433509 0.700252
Si Si4 0.500000 0.753485 0.500000
Si Si5 0.222884 0.048477 0.870630
O O1 0.903720 0.231696 0.421007
O O2 0.812174 0.902892 0.667122
O O3 0.107523 0.589425 0.165121
O O4 0.500000 0.689422 0.000000
O O5 0.276566 0.046645 0.014535
O O6 0.307450 0.599603 0.540792
O O7 0.166821 0.308684 0.824457
O O8 0.414147 0.918768 0.680215
O O9 0.000000 0.893573 0.000000
#
# Coordination Sequence:
#
# PCOD8045574 Si02
#       5
#     1   2   2   1   2
#     4  12  28  52  76 122 168 206 266 342 392 484
#     4  12  31  52  81 118 168 208 272 333 397 479
#     4  12  28  52  83 117 167 214 261 333 415 461
#     4  12  28  48  84 118 160 212 272 332 386 494
#     4  12  27  53  77 117 161 214 271 323 391 491
#
# _framework density 25.688870000000001
#
# number of rings (size 3 to 8) (size 9 to 14) (size 15 to 20)
#    0.000    0.000    5.000    1.500   17.500    1.000 
#    0.000    0.000    0.000    0.000    0.000    0.000 
#    0.000    0.000    0.000    0.000    0.000    0.000 
#
# Total GULP energy -99117.585864 kJ/mol
# GULP energy per Si atom -12389.698233 kJ/mol
# Density = 2.563040 g / cm^3
# Si number density = 25.688870 Si / 1000 Ang^3
#
#
#
# Elastic Constant Matrix: (Units=GPa)
#
#
# Indices 1 2 3 4 5 6 
#
# 1 124.4767 57.6347 68.3036 0.0000 -39.1173 0.0000
# 2 57.6347 125.6178 71.1154 0.0000 -9.5481 0.0000
# 3 68.3036 71.1154 216.4858 0.0000 -26.6091 0.0000
# 4 0.0000 0.0000 0.0000 52.7458 0.0000 29.6951
# 5 -39.1173 -9.5481 -26.6091 0.0000 59.6904 0.0000
# 6 0.0000 0.0000 0.0000 29.6951 0.0000 65.7759
#
#
#
# Elastic Compliance Matrix: (Units=1/GPa)
#
#
# Indices 1 2 3 4 5 6 
#
# 1 0.013444 -0.004570 -0.001849 0.000000 0.007255 0.000000
# 2 -0.004570 0.011334 -0.002567 0.000000 -0.002326 0.000000
# 3 -0.001849 -0.002567 0.006185 0.000000 0.001135 0.000000
# 4 0.000000 0.000000 0.000000 0.025420 0.000000 -0.011476
# 5 0.007255 -0.002326 0.001135 0.000000 0.021642 0.000000
# 6 0.000000 0.000000 0.000000 -0.011476 0.000000 0.020384
#
#
# Mechanical properties :
#
#
# Convention : Reuss Voigt Hill
#
# Bulk Modulus (GPa) = 76.97471 95.63198 86.30335
# Shear Modulus (GPa) = 41.42103 53.61087 47.51595
#
# Velocity S-wave (km/s) = 4.01984 4.57325 4.30545
# Velocity P-wave (km/s) = 7.18156 8.07428 7.64097
#
# Compressibility (1/GPa) = 0.01299128
#
# Stress axis : x y z
#
# Youngs Moduli (GPa) = 74.38179 88.22954 161.67166
#
# Poissons Ratio (x) = 0.40323 0.29888
# Poissons Ratio (y) = 0.33994 0.41505
# Poissons Ratio (z) = 0.13751 0.22650
#
# Static dielectric constant tensor:
#      x y z
#    x 4.308200 0.000000 -0.479070 
#    y 0.000000 4.483070 0.000000 
#    z -0.479070 0.000000 4.733200 
# 
# 
# High freq. dielectric constant tensor:
#      x y z
#    x 2.029350 0.000000 -0.007800 
#    y 0.000000 2.007250 0.000000 
#    z -0.007800 0.000000 2.059550 
# 
# From -- ./inp_files/4809.got.cif
#   From: 2010.03.12/outbox.cif.g09.slc.cpg/sg3_3_cif.got.tgz:4809.got - 2010.03.31 09:20:49.
