data_PCOD8045848
_publ_section_title
;
Structure prediction by ZEFSAII (Michael W. Deem and Ramdas Pophale) SiO2 
 PCOD8045848
Probable space group: P 21
;
_chemical_formula_sum "Si O2"
_cell_formula_units_Z 12
_cell_length_a 11.046701
_cell_length_b 5.115271
_cell_length_c 22.441911
_cell_angle_alpha 90.000000
_cell_angle_beta 22.564373
_cell_angle_gamma 90.000000
_cell_volume 486.605331
_symmetry_space_group_name_H-M "P 21"
_symmetry_group_IT_number 4
_symmetry_cell_setting 'monoclinic'
loop_
_space_group_symop_operation_xyz
x,y,z
-x,1/2+y,-z
loop_
_atom_site_type_symbol
_atom_site_label
_atom_site_fract_x
_atom_site_fract_y
_atom_site_fract_z
Si Si1 0.660018 0.654640 0.339772
Si Si2 0.921752 0.350627 0.322532
Si Si3 0.702692 0.359323 0.820917
Si Si4 0.137158 0.035879 0.081029
Si Si5 0.749982 0.397846 0.180386
Si Si6 0.611556 0.166999 0.127915
O O1 0.767515 0.394549 0.327270
O O2 0.587304 0.583824 0.303873
O O3 0.345363 0.772150 0.509362
O O4 0.959290 0.854004 0.210298
O O5 0.050992 0.623222 0.289612
O O6 0.170672 0.114959 0.201603
O O7 0.635552 0.443905 0.781839
O O8 0.363104 0.269107 0.004579
O O9 0.863779 0.140782 0.162693
O O10 0.381875 0.866881 0.930403
O O11 0.512273 0.309684 0.235088
O O12 0.043010 0.547402 0.017025
#
# Coordination Sequence:
#
# PCOD8045848 Si02
#       6
#     2   2   2   2   2   2
#     4  11  28  47  78 106 143 212 255 301 368 458
#     4  12  27  51  74 105 157 198 255 306 371 451
#     4  11  25  47  77 107 151 194 237 320 386 419
#     4  10  22  46  74 114 141 190 250 302 372 436
#     4  10  21  39  75 113 145 189 255 296 366 453
#     4  10  19  42  72 113 151 185 236 317 371 431
#
# _framework density 24.660641999999999
#
# number of rings (size 3 to 8) (size 9 to 14) (size 15 to 20)
#    0.000    1.333    3.333    1.000    7.000    0.000 
#    9.000    0.000    7.333    0.000    0.000    0.000 
#    0.000    0.000    0.000    0.000    0.000    0.000 
#
# Total GULP energy -148732.064498 kJ/mol
# GULP energy per Si atom -12394.338708 kJ/mol
# Density = 2.460451 g / cm^3
# Si number density = 24.660642 Si / 1000 Ang^3
#
#
#
# Elastic Constant Matrix: (Units=GPa)
#
#
# Indices 1 2 3 4 5 6 
#
# 1 96.4997 34.1678 19.9930 0.0000 12.5253 0.0000
# 2 34.1678 129.8091 17.2500 0.0000 -0.9631 0.0000
# 3 19.9930 17.2500 39.1008 0.0000 10.2195 0.0000
# 4 0.0000 0.0000 0.0000 42.4545 0.0000 -8.3150
# 5 12.5253 -0.9631 10.2195 0.0000 27.8871 0.0000
# 6 0.0000 0.0000 0.0000 -8.3150 0.0000 61.1305
#
#
#
# Elastic Compliance Matrix: (Units=1/GPa)
#
#
# Indices 1 2 3 4 5 6 
#
# 1 0.012793 -0.002847 -0.004156 0.000000 -0.004321 0.000000
# 2 -0.002847 0.008897 -0.003189 0.000000 0.002755 0.000000
# 3 -0.004156 -0.003189 0.031682 0.000000 -0.009854 0.000000
# 4 0.000000 0.000000 0.000000 0.024199 0.000000 0.003292
# 5 -0.004321 0.002755 -0.009854 0.000000 0.041506 0.000000
# 6 0.000000 0.000000 0.000000 0.003292 0.000000 0.016806
#
#
# Mechanical properties :
#
#
# Convention : Reuss Voigt Hill
#
# Bulk Modulus (GPa) = 30.31418 45.35904 37.83661
# Shear Modulus (GPa) = 29.89284 39.22766 34.56025
#
# Velocity S-wave (km/s) = 3.48540 3.99268 3.74763
# Velocity P-wave (km/s) = 5.34009 6.29989 5.83974
#
# Compressibility (1/GPa) = 0.03298786
#
# Stress axis : x y z
#
# Youngs Moduli (GPa) = 78.16992 112.39383 31.56327
#
# Poissons Ratio (x) = 0.31999 0.13117
# Poissons Ratio (y) = 0.22255 0.10067
# Poissons Ratio (z) = 0.32485 0.35848
#
# Static dielectric constant tensor:
#      x y z
#    x 4.390570 0.000000 -0.040660 
#    y 0.000000 4.929480 0.000000 
#    z -0.040660 0.000000 3.999190 
# 
# 
# High freq. dielectric constant tensor:
#      x y z
#    x 1.980100 0.000000 0.002360 
#    y 0.000000 2.010930 0.000000 
#    z 0.002360 0.000000 1.930970 
# 
# From -- ./inp_files/16096.got.cif
#   From: 2010.03.12/outbox.cif.g09.slc.cpg/sg4_9_cif.got.tgz:16096.got - 2010.03.31 09:31:35.
