data_PCOD8045148
_publ_section_title
;
Structure prediction by ZEFSAII (Michael W. Deem and Ramdas Pophale) SiO2 
 PCOD8045148
Probable space group: P 2
;
_chemical_formula_sum "Si O2"
_cell_formula_units_Z 14
_cell_length_a 9.925817
_cell_length_b 16.245447
_cell_length_c 8.416202
_cell_angle_alpha 90.000000
_cell_angle_beta 149.180393
_cell_angle_gamma 90.000000
_cell_volume 695.295809
_symmetry_space_group_name_H-M "P 2"
_symmetry_group_IT_number 3
_symmetry_cell_setting 'monoclinic'
loop_
_space_group_symop_operation_xyz
x,y,z
-x,y,-z
loop_
_atom_site_type_symbol
_atom_site_label
_atom_site_fract_x
_atom_site_fract_y
_atom_site_fract_z
Si Si1 0.235601 0.630860 0.629592
Si Si2 0.055819 0.451679 0.376168
Si Si3 0.445361 0.372372 0.127720
Si Si4 0.581572 0.183083 0.904068
Si Si5 0.254974 0.937382 0.360073
Si Si6 0.086288 0.104322 0.269442
Si Si7 0.260773 0.755491 0.369362
O O1 0.142563 0.546094 0.453861
O O2 0.275865 0.696441 0.533996
O O3 0.000000 0.664351 0.500000
O O4 0.500000 0.617214 0.000000
O O5 0.273482 0.394460 0.508216
O O6 0.000000 0.422167 0.500000
O O7 0.773156 0.431498 0.010056
O O8 0.353364 0.278667 0.054892
O O9 0.500000 0.396562 0.000000
O O10 0.335094 0.163685 0.541824
O O11 0.500000 0.161972 0.000000
O O12 0.841618 0.130036 0.131023
O O13 0.500000 0.966639 0.500000
O O14 0.309126 0.847741 0.491405
O O15 0.186231 0.011156 0.414055
O O16 0.000000 0.920809 0.000000
O O17 0.000000 0.107452 0.000000
O O18 0.500000 0.730751 0.500000
O O19 0.000000 0.745152 0.000000
#
# Coordination Sequence:
#
# PCOD8045148 Si02
#       7
#     2   2   2   2   2   2   2
#     4  11  21  35  57  88 117 140 180 235 282 321
#     4   9  16  29  50  76 104 140 181 219 258 316
#     4   9  17  30  50  75 103 140 183 220 259 317
#     4  11  22  36  56  85 114 141 182 237 284 322
#     4   9  18  35  58  81 104 144 195 225 253 328
#     4  11  21  37  59  81 109 148 188 227 275 332
#     4  10  21  38  60  82 110 149 188 223 270 334
#
# _framework density 20.135314999999999
#
# number of rings (size 3 to 8) (size 9 to 14) (size 15 to 20)
#    0.000    2.000    0.000    6.429    0.000    2.286 
#    0.000    2.143    0.000    8.571    0.000    0.000 
#    0.000    0.000    0.000    0.000    0.000    0.000 
#
# Total GULP energy -173474.128660 kJ/mol
# GULP energy per Si atom -12391.009190 kJ/mol
# Density = 2.008949 g / cm^3
# Si number density = 20.135315 Si / 1000 Ang^3
#
#
#
# Elastic Constant Matrix: (Units=GPa)
#
#
# Indices 1 2 3 4 5 6 
#
# 1 77.3728 76.1455 40.6972 0.0000 29.5344 0.0000
# 2 76.1455 150.2230 56.3672 0.0000 24.3780 0.0000
# 3 40.6972 56.3672 122.1755 0.0000 38.5089 0.0000
# 4 0.0000 0.0000 0.0000 105.6491 0.0000 285.0130
# 5 29.5344 24.3780 38.5089 0.0000 39.2271 0.0000
# 6 0.0000 0.0000 0.0000 285.0130 0.0000 1048.6343
#
#
#
# Elastic Compliance Matrix: (Units=1/GPa)
#
#
# Indices 1 2 3 4 5 6 
#
# 1 0.032951 -0.014323 0.000935 0.000000 -0.016826 0.000000
# 2 -0.014323 0.014382 -0.003542 0.000000 0.005323 0.000000
# 3 0.000935 -0.003542 0.013084 0.000000 -0.011348 0.000000
# 4 0.000000 0.000000 0.000000 0.035481 0.000000 -0.009644
# 5 -0.016826 0.005323 -0.011348 0.000000 0.045993 0.000000
# 6 0.000000 0.000000 0.000000 -0.009644 0.000000 0.003575
#
#
# Mechanical properties :
#
#
# Convention : Reuss Voigt Hill
#
# Bulk Modulus (GPa) = 37.65320 77.35457 57.50389
# Shear Modulus (GPa) = 26.57072 250.47286 138.52179
#
# Velocity S-wave (km/s) = 3.63658 11.16534 8.30330
# Velocity P-wave (km/s) = 6.03106 14.30806 10.97939
#
# Compressibility (1/GPa) = 0.02655817
#
# Stress axis : x y z
#
# Youngs Moduli (GPa) = 30.34840 69.53168 76.42724
#
# Poissons Ratio (x) = 0.99587 -0.07149
# Poissons Ratio (y) = 0.43467 0.27072
# Poissons Ratio (z) = -0.02839 0.24630
#
# Static dielectric constant tensor:
#      x y z
#    x 2.674470 0.000000 0.393210 
#    y 0.000000 3.851700 0.000000 
#    z 0.393210 0.000000 4.026760 
# 
# 
# High freq. dielectric constant tensor:
#      x y z
#    x 1.744710 0.000000 0.041550 
#    y 0.000000 1.796090 0.000000 
#    z 0.041550 0.000000 1.801850 
# 
# From -- ./inp_files/6253.got.cif
#   From: 2010.03.12/outbox.cif.g09.slc.cpg/sg3_4_cif.got.tgz:6253.got - 2010.03.31 09:20:49.
