data_PCOD8045475
_publ_section_title
;
Structure prediction by ZEFSAII (Michael W. Deem and Ramdas Pophale) SiO2 
 PCOD8045475
Probable space group: P 2
;
_chemical_formula_sum "Si O2"
_cell_formula_units_Z 10
_cell_length_a 11.372330
_cell_length_b 8.210352
_cell_length_c 11.382212
_cell_angle_alpha 90.000000
_cell_angle_beta 155.481046
_cell_angle_gamma 90.000000
_cell_volume 441.042025
_symmetry_space_group_name_H-M "P 2"
_symmetry_group_IT_number 3
_symmetry_cell_setting 'monoclinic'
loop_
_space_group_symop_operation_xyz
x,y,z
-x,y,-z
loop_
_atom_site_type_symbol
_atom_site_label
_atom_site_fract_x
_atom_site_fract_y
_atom_site_fract_z
Si Si1 0.099222 0.041620 0.322190
Si Si2 0.192714 0.499529 0.998330
Si Si3 0.797651 0.265607 0.213722
Si Si4 0.652643 0.703779 0.516428
Si Si5 0.644068 0.182458 0.751071
O O1 0.386091 0.146329 0.606342
O O2 0.900917 0.093942 0.250740
O O3 0.179340 0.852597 0.390209
O O4 0.931193 0.086203 0.047960
O O5 0.210908 0.408687 0.890622
O O6 0.876476 0.559139 0.739090
O O7 0.413566 0.648919 0.205664
O O8 0.280042 0.373183 0.180956
O O9 0.000000 0.329284 0.500000
O O10 0.500000 0.228004 0.000000
O O11 0.500000 0.752651 0.500000
O O12 0.500000 0.119588 0.500000
#
# Coordination Sequence:
#
# PCOD8045475 Si02
#       5
#     2   2   2   2   2
#     4  11  24  42  67  98 130 174 225 268 328 400
#     4  11  24  42  67  98 131 175 224 268 328 400
#     4  11  23  45  72  95 125 173 231 290 326 367
#     4  12  25  43  65 101 145 174 204 267 338 406
#     4  11  22  40  64  94 130 176 224 269 318 393
#
# _framework density 22.673576000000001
#
# number of rings (size 3 to 8) (size 9 to 14) (size 15 to 20)
#    0.000    0.800    0.000    9.600    0.000    4.800 
#    0.000    9.000    0.000    2.400    0.000    0.000 
#    0.000    0.000    0.000    0.000    0.000    0.000 
#
# Total GULP energy -123974.313122 kJ/mol
# GULP energy per Si atom -12397.431312 kJ/mol
# Density = 2.262197 g / cm^3
# Si number density = 22.673576 Si / 1000 Ang^3
#
#
#
# Elastic Constant Matrix: (Units=GPa)
#
#
# Indices 1 2 3 4 5 6 
#
# 1 83.8092 67.7529 37.2681 0.0000 9.6955 0.0000
# 2 67.7529 110.8029 50.2834 0.0000 5.7976 0.0000
# 3 37.2681 50.2834 150.7882 0.0000 10.7107 0.0000
# 4 0.0000 0.0000 0.0000 50.0156 0.0000 9.5178
# 5 9.6955 5.7976 10.7107 0.0000 51.0008 0.0000
# 6 0.0000 0.0000 0.0000 9.5178 0.0000 35.0831
#
#
#
# Elastic Compliance Matrix: (Units=1/GPa)
#
#
# Indices 1 2 3 4 5 6 
#
# 1 0.024159 -0.014149 -0.001057 0.000000 -0.002762 0.000000
# 2 -0.014149 0.018932 -0.002898 0.000000 0.001146 0.000000
# 3 -0.001057 -0.002898 0.007940 0.000000 -0.001137 0.000000
# 4 0.000000 0.000000 0.000000 0.021082 0.000000 -0.005719
# 5 -0.002762 0.001146 -0.001137 0.000000 0.020241 0.000000
# 6 0.000000 0.000000 0.000000 -0.005719 0.000000 0.030055
#
#
# Mechanical properties :
#
#
# Convention : Reuss Voigt Hill
#
# Bulk Modulus (GPa) = 67.45392 72.88990 70.17191
# Shear Modulus (GPa) = 30.57027 39.89296 35.23161
#
# Velocity S-wave (km/s) = 3.67587 4.19913 3.94618
# Velocity P-wave (km/s) = 6.91597 7.46509 7.19577
#
# Compressibility (1/GPa) = 0.01482494
#
# Stress axis : x y z
#
# Youngs Moduli (GPa) = 41.39168 52.82181 125.94401
#
# Poissons Ratio (x) = 0.74736 0.13309
# Poissons Ratio (y) = 0.58564 0.36493
# Poissons Ratio (z) = 0.04374 0.15306
#
# Static dielectric constant tensor:
#      x y z
#    x 3.942080 0.000000 0.166930 
#    y 0.000000 3.871260 0.000000 
#    z 0.166930 0.000000 4.629470 
# 
# 
# High freq. dielectric constant tensor:
#      x y z
#    x 1.875840 0.000000 0.014360 
#    y 0.000000 1.880280 0.000000 
#    z 0.014360 0.000000 1.933040 
# 
# From -- ./inp_files/11359.got.cif
#   From: 2010.03.12/outbox.cif.g09.slc.cpg/sg3_6_cif.got.tgz:11359.got - 2010.03.31 09:20:49.
