data_PCOD8045191
_publ_section_title
;
Structure prediction by ZEFSAII (Michael W. Deem and Ramdas Pophale) SiO2 
 PCOD8045191
Probable space group: P 2
;
_chemical_formula_sum "Si O2"
_cell_formula_units_Z 16
_cell_length_a 18.804359
_cell_length_b 9.713559
_cell_length_c 8.068654
_cell_angle_alpha 90.000000
_cell_angle_beta 147.682862
_cell_angle_gamma 90.000000
_cell_volume 787.900092
_symmetry_space_group_name_H-M "P 2"
_symmetry_group_IT_number 3
_symmetry_cell_setting 'monoclinic'
loop_
_space_group_symop_operation_xyz
x,y,z
-x,y,-z
loop_
_atom_site_type_symbol
_atom_site_label
_atom_site_fract_x
_atom_site_fract_y
_atom_site_fract_z
Si Si1 0.464792 0.942990 0.623299
Si Si2 0.253860 0.456378 0.296122
Si Si3 0.972178 0.377322 0.637718
Si Si4 0.630287 0.190522 0.363535
Si Si5 0.745686 0.853789 0.236258
Si Si6 0.119200 0.111622 0.363267
Si Si7 0.141135 0.600836 0.365693
Si Si8 0.351877 0.695262 0.268854
O O1 0.500000 0.968724 0.500000
O O2 0.371182 0.807515 0.453546
O O3 0.382182 0.070255 0.527001
O O4 0.600078 0.915770 0.993527
O O5 0.359212 0.332732 0.512527
O O6 0.253376 0.537541 0.467547
O O7 0.281280 0.557790 0.195629
O O8 0.110511 0.386781 0.004558
O O9 0.911684 0.230895 0.566237
O O10 0.876259 0.501670 0.508585
O O11 0.000000 0.389667 0.500000
O O12 0.755274 0.160935 0.494749
O O13 0.500000 0.202407 0.000000
O O14 0.795595 0.746282 0.468258
O O15 0.849204 0.980625 0.455924
O O16 0.739508 0.771797 0.049021
O O17 0.000000 0.079641 0.000000
O O18 0.000000 0.625565 0.000000
O O19 0.500000 0.653986 0.500000
#
# Coordination Sequence:
#
# PCOD8045191 Si02
#       8
#     2   2   2   2   2   2   2   2
#     4   9  22  42  63  93 135 170 216 278 332 386
#     4  11  23  42  66  94 134 172 221 278 328 404
#     4  11  23  43  66  91 132 174 216 284 337 390
#     4  12  24  41  67  99 131 177 222 271 332 397
#     4  10  21  41  66  93 132 171 218 274 325 400
#     4  12  23  45  66  98 135 175 225 274 332 399
#     4  10  21  40  63  96 126 173 221 272 338 393
#     4   9  22  43  63  95 132 173 222 274 335 394
#
# _framework density 20.307143
#
# number of rings (size 3 to 8) (size 9 to 14) (size 15 to 20)
#    0.000    1.750    3.750    1.500    1.750    4.500 
#    2.250    0.625    0.000    0.000    0.000    0.000 
#    0.000    0.000    0.000    0.000    0.000    0.000 
#
# Total GULP energy -198321.840951 kJ/mol
# GULP energy per Si atom -12395.115059 kJ/mol
# Density = 2.026092 g / cm^3
# Si number density = 20.307143 Si / 1000 Ang^3
#
#
#
# Elastic Constant Matrix: (Units=GPa)
#
#
# Indices 1 2 3 4 5 6 
#
# 1 98.8368 63.3519 26.5806 0.0000 -1.4206 0.0000
# 2 63.3519 161.1402 49.1237 0.0000 1.7400 0.0000
# 3 26.5806 49.1237 88.0500 0.0000 3.8899 0.0000
# 4 0.0000 0.0000 0.0000 37.3815 0.0000 -6.3394
# 5 -1.4206 1.7400 3.8899 0.0000 22.3542 0.0000
# 6 0.0000 0.0000 0.0000 -6.3394 0.0000 24.3552
#
#
#
# Elastic Compliance Matrix: (Units=1/GPa)
#
#
# Indices 1 2 3 4 5 6 
#
# 1 0.013710 -0.004970 -0.001433 0.000000 0.001507 0.000000
# 2 -0.004970 0.009279 -0.003659 0.000000 -0.000401 0.000000
# 3 -0.001433 -0.003659 0.013930 0.000000 -0.002230 0.000000
# 4 0.000000 0.000000 0.000000 0.027987 0.000000 0.007285
# 5 0.001507 -0.000401 -0.002230 0.000000 0.045250 0.000000
# 6 0.000000 0.000000 0.000000 0.007285 0.000000 0.042955
#
#
# Mechanical properties :
#
#
# Convention : Reuss Voigt Hill
#
# Bulk Modulus (GPa) = 59.53746 69.57102 64.55424
# Shear Modulus (GPa) = 27.95921 30.74956 29.35438
#
# Velocity S-wave (km/s) = 3.71457 3.89552 3.80612
# Velocity P-wave (km/s) = 6.91227 7.38696 7.15356
#
# Compressibility (1/GPa) = 0.01679615
#
# Stress axis : x y z
#
# Youngs Moduli (GPa) = 72.93919 107.76628 71.78919
#
# Poissons Ratio (x) = 0.53555 0.10286
# Poissons Ratio (y) = 0.36247 0.26268
# Poissons Ratio (z) = 0.10451 0.39432
#
# Static dielectric constant tensor:
#      x y z
#    x 3.473020 0.000000 -0.063430 
#    y 0.000000 3.966110 0.000000 
#    z -0.063430 0.000000 3.747060 
# 
# 
# High freq. dielectric constant tensor:
#      x y z
#    x 1.777480 0.000000 -0.002770 
#    y 0.000000 1.810700 0.000000 
#    z -0.002770 0.000000 1.797390 
# 
# From -- ./inp_files/9477.got.cif
#   From: 2010.03.12/outbox.cif.g09.slc.cpg/sg3_5_cif.got.tgz:9477.got - 2010.03.31 09:20:49.
