data_PCOD8045886
_publ_section_title
;
Structure prediction by ZEFSAII (Michael W. Deem and Ramdas Pophale) SiO2 
 PCOD8045886
Probable space group: P 21
;
_chemical_formula_sum "Si O2"
_cell_formula_units_Z 16
_cell_length_a 8.982727
_cell_length_b 13.324193
_cell_length_c 11.199695
_cell_angle_alpha 90.000000
_cell_angle_beta 38.645093
_cell_angle_gamma 90.000000
_cell_volume 837.112666
_symmetry_space_group_name_H-M "P 21"
_symmetry_group_IT_number 4
_symmetry_cell_setting 'monoclinic'
loop_
_space_group_symop_operation_xyz
x,y,z
-x,1/2+y,-z
loop_
_atom_site_type_symbol
_atom_site_label
_atom_site_fract_x
_atom_site_fract_y
_atom_site_fract_z
Si Si1 0.792078 0.191210 0.056901
Si Si2 0.010734 0.369225 0.796456
Si Si3 0.261807 0.497995 0.049602
Si Si4 0.572461 0.494169 0.086247
Si Si5 0.527912 0.849331 0.648647
Si Si6 0.688632 0.653005 0.207913
Si Si7 0.286080 0.987779 0.620105
Si Si8 0.376008 0.378723 0.762743
O O1 0.576126 0.237351 0.270491
O O2 0.864857 0.266394 0.903788
O O3 0.027081 0.167957 0.988891
O O4 0.684449 0.091234 0.069447
O O5 0.210499 0.350484 0.571782
O O6 0.127122 0.399597 0.850546
O O7 0.832547 0.459757 0.874134
O O8 0.403943 0.515073 0.081099
O O9 0.984512 0.489351 0.253825
O O10 0.347598 0.400052 0.921665
O O11 0.454154 0.404492 0.235743
O O12 0.589023 0.594160 0.155789
O O13 0.329620 0.904122 0.693143
O O14 0.640725 0.594093 0.363367
O O15 0.555216 0.761118 0.299220
O O16 0.434771 0.957310 0.410246
#
# Coordination Sequence:
#
# PCOD8045886 Si02
#       8
#     2   2   2   2   2   2   2   2
#     4   9  18  33  55  80 107 137 179 230 270 320
#     4   9  18  36  59  80 100 136 184 229 272 316
#     4  11  22  34  51  80 115 149 178 215 274 331
#     4  10  21  36  53  78 116 147 176 219 270 333
#     4   9  18  36  60  81 102 138 186 231 273 317
#     4   9  18  36  58  82 109 143 185 229 275 319
#     4   9  19  36  57  82 108 137 183 234 272 316
#     4  10  20  35  59  81 105 141 185 231 272 316
#
# _framework density 19.113316999999999
#
# number of rings (size 3 to 8) (size 9 to 14) (size 15 to 20)
#    0.000    2.500    0.000    3.750    0.000    7.000 
#    0.000    7.500    0.000    1.500    0.000    0.000 
#    0.000    0.000    0.000    0.000    0.000    0.000 
#
# Total GULP energy -198327.198581 kJ/mol
# GULP energy per Si atom -12395.449911 kJ/mol
# Density = 1.906981 g / cm^3
# Si number density = 19.113317 Si / 1000 Ang^3
#
#
#
# Elastic Constant Matrix: (Units=GPa)
#
#
# Indices 1 2 3 4 5 6 
#
# 1 106.0807 36.4311 34.9681 0.0000 -0.5238 0.0000
# 2 36.4311 92.3419 32.9088 0.0000 -6.0580 0.0000
# 3 34.9681 32.9088 99.2868 0.0000 -3.0432 0.0000
# 4 0.0000 0.0000 0.0000 31.3439 0.0000 -0.7540
# 5 -0.5238 -6.0580 -3.0432 0.0000 19.7418 0.0000
# 6 0.0000 0.0000 0.0000 -0.7540 0.0000 15.5943
#
#
#
# Elastic Compliance Matrix: (Units=1/GPa)
#
#
# Indices 1 2 3 4 5 6 
#
# 1 0.011633 -0.003626 -0.002934 0.000000 -0.001256 0.000000
# 2 -0.003626 0.013609 -0.003123 0.000000 0.003598 0.000000
# 3 -0.002934 -0.003123 0.012166 0.000000 0.000839 0.000000
# 4 0.000000 0.000000 0.000000 0.031941 0.000000 0.001544
# 5 -0.001256 0.003598 0.000839 0.000000 0.051854 0.000000
# 6 0.000000 0.000000 0.000000 0.001544 0.000000 0.064201
#
#
# Mechanical properties :
#
#
# Convention : Reuss Voigt Hill
#
# Bulk Modulus (GPa) = 55.42768 56.25837 55.84302
# Shear Modulus (GPa) = 23.72089 26.22943 24.97516
#
# Velocity S-wave (km/s) = 3.52670 3.70849 3.61874
# Velocity P-wave (km/s) = 6.75618 6.91630 6.83671
#
# Compressibility (1/GPa) = 0.01804153
#
# Stress axis : x y z
#
# Youngs Moduli (GPa) = 85.96213 73.47976 82.19651
#
# Poissons Ratio (x) = 0.26647 0.24113
# Poissons Ratio (y) = 0.31174 0.25672
# Poissons Ratio (z) = 0.25218 0.22950
#
# Static dielectric constant tensor:
#      x y z
#    x 3.195630 0.000000 -0.008190 
#    y 0.000000 3.694570 0.000000 
#    z -0.008190 0.000000 3.429080 
# 
# 
# High freq. dielectric constant tensor:
#      x y z
#    x 1.712980 0.000000 -0.000420 
#    y 0.000000 1.751700 0.000000 
#    z -0.000420 0.000000 1.737870 
# 
# From -- ./inp_files/8313.got.cif
#   From: 2010.03.12/outbox.cif.g09.slc.cpg/sg4_5_cif.got.tgz:8313.got - 2010.03.31 09:31:35.
