data_PCOD8045415
_publ_section_title
;
Structure prediction by ZEFSAII (Michael W. Deem and Ramdas Pophale) SiO2 
 PCOD8045415
Probable space group: P 2
;
_chemical_formula_sum "Si O2"
_cell_formula_units_Z 11
_cell_length_a 14.937420
_cell_length_b 5.080467
_cell_length_c 5.810983
_cell_angle_alpha 90.000000
_cell_angle_beta 78.997700
_cell_angle_gamma 90.000000
_cell_volume 432.884484
_symmetry_space_group_name_H-M "P 2"
_symmetry_group_IT_number 3
_symmetry_cell_setting 'monoclinic'
loop_
_space_group_symop_operation_xyz
x,y,z
-x,y,-z
loop_
_atom_site_type_symbol
_atom_site_label
_atom_site_fract_x
_atom_site_fract_y
_atom_site_fract_z
Si Si1 0.693627 0.110990 0.001029
Si Si2 0.879643 0.638487 0.408079
Si Si3 0.500000 0.746168 0.500000
Si Si4 0.120046 0.131528 0.314148
Si Si5 0.500000 0.029729 0.000000
Si Si6 0.000000 0.930989 0.000000
Si Si7 0.308507 0.597775 0.704937
O O1 0.715880 0.306901 0.197416
O O2 0.692310 0.809556 0.086995
O O3 0.771494 0.155418 0.774301
O O4 0.594576 0.193743 0.942953
O O5 0.909161 0.349216 0.482791
O O6 0.930333 0.727360 0.153282
O O7 0.770518 0.668190 0.435030
O O8 0.908333 0.842503 0.589197
O O9 0.406894 0.578772 0.531997
O O10 0.495941 0.890312 0.750414
O O11 0.060500 0.143180 0.112376
#
# Coordination Sequence:
#
# PCOD8045415 Si02
#       7
#     2   2   1   2   1   1   2
#     4  11  24  47  76 111 154 199 252 324 390 472
#     4  12  28  50  80 111 150 206 262 325 401 477
#     4  10  24  46  80 116 160 208 264 320 398 478
#     4  12  28  50  80 111 150 206 262 325 401 477
#     4  10  24  46  80 116 160 208 264 320 398 478
#     4  12  30  54  76 112 164 198 270 342 404 478
#     4  11  24  47  76 111 154 199 252 324 390 472
#
# _framework density 25.410934999999998
#
# number of rings (size 3 to 8) (size 9 to 14) (size 15 to 20)
#    0.000    0.727    1.818    3.818    0.000   14.545 
#    0.000    0.000    0.000    0.000    0.000    0.000 
#    0.000    0.000    0.000    0.000    0.000    0.000 
#
# Total GULP energy -136307.752331 kJ/mol
# GULP energy per Si atom -12391.613848 kJ/mol
# Density = 2.535310 g / cm^3
# Si number density = 25.410935 Si / 1000 Ang^3
#
#
#
# Elastic Constant Matrix: (Units=GPa)
#
#
# Indices 1 2 3 4 5 6 
#
# 1 178.8957 29.8964 45.8716 0.0000 -10.7889 0.0000
# 2 29.8964 87.0909 26.7949 0.0000 -0.6614 0.0000
# 3 45.8716 26.7949 125.9615 0.0000 -6.6604 0.0000
# 4 0.0000 0.0000 0.0000 25.1944 0.0000 -9.5118
# 5 -10.7889 -0.6614 -6.6604 0.0000 51.5098 0.0000
# 6 0.0000 0.0000 0.0000 -9.5118 0.0000 -7.2032
#
#
#
# Elastic Compliance Matrix: (Units=1/GPa)
#
#
# Indices 1 2 3 4 5 6 
#
# 1 0.006419 -0.001598 -0.001941 0.000000 0.001073 0.000000
# 2 -0.001598 0.012686 -0.002140 0.000000 -0.000449 0.000000
# 3 -0.001941 -0.002140 0.009141 0.000000 0.000748 0.000000
# 4 0.000000 0.000000 0.000000 0.026487 0.000000 -0.034976
# 5 0.001073 -0.000449 0.000748 0.000000 0.019729 0.000000
# 6 0.000000 0.000000 0.000000 -0.034976 0.000000 -0.092641
#
#
# Mechanical properties :
#
#
# Convention : Reuss Voigt Hill
#
# Bulk Modulus (GPa) = 59.21776 66.34155 62.77965
# Shear Modulus (GPa) = -4197.92829 33.19254 -2082.36788
#
# Velocity S-wave (km/s) = -40.68910 3.61810 -28.65757
# Velocity P-wave (km/s) = 46.73452 6.60442 32.71466
#
# Compressibility (1/GPa) = 0.01688682
#
# Stress axis : x y z
#
# Youngs Moduli (GPa) = 155.77845 78.82709 109.40161
#
# Poissons Ratio (x) = 0.12599 0.21235
# Poissons Ratio (y) = 0.24898 0.23415
# Poissons Ratio (z) = 0.30237 0.16871
#
# Static dielectric constant tensor:
#      x y z
#    x 5.432460 0.000000 -0.339160 
#    y 0.000000 4.238140 0.000000 
#    z -0.339160 0.000000 4.627300 
# 
# 
# High freq. dielectric constant tensor:
#      x y z
#    x 2.055270 0.000000 -0.007020 
#    y 0.000000 1.994560 0.000000 
#    z -0.007020 0.000000 2.011640 
# 
# From -- ./inp_files/2708.got.cif
#   From: 2010.03.12/outbox.cif.g09.slc.cpg/sg3_2_cif.got.tgz:2708.got - 2010.03.31 09:20:49.
