data_PCOD8045957
_publ_section_title
;
Structure prediction by ZEFSAII (Michael W. Deem and Ramdas Pophale) SiO2 
 PCOD8045957
Probable space group: P 21
;
_chemical_formula_sum "Si O2"
_cell_formula_units_Z 16
_cell_length_a 8.571028
_cell_length_b 13.277833
_cell_length_c 11.063929
_cell_angle_alpha 90.000000
_cell_angle_beta 137.864351
_cell_angle_gamma 90.000000
_cell_volume 844.733293
_symmetry_space_group_name_H-M "P 21"
_symmetry_group_IT_number 4
_symmetry_cell_setting 'monoclinic'
loop_
_space_group_symop_operation_xyz
x,y,z
-x,1/2+y,-z
loop_
_atom_site_type_symbol
_atom_site_label
_atom_site_fract_x
_atom_site_fract_y
_atom_site_fract_z
Si Si1 0.206894 0.151450 0.205541
Si Si2 0.669456 0.067008 0.426326
Si Si3 0.061583 0.427275 0.578929
Si Si4 0.020417 0.770893 0.126213
Si Si5 0.608542 0.534925 0.254970
Si Si6 0.912691 0.703758 0.324761
Si Si7 0.881105 0.985334 0.118646
Si Si8 0.551527 0.140510 0.599190
O O1 0.402124 0.092475 0.237159
O O2 0.331716 0.190051 0.400814
O O3 0.988845 0.082204 0.115339
O O4 0.118106 0.244266 0.075197
O O5 0.744123 0.963915 0.405144
O O6 0.684486 0.063957 0.582354
O O7 0.848197 0.155110 0.488430
O O8 0.109071 0.309666 0.619832
O O9 0.083674 0.487758 0.717362
O O10 0.805874 0.449328 0.378734
O O11 0.904594 0.719026 0.176298
O O12 0.285038 0.732053 0.264121
O O13 0.015417 0.890461 0.138371
O O14 0.696230 0.632202 0.231648
O O15 0.533039 0.570361 0.343072
O O16 0.393972 0.482645 0.063817
#
# Coordination Sequence:
#
# PCOD8045957 Si02
#       8
#     2   2   2   2   2   2   2   2
#     4  10  20  38  59  82 115 153 188 233 295 332
#     4   8  19  35  59  78 109 155 185 231 285 332
#     4  10  20  40  56  83 118 148 196 235 287 352
#     4  10  21  38  57  84 117 149 199 231 291 349
#     4  11  21  37  61  85 120 146 194 243 289 343
#     4   9  21  37  59  83 112 156 190 237 289 339
#     4  11  23  35  61  89 111 157 189 245 293 339
#     4   9  19  38  58  82 114 152 185 239 281 344
#
# _framework density 18.940888000000001
#
# number of rings (size 3 to 8) (size 9 to 14) (size 15 to 20)
#    0.750    1.500    2.500    0.000    3.500    1.000 
#    0.000    0.000    0.000    0.000    0.000    0.000 
#    0.000    0.000    0.000    0.000    0.000    0.000 
#
# Total GULP energy -198302.372985 kJ/mol
# GULP energy per Si atom -12393.898312 kJ/mol
# Density = 1.889778 g / cm^3
# Si number density = 18.940888 Si / 1000 Ang^3
#
#
#
# Elastic Constant Matrix: (Units=GPa)
#
#
# Indices 1 2 3 4 5 6 
#
# 1 45.7098 2.8736 3.5008 0.0000 -0.4390 0.0000
# 2 2.8736 45.8300 8.8675 0.0000 -5.8348 0.0000
# 3 3.5008 8.8675 96.3430 0.0000 11.6732 0.0000
# 4 0.0000 0.0000 0.0000 23.9890 0.0000 -4.0176
# 5 -0.4390 -5.8348 11.6732 0.0000 25.0078 0.0000
# 6 0.0000 0.0000 0.0000 -4.0176 0.0000 23.2891
#
#
#
# Elastic Compliance Matrix: (Units=1/GPa)
#
#
# Indices 1 2 3 4 5 6 
#
# 1 0.022013 -0.001177 -0.000747 0.000000 0.000461 0.000000
# 2 -0.001177 0.023324 -0.002926 0.000000 0.006787 0.000000
# 3 -0.000747 -0.002926 0.011405 0.000000 -0.006020 0.000000
# 4 0.000000 0.000000 0.000000 0.042926 0.000000 0.007405
# 5 0.000461 0.006787 -0.006020 0.000000 0.044389 0.000000
# 6 0.000000 0.000000 0.000000 0.007405 0.000000 0.044216
#
#
# Mechanical properties :
#
#
# Convention : Reuss Voigt Hill
#
# Bulk Modulus (GPa) = 21.25814 24.26294 22.76054
# Shear Modulus (GPa) = 23.40224 25.96658 24.68441
#
# Velocity S-wave (km/s) = 3.51884 3.70662 3.61395
# Velocity P-wave (km/s) = 5.26853 5.58179 5.42742
#
# Compressibility (1/GPa) = 0.04704080
#
# Stress axis : x y z
#
# Youngs Moduli (GPa) = 45.42811 42.87447 87.67731
#
# Poissons Ratio (x) = 0.05046 0.06553
# Poissons Ratio (y) = 0.05347 0.25657
# Poissons Ratio (z) = 0.03395 0.12547
#
# Static dielectric constant tensor:
#      x y z
#    x 3.514130 0.000000 0.052810 
#    y 0.000000 3.182820 0.000000 
#    z 0.052810 0.000000 3.447560 
# 
# 
# High freq. dielectric constant tensor:
#      x y z
#    x 1.740100 0.000000 0.004210 
#    y 0.000000 1.712720 0.000000 
#    z 0.004210 0.000000 1.735130 
# 
# From -- ./inp_files/5956.got.cif
#   From: 2010.03.12/outbox.cif.g09.slc.cpg/sg4_3_cif.got.tgz:5956.got - 2010.03.31 09:31:35.
