data_PCOD8045511
_publ_section_title
;
Structure prediction by ZEFSAII (Michael W. Deem and Ramdas Pophale) SiO2 
 PCOD8045511
Probable space group: P 2
;
_chemical_formula_sum "Si O2"
_cell_formula_units_Z 13
_cell_length_a 9.142528
_cell_length_b 6.027298
_cell_length_c 15.950705
_cell_angle_alpha 90.000000
_cell_angle_beta 141.779078
_cell_angle_gamma 90.000000
_cell_volume 543.808103
_symmetry_space_group_name_H-M "P 2"
_symmetry_group_IT_number 3
_symmetry_cell_setting 'monoclinic'
loop_
_space_group_symop_operation_xyz
x,y,z
-x,y,-z
loop_
_atom_site_type_symbol
_atom_site_label
_atom_site_fract_x
_atom_site_fract_y
_atom_site_fract_z
Si Si1 0.500000 0.041981 0.500000
Si Si2 0.933683 0.785834 0.740864
Si Si3 0.189036 0.553156 0.151479
Si Si4 0.312053 0.116013 0.851085
Si Si5 0.946487 0.504777 0.363529
Si Si6 0.422675 0.848853 0.746640
Si Si7 0.375913 0.252458 0.607446
O O1 0.359041 0.193853 0.501655
O O2 0.675387 0.892326 0.633502
O O3 0.960311 0.628644 0.833945
O O4 0.936248 0.647949 0.656742
O O5 0.126021 0.981021 0.824174
O O6 0.324301 0.761096 0.170816
O O7 0.371885 0.358633 0.256322
O O8 0.000000 0.457096 0.000000
O O9 0.197548 0.303508 0.742418
O O10 0.450281 0.945819 0.852552
O O11 0.500000 0.224615 0.000000
O O12 0.766500 0.650066 0.337629
O O13 0.155939 0.420119 0.519786
O O14 0.325965 0.036621 0.640434
#
# Coordination Sequence:
#
# PCOD8045511 Si02
#       7
#     1   2   2   2   2   2   2
#     4  12  22  50  72 104 138 192 234 302 362 430
#     4  11  24  46  74 105 145 190 245 297 366 441
#     4  12  27  46  73 109 148 193 244 302 368 444
#     4  11  25  47  74 103 145 197 244 299 367 440
#     4  11  26  47  74 106 142 193 248 305 364 437
#     4  11  27  48  69 108 149 188 242 309 369 432
#     4  12  26  47  75 105 146 194 247 305 369 435
#
# _framework density 23.905491000000001
#
# number of rings (size 3 to 8) (size 9 to 14) (size 15 to 20)
#    0.000    0.615    3.077    3.692    0.000    9.231 
#    0.000    0.000    0.000    0.000    0.000    0.000 
#    0.000    0.000    0.000    0.000    0.000    0.000 
#
# Total GULP energy -161273.348370 kJ/mol
# GULP energy per Si atom -12405.642182 kJ/mol
# Density = 2.385108 g / cm^3
# Si number density = 23.905491 Si / 1000 Ang^3
#
#
#
# Elastic Constant Matrix: (Units=GPa)
#
#
# Indices 1 2 3 4 5 6 
#
# 1 118.3298 35.7425 28.1827 0.0000 -3.1007 0.0000
# 2 35.7425 117.3966 57.7574 0.0000 3.6707 0.0000
# 3 28.1827 57.7574 155.7334 0.0000 -1.4829 0.0000
# 4 0.0000 0.0000 0.0000 36.7157 0.0000 3.5754
# 5 -3.1007 3.6707 -1.4829 0.0000 27.4168 0.0000
# 6 0.0000 0.0000 0.0000 3.5754 0.0000 41.9815
#
#
#
# Elastic Compliance Matrix: (Units=1/GPa)
#
#
# Indices 1 2 3 4 5 6 
#
# 1 0.009435 -0.002546 -0.000750 0.000000 0.001367 0.000000
# 2 -0.002546 0.011177 -0.003704 0.000000 -0.001985 0.000000
# 3 -0.000750 -0.003704 0.007939 0.000000 0.000840 0.000000
# 4 0.000000 0.000000 0.000000 0.027464 0.000000 -0.002339
# 5 0.001367 -0.001985 0.000840 0.000000 0.036940 0.000000
# 6 0.000000 0.000000 0.000000 -0.002339 0.000000 0.024019
#
#
# Mechanical properties :
#
#
# Convention : Reuss Voigt Hill
#
# Bulk Modulus (GPa) = 68.72375 70.53613 69.62994
# Shear Modulus (GPa) = 36.81248 39.20795 38.01021
#
# Velocity S-wave (km/s) = 3.92844 4.05424 3.99183
# Velocity P-wave (km/s) = 7.02761 7.17538 7.10188
#
# Compressibility (1/GPa) = 0.01455101
#
# Stress axis : x y z
#
# Youngs Moduli (GPa) = 105.99386 89.46549 125.96817
#
# Poissons Ratio (x) = 0.22780 0.09448
# Poissons Ratio (y) = 0.26988 0.46653
# Poissons Ratio (z) = 0.07950 0.33134
#
# Static dielectric constant tensor:
#      x y z
#    x 4.516180 0.000000 -0.102940 
#    y 0.000000 4.351180 0.000000 
#    z -0.102940 0.000000 4.067480 
# 
# 
# High freq. dielectric constant tensor:
#      x y z
#    x 1.973970 0.000000 -0.009840 
#    y 0.000000 1.951130 0.000000 
#    z -0.009840 0.000000 1.943570 
# 
# From -- ./inp_files/13424.got.cif
#   From: 2010.03.12/outbox.cif.g09.slc.cpg/sg3_7_cif.got.tgz:13424.got - 2010.03.31 09:20:49.
