data_PCOD8045507
_publ_section_title
;
Structure prediction by ZEFSAII (Michael W. Deem and Ramdas Pophale) SiO2 
 PCOD8045507
Probable space group: P 2
;
_chemical_formula_sum "Si O2"
_cell_formula_units_Z 14
_cell_length_a 6.591087
_cell_length_b 6.739372
_cell_length_c 16.380314
_cell_angle_alpha 90.000000
_cell_angle_beta 114.007509
_cell_angle_gamma 90.000000
_cell_volume 664.666075
_symmetry_space_group_name_H-M "P 2"
_symmetry_group_IT_number 3
_symmetry_cell_setting 'monoclinic'
loop_
_space_group_symop_operation_xyz
x,y,z
-x,y,-z
loop_
_atom_site_type_symbol
_atom_site_label
_atom_site_fract_x
_atom_site_fract_y
_atom_site_fract_z
Si Si1 0.676923 0.897410 0.803002
Si Si2 0.507825 0.618897 0.906730
Si Si3 0.831265 0.297793 0.902794
Si Si4 0.034595 0.480808 0.389365
Si Si5 0.318253 0.819660 0.615563
Si Si6 0.005272 0.584605 0.796094
Si Si7 0.500000 0.626190 0.500000
Si Si8 0.000000 0.134455 0.500000
O O1 0.651081 0.786938 0.885293
O O2 0.443252 0.898450 0.716494
O O3 0.869045 0.789405 0.782070
O O4 0.747760 0.120606 0.832609
O O5 0.618559 0.404128 0.908979
O O6 0.263980 0.627611 0.829634
O O7 0.500000 0.672214 0.000000
O O8 0.963836 0.449059 0.867576
O O9 0.000000 0.221481 0.000000
O O10 0.273407 0.505464 0.470530
O O11 0.971782 0.265370 0.413459
O O12 0.864194 0.654303 0.388242
O O13 0.064402 0.469249 0.297201
O O14 0.512647 0.743311 0.587566
O O15 0.212118 0.992294 0.542817
#
# Coordination Sequence:
#
# PCOD8045507 Si02
#       8
#     2   2   2   2   2   2   1   1
#     4  11  27  42  72  99 137 177 223 277 334 397
#     4  11  24  45  69  98 137 182 218 271 337 398
#     4  11  26  44  65 106 138 168 227 280 326 402
#     4  12  25  46  68 100 137 175 226 276 334 395
#     4  12  25  46  64 105 137 169 228 281 326 400
#     4  11  25  45  70  96 136 180 219 275 335 397
#     4  12  22  46  70  88 138 178 210 284 330 378
#     4  12  26  42  72  98 136 176 224 274 336 402
#
# _framework density 21.063206999999998
#
# number of rings (size 3 to 8) (size 9 to 14) (size 15 to 20)
#    0.000    0.571    7.143    0.000    4.000    5.714 
#    0.000    0.000    0.000    0.000    0.000    0.000 
#    0.000    0.000    0.000    0.000    0.000    0.000 
#
# Total GULP energy -173574.393315 kJ/mol
# GULP energy per Si atom -12398.170951 kJ/mol
# Density = 2.101527 g / cm^3
# Si number density = 21.063207 Si / 1000 Ang^3
#
#
#
# Elastic Constant Matrix: (Units=GPa)
#
#
# Indices 1 2 3 4 5 6 
#
# 1 95.3682 19.1481 16.4786 0.0000 10.2884 0.0000
# 2 19.1481 74.9882 9.1503 0.0000 9.2817 0.0000
# 3 16.4786 9.1503 101.3430 0.0000 -1.5285 0.0000
# 4 0.0000 0.0000 0.0000 35.2301 0.0000 3.1708
# 5 10.2884 9.2817 -1.5285 0.0000 44.3753 0.0000
# 6 0.0000 0.0000 0.0000 3.1708 0.0000 14.7656
#
#
#
# Elastic Compliance Matrix: (Units=1/GPa)
#
#
# Indices 1 2 3 4 5 6 
#
# 1 0.011509 -0.002460 -0.001683 0.000000 -0.002212 0.000000
# 2 -0.002460 0.014384 -0.000936 0.000000 -0.002470 0.000000
# 3 -0.001683 -0.000936 0.010240 0.000000 0.000939 0.000000
# 4 0.000000 0.000000 0.000000 0.028944 0.000000 -0.006216
# 5 -0.002212 -0.002470 0.000939 0.000000 0.023597 0.000000
# 6 0.000000 0.000000 0.000000 -0.006216 0.000000 0.069060
#
#
# Mechanical properties :
#
#
# Convention : Reuss Voigt Hill
#
# Bulk Modulus (GPa) = 38.49783 40.13926 39.31854
# Shear Modulus (GPa) = 28.32088 34.00237 31.16163
#
# Velocity S-wave (km/s) = 3.67081 4.02220 3.85051
# Velocity P-wave (km/s) = 6.02357 6.37720 6.20291
#
# Compressibility (1/GPa) = 0.02597549
#
# Stress axis : x y z
#
# Youngs Moduli (GPa) = 86.88938 69.52406 97.65860
#
# Poissons Ratio (x) = 0.17101 0.16433
# Poissons Ratio (y) = 0.21372 0.09141
# Poissons Ratio (z) = 0.14620 0.06507
#
# Static dielectric constant tensor:
#      x y z
#    x 3.878060 0.000000 -0.026060 
#    y 0.000000 3.603930 0.000000 
#    z -0.026060 0.000000 3.984370 
# 
# 
# High freq. dielectric constant tensor:
#      x y z
#    x 1.835360 0.000000 -0.001440 
#    y 0.000000 1.809550 0.000000 
#    z -0.001440 0.000000 1.845180 
# 
# From -- ./inp_files/14610.got.cif
#   From: 2010.03.12/outbox.cif.g09.slc.cpg/sg3_8_cif.got.tgz:14610.got - 2010.03.31 09:20:49.
