data_PCOD8045277
_publ_section_title
;
Structure prediction by ZEFSAII (Michael W. Deem and Ramdas Pophale) SiO2 
 PCOD8045277
Probable space group: P 2
;
_chemical_formula_sum "Si O2"
_cell_formula_units_Z 14
_cell_length_a 23.286233
_cell_length_b 5.015738
_cell_length_c 15.453777
_cell_angle_alpha 90.000000
_cell_angle_beta 21.754190
_cell_angle_gamma 90.000000
_cell_volume 668.965706
_symmetry_space_group_name_H-M "P 2"
_symmetry_group_IT_number 3
_symmetry_cell_setting 'monoclinic'
loop_
_space_group_symop_operation_xyz
x,y,z
-x,y,-z
loop_
_atom_site_type_symbol
_atom_site_label
_atom_site_fract_x
_atom_site_fract_y
_atom_site_fract_z
Si Si1 0.071068 0.781020 0.676412
Si Si2 0.817345 0.258947 0.248350
Si Si3 0.926564 0.659718 0.517759
Si Si4 0.309330 0.757860 0.481027
Si Si5 0.666076 0.763541 0.996900
Si Si6 0.202447 0.286902 0.098192
Si Si7 0.126382 0.264393 0.016654
O O1 0.069496 0.836660 0.574969
O O2 0.243518 0.774247 0.475090
O O3 0.989505 0.506395 0.810363
O O4 0.980011 0.009797 0.853346
O O5 0.718033 0.462903 0.444198
O O6 0.767124 0.295549 0.217615
O O7 0.776964 0.962118 0.334862
O O8 0.000000 0.319053 0.000000
O O9 0.000000 0.807572 0.500000
O O10 0.023592 0.382833 0.368467
O O11 0.746367 0.632556 0.798084
O O12 0.489655 0.826513 0.222844
O O13 0.683260 0.537520 0.046245
O O14 0.750439 0.033438 0.910716
O O15 0.226271 0.217645 0.963517
#
# Coordination Sequence:
#
# PCOD8045277 Si02
#       7
#     2   2   2   2   2   2   2
#     4  11  21  36  61  94 121 153 203 254 298 358
#     4  12  22  41  64  90 122 162 208 246 302 366
#     4   9  21  38  64  89 116 159 204 243 294 354
#     4  12  24  40  61  94 127 161 197 248 316 363
#     4  11  24  42  61  89 132 161 195 254 306 362
#     4  10  22  41  63  91 119 163 209 249 296 356
#     4  11  21  37  64  91 117 153 213 261 286 345
#
# _framework density 20.927828000000002
#
# number of rings (size 3 to 8) (size 9 to 14) (size 15 to 20)
#    0.000    1.143    2.857    4.714    0.000   11.429 
#    0.000    4.286    0.000    8.571    0.000    0.000 
#    0.000    0.000    0.000    0.000    0.000    0.000 
#
# Total GULP energy -173497.703920 kJ/mol
# GULP energy per Si atom -12392.693137 kJ/mol
# Density = 2.088020 g / cm^3
# Si number density = 20.927828 Si / 1000 Ang^3
#
#
#
# Elastic Constant Matrix: (Units=GPa)
#
#
# Indices 1 2 3 4 5 6 
#
# 1 137.7026 26.0835 50.8703 0.0000 13.8466 0.0000
# 2 26.0835 107.3577 13.6445 0.0000 -8.6350 0.0000
# 3 50.8703 13.6445 79.0728 0.0000 -4.6771 0.0000
# 4 0.0000 0.0000 0.0000 21.0242 0.0000 -0.5810
# 5 13.8466 -8.6350 -4.6771 0.0000 29.8837 0.0000
# 6 0.0000 0.0000 0.0000 -0.5810 0.0000 33.4713
#
#
#
# Elastic Compliance Matrix: (Units=1/GPa)
#
#
# Indices 1 2 3 4 5 6 
#
# 1 0.011016 -0.002329 -0.007092 0.000000 -0.006887 0.000000
# 2 -0.002329 0.010207 -0.000025 0.000000 0.004025 0.000000
# 3 -0.007092 -0.000025 0.017570 0.000000 0.006029 0.000000
# 4 0.000000 0.000000 0.000000 0.047587 0.000000 0.000826
# 5 -0.006887 0.004025 0.006029 0.000000 0.038761 0.000000
# 6 0.000000 0.000000 0.000000 0.000826 0.000000 0.029891
#
#
# Mechanical properties :
#
#
# Convention : Reuss Voigt Hill
#
# Bulk Modulus (GPa) = 50.24908 56.14774 53.19841
# Shear Modulus (GPa) = 27.69192 32.44482 30.06837
#
# Velocity S-wave (km/s) = 3.64154 3.94168 3.79458
# Velocity P-wave (km/s) = 6.46095 6.89951 6.68383
#
# Compressibility (1/GPa) = 0.01990086
#
# Stress axis : x y z
#
# Youngs Moduli (GPa) = 90.77904 97.96829 56.91441
#
# Poissons Ratio (x) = 0.22816 0.40366
# Poissons Ratio (y) = 0.21142 0.00142
# Poissons Ratio (z) = 0.64383 0.00245
#
# Static dielectric constant tensor:
#      x y z
#    x 4.250020 0.000000 0.246640 
#    y 0.000000 3.749710 0.000000 
#    z 0.246640 0.000000 3.723930 
# 
# 
# High freq. dielectric constant tensor:
#      x y z
#    x 1.828130 0.000000 0.012530 
#    y 0.000000 1.828760 0.000000 
#    z 0.012530 0.000000 1.789460 
# 
# From -- ./inp_files/14392.got.cif
#   From: 2010.03.12/outbox.cif.g09.slc.cpg/sg3_8_cif.got.tgz:14392.got - 2010.03.31 09:20:49.
