data_PCOD8045738
_publ_section_title
;
Structure prediction by ZEFSAII (Michael W. Deem and Ramdas Pophale) SiO2 
 PCOD8045738
Probable space group: P 21
;
_chemical_formula_sum "Si O2"
_cell_formula_units_Z 16
_cell_length_a 15.406969
_cell_length_b 5.063947
_cell_length_c 20.488090
_cell_angle_alpha 90.000000
_cell_angle_beta 150.030269
_cell_angle_gamma 90.000000
_cell_volume 798.509711
_symmetry_space_group_name_H-M "P 21"
_symmetry_group_IT_number 4
_symmetry_cell_setting 'monoclinic'
loop_
_space_group_symop_operation_xyz
x,y,z
-x,1/2+y,-z
loop_
_atom_site_type_symbol
_atom_site_label
_atom_site_fract_x
_atom_site_fract_y
_atom_site_fract_z
Si Si1 0.985283 0.986890 0.304301
Si Si2 0.990404 0.575153 0.079944
Si Si3 0.203620 0.575212 0.095325
Si Si4 0.974044 0.494544 0.215407
Si Si5 0.595808 0.002695 0.082389
Si Si6 0.586583 0.457691 0.917171
Si Si7 0.918485 0.483282 0.482949
Si Si8 0.494516 0.947321 0.785547
O O1 0.052415 0.722864 0.313040
O O2 0.781218 0.949436 0.175093
O O3 0.038245 0.229277 0.292674
O O4 0.047799 0.027261 0.418753
O O5 0.845638 0.359765 0.966240
O O6 0.906858 0.863982 0.018709
O O7 0.055832 0.524656 0.196406
O O8 0.158262 0.550063 0.142228
O O9 0.412155 0.533680 0.222032
O O10 0.765497 0.504628 0.072905
O O11 0.579113 0.067949 0.148416
O O12 0.484172 0.736236 0.011038
O O13 0.571995 0.654201 0.846400
O O14 0.569309 0.151120 0.887834
O O15 0.711827 0.455071 0.346468
O O16 0.015980 0.227527 0.517999
#
# Coordination Sequence:
#
# PCOD8045738 Si02
#       8
#     2   2   2   2   2   2   2   2
#     4  12  24  39  57  82 115 157 196 235 301 348
#     4  10  20  33  56  90 127 147 181 240 302 356
#     4  10  19  34  57  89 120 155 188 232 295 357
#     4  12  21  37  58  87 123 147 184 240 304 361
#     4  12  21  32  48  76 109 138 176 229 280 343
#     4  12  22  35  57  90 114 151 189 241 301 341
#     4  12  27  47  62  82 116 163 210 250 277 334
#     4  12  22  39  63  82 116 156 202 241 282 348
#
# _framework density 20.037324999999999
#
# number of rings (size 3 to 8) (size 9 to 14) (size 15 to 20)
#    0.000    0.500    5.000    5.250    0.000    0.000 
#    0.000    0.000    0.000    1.500    0.000    0.000 
#    0.000    0.000    0.000    0.000    0.000    0.000 
#
# Total GULP energy -198293.559783 kJ/mol
# GULP energy per Si atom -12393.347486 kJ/mol
# Density = 1.999172 g / cm^3
# Si number density = 20.037325 Si / 1000 Ang^3
#
#
#
# Elastic Constant Matrix: (Units=GPa)
#
#
# Indices 1 2 3 4 5 6 
#
# 1 109.4879 16.8896 18.1011 0.0000 -11.6666 0.0000
# 2 16.8896 114.1429 23.3013 0.0000 -5.8529 0.0000
# 3 18.1011 23.3013 56.6851 0.0000 -10.9329 0.0000
# 4 0.0000 0.0000 0.0000 20.1399 0.0000 -8.0609
# 5 -11.6666 -5.8529 -10.9329 0.0000 37.5919 0.0000
# 6 0.0000 0.0000 0.0000 -8.0609 0.0000 33.2213
#
#
#
# Elastic Compliance Matrix: (Units=1/GPa)
#
#
# Indices 1 2 3 4 5 6 
#
# 1 0.009898 -0.000865 -0.002372 0.000000 0.002247 0.000000
# 2 -0.000865 0.009644 -0.003655 0.000000 0.000170 0.000000
# 3 -0.002372 -0.003655 0.020817 0.000000 0.004749 0.000000
# 4 0.000000 0.000000 0.000000 0.054993 0.000000 0.013344
# 5 0.002247 0.000170 0.004749 0.000000 0.028707 0.000000
# 6 0.000000 0.000000 0.000000 0.013344 0.000000 0.033339
#
#
# Mechanical properties :
#
#
# Convention : Reuss Voigt Hill
#
# Bulk Modulus (GPa) = 37.62903 44.09999 40.86451
# Shear Modulus (GPa) = 27.77142 32.99222 30.38182
#
# Velocity S-wave (km/s) = 3.72692 4.06216 3.89814
# Velocity P-wave (km/s) = 6.11066 6.63763 6.37959
#
# Compressibility (1/GPa) = 0.02657523
#
# Stress axis : x y z
#
# Youngs Moduli (GPa) = 101.02551 103.69289 48.03735
#
# Poissons Ratio (x) = 0.08972 0.11393
# Poissons Ratio (y) = 0.08741 0.17558
# Poissons Ratio (z) = 0.23960 0.37902
#
# Static dielectric constant tensor:
#      x y z
#    x 4.045520 0.000000 -0.037600 
#    y 0.000000 3.912130 0.000000 
#    z -0.037600 0.000000 3.340940 
# 
# 
# High freq. dielectric constant tensor:
#      x y z
#    x 1.803200 0.000000 -0.011170 
#    y 0.000000 1.808260 0.000000 
#    z -0.011170 0.000000 1.723430 
# 
# From -- ./inp_files/15209.got.cif
#   From: 2010.03.12/outbox.cif.g09.slc.cpg/sg4_8_cif.got.tgz:15209.got - 2010.03.31 09:31:35.
