data_PCOD8045035
_publ_section_title
;
Structure prediction by ZEFSAII (Michael W. Deem and Ramdas Pophale) SiO2 
 PCOD8045035
Probable space group: P 2
;
_chemical_formula_sum "Si O2"
_cell_formula_units_Z 16
_cell_length_a 8.924528
_cell_length_b 12.011767
_cell_length_c 9.006056
_cell_angle_alpha 90.000000
_cell_angle_beta 59.610362
_cell_angle_gamma 90.000000
_cell_volume 832.796433
_symmetry_space_group_name_H-M "P 2"
_symmetry_group_IT_number 3
_symmetry_cell_setting 'monoclinic'
loop_
_space_group_symop_operation_xyz
x,y,z
-x,y,-z
loop_
_atom_site_type_symbol
_atom_site_label
_atom_site_fract_x
_atom_site_fract_y
_atom_site_fract_z
Si Si1 0.809317 0.266540 0.663047
Si Si2 0.677028 0.116059 0.488566
Si Si3 0.664406 0.732001 0.815837
Si Si4 0.969656 0.247531 0.188587
Si Si5 0.977228 0.730957 0.188647
Si Si6 0.667014 0.482724 0.828663
Si Si7 0.326864 0.854061 0.500149
Si Si8 0.984956 0.489422 0.179182
O O1 0.692327 0.173828 0.642086
O O2 0.844057 0.233669 0.819020
O O3 0.715712 0.386330 0.686555
O O4 0.000000 0.273893 0.500000
O O5 0.500000 0.154230 0.500000
O O6 0.834487 0.154095 0.304714
O O7 0.684432 0.985723 0.510068
O O8 0.640738 0.604586 0.769250
O O9 0.672907 0.806630 0.665551
O O10 0.838093 0.750773 0.824760
O O11 0.500000 0.766078 0.000000
O O12 0.894864 0.372229 0.272001
O O13 0.000000 0.234221 0.000000
O O14 0.839792 0.817615 0.321428
O O15 0.899274 0.607268 0.270769
O O16 0.000000 0.746707 0.000000
O O17 0.817655 0.493102 0.871164
O O18 0.500000 0.441054 0.000000
O O19 0.500000 0.816693 0.500000
O O20 0.000000 0.488884 0.000000
#
# Coordination Sequence:
#
# PCOD8045035 Si02
#       8
#     2   2   2   2   2   2   2   2
#     4   9  19  35  55  79 112 145 176 217 269 326
#     4  10  23  40  54  75 108 142 185 235 274 316
#     4  10  21  38  59  85 116 147 184 229 278 334
#     4   9  18  35  58  81 109 143 177 217 267 328
#     4  10  20  36  61  88 115 148 184 225 279 336
#     4   9  18  32  54  84 113 139 173 220 270 325
#     4  11  24  41  57  78 111 150 194 239 279 325
#     4   8  16  31  52  82 115 142 172 214 268 330
#
# _framework density 19.21238
#
# number of rings (size 3 to 8) (size 9 to 14) (size 15 to 20)
#    0.000    2.500    0.000    1.125    0.000   11.500 
#    0.000    4.375    0.000    0.000    0.000    0.000 
#    0.000    0.000    0.000    0.000    0.000    0.000 
#
# Total GULP energy -198223.667364 kJ/mol
# GULP energy per Si atom -12388.979210 kJ/mol
# Density = 1.916865 g / cm^3
# Si number density = 19.212380 Si / 1000 Ang^3
#
#
#
# Elastic Constant Matrix: (Units=GPa)
#
#
# Indices 1 2 3 4 5 6 
#
# 1 106.7308 64.0192 53.7405 0.0000 17.0727 0.0000
# 2 64.0192 100.0930 46.0157 0.0000 7.6109 0.0000
# 3 53.7405 46.0157 86.0381 0.0000 15.5365 0.0000
# 4 0.0000 0.0000 0.0000 197.0835 0.0000 7.1242
# 5 17.0727 7.6109 15.5365 0.0000 34.1338 0.0000
# 6 0.0000 0.0000 0.0000 7.1242 0.0000 30.6021
#
#
#
# Elastic Compliance Matrix: (Units=1/GPa)
#
#
# Indices 1 2 3 4 5 6 
#
# 1 0.018253 -0.008572 -0.006007 0.000000 -0.004484 0.000000
# 2 -0.008572 0.017277 -0.004319 0.000000 0.002401 0.000000
# 3 -0.006007 -0.004319 0.018488 0.000000 -0.004448 0.000000
# 4 0.000000 0.000000 0.000000 0.005117 0.000000 -0.001191
# 5 -0.004484 0.002401 -0.004448 0.000000 0.033028 0.000000
# 6 0.000000 0.000000 0.000000 -0.001191 0.000000 0.032955
#
#
# Mechanical properties :
#
#
# Convention : Reuss Voigt Hill
#
# Bulk Modulus (GPa) = 61.64840 68.93475 65.29158
# Shear Modulus (GPa) = 29.70530 60.96965 45.33748
#
# Velocity S-wave (km/s) = 3.93638 5.63946 4.86305
# Velocity P-wave (km/s) = 7.26758 8.85228 8.09878
#
# Compressibility (1/GPa) = 0.01622102
#
# Stress axis : x y z
#
# Youngs Moduli (GPa) = 54.78644 57.88202 54.08971
#
# Poissons Ratio (x) = 0.49617 0.32489
# Poissons Ratio (y) = 0.46963 0.23364
# Poissons Ratio (z) = 0.32908 0.25002
#
# Static dielectric constant tensor:
#      x y z
#    x 3.857330 0.000000 0.205310 
#    y 0.000000 4.109180 0.000000 
#    z 0.205310 0.000000 3.306750 
# 
# 
# High freq. dielectric constant tensor:
#      x y z
#    x 1.757590 0.000000 0.012680 
#    y 0.000000 1.753440 0.000000 
#    z 0.012680 0.000000 1.729170 
# 
# From -- ./inp_files/5978.got.cif
#   From: 2010.03.12/outbox.cif.g09.slc.cpg/sg3_3_cif.got.tgz:5978.got - 2010.03.31 09:20:49.
