data_PCOD8045197
_publ_section_title
;
Structure prediction by ZEFSAII (Michael W. Deem and Ramdas Pophale) SiO2 
 PCOD8045197
Probable space group: P 2
;
_chemical_formula_sum "Si O2"
_cell_formula_units_Z 10
_cell_length_a 8.925624
_cell_length_b 11.546275
_cell_length_c 8.095315
_cell_angle_alpha 90.000000
_cell_angle_beta 147.286742
_cell_angle_gamma 90.000000
_cell_volume 450.876632
_symmetry_space_group_name_H-M "P 2"
_symmetry_group_IT_number 3
_symmetry_cell_setting 'monoclinic'
loop_
_space_group_symop_operation_xyz
x,y,z
-x,y,-z
loop_
_atom_site_type_symbol
_atom_site_label
_atom_site_fract_x
_atom_site_fract_y
_atom_site_fract_z
Si Si1 0.553626 0.011800 0.857331
Si Si2 0.272586 0.792856 0.160968
Si Si3 0.262568 0.538679 0.146321
Si Si4 0.220751 0.360098 0.828536
Si Si5 0.055320 0.148186 0.242100
O O1 0.365344 0.101779 0.574866
O O2 0.556449 0.878948 0.800205
O O3 0.500000 0.019114 0.000000
O O4 0.871951 0.040661 0.124870
O O5 0.500000 0.753717 0.500000
O O6 0.198333 0.667833 0.011065
O O7 0.000000 0.847225 0.000000
O O8 0.500000 0.531183 0.500000
O O9 0.331612 0.454522 0.059282
O O10 0.000000 0.489701 0.000000
O O11 0.000000 0.420122 0.500000
O O12 0.039261 0.257815 0.740004
O O13 0.500000 0.310202 0.000000
O O14 0.000000 0.178483 0.000000
#
# Coordination Sequence:
#
# PCOD8045197 Si02
#       5
#     2   2   2   2   2
#     4  12  24  40  63  93 127 161 207 263 317 368
#     4  10  21  40  65  93 127 168 213 257 308 377
#     4  10  22  42  67  94 127 169 215 258 309 379
#     4  12  25  42  64  94 132 165 208 266 322 375
#     4  12  25  42  64  88 122 169 214 254 309 379
#
# _framework density 22.179016000000001
#
# number of rings (size 3 to 8) (size 9 to 14) (size 15 to 20)
#    0.000    0.800    0.000    9.000    0.000    2.400 
#    0.000    2.000    0.000    0.000    0.000    0.000 
#    0.000    0.000    0.000    0.000    0.000    0.000 
#
# Total GULP energy -123904.431364 kJ/mol
# GULP energy per Si atom -12390.443136 kJ/mol
# Density = 2.212854 g / cm^3
# Si number density = 22.179016 Si / 1000 Ang^3
#
#
#
# Elastic Constant Matrix: (Units=GPa)
#
#
# Indices 1 2 3 4 5 6 
#
# 1 111.4197 44.3659 41.3065 0.0000 -3.7725 0.0000
# 2 44.3659 114.8023 24.2609 0.0000 -9.5947 0.0000
# 3 41.3065 24.2609 111.1740 0.0000 -2.6142 0.0000
# 4 0.0000 0.0000 0.0000 41.2537 0.0000 -2.9827
# 5 -3.7725 -9.5947 -2.6142 0.0000 40.8505 0.0000
# 6 0.0000 0.0000 0.0000 -2.9827 0.0000 47.9986
#
#
#
# Elastic Compliance Matrix: (Units=1/GPa)
#
#
# Indices 1 2 3 4 5 6 
#
# 1 0.011812 -0.003816 -0.003557 0.000000 -0.000033 0.000000
# 2 -0.003816 0.010534 -0.000832 0.000000 0.002068 0.000000
# 3 -0.003557 -0.000832 0.010502 0.000000 0.000148 0.000000
# 4 0.000000 0.000000 0.000000 0.024350 0.000000 0.001513
# 5 -0.000033 0.002068 0.000148 0.000000 0.024972 0.000000
# 6 0.000000 0.000000 0.000000 0.001513 0.000000 0.020928
#
#
# Mechanical properties :
#
#
# Convention : Reuss Voigt Hill
#
# Bulk Modulus (GPa) = 60.83641 61.91805 61.37723
# Shear Modulus (GPa) = 40.00439 41.18475 40.59457
#
# Velocity S-wave (km/s) = 4.25161 4.31388 4.28286
# Velocity P-wave (km/s) = 7.18268 7.26572 7.22432
#
# Compressibility (1/GPa) = 0.01643752
#
# Stress axis : x y z
#
# Youngs Moduli (GPa) = 84.65965 94.92999 95.22411
#
# Poissons Ratio (x) = 0.36224 0.33869
# Poissons Ratio (y) = 0.32305 0.07926
# Poissons Ratio (z) = 0.30112 0.07902
#
# Static dielectric constant tensor:
#      x y z
#    x 3.555660 0.000000 0.048230 
#    y 0.000000 4.005630 0.000000 
#    z 0.048230 0.000000 4.121780 
# 
# 
# High freq. dielectric constant tensor:
#      x y z
#    x 1.867910 0.000000 0.011070 
#    y 0.000000 1.877710 0.000000 
#    z 0.011070 0.000000 1.888050 
# 
# From -- ./inp_files/5732.got.cif
#   From: 2010.03.12/outbox.cif.g09.slc.cpg/sg3_3_cif.got.tgz:5732.got - 2010.03.31 09:20:49.
