data_PCOD8045859
_publ_section_title
;
Structure prediction by ZEFSAII (Michael W. Deem and Ramdas Pophale) SiO2 
 PCOD8045859
Probable space group: P 21
;
_chemical_formula_sum "Si O2"
_cell_formula_units_Z 16
_cell_length_a 30.846211
_cell_length_b 5.264333
_cell_length_c 15.217842
_cell_angle_alpha 90.000000
_cell_angle_beta 19.343981
_cell_angle_gamma 90.000000
_cell_volume 818.539066
_symmetry_space_group_name_H-M "P 21"
_symmetry_group_IT_number 4
_symmetry_cell_setting 'monoclinic'
loop_
_space_group_symop_operation_xyz
x,y,z
-x,1/2+y,-z
loop_
_atom_site_type_symbol
_atom_site_label
_atom_site_fract_x
_atom_site_fract_y
_atom_site_fract_z
Si Si1 0.442658 0.174440 0.713403
Si Si2 0.892620 0.358292 0.296069
Si Si3 0.609002 0.673835 0.374285
Si Si4 0.045090 0.857306 0.025211
Si Si5 0.354940 0.588564 0.207988
Si Si6 0.287545 0.021560 0.652009
Si Si7 0.443541 0.235263 0.900020
Si Si8 0.605039 0.841946 0.696405
O O1 0.501525 0.455931 0.592915
O O2 0.343582 0.148711 0.818936
O O3 0.373874 0.151073 0.941147
O O4 0.551707 0.953610 0.501285
O O5 0.950969 0.617944 0.223113
O O6 0.741199 0.331672 0.618092
O O7 0.896222 0.357449 0.184248
O O8 0.967482 0.115874 0.192468
O O9 0.724583 0.630090 0.225043
O O10 0.165533 0.839258 0.863859
O O11 0.311119 0.466595 0.385603
O O12 0.339141 0.402191 0.154464
O O13 0.511934 0.627854 0.918343
O O14 0.425531 0.884457 0.377673
O O15 0.287157 0.246520 0.579441
O O16 0.491132 0.000336 0.866368
#
# Coordination Sequence:
#
# PCOD8045859 Si02
#       8
#     2   2   2   2   2   2   2   2
#     4   9  17  31  48  76 112 144 177 207 279 339
#     4  10  24  39  52  73 106 150 192 231 271 321
#     4   9  17  30  51  75 110 146 168 222 273 338
#     4  10  23  37  56  74 102 151 190 235 274 315
#     4  11  23  33  51  77 111 154 191 229 274 331
#     4  10  21  33  54  80 109 144 185 231 281 330
#     4  10  20  33  50  78 112 150 181 226 274 335
#     4  11  21  32  52  79 110 149 188 229 276 335
#
# _framework density 19.547021999999998
#
# number of rings (size 3 to 8) (size 9 to 14) (size 15 to 20)
#    0.000    2.000    2.500    0.750   10.500    0.000 
#    0.000    0.000    0.000    0.000    0.000    0.000 
#    3.750    0.000    0.000    0.000    0.000    0.000 
#
# Total GULP energy -198218.452428 kJ/mol
# GULP energy per Si atom -12388.653277 kJ/mol
# Density = 1.950253 g / cm^3
# Si number density = 19.547022 Si / 1000 Ang^3
#
#
#
# Elastic Constant Matrix: (Units=GPa)
#
#
# Indices 1 2 3 4 5 6 
#
# 1 168.0716 25.7339 33.7201 0.0000 -6.1715 0.0000
# 2 25.7339 73.5059 16.0101 0.0000 -4.8575 0.0000
# 3 33.7201 16.0101 55.3293 0.0000 -9.0228 0.0000
# 4 0.0000 0.0000 0.0000 26.8792 0.0000 0.6106
# 5 -6.1715 -4.8575 -9.0228 0.0000 13.3939 0.0000
# 6 0.0000 0.0000 0.0000 0.6106 0.0000 22.2281
#
#
#
# Elastic Compliance Matrix: (Units=1/GPa)
#
#
# Indices 1 2 3 4 5 6 
#
# 1 0.006953 -0.001610 -0.003757 0.000000 0.000089 0.000000
# 2 -0.001610 0.014982 -0.002908 0.000000 0.002732 0.000000
# 3 -0.003757 -0.002908 0.023312 0.000000 0.012918 0.000000
# 4 0.000000 0.000000 0.000000 0.037227 0.000000 -0.001023
# 5 0.000089 0.002732 0.012918 0.000000 0.084395 0.000000
# 6 0.000000 0.000000 0.000000 -0.001023 0.000000 0.045016
#
#
# Mechanical properties :
#
#
# Convention : Reuss Voigt Hill
#
# Bulk Modulus (GPa) = 34.84863 49.75943 42.30403
# Shear Modulus (GPa) = 21.00823 27.26308 24.13566
#
# Velocity S-wave (km/s) = 3.28190 3.73868 3.51771
# Velocity P-wave (km/s) = 5.67697 6.64443 6.17966
#
# Compressibility (1/GPa) = 0.02869553
#
# Stress axis : x y z
#
# Youngs Moduli (GPa) = 143.81310 66.74643 42.89701
#
# Poissons Ratio (x) = 0.10747 0.16118
# Poissons Ratio (y) = 0.23155 0.12476
# Poissons Ratio (z) = 0.54036 0.19412
#
# Static dielectric constant tensor:
#      x y z
#    x 4.214840 0.000000 0.095660 
#    y 0.000000 3.825510 0.000000 
#    z 0.095660 0.000000 3.081440 
# 
# 
# High freq. dielectric constant tensor:
#      x y z
#    x 1.761200 0.000000 -0.001420 
#    y 0.000000 1.779340 0.000000 
#    z -0.001420 0.000000 1.698060 
# 
# From -- ./inp_files/13524.got.cif
#   From: 2010.03.12/outbox.cif.g09.slc.cpg/sg4_7_cif.got.tgz:13524.got - 2010.03.31 09:31:35.
