data_PCOD8045058
_publ_section_title
;
Structure prediction by ZEFSAII (Michael W. Deem and Ramdas Pophale) SiO2 
 PCOD8045058
Probable space group: P 2
;
_chemical_formula_sum "Si O2"
_cell_formula_units_Z 16
_cell_length_a 8.126722
_cell_length_b 18.752664
_cell_length_c 8.933659
_cell_angle_alpha 90.000000
_cell_angle_beta 145.628058
_cell_angle_gamma 90.000000
_cell_volume 768.634834
_symmetry_space_group_name_H-M "P 2"
_symmetry_group_IT_number 3
_symmetry_cell_setting 'monoclinic'
loop_
_space_group_symop_operation_xyz
x,y,z
-x,y,-z
loop_
_atom_site_type_symbol
_atom_site_label
_atom_site_fract_x
_atom_site_fract_y
_atom_site_fract_z
Si Si1 0.099602 0.280580 0.402342
Si Si2 0.166226 0.421700 0.280786
Si Si3 0.650002 0.052013 0.261378
Si Si4 0.674437 0.783108 0.784847
Si Si5 0.628928 0.648457 0.933801
Si Si6 0.132863 0.566580 0.434652
Si Si7 0.667261 0.940893 0.775409
Si Si8 0.590524 0.208077 0.903305
O O1 0.043696 0.357592 0.290310
O O2 0.439749 0.257015 0.662326
O O3 0.000000 0.277409 0.500000
O O4 0.937935 0.222362 0.171325
O O5 0.500000 0.406720 0.500000
O O6 0.119372 0.491782 0.342207
O O7 0.000000 0.427149 0.000000
O O8 0.508036 0.127193 0.199855
O O9 0.000000 0.057127 0.500000
O O10 0.549618 0.995793 0.308355
O O11 0.500000 0.023202 0.000000
O O12 0.500000 0.777212 0.500000
O O13 0.563096 0.727871 0.825309
O O14 0.675025 0.862769 0.859205
O O15 0.000000 0.758323 0.000000
O O16 0.465508 0.593009 0.700149
O O17 0.500000 0.644164 0.000000
O O18 0.964317 0.624169 0.203102
O O19 0.000000 0.558183 0.500000
O O20 0.500000 0.924972 0.500000
O O21 0.000000 0.969777 0.000000
O O22 0.500000 0.234248 0.000000
#
# Coordination Sequence:
#
# PCOD8045058 Si02
#       8
#     2   2   2   2   2   2   2   2
#     4  10  20  38  60  79 107 150 187 223 280 346
#     4  12  25  39  56  84 116 145 185 239 283 331
#     4  11  21  37  62  91 118 150 198 252 291 337
#     4  10  21  37  58  81 114 155 193 230 280 347
#     4  10  21  37  59  86 112 141 187 241 282 329
#     4  10  22  40  59  81 112 149 186 226 283 348
#     4  10  22  40  57  83 122 162 197 234 290 359
#     4   9  18  34  59  85 109 142 189 235 280 337
#
# _framework density 20.816126000000001
#
# number of rings (size 3 to 8) (size 9 to 14) (size 15 to 20)
#    0.000    1.750    0.000    5.250    0.000    3.500 
#    0.000   10.625    0.000    0.000    0.000    0.000 
#    0.000    0.000    0.000    0.000    0.000    0.000 
#
# Total GULP energy -198249.498015 kJ/mol
# GULP energy per Si atom -12390.593626 kJ/mol
# Density = 2.076875 g / cm^3
# Si number density = 20.816126 Si / 1000 Ang^3
#
#
#
# Elastic Constant Matrix: (Units=GPa)
#
#
# Indices 1 2 3 4 5 6 
#
# 1 28.3281 41.9177 35.6328 0.0000 3.8679 0.0000
# 2 41.9177 144.5342 58.6885 0.0000 -9.6449 0.0000
# 3 35.6328 58.6885 162.6137 0.0000 4.7969 0.0000
# 4 0.0000 0.0000 0.0000 40.1942 0.0000 -10.1326
# 5 3.8679 -9.6449 4.7969 0.0000 27.1610 0.0000
# 6 0.0000 0.0000 0.0000 -10.1326 0.0000 31.1030
#
#
#
# Elastic Compliance Matrix: (Units=1/GPa)
#
#
# Indices 1 2 3 4 5 6 
#
# 1 0.079924 -0.020387 -0.009657 0.000000 -0.016916 0.000000
# 2 -0.020387 0.013635 -0.000686 0.000000 0.007866 0.000000
# 3 -0.009657 -0.000686 0.008524 0.000000 -0.000374 0.000000
# 4 0.000000 0.000000 0.000000 0.027105 0.000000 0.008830
# 5 -0.016916 0.007866 -0.000374 0.000000 0.042086 0.000000
# 6 0.000000 0.000000 0.000000 0.008830 0.000000 0.035028
#
#
# Mechanical properties :
#
#
# Convention : Reuss Voigt Hill
#
# Bulk Modulus (GPa) = 24.61582 67.55046 46.08314
# Shear Modulus (GPa) = 17.77447 32.97409 25.37428
#
# Velocity S-wave (km/s) = 2.92529 3.98435 3.49517
# Velocity P-wave (km/s) = 4.82295 7.32722 6.20278
#
# Compressibility (1/GPa) = 0.04062429
#
# Stress axis : x y z
#
# Youngs Moduli (GPa) = 12.51183 73.34191 117.31608
#
# Poissons Ratio (x) = 1.49525 1.13287
# Poissons Ratio (y) = 0.25508 0.08043
# Poissons Ratio (z) = 0.12082 0.05028
#
# Static dielectric constant tensor:
#      x y z
#    x 3.453680 0.000000 0.082040 
#    y 0.000000 3.736670 0.000000 
#    z 0.082040 0.000000 4.418150 
# 
# 
# High freq. dielectric constant tensor:
#      x y z
#    x 1.782000 0.000000 0.000560 
#    y 0.000000 1.820320 0.000000 
#    z 0.000560 0.000000 1.847130 
# 
# From -- ./inp_files/6293.got.cif
#   From: 2010.03.12/outbox.cif.g09.slc.cpg/sg3_4_cif.got.tgz:6293.got - 2010.03.31 09:20:49.
