data_PCOD8045337
_publ_section_title
;
Structure prediction by ZEFSAII (Michael W. Deem and Ramdas Pophale) SiO2 
 PCOD8045337
Probable space group: P 2
;
_chemical_formula_sum "Si O2"
_cell_formula_units_Z 12
_cell_length_a 9.584392
_cell_length_b 7.299433
_cell_length_c 14.113519
_cell_angle_alpha 90.000000
_cell_angle_beta 144.236010
_cell_angle_gamma 90.000000
_cell_volume 577.078300
_symmetry_space_group_name_H-M "P 2"
_symmetry_group_IT_number 3
_symmetry_cell_setting 'monoclinic'
loop_
_space_group_symop_operation_xyz
x,y,z
-x,y,-z
loop_
_atom_site_type_symbol
_atom_site_label
_atom_site_fract_x
_atom_site_fract_y
_atom_site_fract_z
Si Si1 0.340027 0.625000 0.327280
Si Si2 0.000000 0.284452 0.500000
Si Si3 0.734895 0.751960 0.179365
Si Si4 0.500000 0.973544 0.500000
Si Si5 0.863902 0.436125 0.116800
Si Si6 0.963103 0.099696 0.675345
Si Si7 0.438495 0.540520 0.750231
O O1 0.500000 0.533819 0.500000
O O2 0.456693 0.609831 0.289617
O O3 0.085089 0.526889 0.183428
O O4 0.328236 0.844662 0.340080
O O5 0.035527 0.161869 0.611412
O O6 0.766982 0.401946 0.390544
O O7 0.809736 0.553181 0.180797
O O8 0.674727 0.715702 0.256760
O O9 0.500000 0.831704 0.000000
O O10 0.946013 0.890887 0.271768
O O11 0.676991 0.099518 0.535030
O O12 0.915386 0.228245 0.177844
O O13 0.638029 0.437351 0.922790
#
# Coordination Sequence:
#
# PCOD8045337 Si02
#       7
#     2   1   2   1   2   2   2
#     4  10  22  44  71  95 137 176 225 273 332 397
#     4  12  28  38  70 104 136 174 228 278 340 406
#     4  10  23  43  71  98 134 175 221 286 335 400
#     4  10  26  42  70  98 136 178 230 274 336 398
#     4  11  23  47  71  96 137 181 227 275 336 400
#     4  12  26  44  69 100 136 178 227 279 340 397
#     4  11  25  44  71 103 134 180 225 276 342 401
#
# _framework density 20.794405999999999
#
# number of rings (size 3 to 8) (size 9 to 14) (size 15 to 20)
#    0.500    0.667    3.333    1.500   10.500    0.000 
#    0.000    0.000    0.000    0.000    0.000    0.000 
#    0.000    0.000    0.000    0.000    0.000    0.000 
#
# Total GULP energy -148785.022997 kJ/mol
# GULP energy per Si atom -12398.751916 kJ/mol
# Density = 2.074708 g / cm^3
# Si number density = 20.794406 Si / 1000 Ang^3
#
#
#
# Elastic Constant Matrix: (Units=GPa)
#
#
# Indices 1 2 3 4 5 6 
#
# 1 143.8037 20.5683 19.3685 0.0000 -1.6425 0.0000
# 2 20.5683 70.3891 20.8949 0.0000 -1.0219 0.0000
# 3 19.3685 20.8949 68.9557 0.0000 7.6960 0.0000
# 4 0.0000 0.0000 0.0000 16.0807 0.0000 -8.6463
# 5 -1.6425 -1.0219 7.6960 0.0000 39.5269 0.0000
# 6 0.0000 0.0000 0.0000 -8.6463 0.0000 -25.4099
#
#
#
# Elastic Compliance Matrix: (Units=1/GPa)
#
#
# Indices 1 2 3 4 5 6 
#
# 1 0.007421 -0.001672 -0.001643 0.000000 0.000585 0.000000
# 2 -0.001672 0.016059 -0.004534 0.000000 0.001228 0.000000
# 3 -0.001643 -0.004534 0.016721 0.000000 -0.003441 0.000000
# 4 0.000000 0.000000 0.000000 0.052569 0.000000 -0.017888
# 5 0.000585 0.001228 -0.003441 0.000000 0.026025 0.000000
# 6 0.000000 0.000000 0.000000 -0.017888 0.000000 -0.033268
#
#
# Mechanical properties :
#
#
# Convention : Reuss Voigt Hill
#
# Bulk Modulus (GPa) = 40.81012 44.97911 42.89461
# Shear Modulus (GPa) = 45.70673 20.86064 33.28369
#
# Velocity S-wave (km/s) = 4.69340 3.17075 4.00510
# Velocity P-wave (km/s) = 7.00277 5.92302 6.48541
#
# Compressibility (1/GPa) = 0.02450373
#
# Stress axis : x y z
#
# Youngs Moduli (GPa) = 134.75112 62.27029 59.80363
#
# Poissons Ratio (x) = 0.10413 0.09826
# Poissons Ratio (y) = 0.22534 0.27112
# Poissons Ratio (z) = 0.22140 0.28231
#
# Static dielectric constant tensor:
#      x y z
#    x 3.857070 0.000000 0.131140 
#    y 0.000000 3.548830 0.000000 
#    z 0.131140 0.000000 3.806440 
# 
# 
# High freq. dielectric constant tensor:
#      x y z
#    x 1.834320 0.000000 0.012560 
#    y 0.000000 1.800410 0.000000 
#    z 0.012560 0.000000 1.808240 
# 
# From -- ./inp_files/8438.got.cif
#   From: 2010.03.12/outbox.cif.g09.slc.cpg/sg3_5_cif.got.tgz:8438.got - 2010.03.31 09:20:49.
