data_PCOD8045930
_publ_section_title
;
Structure prediction by ZEFSAII (Michael W. Deem and Ramdas Pophale) SiO2 
 PCOD8045930
Probable space group: P 21
;
_chemical_formula_sum "Si O2"
_cell_formula_units_Z 14
_cell_length_a 13.329072
_cell_length_b 7.221427
_cell_length_c 7.028780
_cell_angle_alpha 90.000000
_cell_angle_beta 105.524993
_cell_angle_gamma 90.000000
_cell_volume 651.869744
_symmetry_space_group_name_H-M "P 21"
_symmetry_group_IT_number 4
_symmetry_cell_setting 'monoclinic'
loop_
_space_group_symop_operation_xyz
x,y,z
-x,1/2+y,-z
loop_
_atom_site_type_symbol
_atom_site_label
_atom_site_fract_x
_atom_site_fract_y
_atom_site_fract_z
Si Si1 0.169758 0.713120 0.640892
Si Si2 0.857076 0.627667 0.511162
Si Si3 0.380673 0.135268 0.568704
Si Si4 0.980790 0.246683 0.125979
Si Si5 0.988078 0.139296 0.717820
Si Si6 0.399906 0.789875 0.837134
Si Si7 0.466692 0.958573 0.246777
O O1 0.120396 0.587541 0.447174
O O2 0.292342 0.693130 0.723424
O O3 0.117107 0.651818 0.814859
O O4 0.137937 0.913803 0.542974
O O5 0.738085 0.697395 0.452577
O O6 0.909749 0.660816 0.744535
O O7 0.928106 0.732695 0.386564
O O8 0.448452 0.322050 0.615332
O O9 0.419780 0.982394 0.738616
O O10 0.389353 0.038045 0.367127
O O11 0.964775 0.456286 0.173920
O O12 0.969689 0.264336 0.893811
O O13 0.485455 0.637074 0.832836
O O14 0.401126 0.838852 0.061581
#
# Coordination Sequence:
#
# PCOD8045930 Si02
#       7
#     2   2   2   2   2   2   2
#     4   9  21  39  61  86 124 165 203 259 322 376
#     4   9  21  39  61  86 125 163 205 255 326 371
#     4  11  24  43  68  95 131 175 218 280 328 391
#     4  10  20  37  59  92 121 164 205 256 304 392
#     4  10  20  37  60  89 127 162 208 253 314 383
#     4  11  24  43  67  96 133 170 221 279 334 384
#     4  12  24  44  68  98 129 171 228 274 330 395
#
# _framework density 21.476683999999999
#
# number of rings (size 3 to 8) (size 9 to 14) (size 15 to 20)
#    0.000    1.714    2.857    0.857    2.000    6.857 
#    0.000    0.000    0.000    0.000    0.000    0.000 
#    0.000    0.000    0.000    0.000    0.000    0.000 
#
# Total GULP energy -173485.931549 kJ/mol
# GULP energy per Si atom -12391.852253 kJ/mol
# Density = 2.142780 g / cm^3
# Si number density = 21.476684 Si / 1000 Ang^3
#
#
#
# Elastic Constant Matrix: (Units=GPa)
#
#
# Indices 1 2 3 4 5 6 
#
# 1 101.3052 12.5787 56.1490 0.0000 2.0099 0.0000
# 2 12.5787 34.4459 11.6725 0.0000 -1.3566 0.0000
# 3 56.1490 11.6725 150.8186 0.0000 -11.9784 0.0000
# 4 0.0000 0.0000 0.0000 38.2927 0.0000 0.9487
# 5 2.0099 -1.3566 -11.9784 0.0000 25.6729 0.0000
# 6 0.0000 0.0000 0.0000 0.9487 0.0000 26.4915
#
#
#
# Elastic Compliance Matrix: (Units=1/GPa)
#
#
# Indices 1 2 3 4 5 6 
#
# 1 0.013049 -0.003247 -0.004883 0.000000 -0.003471 0.000000
# 2 -0.003247 0.030628 -0.001052 0.000000 0.001382 0.000000
# 3 -0.004883 -0.001052 0.008885 0.000000 0.004472 0.000000
# 4 0.000000 0.000000 0.000000 0.026138 0.000000 -0.000936
# 5 -0.003471 0.001382 0.004472 0.000000 0.041383 0.000000
# 6 0.000000 0.000000 0.000000 -0.000936 0.000000 0.037782
#
#
# Mechanical properties :
#
#
# Convention : Reuss Voigt Hill
#
# Bulk Modulus (GPa) = 29.24097 49.70781 39.47439
# Shear Modulus (GPa) = 26.64855 31.83604 29.24230
#
# Velocity S-wave (km/s) = 3.52634 3.85431 3.69397
# Velocity P-wave (km/s) = 5.49771 6.55766 6.05094
#
# Compressibility (1/GPa) = 0.03419859
#
# Stress axis : x y z
#
# Youngs Moduli (GPa) = 76.63140 32.65012 112.55131
#
# Poissons Ratio (x) = 0.10603 0.54955
# Poissons Ratio (y) = 0.24886 0.11836
# Poissons Ratio (z) = 0.37416 0.03434
#
# Static dielectric constant tensor:
#      x y z
#    x 3.897060 0.000000 -0.470000 
#    y 0.000000 3.791600 0.000000 
#    z -0.470000 0.000000 4.880720 
# 
# 
# High freq. dielectric constant tensor:
#      x y z
#    x 1.827980 0.000000 -0.004620 
#    y 0.000000 1.844610 0.000000 
#    z -0.004620 0.000000 1.851740 
# 
# From -- ./inp_files/2428.got.cif
#   From: 2010.03.12/outbox.cif.g09.slc.cpg/sg4_2_cif.got.tgz:2428.got - 2010.03.31 09:31:35.
