data_PCOD8045215
_publ_section_title
;
Structure prediction by ZEFSAII (Michael W. Deem and Ramdas Pophale) SiO2 
 PCOD8045215
Probable space group: P 2
;
_chemical_formula_sum "Si O2"
_cell_formula_units_Z 15
_cell_length_a 21.473504
_cell_length_b 6.128082
_cell_length_c 26.773776
_cell_angle_alpha 90.000000
_cell_angle_beta 11.424367
_cell_angle_gamma 90.000000
_cell_volume 697.854780
_symmetry_space_group_name_H-M "P 2"
_symmetry_group_IT_number 3
_symmetry_cell_setting 'monoclinic'
loop_
_space_group_symop_operation_xyz
x,y,z
-x,y,-z
loop_
_atom_site_type_symbol
_atom_site_label
_atom_site_fract_x
_atom_site_fract_y
_atom_site_fract_z
Si Si1 0.846713 0.713610 0.941592
Si Si2 0.266502 0.412956 0.401578
Si Si3 0.393510 0.083869 0.806214
Si Si4 0.223426 0.347271 0.139950
Si Si5 0.804083 0.325189 0.294722
Si Si6 0.802904 0.637029 0.699702
Si Si7 0.879623 0.078030 0.334746
Si Si8 0.500000 0.002694 0.000000
O O1 0.140422 0.566483 0.727442
O O2 0.538488 0.575603 0.170804
O O3 0.951516 0.847209 0.809787
O O4 0.757953 0.856426 0.059508
O O5 0.405865 0.170900 0.303093
O O6 0.088611 0.470122 0.593826
O O7 0.993426 0.432419 0.574551
O O8 0.597063 0.052417 0.596306
O O9 0.107514 0.255293 0.022814
O O10 0.144624 0.244396 0.147835
O O11 0.319941 0.150688 0.101381
O O12 0.485006 0.531416 0.928646
O O13 0.500000 0.320698 0.500000
O O14 0.748582 0.164109 0.385141
O O15 0.000000 0.739569 0.500000
O O16 0.752229 0.839452 0.776497
#
# Coordination Sequence:
#
# PCOD8045215 Si02
#       8
#     2   2   2   2   2   2   2   1
#     4  10  23  39  67  98 126 168 215 265 318 383
#     4  10  21  42  60  88 133 169 213 270 323 371
#     4   9  22  42  67  95 128 173 206 263 320 382
#     4  11  24  45  62  88 135 174 216 276 325 372
#     4  10  23  45  67  95 134 164 205 266 326 389
#     4  12  27  40  63  91 127 176 225 273 320 379
#     4  10  24  42  69  95 128 170 221 259 322 390
#     4  12  24  46  58  94 128 178 218 278 322 362
#
# _framework density 21.494441999999999
#
# number of rings (size 3 to 8) (size 9 to 14) (size 15 to 20)
#    0.000    1.600    2.667    0.000   11.200    6.400 
#    0.000    0.000    0.000    0.000    0.000    0.000 
#    0.000    0.000    0.000    0.000    0.000    0.000 
#
# Total GULP energy -185919.422005 kJ/mol
# GULP energy per Si atom -12394.628134 kJ/mol
# Density = 2.144552 g / cm^3
# Si number density = 21.494442 Si / 1000 Ang^3
#
#
#
# Elastic Constant Matrix: (Units=GPa)
#
#
# Indices 1 2 3 4 5 6 
#
# 1 94.2375 20.2410 46.8842 0.0000 13.9113 0.0000
# 2 20.2410 61.8981 28.5693 0.0000 23.0629 0.0000
# 3 46.8842 28.5693 107.8797 0.0000 19.3888 0.0000
# 4 0.0000 0.0000 0.0000 26.7790 0.0000 7.3089
# 5 13.9113 23.0629 19.3888 0.0000 45.8432 0.0000
# 6 0.0000 0.0000 0.0000 7.3089 0.0000 30.8680
#
#
#
# Elastic Compliance Matrix: (Units=1/GPa)
#
#
# Indices 1 2 3 4 5 6 
#
# 1 0.013792 -0.001624 -0.005367 0.000000 -0.001099 0.000000
# 2 -0.001624 0.021584 -0.003406 0.000000 -0.008925 0.000000
# 3 -0.005367 -0.003406 0.012883 0.000000 -0.002106 0.000000
# 4 0.000000 0.000000 0.000000 0.039923 0.000000 -0.009453
# 5 -0.001099 -0.008925 -0.002106 0.000000 0.027528 0.000000
# 6 0.000000 0.000000 0.000000 -0.009453 0.000000 0.034634
#
#
# Mechanical properties :
#
#
# Convention : Reuss Voigt Hill
#
# Bulk Modulus (GPa) = 36.40893 50.60047 43.50470
# Shear Modulus (GPa) = 27.73267 31.91945 29.82606
#
# Velocity S-wave (km/s) = 3.59587 3.85776 3.72911
# Velocity P-wave (km/s) = 5.84943 6.59055 6.23102
#
# Compressibility (1/GPa) = 0.02746579
#
# Stress axis : x y z
#
# Youngs Moduli (GPa) = 72.50370 46.33003 77.62447
#
# Poissons Ratio (x) = 0.07523 0.41658
# Poissons Ratio (y) = 0.11773 0.26441
# Poissons Ratio (z) = 0.38910 0.15781
#
# Static dielectric constant tensor:
#      x y z
#    x 3.672870 0.000000 0.189950 
#    y 0.000000 3.949150 0.000000 
#    z 0.189950 0.000000 4.077610 
# 
# 
# High freq. dielectric constant tensor:
#      x y z
#    x 1.825500 0.000000 0.018010 
#    y 0.000000 1.842290 0.000000 
#    z 0.018010 0.000000 1.853490 
# 
# From -- ./inp_files/16641.got.cif
#   From: 2010.03.12/outbox.cif.g09.slc.cpg/sg3_9_cif.got.tgz:16641.got - 2010.03.31 09:20:49.
