data_PCOD8045088
_publ_section_title
;
Structure prediction by ZEFSAII (Michael W. Deem and Ramdas Pophale) SiO2 
 PCOD8045088
Probable space group: P 2
;
_chemical_formula_sum "Si O2"
_cell_formula_units_Z 14
_cell_length_a 6.405166
_cell_length_b 6.131249
_cell_length_c 16.968981
_cell_angle_alpha 90.000000
_cell_angle_beta 108.062442
_cell_angle_gamma 90.000000
_cell_volume 633.559434
_symmetry_space_group_name_H-M "P 2"
_symmetry_group_IT_number 3
_symmetry_cell_setting 'monoclinic'
loop_
_space_group_symop_operation_xyz
x,y,z
-x,y,-z
loop_
_atom_site_type_symbol
_atom_site_label
_atom_site_fract_x
_atom_site_fract_y
_atom_site_fract_z
Si Si1 0.098200 0.254290 0.861182
Si Si2 0.500000 0.380040 0.000000
Si Si3 0.002291 0.501959 0.300671
Si Si4 0.222782 0.480305 0.568156
Si Si5 0.814001 0.589275 0.920650
Si Si6 0.618107 0.163210 0.633266
Si Si7 0.816316 0.881184 0.778152
Si Si8 0.500000 0.819143 0.500000
O O1 0.319119 0.229148 0.937487
O O2 0.136225 0.393839 0.786228
O O3 0.911155 0.371932 0.891410
O O4 0.032057 0.010229 0.831257
O O5 0.600542 0.535107 0.945521
O O6 0.190562 0.340734 0.356256
O O7 0.120674 0.719362 0.284888
O O8 0.833524 0.563569 0.350390
O O9 0.381345 0.272184 0.594170
O O10 0.336110 0.673601 0.532831
O O11 0.000000 0.403137 0.500000
O O12 0.727021 0.756321 0.844216
O O13 0.000000 0.692957 0.000000
O O14 0.638492 0.053682 0.722858
O O15 0.648652 0.972679 0.572742
#
# Coordination Sequence:
#
# PCOD8045088 Si02
#       8
#     2   1   2   2   2   2   2   1
#     4   9  21  39  63  94 129 165 208 262 313 366
#     4  10  20  40  66  92 128 170 210 258 312 366
#     4  10  23  45  66  91 127 166 209 259 313 370
#     4  12  25  43  66  94 129 164 205 258 315 374
#     4   9  20  40  62  92 132 166 207 265 314 362
#     4  11  24  44  66  93 127 165 209 258 313 372
#     4  10  21  43  68  91 126 168 209 258 313 369
#     4  12  26  42  66  96 124 164 210 256 312 374
#
# _framework density 22.097377000000002
#
# number of rings (size 3 to 8) (size 9 to 14) (size 15 to 20)
#    0.000    1.714    0.000    3.857    0.000   10.286 
#    0.000   20.000    0.000    0.000    0.000    0.000 
#    0.000    0.000    0.000    0.000    0.000    0.000 
#
# Total GULP energy -173608.779892 kJ/mol
# GULP energy per Si atom -12400.627135 kJ/mol
# Density = 2.204708 g / cm^3
# Si number density = 22.097377 Si / 1000 Ang^3
#
#
#
# Elastic Constant Matrix: (Units=GPa)
#
#
# Indices 1 2 3 4 5 6 
#
# 1 113.9921 63.5057 77.6657 0.0000 -7.5701 0.0000
# 2 63.5057 127.4995 73.2592 0.0000 6.7427 0.0000
# 3 77.6657 73.2592 151.6875 0.0000 -6.7380 0.0000
# 4 0.0000 0.0000 0.0000 38.9704 0.0000 11.6496
# 5 -7.5701 6.7427 -6.7380 0.0000 50.5643 0.0000
# 6 0.0000 0.0000 0.0000 11.6496 0.0000 13.0469
#
#
#
# Elastic Compliance Matrix: (Units=1/GPa)
#
#
# Indices 1 2 3 4 5 6 
#
# 1 0.015172 -0.004514 -0.005493 0.000000 0.002141 0.000000
# 2 -0.004514 0.012438 -0.003822 0.000000 -0.002844 0.000000
# 3 -0.005493 -0.003822 0.011304 0.000000 0.001194 0.000000
# 4 0.000000 0.000000 0.000000 0.035004 0.000000 -0.031255
# 5 0.002141 -0.002844 0.001194 0.000000 0.020636 0.000000
# 6 0.000000 0.000000 0.000000 -0.031255 0.000000 0.104554
#
#
# Mechanical properties :
#
#
# Convention : Reuss Voigt Hill
#
# Bulk Modulus (GPa) = 88.84452 91.33780 90.09116
# Shear Modulus (GPa) = 21.69033 32.43290 27.06162
#
# Velocity S-wave (km/s) = 3.13642 3.83525 3.50330
# Velocity P-wave (km/s) = 7.30817 7.81256 7.56457
#
# Compressibility (1/GPa) = 0.01125562
#
# Stress axis : x y z
#
# Youngs Moduli (GPa) = 65.91049 80.39802 88.46415
#
# Poissons Ratio (x) = 0.36292 0.48594
# Poissons Ratio (y) = 0.29752 0.33813
# Poissons Ratio (z) = 0.36205 0.30730
#
# Static dielectric constant tensor:
#      x y z
#    x 3.712730 0.000000 0.017210 
#    y 0.000000 3.915540 0.000000 
#    z 0.017210 0.000000 4.476970 
# 
# 
# High freq. dielectric constant tensor:
#      x y z
#    x 1.845270 0.000000 0.003310 
#    y 0.000000 1.863640 0.000000 
#    z 0.003310 0.000000 1.903270 
# 
# From -- ./inp_files/14594.got.cif
#   From: 2010.03.12/outbox.cif.g09.slc.cpg/sg3_8_cif.got.tgz:14594.got - 2010.03.31 09:20:49.
