data_PCOD8045491
_publ_section_title
;
Structure prediction by ZEFSAII (Michael W. Deem and Ramdas Pophale) SiO2 
 PCOD8045491
Probable space group: P 2
;
_chemical_formula_sum "Si O2"
_cell_formula_units_Z 10
_cell_length_a 8.065152
_cell_length_b 11.402144
_cell_length_c 7.359200
_cell_angle_alpha 90.000000
_cell_angle_beta 34.819372
_cell_angle_gamma 90.000000
_cell_volume 386.419537
_symmetry_space_group_name_H-M "P 2"
_symmetry_group_IT_number 3
_symmetry_cell_setting 'monoclinic'
loop_
_space_group_symop_operation_xyz
x,y,z
-x,y,-z
loop_
_atom_site_type_symbol
_atom_site_label
_atom_site_fract_x
_atom_site_fract_y
_atom_site_fract_z
Si Si1 0.829171 0.481160 0.842624
Si Si2 0.778632 0.098182 0.357648
Si Si3 0.297500 0.705281 0.830879
Si Si4 0.717673 0.886700 0.656049
Si Si5 0.661281 0.346030 0.540551
O O1 0.000000 0.467406 0.500000
O O2 0.053048 0.418283 0.775417
O O3 0.784522 0.616763 0.934180
O O4 0.521183 0.412818 0.135990
O O5 0.500000 0.055555 0.500000
O O6 0.738154 0.211672 0.526821
O O7 0.868089 0.988987 0.403370
O O8 0.000000 0.130208 0.000000
O O9 0.500000 0.638283 0.500000
O O10 0.514301 0.802942 0.716244
O O11 0.000000 0.754038 0.000000
O O12 0.000000 0.823359 0.500000
O O13 0.500000 0.941464 0.000000
O O14 0.500000 0.332460 0.500000
#
# Coordination Sequence:
#
# PCOD8045491 Si02
#       5
#     2   2   2   2   2
#     4  12  26  45  71 108 148 185 238 307 374 432
#     4  11  24  46  74 105 144 193 248 298 357 440
#     4  12  27  49  76 103 144 200 255 300 359 445
#     4  12  28  48  72 107 150 191 245 312 374 430
#     4  11  23  44  73 105 143 191 242 295 361 441
#
# _framework density 25.878609000000001
#
# number of rings (size 3 to 8) (size 9 to 14) (size 15 to 20)
#    0.000    0.400    0.000    9.600    0.000    8.000 
#    0.000    2.000    0.000    0.000    0.000    0.000 
#    0.000    0.000    0.000    0.000    0.000    0.000 
#
# Total GULP energy -123882.043362 kJ/mol
# GULP energy per Si atom -12388.204336 kJ/mol
# Density = 2.581971 g / cm^3
# Si number density = 25.878609 Si / 1000 Ang^3
#
#
#
# Elastic Constant Matrix: (Units=GPa)
#
#
# Indices 1 2 3 4 5 6 
#
# 1 88.9326 45.4059 49.0348 0.0000 -27.8646 0.0000
# 2 45.4059 130.9144 30.9574 0.0000 -8.5258 0.0000
# 3 49.0348 30.9574 147.2887 0.0000 -11.5767 0.0000
# 4 0.0000 0.0000 0.0000 34.8437 0.0000 0.4700
# 5 -27.8646 -8.5258 -11.5767 0.0000 61.0629 0.0000
# 6 0.0000 0.0000 0.0000 0.4700 0.0000 12.9184
#
#
#
# Elastic Compliance Matrix: (Units=1/GPa)
#
#
# Indices 1 2 3 4 5 6 
#
# 1 0.018381 -0.004851 -0.004562 0.000000 0.006846 0.000000
# 2 -0.004851 0.009358 -0.000430 0.000000 -0.000988 0.000000
# 3 -0.004562 -0.000430 0.008355 0.000000 -0.000558 0.000000
# 4 0.000000 0.000000 0.000000 0.028714 0.000000 -0.001045
# 5 0.006846 -0.000988 -0.000558 0.000000 0.019257 0.000000
# 6 0.000000 0.000000 0.000000 -0.001045 0.000000 0.077447
#
#
# Mechanical properties :
#
#
# Convention : Reuss Voigt Hill
#
# Bulk Modulus (GPa) = 60.94027 68.65910 64.79969
# Shear Modulus (GPa) = 26.78587 37.88085 32.33336
#
# Velocity S-wave (km/s) = 3.22072 3.83010 3.53855
# Velocity P-wave (km/s) = 6.11804 6.79326 6.46447
#
# Compressibility (1/GPa) = 0.01640951
#
# Stress axis : x y z
#
# Youngs Moduli (GPa) = 54.40326 106.85767 119.69495
#
# Poissons Ratio (x) = 0.51834 0.54603
# Poissons Ratio (y) = 0.26390 0.05144
# Poissons Ratio (z) = 0.24818 0.04592
#
# Static dielectric constant tensor:
#      x y z
#    x 4.900660 0.000000 -0.175890 
#    y 0.000000 5.959290 0.000000 
#    z -0.175890 0.000000 5.321780 
# 
# 
# High freq. dielectric constant tensor:
#      x y z
#    x 2.046300 0.000000 -0.008130 
#    y 0.000000 2.019300 0.000000 
#    z -0.008130 0.000000 2.065690 
# 
# From -- ./inp_files/5686.got.cif
#   From: 2010.03.12/outbox.cif.g09.slc.cpg/sg3_3_cif.got.tgz:5686.got - 2010.03.31 09:20:49.
