data_PCOD8045819
_publ_section_title
;
Structure prediction by ZEFSAII (Michael W. Deem and Ramdas Pophale) SiO2 
 PCOD8045819
Probable space group: P 21
;
_chemical_formula_sum "Si O2"
_cell_formula_units_Z 16
_cell_length_a 8.276526
_cell_length_b 12.684661
_cell_length_c 9.550652
_cell_angle_alpha 90.000000
_cell_angle_beta 56.509109
_cell_angle_gamma 90.000000
_cell_volume 836.204021
_symmetry_space_group_name_H-M "P 21"
_symmetry_group_IT_number 4
_symmetry_cell_setting 'monoclinic'
loop_
_space_group_symop_operation_xyz
x,y,z
-x,1/2+y,-z
loop_
_atom_site_type_symbol
_atom_site_label
_atom_site_fract_x
_atom_site_fract_y
_atom_site_fract_z
Si Si1 0.780018 0.438750 0.057414
Si Si2 0.421166 0.092714 0.044734
Si Si3 0.423865 0.020013 0.349255
Si Si4 0.149144 0.565529 0.824999
Si Si5 0.870488 0.426596 0.335040
Si Si6 0.801608 0.209474 0.934172
Si Si7 0.959948 0.705703 0.702430
Si Si8 0.078755 0.142307 0.588384
O O1 0.775953 0.440593 0.227067
O O2 0.618447 0.519182 0.072056
O O3 0.734184 0.322175 0.023566
O O4 0.992467 0.472489 0.902978
O O5 0.253093 0.179807 0.138702
O O6 0.414254 0.018404 0.185606
O O7 0.623706 0.155044 0.935022
O O8 0.309897 0.919123 0.467964
O O9 0.642439 0.013485 0.295538
O O10 0.314216 0.126995 0.462763
O O11 0.121173 0.639781 0.705895
O O12 0.133721 0.635678 0.970321
O O13 0.000907 0.527814 0.319108
O O14 0.011333 0.328320 0.279798
O O15 0.990527 0.224329 0.743261
O O16 0.999906 0.678073 0.523056
#
# Coordination Sequence:
#
# PCOD8045819 Si02
#       8
#     2   2   2   2   2   2   2   2
#     4  11  22  38  62  90 118 162 203 246 304 361
#     4   9  22  39  59  84 125 155 200 250 298 354
#     4   8  19  39  55  80 118 158 186 250 294 351
#     4  10  19  39  61  85 125 151 197 255 300 350
#     4  10  20  38  60  84 118 155 200 241 304 356
#     4  11  21  39  60  91 120 160 200 253 301 356
#     4  10  20  37  61  85 114 162 193 248 303 355
#     4   9  21  37  56  83 122 149 199 249 288 363
#
# _framework density 19.134087999999998
#
# number of rings (size 3 to 8) (size 9 to 14) (size 15 to 20)
#    0.750    1.500    2.500    0.000    1.750    2.000 
#    2.250    0.000    0.000    0.000    0.000    0.000 
#    0.000    0.000    0.000    0.000    0.000    0.000 
#
# Total GULP energy -198241.234225 kJ/mol
# GULP energy per Si atom -12390.077139 kJ/mol
# Density = 1.909054 g / cm^3
# Si number density = 19.134088 Si / 1000 Ang^3
#
#
#
# Elastic Constant Matrix: (Units=GPa)
#
#
# Indices 1 2 3 4 5 6 
#
# 1 81.4233 23.2028 19.3023 0.0000 0.4050 0.0000
# 2 23.2028 73.0903 14.9157 0.0000 10.4168 0.0000
# 3 19.3023 14.9157 70.3882 0.0000 12.1255 0.0000
# 4 0.0000 0.0000 0.0000 22.2681 0.0000 2.6482
# 5 0.4050 10.4168 12.1255 0.0000 25.4331 0.0000
# 6 0.0000 0.0000 0.0000 2.6482 0.0000 21.2542
#
#
#
# Elastic Compliance Matrix: (Units=1/GPa)
#
#
# Indices 1 2 3 4 5 6 
#
# 1 0.014334 -0.004280 -0.003580 0.000000 0.003232 0.000000
# 2 -0.004280 0.016139 -0.001219 0.000000 -0.005961 0.000000
# 3 -0.003580 -0.001219 0.016725 0.000000 -0.007417 0.000000
# 4 0.000000 0.000000 0.000000 0.045583 0.000000 -0.005679
# 5 0.003232 -0.005961 -0.007417 0.000000 0.045245 0.000000
# 6 0.000000 0.000000 0.000000 -0.005679 0.000000 0.047757
#
#
# Mechanical properties :
#
#
# Convention : Reuss Voigt Hill
#
# Bulk Modulus (GPa) = 34.43824 37.74929 36.09376
# Shear Modulus (GPa) = 23.40582 24.95647 24.18115
#
# Velocity S-wave (km/s) = 3.50130 3.61542 3.55882
# Velocity P-wave (km/s) = 5.86369 6.09918 5.98259
#
# Compressibility (1/GPa) = 0.02903749
#
# Stress axis : x y z
#
# Youngs Moduli (GPa) = 69.76446 61.96226 59.79101
#
# Poissons Ratio (x) = 0.26522 0.21408
# Poissons Ratio (y) = 0.29861 0.07291
# Poissons Ratio (z) = 0.24979 0.07555
#
# Static dielectric constant tensor:
#      x y z
#    x 3.489420 0.000000 0.117860 
#    y 0.000000 3.311870 0.000000 
#    z 0.117860 0.000000 3.488530 
# 
# 
# High freq. dielectric constant tensor:
#      x y z
#    x 1.740380 0.000000 0.009250 
#    y 0.000000 1.724450 0.000000 
#    z 0.009250 0.000000 1.746360 
# 
# From -- ./inp_files/6237.got.cif
#   From: 2010.03.12/outbox.cif.g09.slc.cpg/sg4_4_cif.got.tgz:6237.got - 2010.03.31 09:31:35.
