data_PCOD8045714
_publ_section_title
;
Structure prediction by ZEFSAII (Michael W. Deem and Ramdas Pophale) SiO2 
 PCOD8045714
Probable space group: P 21
;
_chemical_formula_sum "Si O2"
_cell_formula_units_Z 10
_cell_length_a 8.130220
_cell_length_b 4.998963
_cell_length_c 15.251219
_cell_angle_alpha 90.000000
_cell_angle_beta 125.746809
_cell_angle_gamma 90.000000
_cell_volume 503.074500
_symmetry_space_group_name_H-M "P 21"
_symmetry_group_IT_number 4
_symmetry_cell_setting 'monoclinic'
loop_
_space_group_symop_operation_xyz
x,y,z
-x,1/2+y,-z
loop_
_atom_site_type_symbol
_atom_site_label
_atom_site_fract_x
_atom_site_fract_y
_atom_site_fract_z
Si Si1 0.215264 0.009090 0.757241
Si Si2 0.525860 0.008857 0.205577
Si Si3 0.380469 0.113769 0.982918
Si Si4 0.237469 0.606076 0.397846
Si Si5 0.408926 0.105969 0.363163
O O1 0.376327 0.215553 0.766541
O O2 0.994045 0.052121 0.647829
O O3 0.291768 0.715846 0.755294
O O4 0.197980 0.044017 0.858659
O O5 0.349164 0.041304 0.075853
O O6 0.414833 0.053305 0.262208
O O7 0.430676 0.428006 0.990476
O O8 0.319886 0.399320 0.351265
O O9 0.365113 0.577117 0.527118
O O10 0.257837 0.899809 0.363306
#
# Coordination Sequence:
#
# PCOD8045714 Si02
#       5
#     2   2   2   2   2
#     4  10  19  33  54  76  98 128 168 205 239 290
#     4  10  19  33  54  76  98 128 168 205 239 290
#     4   8  16  30  48  72 100 126 154 200 252 284
#     4  10  21  36  51  71 103 135 161 200 253 294
#     4  10  21  36  51  71 103 135 161 200 253 294
#
# _framework density 19.877773999999999
#
# number of rings (size 3 to 8) (size 9 to 14) (size 15 to 20)
#    0.000    2.400    0.000    2.400    0.000    1.600 
#    0.000    2.000    0.000    0.000    0.000    0.000 
#    0.000    0.000    0.000    0.000    0.000    0.000 
#
# Total GULP energy -123963.235298 kJ/mol
# GULP energy per Si atom -12396.323530 kJ/mol
# Density = 1.983253 g / cm^3
# Si number density = 19.877774 Si / 1000 Ang^3
#
#
#
# Elastic Constant Matrix: (Units=GPa)
#
#
# Indices 1 2 3 4 5 6 
#
# 1 27.3277 -5.4884 6.9354 0.0000 -15.4548 0.0000
# 2 -5.4884 70.6634 4.0571 0.0000 0.1217 0.0000
# 3 6.9354 4.0571 36.6303 0.0000 -19.8686 0.0000
# 4 0.0000 0.0000 0.0000 24.4841 0.0000 -1.8623
# 5 -15.4548 0.1217 -19.8686 0.0000 40.5219 0.0000
# 6 0.0000 0.0000 0.0000 -1.8623 0.0000 15.0255
#
#
#
# Elastic Compliance Matrix: (Units=1/GPa)
#
#
# Indices 1 2 3 4 5 6 
#
# 1 0.047596 0.003632 0.000581 0.000000 0.018427 0.000000
# 2 0.003632 0.014556 -0.002142 0.000000 0.000291 0.000000
# 3 0.000581 -0.002142 0.037533 0.000000 0.018631 0.000000
# 4 0.000000 0.000000 0.000000 0.041232 0.000000 0.005110
# 5 0.018427 0.000291 0.018631 0.000000 0.040840 0.000000
# 6 0.000000 0.000000 0.000000 0.005110 0.000000 0.067187
#
#
# Mechanical properties :
#
#
# Convention : Reuss Voigt Hill
#
# Bulk Modulus (GPa) = 9.63153 16.18107 12.90630
# Shear Modulus (GPa) = 17.89486 24.61411 21.25448
#
# Velocity S-wave (km/s) = 3.00366 3.52273 3.27350
# Velocity P-wave (km/s) = 4.10916 4.97032 4.56012
#
# Compressibility (1/GPa) = 0.10382567
#
# Stress axis : x y z
#
# Youngs Moduli (GPa) = 21.01034 68.69950 26.64357
#
# Poissons Ratio (x) = -0.24949 -0.01548
# Poissons Ratio (y) = -0.07630 0.05707
# Poissons Ratio (z) = -0.01220 0.14714
#
# Static dielectric constant tensor:
#      x y z
#    x 2.960420 0.000000 -0.156380 
#    y 0.000000 3.817080 0.000000 
#    z -0.156380 0.000000 3.893770 
# 
# 
# High freq. dielectric constant tensor:
#      x y z
#    x 1.717810 0.000000 -0.016290 
#    y 0.000000 1.800180 0.000000 
#    z -0.016290 0.000000 1.783310 
# 
# From -- ./inp_files/2271.got.cif
#   From: 2010.03.12/outbox.cif.g09.slc.cpg/sg4_2_cif.got.tgz:2271.got - 2010.03.31 09:31:35.
