data_PCOD8045322
_publ_section_title
;
Structure prediction by ZEFSAII (Michael W. Deem and Ramdas Pophale) SiO2 
 PCOD8045322
Probable space group: P 2
;
_chemical_formula_sum "Si O2"
_cell_formula_units_Z 14
_cell_length_a 9.621601
_cell_length_b 8.856190
_cell_length_c 11.744868
_cell_angle_alpha 90.000000
_cell_angle_beta 37.323164
_cell_angle_gamma 90.000000
_cell_volume 606.788169
_symmetry_space_group_name_H-M "P 2"
_symmetry_group_IT_number 3
_symmetry_cell_setting 'monoclinic'
loop_
_space_group_symop_operation_xyz
x,y,z
-x,y,-z
loop_
_atom_site_type_symbol
_atom_site_label
_atom_site_fract_x
_atom_site_fract_y
_atom_site_fract_z
Si Si1 0.738066 0.431550 0.320213
Si Si2 0.851333 0.554247 0.854324
Si Si3 0.368467 0.675210 0.794256
Si Si4 0.431150 0.011964 0.676485
Si Si5 0.000000 0.211564 0.000000
Si Si6 0.735026 0.085743 0.679191
Si Si7 0.752085 0.753977 0.712299
Si Si8 0.500000 0.313820 0.000000
O O1 0.500000 0.338476 0.500000
O O2 0.625508 0.554068 0.309385
O O3 0.875719 0.512174 0.335493
O O4 0.940112 0.322006 0.143928
O O5 0.757010 0.681712 0.832747
O O6 0.695205 0.408239 0.936413
O O7 0.843562 0.628367 0.986184
O O8 0.354658 0.840134 0.748083
O O9 0.587821 0.661904 0.734766
O O10 0.500000 0.034468 0.500000
O O11 0.652553 0.065210 0.602681
O O12 0.223531 0.108506 0.865736
O O13 0.606533 0.215992 0.829670
O O14 0.000000 0.128842 0.500000
O O15 0.682720 0.927766 0.776549
O O16 0.000000 0.743095 0.500000
#
# Coordination Sequence:
#
# PCOD8045322 Si02
#       8
#     2   2   2   2   1   2   2   1
#     4  12  26  46  71 103 145 192 237 296 360 428
#     4  12  24  45  71 106 139 190 243 298 357 422
#     4  11  23  46  71 104 139 186 248 297 361 418
#     4  11  27  48  76 108 143 191 243 300 359 427
#     4  12  26  46  68 104 146 186 234 290 358 436
#     4  10  26  47  72 106 145 187 238 290 358 429
#     4  10  22  43  69 104 138 186 241 299 350 422
#     4  12  26  44  74 106 146 192 232 292 360 426
#
# _framework density 23.072303999999999
#
# number of rings (size 3 to 8) (size 9 to 14) (size 15 to 20)
#    0.000    0.857    2.857    2.571    6.000    6.286 
#    0.000    0.000    0.000    0.000    0.000    0.000 
#    0.000    0.000    0.000    0.000    0.000    0.000 
#
# Total GULP energy -173488.388729 kJ/mol
# GULP energy per Si atom -12392.027766 kJ/mol
# Density = 2.301979 g / cm^3
# Si number density = 23.072304 Si / 1000 Ang^3
#
#
#
# Elastic Constant Matrix: (Units=GPa)
#
#
# Indices 1 2 3 4 5 6 
#
# 1 130.2920 54.8425 58.2350 0.0000 -6.8502 0.0000
# 2 54.8425 112.4278 54.4190 0.0000 10.9520 0.0000
# 3 58.2350 54.4190 113.3323 0.0000 -9.3490 0.0000
# 4 0.0000 0.0000 0.0000 24.4835 0.0000 -14.3622
# 5 -6.8502 10.9520 -9.3490 0.0000 40.8323 0.0000
# 6 0.0000 0.0000 0.0000 -14.3622 0.0000 20.4474
#
#
#
# Elastic Compliance Matrix: (Units=1/GPa)
#
#
# Indices 1 2 3 4 5 6 
#
# 1 0.011021 -0.003795 -0.003674 0.000000 0.002026 0.000000
# 2 -0.003795 0.013753 -0.005107 0.000000 -0.005495 0.000000
# 3 -0.003674 -0.005107 0.013480 0.000000 0.003840 0.000000
# 4 0.000000 0.000000 0.000000 0.069466 0.000000 0.048792
# 5 0.002026 -0.005495 0.003840 0.000000 0.027183 0.000000
# 6 0.000000 0.000000 0.000000 0.048792 0.000000 0.083178
#
#
# Mechanical properties :
#
#
# Convention : Reuss Voigt Hill
#
# Bulk Modulus (GPa) = 76.31983 76.78278 76.55131
# Shear Modulus (GPa) = 20.19383 29.72302 24.95842
#
# Velocity S-wave (km/s) = 2.96166 3.59312 3.29256
# Velocity P-wave (km/s) = 6.69668 7.11094 6.90692
#
# Compressibility (1/GPa) = 0.01310275
#
# Stress axis : x y z
#
# Youngs Moduli (GPa) = 90.73571 72.71046 74.18259
#
# Poissons Ratio (x) = 0.27596 0.27252
# Poissons Ratio (y) = 0.34437 0.37885
# Poissons Ratio (z) = 0.33332 0.37133
#
# Static dielectric constant tensor:
#      x y z
#    x 4.207510 0.000000 -0.233980 
#    y 0.000000 4.772610 0.000000 
#    z -0.233980 0.000000 4.177440 
# 
# 
# High freq. dielectric constant tensor:
#      x y z
#    x 1.921740 0.000000 -0.014470 
#    y 0.000000 1.925290 0.000000 
#    z -0.014470 0.000000 1.914420 
# 
# From -- ./inp_files/10683.got.cif
#   From: 2010.03.12/outbox.cif.g09.slc.cpg/sg3_6_cif.got.tgz:10683.got - 2010.03.31 09:20:49.
