data_PCOD8045807
_publ_section_title
;
Structure prediction by ZEFSAII (Michael W. Deem and Ramdas Pophale) SiO2 
 PCOD8045807
Probable space group: P 21
;
_chemical_formula_sum "Si O2"
_cell_formula_units_Z 16
_cell_length_a 12.238132
_cell_length_b 14.707497
_cell_length_c 9.085834
_cell_angle_alpha 90.000000
_cell_angle_beta 150.062574
_cell_angle_gamma 90.000000
_cell_volume 816.142794
_symmetry_space_group_name_H-M "P 21"
_symmetry_group_IT_number 4
_symmetry_cell_setting 'monoclinic'
loop_
_space_group_symop_operation_xyz
x,y,z
-x,1/2+y,-z
loop_
_atom_site_type_symbol
_atom_site_label
_atom_site_fract_x
_atom_site_fract_y
_atom_site_fract_z
Si Si1 0.947190 0.995570 0.146403
Si Si2 0.446788 0.739076 0.621049
Si Si3 0.443034 0.562413 0.469241
Si Si4 0.297073 0.578079 0.604230
Si Si5 0.783141 0.411496 0.786726
Si Si6 0.338922 0.995059 0.794611
Si Si7 0.967890 0.435401 0.310608
Si Si8 0.304438 0.372899 0.917540
O O1 0.827200 0.930283 0.118620
O O2 0.021616 0.935020 0.095371
O O3 0.154441 0.040712 0.473454
O O4 0.773568 0.070177 0.886912
O O5 0.534854 0.665355 0.603074
O O6 0.276085 0.684429 0.530431
O O7 0.339648 0.822224 0.411144
O O8 0.647980 0.773838 0.957487
O O9 0.374671 0.521287 0.549505
O O10 0.621457 0.498165 0.602737
O O11 0.070008 0.536091 0.397391
O O12 0.483640 0.569787 0.948254
O O13 0.881051 0.389470 0.060962
O O14 0.231638 0.947829 0.811122
O O15 0.458742 0.916862 0.839965
O O16 0.156642 0.369164 0.597230
#
# Coordination Sequence:
#
# PCOD8045807 Si02
#       8
#     2   2   2   2   2   2   2   2
#     4  11  20  37  65  90 118 166 207 252 307 367
#     4  10  21  40  60  90 133 160 202 260 300 367
#     4  10  21  38  59  89 126 163 202 250 308 361
#     4   9  20  38  58  87 122 161 200 246 303 366
#     4  12  20  40  65  91 125 166 203 256 313 357
#     4  10  19  38  64  83 116 163 201 249 310 359
#     4  10  20  36  65  87 117 163 207 245 309 367
#     4  10  21  39  62  89 121 160 206 252 306 364
#
# _framework density 19.604413999999998
#
# number of rings (size 3 to 8) (size 9 to 14) (size 15 to 20)
#    0.750    1.000    5.000    0.000    0.000    0.000 
#    9.000    0.000    8.250    0.000    0.000    0.000 
#    0.000    0.000    0.000    0.000    0.000    0.000 
#
# Total GULP energy -198243.374252 kJ/mol
# GULP energy per Si atom -12390.210891 kJ/mol
# Density = 1.955979 g / cm^3
# Si number density = 19.604414 Si / 1000 Ang^3
#
#
#
# Elastic Constant Matrix: (Units=GPa)
#
#
# Indices 1 2 3 4 5 6 
#
# 1 99.9624 28.3742 33.3884 0.0000 -0.3428 0.0000
# 2 28.3742 111.3263 46.3538 0.0000 -6.2023 0.0000
# 3 33.3884 46.3538 128.1648 0.0000 -21.6421 0.0000
# 4 0.0000 0.0000 0.0000 18.5561 0.0000 -11.8897
# 5 -0.3428 -6.2023 -21.6421 0.0000 35.7939 0.0000
# 6 0.0000 0.0000 0.0000 -11.8897 0.0000 23.9174
#
#
#
# Elastic Compliance Matrix: (Units=1/GPa)
#
#
# Indices 1 2 3 4 5 6 
#
# 1 0.011406 -0.001935 -0.002572 0.000000 -0.001781 0.000000
# 2 -0.001935 0.010913 -0.003482 0.000000 -0.000233 0.000000
# 3 -0.002572 -0.003482 0.010720 0.000000 0.005854 0.000000
# 4 0.000000 0.000000 0.000000 0.079079 0.000000 0.039311
# 5 -0.001781 -0.000233 0.005854 0.000000 0.031420 0.000000
# 6 0.000000 0.000000 0.000000 0.039311 0.000000 0.061353
#
#
# Mechanical properties :
#
#
# Convention : Reuss Voigt Hill
#
# Bulk Modulus (GPa) = 58.61645 61.74291 60.17968
# Shear Modulus (GPa) = 22.06957 31.07597 26.57277
#
# Velocity S-wave (km/s) = 3.35885 3.98572 3.68564
# Velocity P-wave (km/s) = 6.70873 7.26251 6.99110
#
# Compressibility (1/GPa) = 0.01706006
#
# Stress axis : x y z
#
# Youngs Moduli (GPa) = 87.67186 91.63620 93.28016
#
# Poissons Ratio (x) = 0.17735 0.23994
# Poissons Ratio (y) = 0.16968 0.32480
# Poissons Ratio (z) = 0.22552 0.31908
#
# Static dielectric constant tensor:
#      x y z
#    x 3.670270 0.000000 -0.212220 
#    y 0.000000 3.162890 0.000000 
#    z -0.212220 0.000000 3.998430 
# 
# 
# High freq. dielectric constant tensor:
#      x y z
#    x 1.769540 0.000000 -0.013200 
#    y 0.000000 1.712990 0.000000 
#    z -0.013200 0.000000 1.782820 
# 
# From -- ./inp_files/8534.got.cif
#   From: 2010.03.12/outbox.cif.g09.slc.cpg/sg4_5_cif.got.tgz:8534.got - 2010.03.31 09:31:35.
