data_PCOD8045247
_publ_section_title
;
Structure prediction by ZEFSAII (Michael W. Deem and Ramdas Pophale) SiO2 
 PCOD8045247
Probable space group: P 2
;
_chemical_formula_sum "Si O2"
_cell_formula_units_Z 14
_cell_length_a 15.037386
_cell_length_b 6.202731
_cell_length_c 8.839711
_cell_angle_alpha 90.000000
_cell_angle_beta 52.270942
_cell_angle_gamma 90.000000
_cell_volume 652.112065
_symmetry_space_group_name_H-M "P 2"
_symmetry_group_IT_number 3
_symmetry_cell_setting 'monoclinic'
loop_
_space_group_symop_operation_xyz
x,y,z
-x,y,-z
loop_
_atom_site_type_symbol
_atom_site_label
_atom_site_fract_x
_atom_site_fract_y
_atom_site_fract_z
Si Si1 0.590281 0.290730 0.157076
Si Si2 0.017008 0.777698 0.154232
Si Si3 0.016949 0.179952 0.643691
Si Si4 0.500000 0.991181 0.000000
Si Si5 0.586259 0.680622 0.659719
Si Si6 0.182597 0.511459 0.141598
Si Si7 0.817873 0.535856 0.519647
Si Si8 0.500000 0.982816 0.500000
O O1 0.504933 0.490698 0.244266
O O2 0.575537 0.136432 0.316624
O O3 0.714441 0.387069 0.041288
O O4 0.579768 0.146932 0.016394
O O5 0.142264 0.708023 0.076710
O O6 0.916312 0.689897 0.361481
O O7 0.008395 0.033942 0.184979
O O8 0.000000 0.708031 0.000000
O O9 0.141027 0.286406 0.532504
O O10 0.000000 0.054957 0.500000
O O11 0.927564 0.368936 0.732238
O O12 0.574733 0.837981 0.815941
O O13 0.707585 0.567356 0.532521
O O14 0.578763 0.827294 0.517882
O O15 0.215537 0.596932 0.273411
#
# Coordination Sequence:
#
# PCOD8045247 Si02
#       8
#     2   2   2   1   2   2   2   1
#     4  11  23  42  65  94 132 170 216 272 325 386
#     4  11  24  39  60  91 126 163 203 254 320 389
#     4   9  20  39  62  88 120 160 208 260 314 375
#     4  10  22  38  64 102 126 164 224 268 328 390
#     4  11  23  42  65  93 131 170 215 272 326 385
#     4  10  22  41  65  90 119 161 210 262 315 372
#     4  10  22  41  65  90 119 161 211 262 315 372
#     4  10  26  42  60  94 132 178 218 256 330 400
#
# _framework density 21.468703999999999
#
# number of rings (size 3 to 8) (size 9 to 14) (size 15 to 20)
#    0.000    1.714    0.000    4.714    0.000   13.714 
#    0.000    0.000    0.000    0.000    0.000    0.000 
#    0.000    0.000    0.000    0.000    0.000    0.000 
#
# Total GULP energy -173577.838791 kJ/mol
# GULP energy per Si atom -12398.417057 kJ/mol
# Density = 2.141984 g / cm^3
# Si number density = 21.468704 Si / 1000 Ang^3
#
#
#
# Elastic Constant Matrix: (Units=GPa)
#
#
# Indices 1 2 3 4 5 6 
#
# 1 136.3610 62.3858 72.8223 0.0000 -2.3809 0.0000
# 2 62.3858 109.4935 49.2208 0.0000 9.7315 0.0000
# 3 72.8223 49.2208 93.6465 0.0000 6.2120 0.0000
# 4 0.0000 0.0000 0.0000 28.1999 0.0000 -0.6578
# 5 -2.3809 9.7315 6.2120 0.0000 38.7641 0.0000
# 6 0.0000 0.0000 0.0000 -0.6578 0.0000 30.6557
#
#
#
# Elastic Compliance Matrix: (Units=1/GPa)
#
#
# Indices 1 2 3 4 5 6 
#
# 1 0.014163 -0.004346 -0.008955 0.000000 0.003396 0.000000
# 2 -0.004346 0.013450 -0.003485 0.000000 -0.003085 0.000000
# 3 -0.008955 -0.003485 0.019661 0.000000 -0.002826 0.000000
# 4 0.000000 0.000000 0.000000 0.035479 0.000000 0.000761
# 5 0.003396 -0.003085 -0.002826 0.000000 0.027233 0.000000
# 6 0.000000 0.000000 0.000000 0.000761 0.000000 0.032637
#
#
# Mechanical properties :
#
#
# Convention : Reuss Voigt Hill
#
# Bulk Modulus (GPa) = 72.97867 78.70653 75.84260
# Shear Modulus (GPa) = 27.66058 29.86208 28.76133
#
# Velocity S-wave (km/s) = 3.59334 3.73360 3.66414
# Velocity P-wave (km/s) = 7.16121 7.43821 7.30103
#
# Compressibility (1/GPa) = 0.01370263
#
# Stress axis : x y z
#
# Youngs Moduli (GPa) = 70.60458 74.34882 50.86182
#
# Poissons Ratio (x) = 0.32314 0.45546
# Poissons Ratio (y) = 0.30686 0.17725
# Poissons Ratio (z) = 0.63225 0.25911
#
# Static dielectric constant tensor:
#      x y z
#    x 4.047150 0.000000 0.174810 
#    y 0.000000 4.042520 0.000000 
#    z 0.174810 0.000000 3.898640 
# 
# 
# High freq. dielectric constant tensor:
#      x y z
#    x 1.843330 0.000000 0.005670 
#    y 0.000000 1.849860 0.000000 
#    z 0.005670 0.000000 1.836310 
# 
# From -- ./inp_files/6677.got.cif
#   From: 2010.03.12/outbox.cif.g09.slc.cpg/sg3_4_cif.got.tgz:6677.got - 2010.03.31 09:20:49.
