data_PCOD8045019
_publ_section_title
;
Structure prediction by ZEFSAII (Michael W. Deem and Ramdas Pophale) SiO2 
 PCOD8045019
Probable space group: P 2
;
_chemical_formula_sum "Si O2"
_cell_formula_units_Z 16
_cell_length_a 10.321731
_cell_length_b 8.867385
_cell_length_c 8.758278
_cell_angle_alpha 90.000000
_cell_angle_beta 89.183087
_cell_angle_gamma 90.000000
_cell_volume 801.535355
_symmetry_space_group_name_H-M "P 2"
_symmetry_group_IT_number 3
_symmetry_cell_setting 'monoclinic'
loop_
_space_group_symop_operation_xyz
x,y,z
-x,y,-z
loop_
_atom_site_type_symbol
_atom_site_label
_atom_site_fract_x
_atom_site_fract_y
_atom_site_fract_z
Si Si1 0.242040 0.530020 0.676807
Si Si2 0.999557 0.034033 0.819434
Si Si3 0.248290 0.851593 0.817374
Si Si4 0.249787 0.852192 0.175686
Si Si5 0.496309 0.363846 0.679782
Si Si6 0.501055 0.042758 0.176107
Si Si7 0.996759 0.372562 0.818890
Si Si8 0.248525 0.528560 0.316157
O O1 0.269938 0.701873 0.720168
O O2 0.359761 0.429507 0.742212
O O3 0.109204 0.478467 0.754517
O O4 0.229770 0.512483 0.496570
O O5 0.014182 0.203007 0.753687
O O6 0.864967 0.961889 0.766469
O O7 0.118293 0.932266 0.759357
O O8 0.000000 0.043319 0.000000
O O9 0.366102 0.962959 0.779825
O O10 0.239658 0.813059 0.996802
O O11 0.237450 0.701697 0.272111
O O12 0.384632 0.929980 0.215544
O O13 0.500000 0.376026 0.500000
O O14 0.515004 0.192054 0.725915
O O15 0.613622 0.464284 0.743962
O O16 0.500000 0.090506 0.000000
O O17 0.859534 0.432557 0.766797
O O18 0.000000 0.377008 0.000000
#
# Coordination Sequence:
#
# PCOD8045019 Si02
#       8
#     2   2   2   2   2   2   2   2
#     4  11  23  39  58  85 118 154 195 237 282 344
#     4   9  19  35  56  80 108 141 182 229 282 338
#     4  10  20  36  57  83 112 146 188 236 286 339
#     4  10  20  36  57  83 112 146 188 236 286 339
#     4  10  23  40  58  82 118 158 195 236 286 342
#     4  10  21  36  58  86 114 146 193 242 284 336
#     4  11  22  39  62  86 114 151 190 239 296 344
#     4  11  23  39  58  85 118 154 195 237 282 344
#
# _framework density 19.961690000000001
#
# number of rings (size 3 to 8) (size 9 to 14) (size 15 to 20)
#    0.000    1.750    0.000    4.125    0.000    6.000 
#    0.000    2.500    0.000    0.000    0.000    0.000 
#    0.000    0.000    0.000    0.000    0.000    0.000 
#
# Total GULP energy -198478.700784 kJ/mol
# GULP energy per Si atom -12404.918799 kJ/mol
# Density = 1.991626 g / cm^3
# Si number density = 19.961690 Si / 1000 Ang^3
#
#
#
# Elastic Constant Matrix: (Units=GPa)
#
#
# Indices 1 2 3 4 5 6 
#
# 1 110.2380 20.7595 31.1013 0.0000 5.1917 0.0000
# 2 20.7595 98.9357 22.5429 0.0000 3.2831 0.0000
# 3 31.1013 22.5429 43.9196 0.0000 6.3824 0.0000
# 4 0.0000 0.0000 0.0000 24.5979 0.0000 -8.5940
# 5 5.1917 3.2831 6.3824 0.0000 16.4401 0.0000
# 6 0.0000 0.0000 0.0000 -8.5940 0.0000 31.6441
#
#
#
# Elastic Compliance Matrix: (Units=1/GPa)
#
#
# Indices 1 2 3 4 5 6 
#
# 1 0.011374 -0.000624 -0.007662 0.000000 -0.000492 0.000000
# 2 -0.000624 0.011481 -0.005454 0.000000 0.000022 0.000000
# 3 -0.007662 -0.005454 0.032307 0.000000 -0.009033 0.000000
# 4 0.000000 0.000000 0.000000 0.044916 0.000000 0.012198
# 5 -0.000492 0.000022 -0.009033 0.000000 0.064485 0.000000
# 6 0.000000 0.000000 0.000000 0.012198 0.000000 0.034914
#
#
# Mechanical properties :
#
#
# Convention : Reuss Voigt Hill
#
# Bulk Modulus (GPa) = 36.12647 44.65562 40.39105
# Shear Modulus (GPa) = 21.17000 26.44908 23.80954
#
# Velocity S-wave (km/s) = 3.26011 3.64399 3.45738
# Velocity P-wave (km/s) = 5.68404 6.33436 6.01799
#
# Compressibility (1/GPa) = 0.02768053
#
# Stress axis : x y z
#
# Youngs Moduli (GPa) = 87.92148 87.10415 30.95323
#
# Poissons Ratio (x) = 0.05438 0.23717
# Poissons Ratio (y) = 0.05489 0.16881
# Poissons Ratio (z) = 0.67368 0.47504
#
# Static dielectric constant tensor:
#      x y z
#    x 3.981840 0.000000 0.104120 
#    y 0.000000 3.688220 0.000000 
#    z 0.104120 0.000000 3.487500 
# 
# 
# High freq. dielectric constant tensor:
#      x y z
#    x 1.800870 0.000000 0.003300 
#    y 0.000000 1.793250 0.000000 
#    z 0.003300 0.000000 1.759150 
# 
# From -- ./inp_files/5573.got.cif
#   From: 2010.03.12/outbox.cif.g09.slc.cpg/sg3_3_cif.got.tgz:5573.got - 2010.03.31 09:20:49.
