data_PCOD8045966
_publ_section_title
;
Structure prediction by ZEFSAII (Michael W. Deem and Ramdas Pophale) SiO2 
 PCOD8045966
Probable space group: P 21
;
_chemical_formula_sum "Si O2"
_cell_formula_units_Z 14
_cell_length_a 11.399991
_cell_length_b 8.030680
_cell_length_c 11.119201
_cell_angle_alpha 90.000000
_cell_angle_beta 140.250988
_cell_angle_gamma 90.000000
_cell_volume 650.909377
_symmetry_space_group_name_H-M "P 21"
_symmetry_group_IT_number 4
_symmetry_cell_setting 'monoclinic'
loop_
_space_group_symop_operation_xyz
x,y,z
-x,1/2+y,-z
loop_
_atom_site_type_symbol
_atom_site_label
_atom_site_fract_x
_atom_site_fract_y
_atom_site_fract_z
Si Si1 0.527603 0.683560 0.401894
Si Si2 0.867426 0.374283 0.264730
Si Si3 0.567383 0.448128 0.849094
Si Si4 0.097428 0.316917 0.234661
Si Si5 0.813210 0.136543 0.444934
Si Si6 0.874054 0.547257 0.922223
Si Si7 0.707377 0.340841 0.588573
O O1 0.438870 0.758045 0.209854
O O2 0.698613 0.808828 0.556816
O O3 0.580198 0.489759 0.431534
O O4 0.405698 0.705129 0.424726
O O5 0.824370 0.261194 0.343355
O O6 0.961350 0.260950 0.234717
O O7 0.006051 0.522576 0.410005
O O8 0.675345 0.445942 0.061094
O O9 0.368078 0.524748 0.713754
O O10 0.679305 0.558076 0.838854
O O11 0.065407 0.220784 0.085076
O O12 0.035039 0.501631 0.143726
O O13 0.808158 0.246172 0.560984
O O14 0.855991 0.426235 0.792348
#
# Coordination Sequence:
#
# PCOD8045966 Si02
#       7
#     2   2   2   2   2   2   2
#     4  10  20  39  68  98 132 171 214 274 338 390
#     4  11  28  43  69  95 131 179 226 265 330 384
#     4  10  23  47  65  97 134 168 226 275 324 395
#     4  10  20  38  61  96 135 161 215 273 318 396
#     4  12  26  46  67  91 138 178 219 279 314 397
#     4   9  21  35  65  99 129 169 215 269 339 380
#     4  10  22  38  65  98 131 176 215 267 339 384
#
# _framework density 21.508371
#
# number of rings (size 3 to 8) (size 9 to 14) (size 15 to 20)
#    0.000    1.714    1.429    2.571    8.000    4.571 
#    0.000    1.429    0.000    0.000    0.000    0.000 
#    0.000    0.000    0.000    0.000    0.000    0.000 
#
# Total GULP energy -173497.744718 kJ/mol
# GULP energy per Si atom -12392.696051 kJ/mol
# Density = 2.145942 g / cm^3
# Si number density = 21.508371 Si / 1000 Ang^3
#
#
#
# Elastic Constant Matrix: (Units=GPa)
#
#
# Indices 1 2 3 4 5 6 
#
# 1 105.2656 41.7060 39.4283 0.0000 -26.5887 0.0000
# 2 41.7060 78.9323 30.3631 0.0000 -13.5989 0.0000
# 3 39.4283 30.3631 102.8260 0.0000 -14.4156 0.0000
# 4 0.0000 0.0000 0.0000 27.1145 0.0000 -4.5432
# 5 -26.5887 -13.5989 -14.4156 0.0000 19.8151 0.0000
# 6 0.0000 0.0000 0.0000 -4.5432 0.0000 44.0784
#
#
#
# Elastic Compliance Matrix: (Units=1/GPa)
#
#
# Indices 1 2 3 4 5 6 
#
# 1 0.016760 -0.004896 -0.002560 0.000000 0.017266 0.000000
# 2 -0.004896 0.016800 -0.002659 0.000000 0.003026 0.000000
# 3 -0.002560 -0.002659 0.011976 0.000000 0.003452 0.000000
# 4 0.000000 0.000000 0.000000 0.037529 0.000000 0.003868
# 5 0.017266 0.003026 0.003452 0.000000 0.078223 0.000000
# 6 0.000000 0.000000 0.000000 0.003868 0.000000 0.023086
#
#
# Mechanical properties :
#
#
# Convention : Reuss Voigt Hill
#
# Bulk Modulus (GPa) = 39.51753 56.66873 48.09313
# Shear Modulus (GPa) = 23.46986 29.90337 26.68661
#
# Velocity S-wave (km/s) = 3.30691 3.73274 3.52626
# Velocity P-wave (km/s) = 5.74403 6.70688 6.24404
#
# Compressibility (1/GPa) = 0.02530523
#
# Stress axis : x y z
#
# Youngs Moduli (GPa) = 59.66707 59.52308 83.49949
#
# Poissons Ratio (x) = 0.29142 0.21377
# Poissons Ratio (y) = 0.29212 0.22206
# Poissons Ratio (z) = 0.15276 0.15829
#
# Static dielectric constant tensor:
#      x y z
#    x 3.907550 0.000000 -0.008180 
#    y 0.000000 3.785430 0.000000 
#    z -0.008180 0.000000 3.997160 
# 
# 
# High freq. dielectric constant tensor:
#      x y z
#    x 1.839100 0.000000 -0.000730 
#    y 0.000000 1.831730 0.000000 
#    z -0.000730 0.000000 1.858570 
# 
# From -- ./inp_files/7743.got.cif
#   From: 2010.03.12/outbox.cif.g09.slc.cpg/sg4_4_cif.got.tgz:7743.got - 2010.03.31 09:31:35.
