data_PCOD8045493
_publ_section_title
;
Structure prediction by ZEFSAII (Michael W. Deem and Ramdas Pophale) SiO2 
 PCOD8045493
Probable space group: P 2
;
_chemical_formula_sum "Si O2"
_cell_formula_units_Z 16
_cell_length_a 17.145356
_cell_length_b 9.607254
_cell_length_c 9.141684
_cell_angle_alpha 90.000000
_cell_angle_beta 150.315914
_cell_angle_gamma 90.000000
_cell_volume 745.706396
_symmetry_space_group_name_H-M "P 2"
_symmetry_group_IT_number 3
_symmetry_cell_setting 'monoclinic'
loop_
_space_group_symop_operation_xyz
x,y,z
-x,y,-z
loop_
_atom_site_type_symbol
_atom_site_label
_atom_site_fract_x
_atom_site_fract_y
_atom_site_fract_z
Si Si1 0.698291 0.444490 0.180735
Si Si2 0.654502 0.474232 0.436941
Si Si3 0.066718 0.690988 0.455828
Si Si4 0.351934 0.235228 0.354932
Si Si5 0.372061 0.974234 0.589622
Si Si6 0.151067 0.735229 0.154060
Si Si7 0.284158 0.944487 0.766606
Si Si8 0.177607 0.190987 0.788502
O O1 0.697285 0.406271 0.350600
O O2 0.843135 0.545294 0.379528
O O3 0.713225 0.302733 0.114649
O O4 0.531380 0.510708 0.859428
O O5 0.707596 0.369073 0.651542
O O6 0.752272 0.615565 0.606883
O O7 0.188201 0.802733 0.589625
O O8 0.000000 0.742896 0.500000
O O9 0.911209 0.678193 0.102010
O O10 0.500000 0.280800 0.500000
O O11 0.397668 0.115567 0.543063
O O12 0.220410 0.178191 0.029616
O O13 0.263648 0.869078 0.319699
O O14 0.296665 0.010707 0.624714
O O15 0.543962 0.906266 0.890648
O O16 0.000000 0.780795 0.000000
O O17 0.193269 0.045293 0.729674
O O18 0.000000 0.242893 0.500000
#
# Coordination Sequence:
#
# PCOD8045493 Si02
#       8
#     2   2   2   2   2   2   2   2
#     4  11  23  46  68 100 133 187 228 264 356 407
#     4  11  24  44  75  96 138 182 227 288 328 417
#     4  12  27  43  67  99 143 176 223 288 343 403
#     4  12  25  45  67 105 138 172 234 281 338 407
#     4  11  24  44  75  96 138 182 227 288 328 417
#     4  12  25  45  67 105 138 172 234 281 338 407
#     4  11  23  46  68 100 133 187 228 264 356 407
#     4  12  27  43  67  99 143 176 223 288 343 403
#
# _framework density 21.456166
#
# number of rings (size 3 to 8) (size 9 to 14) (size 15 to 20)
#    0.000    0.500    5.000    2.250    7.000    4.000 
#    0.000    3.750    0.000    0.000    0.000    0.000 
#    0.000    0.000    0.000    0.000    0.000    0.000 
#
# Total GULP energy -198479.189581 kJ/mol
# GULP energy per Si atom -12404.949349 kJ/mol
# Density = 2.140733 g / cm^3
# Si number density = 21.456166 Si / 1000 Ang^3
#
#
#
# Elastic Constant Matrix: (Units=GPa)
#
#
# Indices 1 2 3 4 5 6 
#
# 1 94.5850 17.2870 30.0261 0.0000 -8.0433 0.0000
# 2 17.2870 83.1893 17.1881 0.0000 0.0481 0.0000
# 3 30.0261 17.1881 119.4512 0.0000 -4.6805 0.0000
# 4 0.0000 0.0000 0.0000 33.3096 0.0000 0.3360
# 5 -8.0433 0.0481 -4.6805 0.0000 38.4162 0.0000
# 6 0.0000 0.0000 0.0000 0.3360 0.0000 33.9713
#
#
#
# Elastic Compliance Matrix: (Units=1/GPa)
#
#
# Indices 1 2 3 4 5 6 
#
# 1 0.011950 -0.001939 -0.002639 0.000000 0.002183 0.000000
# 2 -0.001939 0.012706 -0.001364 0.000000 -0.000588 0.000000
# 3 -0.002639 -0.001364 0.009254 0.000000 0.000577 0.000000
# 4 0.000000 0.000000 0.000000 0.030024 0.000000 -0.000297
# 5 0.002183 -0.000588 0.000577 0.000000 0.026559 0.000000
# 6 0.000000 0.000000 0.000000 -0.000297 0.000000 0.029440
#
#
# Mechanical properties :
#
#
# Convention : Reuss Voigt Hill
#
# Bulk Modulus (GPa) = 45.40241 47.35864 46.38052
# Shear Modulus (GPa) = 35.92997 36.65438 36.29218
#
# Velocity S-wave (km/s) = 4.09660 4.13769 4.11719
# Velocity P-wave (km/s) = 6.60171 6.70429 6.65320
#
# Compressibility (1/GPa) = 0.02202526
#
# Stress axis : x y z
#
# Youngs Moduli (GPa) = 83.67895 78.70366 108.06240
#
# Poissons Ratio (x) = 0.15263 0.28522
# Poissons Ratio (y) = 0.16228 0.14738
# Poissons Ratio (z) = 0.22086 0.10734
#
# Static dielectric constant tensor:
#      x y z
#    x 3.933370 0.000000 -0.142370 
#    y 0.000000 3.636760 0.000000 
#    z -0.142370 0.000000 4.211370 
# 
# 
# High freq. dielectric constant tensor:
#      x y z
#    x 1.849070 0.000000 -0.004570 
#    y 0.000000 1.831850 0.000000 
#    z -0.004570 0.000000 1.858000 
# 
# From -- ./inp_files/9165.got.cif
#   From: 2010.03.12/outbox.cif.g09.slc.cpg/sg3_5_cif.got.tgz:9165.got - 2010.03.31 09:20:49.
