data_PCOD8045438
_publ_section_title
;
Structure prediction by ZEFSAII (Michael W. Deem and Ramdas Pophale) SiO2 
 PCOD8045438
Probable space group: P 2
;
_chemical_formula_sum "Si O2"
_cell_formula_units_Z 12
_cell_length_a 8.909170
_cell_length_b 5.228214
_cell_length_c 17.104800
_cell_angle_alpha 90.000000
_cell_angle_beta 37.351725
_cell_angle_gamma 90.000000
_cell_volume 483.378239
_symmetry_space_group_name_H-M "P 2"
_symmetry_group_IT_number 3
_symmetry_cell_setting 'monoclinic'
loop_
_space_group_symop_operation_xyz
x,y,z
-x,y,-z
loop_
_atom_site_type_symbol
_atom_site_label
_atom_site_fract_x
_atom_site_fract_y
_atom_site_fract_z
Si Si1 0.000000 0.355320 0.500000
Si Si2 0.712059 0.603079 0.850871
Si Si3 0.553426 0.646679 0.617903
Si Si4 0.678202 0.111721 0.761478
Si Si5 0.500000 0.008204 0.500000
Si Si6 0.216604 0.983406 0.854800
Si Si7 0.154719 0.308964 0.734109
O O1 0.195750 0.561809 0.447396
O O2 0.100027 0.170702 0.390481
O O3 0.650862 0.333332 0.836664
O O4 0.968219 0.543300 0.791814
O O5 0.731052 0.838087 0.781933
O O6 0.500000 0.677772 0.000000
O O7 0.595244 0.858457 0.535855
O O8 0.353368 0.736255 0.764737
O O9 0.436596 0.400211 0.627298
O O10 0.422574 0.132498 0.819574
O O11 0.225858 0.134148 0.630403
O O12 0.083070 0.154189 0.842412
O O13 0.000000 0.882016 0.000000
#
# Coordination Sequence:
#
# PCOD8045438 Si02
#       7
#     1   2   2   2   1   2   2
#     4  12  28  54  74 124 158 206 278 330 428 480
#     4  12  30  51  82 117 162 210 274 331 410 479
#     4  11  26  48  76 109 155 211 264 335 399 485
#     4  12  29  51  82 118 160 220 257 354 395 486
#     4  10  26  46  76 112 152 208 274 330 406 482
#     4  11  26  49  78 111 159 213 273 326 410 488
#     4  11  26  47  73 114 151 212 262 332 403 480
#
# _framework density 24.825279999999999
#
# number of rings (size 3 to 8) (size 9 to 14) (size 15 to 20)
#    0.000    0.667    1.667    3.000   11.667    4.667 
#    0.000    0.000    0.000    0.000    0.000    0.000 
#    0.000    0.000    0.000    0.000    0.000    0.000 
#
# Total GULP energy -148705.638526 kJ/mol
# GULP energy per Si atom -12392.136544 kJ/mol
# Density = 2.476878 g / cm^3
# Si number density = 24.825280 Si / 1000 Ang^3
#
#
#
# Elastic Constant Matrix: (Units=GPa)
#
#
# Indices 1 2 3 4 5 6 
#
# 1 120.1950 44.0537 62.1031 0.0000 3.1958 0.0000
# 2 44.0537 124.4351 56.7625 0.0000 5.2787 0.0000
# 3 62.1031 56.7625 189.0827 0.0000 11.6332 0.0000
# 4 0.0000 0.0000 0.0000 138.1407 0.0000 -90.2823
# 5 3.1958 5.2787 11.6332 0.0000 22.3483 0.0000
# 6 0.0000 0.0000 0.0000 -90.2823 0.0000 83.3157
#
#
#
# Elastic Compliance Matrix: (Units=1/GPa)
#
#
# Indices 1 2 3 4 5 6 
#
# 1 0.010668 -0.002533 -0.002775 0.000000 0.000517 0.000000
# 2 -0.002533 0.009926 -0.002093 0.000000 -0.000893 0.000000
# 3 -0.002775 -0.002093 0.006998 0.000000 -0.002751 0.000000
# 4 0.000000 0.000000 0.000000 0.024808 0.000000 0.026883
# 5 0.000517 -0.000893 -0.002751 0.000000 0.046315 0.000000
# 6 0.000000 0.000000 0.000000 0.026883 0.000000 0.041133
#
#
# Mechanical properties :
#
#
# Convention : Reuss Voigt Hill
#
# Bulk Modulus (GPa) = 78.18862 84.39456 81.29159
# Shear Modulus (GPa) = 31.46365 66.81384 49.13875
#
# Velocity S-wave (km/s) = 3.56392 5.19346 4.45385
# Velocity P-wave (km/s) = 6.96415 8.36851 7.69842
#
# Compressibility (1/GPa) = 0.01278959
#
# Stress axis : x y z
#
# Youngs Moduli (GPa) = 93.73452 100.75002 142.90167
#
# Poissons Ratio (x) = 0.25518 0.39662
# Poissons Ratio (y) = 0.23741 0.29907
# Poissons Ratio (z) = 0.26016 0.21085
#
# Static dielectric constant tensor:
#      x y z
#    x 4.937000 0.000000 0.607560 
#    y 0.000000 4.498530 0.000000 
#    z 0.607560 0.000000 4.718430 
# 
# 
# High freq. dielectric constant tensor:
#      x y z
#    x 2.005410 0.000000 0.008410 
#    y 0.000000 1.994160 0.000000 
#    z 0.008410 0.000000 1.999370 
# 
# From -- ./inp_files/13306.got.cif
#   From: 2010.03.12/outbox.cif.g09.slc.cpg/sg3_7_cif.got.tgz:13306.got - 2010.03.31 09:20:49.
