data_PCOD8045410
_publ_section_title
;
Structure prediction by ZEFSAII (Michael W. Deem and Ramdas Pophale) SiO2 
 PCOD8045410
Probable space group: P 2
;
_chemical_formula_sum "Si O2"
_cell_formula_units_Z 11
_cell_length_a 15.758332
_cell_length_b 5.621241
_cell_length_c 15.758073
_cell_angle_alpha 90.000000
_cell_angle_beta 18.236579
_cell_angle_gamma 90.000000
_cell_volume 436.826017
_symmetry_space_group_name_H-M "P 2"
_symmetry_group_IT_number 3
_symmetry_cell_setting 'monoclinic'
loop_
_space_group_symop_operation_xyz
x,y,z
-x,y,-z
loop_
_atom_site_type_symbol
_atom_site_label
_atom_site_fract_x
_atom_site_fract_y
_atom_site_fract_z
Si Si1 0.451774 0.396870 0.451614
Si Si2 0.638163 0.061315 0.138220
Si Si3 0.193734 0.390459 0.171011
Si Si4 0.951525 0.725760 0.951864
Si Si5 0.671076 0.732161 0.693666
Si Si6 0.500000 0.061283 0.000000
O O1 0.500000 0.289619 0.500000
O O2 0.441852 0.184569 0.393596
O O3 0.191206 0.561336 0.691248
O O4 0.694915 0.561290 0.194950
O O5 0.427272 0.879471 0.294939
O O6 0.794909 0.243152 0.927304
O O7 0.893512 0.938063 0.941939
O O8 0.930052 0.561296 0.430011
O O9 0.441636 0.561325 0.941605
O O10 0.253252 0.207433 0.190656
O O11 0.000000 0.833017 0.000000
O O12 0.690717 0.915159 0.753196
#
# Coordination Sequence:
#
# PCOD8045410 Si02
#       6
#     2   2   2   2   2   1
#     4  10  24  45  70 104 144 192 254 311 359 426
#     4  11  26  47  76 106 150 202 242 301 378 431
#     4  11  27  49  75 112 150 188 242 301 362 443
#     4  10  24  45  70 104 144 192 254 311 359 426
#     4  11  27  49  75 112 150 188 242 301 362 443
#     4  10  26  50  84 108 144 198 238 294 372 438
#
# _framework density 25.181647999999999
#
# number of rings (size 3 to 8) (size 9 to 14) (size 15 to 20)
#    0.000    1.455    0.000    1.636    0.000   24.727 
#    0.000    9.091    0.000    0.000    0.000    0.000 
#    0.000    0.000    0.000    0.000    0.000    0.000 
#
# Total GULP energy -136312.845457 kJ/mol
# GULP energy per Si atom -12392.076860 kJ/mol
# Density = 2.512433 g / cm^3
# Si number density = 25.181648 Si / 1000 Ang^3
#
#
#
# Elastic Constant Matrix: (Units=GPa)
#
#
# Indices 1 2 3 4 5 6 
#
# 1 193.0869 101.1866 69.2807 0.0000 13.8645 0.0000
# 2 101.1866 154.4095 79.1500 0.0000 4.0159 0.0000
# 3 69.2807 79.1500 185.3410 0.0000 -12.4715 0.0000
# 4 0.0000 0.0000 0.0000 31.6947 0.0000 2.8063
# 5 13.8645 4.0159 -12.4715 0.0000 28.5721 0.0000
# 6 0.0000 0.0000 0.0000 2.8063 0.0000 46.9009
#
#
#
# Elastic Compliance Matrix: (Units=1/GPa)
#
#
# Indices 1 2 3 4 5 6 
#
# 1 0.008443 -0.004698 -0.001423 0.000000 -0.004058 0.000000
# 2 -0.004698 0.011127 -0.003037 0.000000 -0.000610 0.000000
# 3 -0.001423 -0.003037 0.007520 0.000000 0.004400 0.000000
# 4 0.000000 0.000000 0.000000 0.031719 0.000000 -0.001898
# 5 -0.004058 -0.000610 0.004400 0.000000 0.038974 0.000000
# 6 0.000000 0.000000 0.000000 -0.001898 0.000000 0.021435
#
#
# Mechanical properties :
#
#
# Convention : Reuss Voigt Hill
#
# Bulk Modulus (GPa) = 113.95486 114.67469 114.31478
# Shear Modulus (GPa) = 35.59755 40.31487 37.95621
#
# Velocity S-wave (km/s) = 3.76391 4.00554 3.88660
# Velocity P-wave (km/s) = 8.01503 8.18721 8.10158
#
# Compressibility (1/GPa) = 0.00877540
#
# Stress axis : x y z
#
# Youngs Moduli (GPa) = 118.44529 89.86791 132.97381
#
# Poissons Ratio (x) = 0.42218 0.18918
# Poissons Ratio (y) = 0.55643 0.40384
# Poissons Ratio (z) = 0.16851 0.27293
#
# Static dielectric constant tensor:
#      x y z
#    x 6.005750 0.000000 0.323760 
#    y 0.000000 4.781640 0.000000 
#    z 0.323760 0.000000 4.228210 
# 
# 
# High freq. dielectric constant tensor:
#      x y z
#    x 2.025770 0.000000 0.003100 
#    y 0.000000 2.020120 0.000000 
#    z 0.003100 0.000000 2.008680 
# 
# From -- ./inp_files/12789.got.cif
#   From: 2010.03.12/outbox.cif.g09.slc.cpg/sg3_7_cif.got.tgz:12789.got - 2010.03.31 09:20:49.
