data_PCOD8045152
_publ_section_title
;
Structure prediction by ZEFSAII (Michael W. Deem and Ramdas Pophale) SiO2 
 PCOD8045152
Probable space group: P 2
;
_chemical_formula_sum "Si O2"
_cell_formula_units_Z 16
_cell_length_a 9.913391
_cell_length_b 17.622355
_cell_length_c 8.470261
_cell_angle_alpha 90.000000
_cell_angle_beta 31.269821
_cell_angle_gamma 90.000000
_cell_volume 768.082813
_symmetry_space_group_name_H-M "P 2"
_symmetry_group_IT_number 3
_symmetry_cell_setting 'monoclinic'
loop_
_space_group_symop_operation_xyz
x,y,z
-x,y,-z
loop_
_atom_site_type_symbol
_atom_site_label
_atom_site_fract_x
_atom_site_fract_y
_atom_site_fract_z
Si Si1 0.498226 0.556450 0.684102
Si Si2 0.001210 0.817849 0.314242
Si Si3 0.998180 0.311917 0.187520
Si Si4 0.962533 0.141013 0.223168
Si Si5 0.536861 0.064856 0.146226
Si Si6 0.501457 0.899583 0.683823
Si Si7 0.001646 0.655093 0.815618
Si Si8 0.498508 0.393199 0.818696
O O1 0.500000 0.530748 0.500000
O O2 0.498259 0.482869 0.792742
O O3 0.746820 0.606310 0.477439
O O4 0.246544 0.604969 0.977578
O O5 0.999931 0.727697 0.294850
O O6 0.000000 0.838608 0.500000
O O7 0.752750 0.851724 0.476516
O O8 0.253193 0.850855 0.978251
O O9 0.997811 0.226188 0.254111
O O10 0.748052 0.356947 0.491082
O O11 0.247059 0.356284 0.995758
O O12 0.000000 0.308605 0.000000
O O13 0.670487 0.114435 0.550429
O O14 0.000000 0.135961 0.000000
O O15 0.170707 0.087090 0.099472
O O16 0.493723 0.976968 0.224173
O O17 0.500000 0.080967 0.000000
O O18 0.500000 0.917711 0.500000
O O19 0.000000 0.680932 0.000000
O O20 0.500000 0.374654 0.000000
#
# Coordination Sequence:
#
# PCOD8045152 Si02
#       8
#     2   2   2   2   2   2   2   2
#     4  10  21  38  61  87 121 163 207 250 301 368
#     4  12  25  42  65  96 130 162 203 260 317 366
#     4  11  24  43  66  90 124 168 212 253 304 373
#     4  11  24  43  66  93 124 165 212 255 304 371
#     4  12  25  42  65  95 129 163 203 258 317 368
#     4  12  25  44  67  91 125 169 213 254 301 370
#     4  10  21  38  61  89 120 161 207 250 301 368
#     4  12  25  40  63  95 129 161 205 262 317 366
#
# _framework density 20.831087
#
# number of rings (size 3 to 8) (size 9 to 14) (size 15 to 20)
#    0.000    0.750    0.000    8.250    0.000    8.000 
#    0.000    0.000    0.000    0.000    0.000    0.000 
#    0.000    0.000    0.000    0.000    0.000    0.000 
#
# Total GULP energy -198533.433862 kJ/mol
# GULP energy per Si atom -12408.339616 kJ/mol
# Density = 2.078367 g / cm^3
# Si number density = 20.831087 Si / 1000 Ang^3
#
#
#
# Elastic Constant Matrix: (Units=GPa)
#
#
# Indices 1 2 3 4 5 6 
#
# 1 78.3229 17.6111 25.3658 0.0000 -7.0720 0.0000
# 2 17.6111 125.9838 46.2543 0.0000 -10.5993 0.0000
# 3 25.3658 46.2543 132.8480 0.0000 -31.2876 0.0000
# 4 0.0000 0.0000 0.0000 33.8929 0.0000 -14.9296
# 5 -7.0720 -10.5993 -31.2876 0.0000 35.6517 0.0000
# 6 0.0000 0.0000 0.0000 -14.9296 0.0000 0.6566
#
#
#
# Elastic Compliance Matrix: (Units=1/GPa)
#
#
# Indices 1 2 3 4 5 6 
#
# 1 0.013749 -0.001100 -0.002114 0.000000 0.000545 0.000000
# 2 -0.001100 0.009189 -0.003022 0.000000 -0.000138 0.000000
# 3 -0.002114 -0.003022 0.010932 0.000000 0.008276 0.000000
# 4 0.000000 0.000000 0.000000 -0.003272 0.000000 -0.074410
# 5 0.000545 -0.000138 0.008276 0.000000 0.035379 0.000000
# 6 0.000000 0.000000 0.000000 -0.074410 0.000000 -0.168923
#
#
# Mechanical properties :
#
#
# Convention : Reuss Voigt Hill
#
# Bulk Modulus (GPa) = 46.73149 57.29080 52.01115
# Shear Modulus (GPa) = -59.99426 30.56846 -14.71290
#
# Velocity S-wave (km/s) = -5.37242 3.83488 -2.66050
# Velocity P-wave (km/s) = 4.00020 6.86809 3.94772
#
# Compressibility (1/GPa) = 0.02139884
#
# Stress axis : x y z
#
# Youngs Moduli (GPa) = 72.73358 108.82383 91.47121
#
# Poissons Ratio (x) = 0.11971 0.19335
# Poissons Ratio (y) = 0.08001 0.27642
# Poissons Ratio (z) = 0.15374 0.32886
#
# Static dielectric constant tensor:
#      x y z
#    x 3.688080 0.000000 0.183770 
#    y 0.000000 3.932240 0.000000 
#    z 0.183770 0.000000 3.591450 
# 
# 
# High freq. dielectric constant tensor:
#      x y z
#    x 1.823030 0.000000 -0.005800 
#    y 0.000000 1.832260 0.000000 
#    z -0.005800 0.000000 1.836490 
# 
# From -- ./inp_files/6186.got.cif
#   From: 2010.03.12/outbox.cif.g09.slc.cpg/sg3_4_cif.got.tgz:6186.got - 2010.03.31 09:20:49.
