data_PCOD8045252
_publ_section_title
;
Structure prediction by ZEFSAII (Michael W. Deem and Ramdas Pophale) SiO2 
 PCOD8045252
Probable space group: P 2
;
_chemical_formula_sum "Si O2"
_cell_formula_units_Z 14
_cell_length_a 12.731275
_cell_length_b 8.521536
_cell_length_c 11.569367
_cell_angle_alpha 90.000000
_cell_angle_beta 33.971660
_cell_angle_gamma 90.000000
_cell_volume 701.362251
_symmetry_space_group_name_H-M "P 2"
_symmetry_group_IT_number 3
_symmetry_cell_setting 'monoclinic'
loop_
_space_group_symop_operation_xyz
x,y,z
-x,y,-z
loop_
_atom_site_type_symbol
_atom_site_label
_atom_site_fract_x
_atom_site_fract_y
_atom_site_fract_z
Si Si1 0.167756 0.851620 0.125174
Si Si2 0.632324 0.318975 0.090847
Si Si3 0.206973 0.249208 0.492793
Si Si4 0.060388 0.126275 0.076008
Si Si5 0.086966 0.591121 0.547348
Si Si6 0.289987 0.091843 0.182885
Si Si7 0.508918 0.643183 0.128093
O O1 0.031390 0.701774 0.258591
O O2 0.148132 0.967445 0.253865
O O3 0.385630 0.799184 0.927152
O O4 0.134424 0.951290 0.039092
O O5 0.424295 0.274746 0.323000
O O6 0.633320 0.504924 0.071957
O O7 0.688877 0.245060 0.916425
O O8 0.778898 0.258671 0.053204
O O9 0.119560 0.156962 0.679427
O O10 0.087788 0.409986 0.585999
O O11 0.193610 0.143945 0.389846
O O12 0.000000 0.131007 0.000000
O O13 0.297336 0.656481 0.364846
O O14 0.000000 0.606423 0.500000
O O15 0.500000 0.017383 0.000000
O O16 0.500000 0.614873 0.000000
#
# Coordination Sequence:
#
# PCOD8045252 Si02
#       7
#     2   2   2   2   2   2   2
#     4  11  24  35  57  88 128 161 194 241 308 364
#     4   9  20  39  62  90 120 156 196 250 313 360
#     4  10  22  39  62  90 122 155 204 250 310 361
#     4  11  26  43  62  84 116 167 224 258 285 337
#     4  11  23  34  59  93 126 157 187 234 309 381
#     4   9  19  34  57  90 124 156 189 241 309 382
#     4  11  20  35  58  91 130 156 183 234 306 385
#
# _framework density 19.961154000000001
#
# number of rings (size 3 to 8) (size 9 to 14) (size 15 to 20)
#    0.000    1.714    1.429    3.429    6.000    2.857 
#    0.000    2.857    0.000    1.714    0.000    0.000 
#    0.000    0.000    0.000    0.000    0.000    0.000 
#
# Total GULP energy -173572.685220 kJ/mol
# GULP energy per Si atom -12398.048944 kJ/mol
# Density = 1.991572 g / cm^3
# Si number density = 19.961154 Si / 1000 Ang^3
#
#
#
# Elastic Constant Matrix: (Units=GPa)
#
#
# Indices 1 2 3 4 5 6 
#
# 1 138.9410 49.6972 46.6312 0.0000 6.9806 0.0000
# 2 49.6972 82.3451 44.2376 0.0000 -4.7098 0.0000
# 3 46.6312 44.2376 78.0776 0.0000 1.6511 0.0000
# 4 0.0000 0.0000 0.0000 30.2365 0.0000 -12.2017
# 5 6.9806 -4.7098 1.6511 0.0000 19.9545 0.0000
# 6 0.0000 0.0000 0.0000 -12.2017 0.0000 26.4239
#
#
#
# Elastic Compliance Matrix: (Units=1/GPa)
#
#
# Indices 1 2 3 4 5 6 
#
# 1 0.010195 -0.004573 -0.003406 0.000000 -0.004364 0.000000
# 2 -0.004573 0.020011 -0.008756 0.000000 0.007047 0.000000
# 3 -0.003406 -0.008756 0.019856 0.000000 -0.002518 0.000000
# 4 0.000000 0.000000 0.000000 0.040647 0.000000 0.018769
# 5 -0.004364 0.007047 -0.002518 0.000000 0.053512 0.000000
# 6 0.000000 0.000000 0.000000 0.018769 0.000000 0.046512
#
#
# Mechanical properties :
#
#
# Convention : Reuss Voigt Hill
#
# Bulk Modulus (GPa) = 60.26598 64.49950 62.38274
# Shear Modulus (GPa) = 21.76444 25.90950 23.83697
#
# Velocity S-wave (km/s) = 3.30561 3.60668 3.45942
# Velocity P-wave (km/s) = 6.69527 7.05173 6.87581
#
# Compressibility (1/GPa) = 0.01659311
#
# Stress axis : x y z
#
# Youngs Moduli (GPa) = 98.08430 49.97319 50.36298
#
# Poissons Ratio (x) = 0.22853 0.17152
# Poissons Ratio (y) = 0.44855 0.44096
# Poissons Ratio (z) = 0.33405 0.43754
#
# Static dielectric constant tensor:
#      x y z
#    x 3.456260 0.000000 -0.459060 
#    y 0.000000 3.841130 0.000000 
#    z -0.459060 0.000000 3.663920 
# 
# 
# High freq. dielectric constant tensor:
#      x y z
#    x 1.744030 0.000000 -0.039910 
#    y 0.000000 1.791020 0.000000 
#    z -0.039910 0.000000 1.777780 
# 
# From -- ./inp_files/11663.got.cif
#   From: 2010.03.12/outbox.cif.g09.slc.cpg/sg3_6_cif.got.tgz:11663.got - 2010.03.31 09:20:49.
