data_PCOD8045607
_publ_section_title
;
Structure prediction by ZEFSAII (Michael W. Deem and Ramdas Pophale) SiO2 
 PCOD8045607
Probable space group: P 21
;
_chemical_formula_sum "Si O2"
_cell_formula_units_Z 14
_cell_length_a 25.874500
_cell_length_b 4.943079
_cell_length_c 20.050531
_cell_angle_alpha 90.000000
_cell_angle_beta 163.319064
_cell_angle_gamma 90.000000
_cell_volume 736.106331
_symmetry_space_group_name_H-M "P 21"
_symmetry_group_IT_number 4
_symmetry_cell_setting 'monoclinic'
loop_
_space_group_symop_operation_xyz
x,y,z
-x,1/2+y,-z
loop_
_atom_site_type_symbol
_atom_site_label
_atom_site_fract_x
_atom_site_fract_y
_atom_site_fract_z
Si Si1 0.170495 0.111780 0.580387
Si Si2 0.359516 0.030376 0.949406
Si Si3 0.234740 0.610883 0.571127
Si Si4 0.427430 0.288153 0.376363
Si Si5 0.233956 0.530923 0.871102
Si Si6 0.876968 0.546302 0.070902
Si Si7 0.693744 0.013279 0.897569
O O1 0.193795 0.414062 0.582226
O O2 0.971504 0.081846 0.363622
O O3 0.215450 0.913947 0.574825
O O4 0.315278 0.070918 0.817460
O O5 0.571381 0.069689 0.221844
O O6 0.251004 0.230834 0.863455
O O7 0.301798 0.729024 0.897540
O O8 0.093664 0.548047 0.335991
O O9 0.440938 0.534330 0.445963
O O10 0.469770 0.417412 0.354541
O O11 0.221854 0.166222 0.118487
O O12 0.361027 0.579369 0.094166
O O13 0.828078 0.754777 0.070696
O O14 0.800210 0.253093 0.992779
#
# Coordination Sequence:
#
# PCOD8045607 Si02
#       7
#     2   2   2   2   2   2   2
#     4  12  22  40  60  77 112 159 201 248 291 328
#     4  12  26  36  56  86 116 149 203 250 285 326
#     4  12  22  40  58  82 115 155 198 239 290 345
#     4  10  17  30  53  90 118 127 178 242 280 320
#     4  12  22  40  55  83 116 153 194 241 288 348
#     4  10  18  33  54  82 109 149 176 223 289 333
#     4  10  19  33  56  78 114 146 178 219 295 328
#
# _framework density 19.018992000000001
#
# number of rings (size 3 to 8) (size 9 to 14) (size 15 to 20)
#    0.857    0.000    4.286    5.143    0.000    0.000 
#    0.000    0.000    0.000    0.000    0.000    4.000 
#    0.000    0.000    0.000    0.000    0.000    0.000 
#
# Total GULP energy -173455.827634 kJ/mol
# GULP energy per Si atom -12389.701974 kJ/mol
# Density = 1.897570 g / cm^3
# Si number density = 19.018992 Si / 1000 Ang^3
#
#
#
# Elastic Constant Matrix: (Units=GPa)
#
#
# Indices 1 2 3 4 5 6 
#
# 1 33.5463 12.3758 30.2642 0.0000 -12.6900 0.0000
# 2 12.3758 81.3081 15.1059 0.0000 -7.9527 0.0000
# 3 30.2642 15.1059 77.4430 0.0000 -12.1944 0.0000
# 4 0.0000 0.0000 0.0000 22.4394 0.0000 -3.4813
# 5 -12.6900 -7.9527 -12.1944 0.0000 40.7462 0.0000
# 6 0.0000 0.0000 0.0000 -3.4813 0.0000 18.5766
#
#
#
# Elastic Compliance Matrix: (Units=1/GPa)
#
#
# Indices 1 2 3 4 5 6 
#
# 1 0.050672 -0.003485 -0.017573 0.000000 0.009842 0.000000
# 2 -0.003485 0.013133 -0.001015 0.000000 0.001174 0.000000
# 3 -0.017573 -0.001015 0.020029 0.000000 0.000323 0.000000
# 4 0.000000 0.000000 0.000000 0.045899 0.000000 0.008602
# 5 0.009842 0.001174 0.000323 0.000000 0.027933 0.000000
# 6 0.000000 0.000000 0.000000 0.008602 0.000000 0.055443
#
#
# Mechanical properties :
#
#
# Convention : Reuss Voigt Hill
#
# Bulk Modulus (GPa) = 25.19652 34.19877 29.69764
# Shear Modulus (GPa) = 18.48544 25.32253 21.90399
#
# Velocity S-wave (km/s) = 3.12099 3.65284 3.39734
# Velocity P-wave (km/s) = 5.12487 5.98426 5.57116
#
# Compressibility (1/GPa) = 0.03968803
#
# Stress axis : x y z
#
# Youngs Moduli (GPa) = 19.73489 76.14557 49.92811
#
# Poissons Ratio (x) = 0.26539 0.87736
# Poissons Ratio (y) = 0.06878 0.05066
# Poissons Ratio (z) = 0.34679 0.07727
#
# Static dielectric constant tensor:
#      x y z
#    x 3.292910 0.000000 -0.399970 
#    y 0.000000 3.742440 0.000000 
#    z -0.399970 0.000000 3.522450 
# 
# 
# High freq. dielectric constant tensor:
#      x y z
#    x 1.700460 0.000000 -0.035780 
#    y 0.000000 1.770740 0.000000 
#    z -0.035780 0.000000 1.724920 
# 
# From -- ./inp_files/15382.got.cif
#   From: 2010.03.12/outbox.cif.g09.slc.cpg/sg4_8_cif.got.tgz:15382.got - 2010.03.31 09:31:35.
