data_PCOD8045344
_publ_section_title
;
Structure prediction by ZEFSAII (Michael W. Deem and Ramdas Pophale) SiO2 
 PCOD8045344
Probable space group: P 2
;
_chemical_formula_sum "Si O2"
_cell_formula_units_Z 15
_cell_length_a 10.906143
_cell_length_b 9.150463
_cell_length_c 9.056402
_cell_angle_alpha 90.000000
_cell_angle_beta 49.808704
_cell_angle_gamma 90.000000
_cell_volume 690.403667
_symmetry_space_group_name_H-M "P 2"
_symmetry_group_IT_number 3
_symmetry_cell_setting 'monoclinic'
loop_
_space_group_symop_operation_xyz
x,y,z
-x,y,-z
loop_
_atom_site_type_symbol
_atom_site_label
_atom_site_fract_x
_atom_site_fract_y
_atom_site_fract_z
Si Si1 0.147167 0.180980 0.795513
Si Si2 0.763676 0.490162 0.300047
Si Si3 0.775375 0.903346 0.826248
Si Si4 0.253575 0.995369 0.472457
Si Si5 0.064158 0.784611 0.790774
Si Si6 0.500000 0.671073 0.000000
Si Si7 0.513210 0.455352 0.254558
Si Si8 0.597103 0.126204 0.171019
O O1 0.121762 0.353437 0.818110
O O2 0.314766 0.133198 0.740127
O O3 0.152359 0.129896 0.620838
O O4 0.000000 0.108738 0.000000
O O5 0.888865 0.615291 0.246136
O O6 0.662387 0.524667 0.230193
O O7 0.642902 0.443288 0.522841
O O8 0.821454 0.956183 0.626797
O O9 0.931002 0.829972 0.776031
O O10 0.649620 0.772886 0.916886
O O11 0.709026 0.046693 0.963143
O O12 0.227955 0.866779 0.614478
O O13 0.440913 0.026832 0.310122
O O14 0.000000 0.833583 0.000000
O O15 0.466345 0.567009 0.163819
O O16 0.555042 0.293568 0.157073
#
# Coordination Sequence:
#
# PCOD8045344 Si02
#       8
#     2   2   2   2   2   1   2   2
#     4  11  23  41  70 101 134 178 232 285 344 405
#     4  10  22  45  69  98 136 177 231 283 342 406
#     4  12  26  45  68 103 141 186 225 288 346 416
#     4  12  23  42  68 100 135 181 229 284 339 411
#     4  12  26  45  69  99 140 183 229 282 349 412
#     4  12  24  40  66 102 138 176 232 276 356 410
#     4  10  23  41  71 102 131 183 232 285 344 413
#     4  11  23  45  70  99 136 185 235 290 340 414
#
# _framework density 21.726420000000001
#
# number of rings (size 3 to 8) (size 9 to 14) (size 15 to 20)
#    0.000    0.800    2.667    4.800    1.867    1.067 
#    4.800    0.000    2.933    0.000    0.000    0.000 
#    0.000    0.000    0.000    0.000    0.000    0.000 
#
# Total GULP energy -185963.028882 kJ/mol
# GULP energy per Si atom -12397.535259 kJ/mol
# Density = 2.167697 g / cm^3
# Si number density = 21.726420 Si / 1000 Ang^3
#
#
#
# Elastic Constant Matrix: (Units=GPa)
#
#
# Indices 1 2 3 4 5 6 
#
# 1 97.6817 61.9434 39.4785 0.0000 -0.3347 0.0000
# 2 61.9434 131.8211 40.5381 0.0000 6.7414 0.0000
# 3 39.4785 40.5381 108.3102 0.0000 10.3729 0.0000
# 4 0.0000 0.0000 0.0000 37.8265 0.0000 0.3080
# 5 -0.3347 6.7414 10.3729 0.0000 33.7638 0.0000
# 6 0.0000 0.0000 0.0000 0.3080 0.0000 31.6047
#
#
#
# Elastic Compliance Matrix: (Units=1/GPa)
#
#
# Indices 1 2 3 4 5 6 
#
# 1 0.015780 -0.006443 -0.003584 0.000000 0.002544 0.000000
# 2 -0.006443 0.011222 -0.001680 0.000000 -0.001788 0.000000
# 3 -0.003584 -0.001680 0.011477 0.000000 -0.003226 0.000000
# 4 0.000000 0.000000 0.000000 0.026439 0.000000 -0.000258
# 5 0.002544 -0.001788 -0.003226 0.000000 0.030991 0.000000
# 6 0.000000 0.000000 0.000000 -0.000258 0.000000 0.031643
#
#
# Mechanical properties :
#
#
# Convention : Reuss Voigt Hill
#
# Bulk Modulus (GPa) = 66.38243 69.08146 67.73194
# Shear Modulus (GPa) = 32.05365 33.69589 32.87477
#
# Velocity S-wave (km/s) = 3.84517 3.94244 3.89411
# Velocity P-wave (km/s) = 7.09464 7.25182 7.17366
#
# Compressibility (1/GPa) = 0.01506423
#
# Stress axis : x y z
#
# Youngs Moduli (GPa) = 63.36979 89.11122 87.13124
#
# Poissons Ratio (x) = 0.57416 0.31227
# Poissons Ratio (y) = 0.40831 0.14641
# Poissons Ratio (z) = 0.22711 0.14974
#
# Static dielectric constant tensor:
#      x y z
#    x 3.939630 0.000000 -0.022370 
#    y 0.000000 4.069560 0.000000 
#    z -0.022370 0.000000 4.180350 
# 
# 
# High freq. dielectric constant tensor:
#      x y z
#    x 1.844140 0.000000 -0.004220 
#    y 0.000000 1.865430 0.000000 
#    z -0.004220 0.000000 1.869240 
# 
# From -- ./inp_files/7409.got.cif
#   From: 2010.03.12/outbox.cif.g09.slc.cpg/sg3_4_cif.got.tgz:7409.got - 2010.03.31 09:20:49.
