data_PCOD8045489
_publ_section_title
;
Structure prediction by ZEFSAII (Michael W. Deem and Ramdas Pophale) SiO2 
 PCOD8045489
Probable space group: P 2
;
_chemical_formula_sum "Si O2"
_cell_formula_units_Z 13
_cell_length_a 11.068159
_cell_length_b 6.457827
_cell_length_c 11.007654
_cell_angle_alpha 90.000000
_cell_angle_beta 46.778603
_cell_angle_gamma 90.000000
_cell_volume 573.341058
_symmetry_space_group_name_H-M "P 2"
_symmetry_group_IT_number 3
_symmetry_cell_setting 'monoclinic'
loop_
_space_group_symop_operation_xyz
x,y,z
-x,y,-z
loop_
_atom_site_type_symbol
_atom_site_label
_atom_site_fract_x
_atom_site_fract_y
_atom_site_fract_z
Si Si1 0.691173 0.562260 0.365482
Si Si2 0.897758 0.858597 0.377310
Si Si3 0.355866 0.994594 0.269024
Si Si4 0.870827 0.165546 0.187441
Si Si5 0.500000 0.344990 0.000000
Si Si6 0.748187 0.706241 0.864575
Si Si7 0.668020 0.864052 0.174459
O O1 0.500000 0.505072 0.500000
O O2 0.748552 0.712422 0.434121
O O3 0.797620 0.357476 0.310284
O O4 0.718976 0.660795 0.214011
O O5 0.826313 0.995811 0.540629
O O6 0.055736 0.714300 0.307218
O O7 0.951802 0.012646 0.231161
O O8 0.358945 0.826408 0.160741
O O9 0.473976 0.909839 0.293860
O O10 0.423182 0.210941 0.164968
O O11 0.728927 0.060877 0.206121
O O12 0.000000 0.247846 0.000000
O O13 0.341343 0.481109 0.061908
O O14 0.747184 0.836462 0.988522
#
# Coordination Sequence:
#
# PCOD8045489 Si02
#       7
#     2   2   2   2   1   2   2
#     4  11  26  42  70 105 136 188 237 294 358 432
#     4  11  27  48  70 102 153 183 230 304 372 421
#     4  12  25  47  72 104 143 194 238 302 363 427
#     4  11  26  42  70 105 136 188 237 294 358 432
#     4  12  26  44  82 110 136 202 258 284 362 448
#     4  12  25  47  72 104 143 194 238 302 363 427
#     4  11  23  44  70  94 143 181 232 292 362 425
#
# _framework density 22.674115
#
# number of rings (size 3 to 8) (size 9 to 14) (size 15 to 20)
#    0.000    0.615    6.154    0.462    6.462    2.462 
#    0.000    1.538    0.000    0.000    0.000    0.000 
#    0.000    0.000    0.000    0.000    0.000    0.000 
#
# Total GULP energy -161088.003024 kJ/mol
# GULP energy per Si atom -12391.384848 kJ/mol
# Density = 2.262251 g / cm^3
# Si number density = 22.674115 Si / 1000 Ang^3
#
#
#
# Elastic Constant Matrix: (Units=GPa)
#
#
# Indices 1 2 3 4 5 6 
#
# 1 99.0072 44.1316 31.4583 0.0000 -11.5477 0.0000
# 2 44.1316 115.0173 42.7885 0.0000 -11.9862 0.0000
# 3 31.4583 42.7885 115.3045 0.0000 -20.6880 0.0000
# 4 0.0000 0.0000 0.0000 37.3792 0.0000 -12.3610
# 5 -11.5477 -11.9862 -20.6880 0.0000 38.9074 0.0000
# 6 0.0000 0.0000 0.0000 -12.3610 0.0000 20.8119
#
#
#
# Elastic Compliance Matrix: (Units=1/GPa)
#
#
# Indices 1 2 3 4 5 6 
#
# 1 0.012623 -0.004062 -0.001646 0.000000 0.001620 0.000000
# 2 -0.004062 0.011448 -0.003011 0.000000 0.000720 0.000000
# 3 -0.001646 -0.003011 0.011038 0.000000 0.004453 0.000000
# 4 0.000000 0.000000 0.000000 0.033292 0.000000 0.019773
# 5 0.001620 0.000720 0.004453 0.000000 0.028773 0.000000
# 6 0.000000 0.000000 0.000000 0.019773 0.000000 0.059793
#
#
# Mechanical properties :
#
#
# Convention : Reuss Voigt Hill
#
# Bulk Modulus (GPa) = 56.58875 62.89842 59.74359
# Shear Modulus (GPa) = 27.73240 33.48308 30.60774
#
# Velocity S-wave (km/s) = 3.50106 3.84697 3.67808
# Velocity P-wave (km/s) = 6.43077 6.89439 6.66661
#
# Compressibility (1/GPa) = 0.01767136
#
# Stress axis : x y z
#
# Youngs Moduli (GPa) = 79.22138 87.35052 90.59654
#
# Poissons Ratio (x) = 0.35484 0.14910
# Poissons Ratio (y) = 0.32182 0.27277
# Poissons Ratio (z) = 0.13038 0.26299
#
# Static dielectric constant tensor:
#      x y z
#    x 4.216980 0.000000 -0.139430 
#    y 0.000000 3.921170 0.000000 
#    z -0.139430 0.000000 4.819730 
# 
# 
# High freq. dielectric constant tensor:
#      x y z
#    x 1.903930 0.000000 -0.003250 
#    y 0.000000 1.877360 0.000000 
#    z -0.003250 0.000000 1.903070 
# 
# From -- ./inp_files/8805.got.cif
#   From: 2010.03.12/outbox.cif.g09.slc.cpg/sg3_5_cif.got.tgz:8805.got - 2010.03.31 09:20:49.
