data_PCOD8045084
_publ_section_title
;
Structure prediction by ZEFSAII (Michael W. Deem and Ramdas Pophale) SiO2 
 PCOD8045084
Probable space group: P 2
;
_chemical_formula_sum "Si O2"
_cell_formula_units_Z 16
_cell_length_a 8.706151
_cell_length_b 8.356598
_cell_length_c 20.405464
_cell_angle_alpha 90.000000
_cell_angle_beta 31.465078
_cell_angle_gamma 90.000000
_cell_volume 774.916715
_symmetry_space_group_name_H-M "P 2"
_symmetry_group_IT_number 3
_symmetry_cell_setting 'monoclinic'
loop_
_space_group_symop_operation_xyz
x,y,z
-x,y,-z
loop_
_atom_site_type_symbol
_atom_site_label
_atom_site_fract_x
_atom_site_fract_y
_atom_site_fract_z
Si Si1 0.803674 0.375000 0.132702
Si Si2 0.268172 0.141619 0.364716
Si Si3 0.821210 0.913985 0.714380
Si Si4 0.681488 0.914093 0.284278
Si Si5 0.795506 0.100580 0.856358
Si Si6 0.165575 0.453128 0.132694
Si Si7 0.773288 0.686552 0.364715
Si Si8 0.720654 0.727455 0.143644
O O1 0.537609 0.254661 0.245494
O O2 0.648144 0.539139 0.166962
O O3 0.012220 0.414186 0.118882
O O4 0.000000 0.308032 0.000000
O O5 0.000000 0.234160 0.500000
O O6 0.106162 0.055409 0.362856
O O7 0.384387 0.002748 0.370887
O O8 0.528459 0.830283 0.798124
O O9 0.057465 0.772464 0.636954
O O10 0.780876 0.997675 0.797536
O O11 0.632989 0.825657 0.370700
O O12 0.778184 0.778974 0.197324
O O13 0.932988 0.049033 0.196874
O O14 0.816318 0.288870 0.832960
O O15 0.500000 0.057262 0.000000
O O16 0.980731 0.573522 0.245452
O O17 0.500000 0.519938 0.000000
O O18 0.500000 0.594032 0.500000
O O19 0.000000 0.770803 0.000000
#
# Coordination Sequence:
#
# PCOD8045084 Si02
#       8
#     2   2   2   2   2   2   2   2
#     4  11  25  44  67  96 132 171 211 268 321 380
#     4  11  24  44  66  95 128 173 217 265 321 381
#     4  10  24  40  64  96 123 172 213 274 319 376
#     4  10  20  40  64  90 131 164 217 268 313 380
#     4  10  21  38  63  94 128 166 215 262 325 377
#     4  11  25  44  67  96 132 171 211 268 321 380
#     4  11  24  44  66  95 128 173 217 265 321 381
#     4  10  21  38  63  94 128 166 215 262 325 377
#
# _framework density 20.647380999999999
#
# number of rings (size 3 to 8) (size 9 to 14) (size 15 to 20)
#    0.000    1.500    2.500    1.500    7.000    4.000 
#    4.500    1.250    0.000    0.000    0.000    0.000 
#    0.000    0.000    0.000    0.000    0.000    0.000 
#
# Total GULP energy -198307.275782 kJ/mol
# GULP energy per Si atom -12394.204736 kJ/mol
# Density = 2.060039 g / cm^3
# Si number density = 20.647381 Si / 1000 Ang^3
#
#
#
# Elastic Constant Matrix: (Units=GPa)
#
#
# Indices 1 2 3 4 5 6 
#
# 1 88.3625 15.9341 38.9325 0.0000 -0.2521 0.0000
# 2 15.9341 69.0027 57.3977 0.0000 0.2995 0.0000
# 3 38.9325 57.3977 164.7628 0.0000 0.8998 0.0000
# 4 0.0000 0.0000 0.0000 22.4717 0.0000 0.6083
# 5 -0.2521 0.2995 0.8998 0.0000 6.1756 0.0000
# 6 0.0000 0.0000 0.0000 0.6083 0.0000 96.1334
#
#
#
# Elastic Compliance Matrix: (Units=1/GPa)
#
#
# Indices 1 2 3 4 5 6 
#
# 1 0.012656 -0.000612 -0.002783 0.000000 0.000952 0.000000
# 2 -0.000612 0.020435 -0.006974 0.000000 0.000000 0.000000
# 3 -0.002783 -0.006974 0.009162 0.000000 -0.001110 0.000000
# 4 0.000000 0.000000 0.000000 0.044508 0.000000 -0.000282
# 5 0.000952 0.000000 -0.001110 0.000000 0.162127 0.000000
# 6 0.000000 0.000000 0.000000 -0.000282 0.000000 0.010404
#
#
# Mechanical properties :
#
#
# Convention : Reuss Voigt Hill
#
# Bulk Modulus (GPa) = 46.47764 60.73964 53.60864
# Shear Modulus (GPa) = 17.40934 38.94704 28.17819
#
# Velocity S-wave (km/s) = 2.90690 4.34786 3.69824
# Velocity P-wave (km/s) = 5.81599 7.39504 6.65253
#
# Compressibility (1/GPa) = 0.02151572
#
# Stress axis : x y z
#
# Youngs Moduli (GPa) = 79.01330 48.93630 109.14128
#
# Poissons Ratio (x) = 0.02996 0.30369
# Poissons Ratio (y) = 0.04837 0.76116
# Poissons Ratio (z) = 0.21986 0.34129
#
# Static dielectric constant tensor:
#      x y z
#    x 4.237880 0.000000 0.000530 
#    y 0.000000 3.839340 0.000000 
#    z 0.000530 0.000000 2.629360 
# 
# 
# High freq. dielectric constant tensor:
#      x y z
#    x 1.822110 0.000000 -0.000280 
#    y 0.000000 1.804610 0.000000 
#    z -0.000280 0.000000 1.807740 
# 
# From -- ./inp_files/15810.got.cif
#   From: 2010.03.12/outbox.cif.g09.slc.cpg/sg3_8_cif.got.tgz:15810.got - 2010.03.31 09:20:49.
