data_PCOD8045028
_publ_section_title
;
Structure prediction by ZEFSAII (Michael W. Deem and Ramdas Pophale) SiO2 
 PCOD8045028
Probable space group: P 2
;
_chemical_formula_sum "Si O2"
_cell_formula_units_Z 16
_cell_length_a 14.443376
_cell_length_b 13.718158
_cell_length_c 12.289527
_cell_angle_alpha 90.000000
_cell_angle_beta 160.620620
_cell_angle_gamma 90.000000
_cell_volume 807.987075
_symmetry_space_group_name_H-M "P 2"
_symmetry_group_IT_number 3
_symmetry_cell_setting 'monoclinic'
loop_
_space_group_symop_operation_xyz
x,y,z
-x,y,-z
loop_
_atom_site_type_symbol
_atom_site_label
_atom_site_fract_x
_atom_site_fract_y
_atom_site_fract_z
Si Si1 0.386206 0.400300 0.752412
Si Si2 0.118787 0.513809 0.752292
Si Si3 0.778402 0.065150 0.075262
Si Si4 0.434762 0.701505 0.182706
Si Si5 0.286206 0.871918 0.861520
Si Si6 0.974603 0.744082 0.094914
Si Si7 0.336616 0.180388 0.705643
Si Si8 0.810603 0.959396 0.885385
O O1 0.285040 0.291858 0.612102
O O2 0.138169 0.479421 0.456774
O O3 0.500000 0.405602 0.000000
O O4 0.647158 0.431049 0.967693
O O5 0.000000 0.519031 0.500000
O O6 0.267484 0.616089 0.938816
O O7 0.040527 0.131117 0.395789
O O8 0.778208 0.974704 0.155824
O O9 0.499996 0.127225 0.789015
O O10 0.788519 0.033785 0.960717
O O11 0.769225 0.691680 0.557938
O O12 0.397828 0.801316 0.077271
O O13 0.313687 0.709386 0.170617
O O14 0.000000 0.826311 0.500000
O O15 0.500000 0.885280 0.000000
O O16 0.000000 0.707911 0.000000
O O17 0.979132 0.861840 0.107441
O O18 0.500000 0.174061 0.000000
O O19 0.500000 0.932302 0.500000
O O20 0.000000 0.008259 0.000000
#
# Coordination Sequence:
#
# PCOD8045028 Si02
#       8
#     2   2   2   2   2   2   2   2
#     4   9  19  36  57  83 115 153 195 243 285 325
#     4  10  20  36  59  85 119 153 192 237 284 350
#     4  12  23  37  58  86 117 159 196 235 291 349
#     4  12  23  38  58  87 116 157 193 234 290 348
#     4  12  25  37  52  81 125 163 186 217 274 355
#     4  11  23  39  60  82 112 152 200 254 286 327
#     4  11  22  37  58  88 122 156 195 238 284 350
#     4  11  23  40  61  82 112 153 206 256 290 328
#
# _framework density 19.802295999999998
#
# number of rings (size 3 to 8) (size 9 to 14) (size 15 to 20)
#    0.000    1.000    1.250    7.500    1.750    3.500 
#    0.000    0.000    0.000    0.000    0.000   30.625 
#    0.000    0.000    0.000    0.000    0.000    0.000 
#
# Total GULP energy -198358.788061 kJ/mol
# GULP energy per Si atom -12397.424254 kJ/mol
# Density = 1.975723 g / cm^3
# Si number density = 19.802296 Si / 1000 Ang^3
#
#
#
# Elastic Constant Matrix: (Units=GPa)
#
#
# Indices 1 2 3 4 5 6 
#
# 1 98.6470 13.9669 13.2515 0.0000 13.1840 0.0000
# 2 13.9669 96.7264 28.2257 0.0000 1.8818 0.0000
# 3 13.2515 28.2257 78.6910 0.0000 6.2498 0.0000
# 4 0.0000 0.0000 0.0000 43.8101 0.0000 36.3319
# 5 13.1840 1.8818 6.2498 0.0000 20.9117 0.0000
# 6 0.0000 0.0000 0.0000 36.3319 0.0000 49.3322
#
#
#
# Elastic Compliance Matrix: (Units=1/GPa)
#
#
# Indices 1 2 3 4 5 6 
#
# 1 0.011340 -0.001235 -0.000930 0.000000 -0.006761 0.000000
# 2 -0.001235 0.011682 -0.004057 0.000000 0.000940 0.000000
# 3 -0.000930 -0.004057 0.014591 0.000000 -0.003409 0.000000
# 4 0.000000 0.000000 0.000000 0.058642 0.000000 -0.043188
# 5 -0.006761 0.000940 -0.003409 0.000000 0.053017 0.000000
# 6 0.000000 0.000000 0.000000 -0.043188 0.000000 0.052078
#
#
# Mechanical properties :
#
#
# Convention : Reuss Voigt Hill
#
# Bulk Modulus (GPa) = 39.72973 42.77251 41.25112
# Shear Modulus (GPa) = 22.50393 37.38549 29.94471
#
# Velocity S-wave (km/s) = 3.37476 4.34975 3.89290
# Velocity P-wave (km/s) = 5.94071 6.84644 6.40960
#
# Compressibility (1/GPa) = 0.02517007
#
# Stress axis : x y z
#
# Youngs Moduli (GPa) = 88.18015 85.59948 68.53757
#
# Poissons Ratio (x) = 0.10568 0.06373
# Poissons Ratio (y) = 0.10887 0.27806
# Poissons Ratio (z) = 0.08200 0.34728
#
# Static dielectric constant tensor:
#      x y z
#    x 3.767090 0.000000 0.304360 
#    y 0.000000 3.553380 0.000000 
#    z 0.304360 0.000000 3.654570 
# 
# 
# High freq. dielectric constant tensor:
#      x y z
#    x 1.771090 0.000000 0.029490 
#    y 0.000000 1.759630 0.000000 
#    z 0.029490 0.000000 1.774320 
# 
# From -- ./inp_files/11928.got.cif
#   From: 2010.03.12/outbox.cif.g09.slc.cpg/sg3_6_cif.got.tgz:11928.got - 2010.03.31 09:20:49.
