data_PCOD8045510
_publ_section_title
;
Structure prediction by ZEFSAII (Michael W. Deem and Ramdas Pophale) SiO2 
 PCOD8045510
Probable space group: P 2
;
_chemical_formula_sum "Si O2"
_cell_formula_units_Z 16
_cell_length_a 6.815452
_cell_length_b 5.339367
_cell_length_c 19.433455
_cell_angle_alpha 90.000000
_cell_angle_beta 101.630475
_cell_angle_gamma 90.000000
_cell_volume 692.667448
_symmetry_space_group_name_H-M "P 2"
_symmetry_group_IT_number 3
_symmetry_cell_setting 'monoclinic'
loop_
_space_group_symop_operation_xyz
x,y,z
-x,y,-z
loop_
_atom_site_type_symbol
_atom_site_label
_atom_site_fract_x
_atom_site_fract_y
_atom_site_fract_z
Si Si1 0.331436 0.412660 0.933176
Si Si2 0.907335 0.598461 0.568063
Si Si3 0.453876 0.361398 0.192918
Si Si4 0.916313 0.912892 0.069547
Si Si5 0.802005 0.630215 0.291263
Si Si6 0.531063 0.975036 0.700828
Si Si7 0.865662 0.727830 0.793324
Si Si8 0.336560 0.100380 0.432798
O O1 0.442023 0.335323 0.871972
O O2 0.214329 0.672622 0.916754
O O3 0.195968 0.176816 0.944488
O O4 0.500000 0.463458 0.000000
O O5 0.753170 0.368573 0.553668
O O6 0.000000 0.630037 0.500000
O O7 0.071337 0.519134 0.636577
O O8 0.816118 0.867818 0.581803
O O9 0.610424 0.461724 0.261315
O O10 0.406804 0.093731 0.221301
O O11 0.243147 0.506291 0.171858
O O12 0.081038 0.932541 0.142910
O O13 0.000000 0.852167 0.000000
O O14 0.928619 0.653189 0.230280
O O15 0.700115 0.887904 0.311030
O O16 0.557204 0.136273 0.633724
O O17 0.714756 0.777645 0.718182
O O18 0.500000 0.022086 0.500000
#
# Coordination Sequence:
#
# PCOD8045510 Si02
#       8
#     2   2   2   2   2   2   2   2
#     4  12  27  47  71 105 147 188 240 296 358 420
#     4  12  27  46  74 103 145 192 238 295 356 427
#     4  11  26  42  75 104 145 187 234 300 352 423
#     4  12  27  46  74 103 145 192 238 295 356 427
#     4  11  24  46  71 107 142 185 241 288 359 421
#     4  11  26  42  75 104 145 187 234 300 352 423
#     4  11  24  46  71 107 142 185 241 288 359 421
#     4  12  27  47  71 105 147 188 240 296 358 420
#
# _framework density 23.099108999999999
#
# number of rings (size 3 to 8) (size 9 to 14) (size 15 to 20)
#    0.000    0.500    2.500    4.500   10.500    2.000 
#    0.000    0.000    0.000    0.000    0.000    0.000 
#    0.000    0.000    0.000    0.000    0.000    0.000 
#
# Total GULP energy -198275.264158 kJ/mol
# GULP energy per Si atom -12392.204010 kJ/mol
# Density = 2.304653 g / cm^3
# Si number density = 23.099109 Si / 1000 Ang^3
#
#
#
# Elastic Constant Matrix: (Units=GPa)
#
#
# Indices 1 2 3 4 5 6 
#
# 1 103.6184 15.0802 33.9094 0.0000 -6.4490 0.0000
# 2 15.0802 78.9057 -3.9408 0.0000 -1.8339 0.0000
# 3 33.9094 -3.9408 138.5562 0.0000 -7.9855 0.0000
# 4 0.0000 0.0000 0.0000 24.0528 0.0000 -51.8095
# 5 -6.4490 -1.8339 -7.9855 0.0000 45.7064 0.0000
# 6 0.0000 0.0000 0.0000 -51.8095 0.0000 -274.7558
#
#
#
# Elastic Compliance Matrix: (Units=1/GPa)
#
#
# Indices 1 2 3 4 5 6 
#
# 1 0.010907 -0.002195 -0.002675 0.000000 0.000983 0.000000
# 2 -0.002195 0.013148 0.000933 0.000000 0.000381 0.000000
# 3 -0.002675 0.000933 0.007959 0.000000 0.001051 0.000000
# 4 0.000000 0.000000 0.000000 0.029566 0.000000 -0.005575
# 5 0.000983 0.000381 0.001051 0.000000 0.022216 0.000000
# 6 0.000000 0.000000 0.000000 -0.005575 0.000000 -0.002588
#
#
# Mechanical properties :
#
#
# Convention : Reuss Voigt Hill
#
# Bulk Modulus (GPa) = 41.42490 45.68646 43.55568
# Shear Modulus (GPa) = 51.47764 -22.59721 14.44021
#
# Velocity S-wave (km/s) = 4.72588 -3.13113 2.50300
# Velocity P-wave (km/s) = 6.91021 2.59797 5.22018
#
# Compressibility (1/GPa) = 0.02414007
#
# Stress axis : x y z
#
# Youngs Moduli (GPa) = 91.68502 76.05515 125.64314
#
# Poissons Ratio (x) = 0.16696 0.33610
# Poissons Ratio (y) = 0.20127 -0.11725
# Poissons Ratio (z) = 0.24526 -0.07097
#
# Static dielectric constant tensor:
#      x y z
#    x 4.473730 0.000000 -0.016550 
#    y 0.000000 4.051900 0.000000 
#    z -0.016550 0.000000 4.273760 
# 
# 
# High freq. dielectric constant tensor:
#      x y z
#    x 1.927530 0.000000 0.000830 
#    y 0.000000 1.905650 0.000000 
#    z 0.000830 0.000000 1.935270 
# 
# From -- ./inp_files/15602.got.cif
#   From: 2010.03.12/outbox.cif.g09.slc.cpg/sg3_8_cif.got.tgz:15602.got - 2010.03.31 09:20:49.
