data_PCOD8045066
_publ_section_title
;
Structure prediction by ZEFSAII (Michael W. Deem and Ramdas Pophale) SiO2 
 PCOD8045066
Probable space group: P 2
;
_chemical_formula_sum "Si O2"
_cell_formula_units_Z 16
_cell_length_a 20.107079
_cell_length_b 7.324281
_cell_length_c 8.226364
_cell_angle_alpha 90.000000
_cell_angle_beta 142.133547
_cell_angle_gamma 90.000000
_cell_volume 743.644071
_symmetry_space_group_name_H-M "P 2"
_symmetry_group_IT_number 3
_symmetry_cell_setting 'monoclinic'
loop_
_space_group_symop_operation_xyz
x,y,z
-x,y,-z
loop_
_atom_site_type_symbol
_atom_site_label
_atom_site_fract_x
_atom_site_fract_y
_atom_site_fract_z
Si Si1 0.767250 0.564590 0.478198
Si Si2 0.042080 0.334207 0.248715
Si Si3 0.430182 0.428953 0.710049
Si Si4 0.250292 0.852633 0.016518
Si Si5 0.061293 0.964516 0.453976
Si Si6 0.091607 0.699010 0.981675
Si Si7 0.616547 0.201203 0.673276
Si Si8 0.374438 0.561441 0.099677
O O1 0.834635 0.390417 0.549270
O O2 0.677971 0.528673 0.443842
O O3 0.707390 0.624943 0.199942
O O4 0.851122 0.703764 0.729171
O O5 0.048793 0.179089 0.397341
O O6 0.962831 0.499168 0.154536
O O7 0.000000 0.247363 0.000000
O O8 0.392231 0.257954 0.531616
O O9 0.500000 0.361125 0.000000
O O10 0.503412 0.559902 0.735065
O O11 0.178136 0.748220 0.010222
O O12 0.355188 0.724117 0.190051
O O13 0.183625 0.894387 0.720855
O O14 0.291160 0.049091 0.154076
O O15 0.000000 0.918337 0.500000
O O16 0.005515 0.846040 0.203677
O O17 0.500000 0.120613 0.500000
O O18 0.649729 0.367196 0.859466
#
# Coordination Sequence:
#
# PCOD8045066 Si02
#       8
#     2   2   2   2   2   2   2   2
#     4  10  20  38  63  86 116 162 204 244 306 364
#     4  10  22  38  59  84 117 158 199 250 304 358
#     4   9  20  40  64  90 121 160 202 248 309 370
#     4  11  23  38  63  92 120 162 206 249 308 368
#     4  10  23  39  58  88 122 158 204 254 305 361
#     4  10  23  40  57  87 124 160 203 253 304 365
#     4  10  22  40  63  91 123 158 202 256 309 366
#     4  10  21  39  64  90 123 158 196 254 307 366
#
# _framework density 21.515668999999999
#
# number of rings (size 3 to 8) (size 9 to 14) (size 15 to 20)
#    0.000    2.000    0.000    2.250    0.000   13.500 
#    0.000    3.750    0.000    7.500    0.000    0.000 
#    0.000    0.000    0.000    0.000    0.000    0.000 
#
# Total GULP energy -198221.972057 kJ/mol
# GULP energy per Si atom -12388.873254 kJ/mol
# Density = 2.146670 g / cm^3
# Si number density = 21.515669 Si / 1000 Ang^3
#
#
#
# Elastic Constant Matrix: (Units=GPa)
#
#
# Indices 1 2 3 4 5 6 
#
# 1 96.0496 53.9799 36.1463 0.0000 3.8490 0.0000
# 2 53.9799 118.2327 52.5076 0.0000 6.1085 0.0000
# 3 36.1463 52.5076 116.4695 0.0000 4.5467 0.0000
# 4 0.0000 0.0000 0.0000 33.0765 0.0000 -0.1138
# 5 3.8490 6.1085 4.5467 0.0000 25.3903 0.0000
# 6 0.0000 0.0000 0.0000 -0.1138 0.0000 27.5737
#
#
#
# Elastic Compliance Matrix: (Units=1/GPa)
#
#
# Indices 1 2 3 4 5 6 
#
# 1 0.014329 -0.005690 -0.001863 0.000000 -0.000470 0.000000
# 2 -0.005690 0.012908 -0.003994 0.000000 -0.001528 0.000000
# 3 -0.001863 -0.003994 0.010993 0.000000 -0.000725 0.000000
# 4 0.000000 0.000000 0.000000 0.030233 0.000000 0.000125
# 5 -0.000470 -0.001528 -0.000725 0.000000 0.039954 0.000000
# 6 0.000000 0.000000 0.000000 0.000125 0.000000 0.036267
#
#
# Mechanical properties :
#
#
# Convention : Reuss Voigt Hill
#
# Bulk Modulus (GPa) = 66.06901 68.44659 67.25780
# Shear Modulus (GPa) = 28.93092 29.74930 29.34011
#
# Velocity S-wave (km/s) = 3.67092 3.72248 3.69679
# Velocity P-wave (km/s) = 6.98152 7.09629 7.03913
#
# Compressibility (1/GPa) = 0.01513569
#
# Stress axis : x y z
#
# Youngs Moduli (GPa) = 69.78689 77.46851 90.96616
#
# Poissons Ratio (x) = 0.44082 0.16951
# Poissons Ratio (y) = 0.39711 0.36331
# Poissons Ratio (z) = 0.13004 0.30940
#
# Static dielectric constant tensor:
#      x y z
#    x 3.940290 0.000000 0.085870 
#    y 0.000000 3.526320 0.000000 
#    z 0.085870 0.000000 4.506570 
# 
# 
# High freq. dielectric constant tensor:
#      x y z
#    x 1.851990 0.000000 0.002420 
#    y 0.000000 1.816300 0.000000 
#    z 0.002420 0.000000 1.865290 
# 
# From -- ./inp_files/9378.got.cif
#   From: 2010.03.12/outbox.cif.g09.slc.cpg/sg3_5_cif.got.tgz:9378.got - 2010.03.31 09:20:49.
