data_PCOD8045599
_publ_section_title
;
Structure prediction by ZEFSAII (Michael W. Deem and Ramdas Pophale) SiO2 
 PCOD8045599
Probable space group: P 21
;
_chemical_formula_sum "Si O2"
_cell_formula_units_Z 16
_cell_length_a 10.122078
_cell_length_b 5.356780
_cell_length_c 16.936024
_cell_angle_alpha 90.000000
_cell_angle_beta 64.678057
_cell_angle_gamma 90.000000
_cell_volume 830.069348
_symmetry_space_group_name_H-M "P 21"
_symmetry_group_IT_number 4
_symmetry_cell_setting 'monoclinic'
loop_
_space_group_symop_operation_xyz
x,y,z
-x,1/2+y,-z
loop_
_atom_site_type_symbol
_atom_site_label
_atom_site_fract_x
_atom_site_fract_y
_atom_site_fract_z
Si Si1 0.638727 0.416370 0.635581
Si Si2 0.247190 0.335046 0.178205
Si Si3 0.813027 0.024921 0.498658
Si Si4 0.311401 0.832304 0.096110
Si Si5 0.552255 0.820671 0.169847
Si Si6 0.102424 0.234187 0.372575
Si Si7 0.411341 0.823267 0.891868
Si Si8 0.437808 0.220854 0.481462
O O1 0.687537 0.221655 0.555542
O O2 0.533403 0.291859 0.726329
O O3 0.782607 0.511899 0.643522
O O4 0.546919 0.635823 0.614563
O O5 0.216198 0.581291 0.133405
O O6 0.138788 0.360885 0.280055
O O7 0.413614 0.330589 0.166811
O O8 0.215531 0.082583 0.135794
O O9 0.936839 0.135719 0.410324
O O10 0.890618 0.932275 0.558593
O O11 0.732828 0.807384 0.468102
O O12 0.447169 0.831817 0.120632
O O13 0.374220 0.825872 0.992717
O O14 0.652626 0.573049 0.134021
O O15 0.647795 0.075888 0.138747
O O16 0.534791 0.470705 0.472897
#
# Coordination Sequence:
#
# PCOD8045599 Si02
#       8
#     2   2   2   2   2   2   2   2
#     4  11  21  36  55  79 110 143 188 235 278 331
#     4  10  18  28  42  62  99 137 181 213 244 308
#     4  11  22  35  58  80 111 148 185 238 284 333
#     4  10  17  28  42  62  97 146 189 202 245 315
#     4  10  18  27  44  68  96 132 180 216 257 307
#     4  11  21  32  50  83 113 143 188 227 279 336
#     4  10  17  27  42  64  97 144 186 204 247 316
#     4  11  24  43  59  76 101 147 203 241 290 330
#
# _framework density 19.275497000000001
#
# number of rings (size 3 to 8) (size 9 to 14) (size 15 to 20)
#    0.000    1.500    5.000    5.250    1.750    0.000 
#    0.000    0.000    0.000    0.000    0.000    0.000 
#    0.000    0.000    0.000    9.000   15.500    0.625 
#
# Total GULP energy -198234.649147 kJ/mol
# GULP energy per Si atom -12389.665572 kJ/mol
# Density = 1.923163 g / cm^3
# Si number density = 19.275497 Si / 1000 Ang^3
#
#
#
# Elastic Constant Matrix: (Units=GPa)
#
#
# Indices 1 2 3 4 5 6 
#
# 1 42.8014 27.8924 29.3526 0.0000 1.9479 0.0000
# 2 27.8924 178.0937 48.0032 0.0000 1.2896 0.0000
# 3 29.3526 48.0032 117.3582 0.0000 -2.9441 0.0000
# 4 0.0000 0.0000 0.0000 32.8894 0.0000 3.8460
# 5 1.9479 1.2896 -2.9441 0.0000 6.1383 0.0000
# 6 0.0000 0.0000 0.0000 3.8460 0.0000 20.3157
#
#
#
# Elastic Compliance Matrix: (Units=1/GPa)
#
#
# Indices 1 2 3 4 5 6 
#
# 1 0.030410 -0.002855 -0.006746 0.000000 -0.012286 0.000000
# 2 -0.002855 0.006620 -0.002030 0.000000 -0.001458 0.000000
# 3 -0.006746 -0.002030 0.011238 0.000000 0.007957 0.000000
# 4 0.000000 0.000000 0.000000 0.031093 0.000000 -0.005886
# 5 -0.012286 -0.001458 0.007957 0.000000 0.170932 0.000000
# 6 0.000000 0.000000 0.000000 -0.005886 0.000000 0.050337
#
#
# Mechanical properties :
#
#
# Convention : Reuss Voigt Hill
#
# Bulk Modulus (GPa) = 39.99233 60.97217 50.48225
# Shear Modulus (GPa) = 15.04983 27.40237 21.22610
#
# Velocity S-wave (km/s) = 2.79727 3.77452 3.32203
# Velocity P-wave (km/s) = 5.58800 7.12016 6.40009
#
# Compressibility (1/GPa) = 0.02500480
#
# Stress axis : x y z
#
# Youngs Moduli (GPa) = 32.88387 151.05727 88.98178
#
# Poissons Ratio (x) = 0.43133 0.60028
# Poissons Ratio (y) = 0.09390 0.18065
# Poissons Ratio (z) = 0.22184 0.30668
#
# Static dielectric constant tensor:
#      x y z
#    x 2.922480 0.000000 0.110700 
#    y 0.000000 5.179800 0.000000 
#    z 0.110700 0.000000 3.421700 
# 
# 
# High freq. dielectric constant tensor:
#      x y z
#    x 1.657300 0.000000 0.015130 
#    y 0.000000 1.789420 0.000000 
#    z 0.015130 0.000000 1.744780 
# 
# From -- ./inp_files/14134.got.cif
#   From: 2010.03.12/outbox.cif.g09.slc.cpg/sg4_8_cif.got.tgz:14134.got - 2010.03.31 09:31:35.
