data_PCOD8045416
_publ_section_title
;
Structure prediction by ZEFSAII (Michael W. Deem and Ramdas Pophale) SiO2 
 PCOD8045416
Probable space group: P 2
;
_chemical_formula_sum "Si O2"
_cell_formula_units_Z 13
_cell_length_a 10.522310
_cell_length_b 9.010998
_cell_length_c 7.831448
_cell_angle_alpha 90.000000
_cell_angle_beta 47.806471
_cell_angle_gamma 90.000000
_cell_volume 550.141228
_symmetry_space_group_name_H-M "P 2"
_symmetry_group_IT_number 3
_symmetry_cell_setting 'monoclinic'
loop_
_space_group_symop_operation_xyz
x,y,z
-x,y,-z
loop_
_atom_site_type_symbol
_atom_site_label
_atom_site_fract_x
_atom_site_fract_y
_atom_site_fract_z
Si Si1 0.357221 0.707840 0.759557
Si Si2 0.931994 0.953896 0.382812
Si Si3 0.000000 0.787215 0.000000
Si Si4 0.290379 0.441245 0.036751
Si Si5 0.038786 0.271850 0.773728
Si Si6 0.386269 0.301969 0.315044
Si Si7 0.549627 0.954246 0.767320
O O1 0.500000 0.642445 0.500000
O O2 0.325128 0.614730 0.964506
O O3 0.414334 0.876617 0.760213
O O4 0.176054 0.696027 0.820777
O O5 0.038448 0.884994 0.132474
O O6 0.736880 0.898953 0.541337
O O7 0.000000 0.891943 0.500000
O O8 0.964808 0.130852 0.349087
O O9 0.432540 0.366112 0.783804
O O10 0.327867 0.387656 0.194818
O O11 0.096617 0.395770 0.163382
O O12 0.234046 0.332899 0.587376
O O13 0.000000 0.220354 0.000000
O O14 0.437353 0.130957 0.245570
O O15 0.500000 0.900267 0.000000
#
# Coordination Sequence:
#
# PCOD8045416 Si02
#       7
#     2   2   1   2   2   2   2
#     4  12  29  47  71 106 159 202 250 310 389 468
#     4  11  23  44  75 111 152 193 255 321 376 447
#     4  12  26  50  70 112 150 200 258 310 386 452
#     4  11  25  46  70 102 150 197 242 308 378 457
#     4  11  24  41  73 109 142 194 248 317 376 438
#     4  10  24  47  72 109 141 187 260 310 373 448
#     4  11  22  46  77 110 146 193 255 320 374 449
#
# _framework density 23.630295
#
# number of rings (size 3 to 8) (size 9 to 14) (size 15 to 20)
#    0.000    0.923    3.846    3.231    7.538    0.000 
#    0.000    1.538    0.000    0.000    0.000    0.000 
#    0.000    0.000    0.000    0.000    0.000    0.000 
#
# Total GULP energy -161055.404584 kJ/mol
# GULP energy per Si atom -12388.877276 kJ/mol
# Density = 2.357651 g / cm^3
# Si number density = 23.630295 Si / 1000 Ang^3
#
#
#
# Elastic Constant Matrix: (Units=GPa)
#
#
# Indices 1 2 3 4 5 6 
#
# 1 93.3104 33.2286 42.9138 0.0000 -16.9850 0.0000
# 2 33.2286 88.6373 36.4676 0.0000 -3.3262 0.0000
# 3 42.9138 36.4676 155.5085 0.0000 -20.9301 0.0000
# 4 0.0000 0.0000 0.0000 14.3938 0.0000 3.3570
# 5 -16.9850 -3.3262 -20.9301 0.0000 54.4310 0.0000
# 6 0.0000 0.0000 0.0000 3.3570 0.0000 28.8646
#
#
#
# Elastic Compliance Matrix: (Units=1/GPa)
#
#
# Indices 1 2 3 4 5 6 
#
# 1 0.013864 -0.004072 -0.002449 0.000000 0.003136 0.000000
# 2 -0.004072 0.013690 -0.002262 0.000000 -0.001304 0.000000
# 3 -0.002449 -0.002262 0.007926 0.000000 0.002145 0.000000
# 4 0.000000 0.000000 0.000000 0.071412 0.000000 -0.008305
# 5 0.003136 -0.001304 0.002145 0.000000 0.020096 0.000000
# 6 0.000000 0.000000 0.000000 -0.008305 0.000000 0.035610
#
#
# Mechanical properties :
#
#
# Convention : Reuss Voigt Hill
#
# Bulk Modulus (GPa) = 55.82439 62.51958 59.17198
# Shear Modulus (GPa) = 26.86219 34.52763 30.69491
#
# Velocity S-wave (km/s) = 3.37526 3.82666 3.60802
# Velocity P-wave (km/s) = 6.23420 6.78522 6.51554
#
# Compressibility (1/GPa) = 0.01791332
#
# Stress axis : x y z
#
# Youngs Moduli (GPa) = 72.12864 73.04427 126.17447
#
# Poissons Ratio (x) = 0.29745 0.30899
# Poissons Ratio (y) = 0.29372 0.28543
# Poissons Ratio (z) = 0.17664 0.16524
#
# Static dielectric constant tensor:
#      x y z
#    x 4.103240 0.000000 -0.326230 
#    y 0.000000 3.937070 0.000000 
#    z -0.326230 0.000000 4.793660 
# 
# 
# High freq. dielectric constant tensor:
#      x y z
#    x 1.924870 0.000000 -0.015130 
#    y 0.000000 1.913380 0.000000 
#    z -0.015130 0.000000 1.963410 
# 
# From -- ./inp_files/7333.got.cif
#   From: 2010.03.12/outbox.cif.g09.slc.cpg/sg3_4_cif.got.tgz:7333.got - 2010.03.31 09:20:49.
