data_PCOD8045137
_publ_section_title
;
Structure prediction by ZEFSAII (Michael W. Deem and Ramdas Pophale) SiO2 
 PCOD8045137
Probable space group: P 2
;
_chemical_formula_sum "Si O2"
_cell_formula_units_Z 12
_cell_length_a 5.019127
_cell_length_b 13.593262
_cell_length_c 8.559365
_cell_angle_alpha 90.000000
_cell_angle_beta 96.260244
_cell_angle_gamma 90.000000
_cell_volume 580.491556
_symmetry_space_group_name_H-M "P 2"
_symmetry_group_IT_number 3
_symmetry_cell_setting 'monoclinic'
loop_
_space_group_symop_operation_xyz
x,y,z
-x,y,-z
loop_
_atom_site_type_symbol
_atom_site_label
_atom_site_fract_x
_atom_site_fract_y
_atom_site_fract_z
Si Si1 0.445587 0.293250 0.679359
Si Si2 0.952054 0.192147 0.814869
Si Si3 0.762664 0.798000 0.604131
Si Si4 0.238303 0.016491 0.394615
Si Si5 0.536022 0.500066 0.185152
Si Si6 0.962339 0.622771 0.817274
O O1 0.500000 0.275766 0.500000
O O2 0.725033 0.274746 0.784369
O O3 0.366681 0.405213 0.712634
O O4 0.212408 0.221803 0.729619
O O5 0.835198 0.088006 0.751440
O O6 0.000000 0.181003 0.000000
O O7 0.500000 0.756170 0.500000
O O8 0.859966 0.725403 0.744175
O O9 0.000000 0.808780 0.500000
O O10 0.701733 0.906982 0.670230
O O11 0.500000 0.057985 0.500000
O O12 0.000000 0.013305 0.500000
O O13 0.254134 0.538180 0.232970
O O14 0.755331 0.585178 0.232680
O O15 0.500000 0.474408 0.000000
O O16 0.000000 0.643605 0.000000
#
# Coordination Sequence:
#
# PCOD8045137 Si02
#       6
#     2   2   2   2   2   2
#     4  12  25  41  62  89 120 158 200 246 296 353
#     4  12  24  40  63  90 120 157 198 246 297 353
#     4  10  21  37  59  86 116 152 191 238 292 346
#     4  10  21  39  61  85 117 154 193 240 294 348
#     4  10  21  38  58  84 117 155 196 242 292 344
#     4  10  21  37  59  84 116 154 193 240 292 344
#
# _framework density 20.672135000000001
#
# number of rings (size 3 to 8) (size 9 to 14) (size 15 to 20)
#    0.000    1.333    0.000    6.500    0.000    4.000 
#    0.000    0.000    0.000   10.000    0.000    0.000 
#    0.000    0.000    0.000    0.000    0.000    0.000 
#
# Total GULP energy -148810.714562 kJ/mol
# GULP energy per Si atom -12400.892880 kJ/mol
# Density = 2.062508 g / cm^3
# Si number density = 20.672135 Si / 1000 Ang^3
#
#
#
# Elastic Constant Matrix: (Units=GPa)
#
#
# Indices 1 2 3 4 5 6 
#
# 1 134.8853 33.5523 54.8864 0.0000 12.6881 0.0000
# 2 33.5523 121.9023 72.6323 0.0000 12.1298 0.0000
# 3 54.8864 72.6323 117.0099 0.0000 14.6057 0.0000
# 4 0.0000 0.0000 0.0000 36.9320 0.0000 13.5737
# 5 12.6881 12.1298 14.6057 0.0000 31.3561 0.0000
# 6 0.0000 0.0000 0.0000 13.5737 0.0000 31.9240
#
#
#
# Elastic Compliance Matrix: (Units=1/GPa)
#
#
# Indices 1 2 3 4 5 6 
#
# 1 0.009262 0.000136 -0.004199 0.000000 -0.001845 0.000000
# 2 0.000136 0.013074 -0.008007 0.000000 -0.001383 0.000000
# 3 -0.004199 -0.008007 0.015806 0.000000 -0.002566 0.000000
# 4 0.000000 0.000000 0.000000 0.032092 0.000000 -0.013645
# 5 -0.001845 -0.001383 -0.002566 0.000000 0.034369 0.000000
# 6 0.000000 0.000000 0.000000 -0.013645 0.000000 0.037126
#
#
# Mechanical properties :
#
#
# Convention : Reuss Voigt Hill
#
# Bulk Modulus (GPa) = 71.41150 77.32661 74.36905
# Shear Modulus (GPa) = 29.31948 34.22418 31.77183
#
# Velocity S-wave (km/s) = 3.77013 4.07328 3.92464
# Velocity P-wave (km/s) = 7.31927 7.72073 7.52267
#
# Compressibility (1/GPa) = 0.01400335
#
# Stress axis : x y z
#
# Youngs Moduli (GPa) = 107.96936 76.48727 63.26646
#
# Poissons Ratio (x) = -0.01040 0.26564
# Poissons Ratio (y) = -0.01468 0.50656
# Poissons Ratio (z) = 0.45333 0.61241
#
# Static dielectric constant tensor:
#      x y z
#    x 4.071010 0.000000 0.114920 
#    y 0.000000 4.009270 0.000000 
#    z 0.114920 0.000000 3.521630 
# 
# 
# High freq. dielectric constant tensor:
#      x y z
#    x 1.831190 0.000000 0.009790 
#    y 0.000000 1.818120 0.000000 
#    z 0.009790 0.000000 1.791030 
# 
# From -- ./inp_files/1208.got.cif
#   From: 2010.03.12/outbox.cif.g09.slc.cpg/sg3_1_cif.got.tgz:1208.got - 2010.03.31 09:20:49.
