data_PCOD8045692
_publ_section_title
;
Structure prediction by ZEFSAII (Michael W. Deem and Ramdas Pophale) SiO2 
 PCOD8045692
Probable space group: P 21
;
_chemical_formula_sum "Si O2"
_cell_formula_units_Z 14
_cell_length_a 14.757934
_cell_length_b 8.671297
_cell_length_c 12.422274
_cell_angle_alpha 90.000000
_cell_angle_beta 26.974495
_cell_angle_gamma 90.000000
_cell_volume 721.070726
_symmetry_space_group_name_H-M "P 21"
_symmetry_group_IT_number 4
_symmetry_cell_setting 'monoclinic'
loop_
_space_group_symop_operation_xyz
x,y,z
-x,1/2+y,-z
loop_
_atom_site_type_symbol
_atom_site_label
_atom_site_fract_x
_atom_site_fract_y
_atom_site_fract_z
Si Si1 0.447396 0.762810 0.899285
Si Si2 0.478273 0.614620 0.244372
Si Si3 0.901832 0.984110 0.294064
Si Si4 0.278413 0.197595 0.201102
Si Si5 0.942703 0.395484 0.638768
Si Si6 0.313301 0.042719 0.766043
Si Si7 0.423663 0.262610 0.459946
O O1 0.595139 0.676129 0.824126
O O2 0.471883 0.684499 0.755755
O O3 0.501490 0.943265 0.827044
O O4 0.222186 0.757836 0.184128
O O5 0.242001 0.631018 0.522703
O O6 0.606478 0.638083 0.216369
O O7 0.566152 0.731425 0.061698
O O8 0.772832 0.854861 0.369542
O O9 0.001340 0.920819 0.296618
O O10 0.073998 0.033920 0.029192
O O11 0.131775 0.343568 0.367808
O O12 0.145455 0.047445 0.322438
O O13 0.416634 0.875287 0.651984
O O14 0.363434 0.127509 0.602927
#
# Coordination Sequence:
#
# PCOD8045692 Si02
#       7
#     2   2   2   2   2   2   2
#     4   9  19  36  57  83 117 154 192 239 298 346
#     4   9  20  36  57  84 118 157 189 240 292 350
#     4  10  18  39  62  86 115 161 196 229 311 353
#     4  11  21  36  62  91 116 161 200 236 300 353
#     4  11  21  37  64  85 119 162 194 242 295 364
#     4  10  20  40  62  86 116 157 199 240 301 344
#     4  10  21  38  64  85 115 156 200 246 291 354
#
# _framework density 19.415572000000001
#
# number of rings (size 3 to 8) (size 9 to 14) (size 15 to 20)
#    0.000    2.286    7.143    0.000    2.000    2.286 
#    0.000    5.714    0.000    0.000    0.000    0.000 
#    0.000    0.000    0.000    0.000    0.000    0.000 
#
# Total GULP energy -173497.760183 kJ/mol
# GULP energy per Si atom -12392.697156 kJ/mol
# Density = 1.937138 g / cm^3
# Si number density = 19.415572 Si / 1000 Ang^3
#
#
#
# Elastic Constant Matrix: (Units=GPa)
#
#
# Indices 1 2 3 4 5 6 
#
# 1 79.6584 16.6825 11.6333 0.0000 -8.0274 0.0000
# 2 16.6825 18.5438 8.1818 0.0000 -2.6359 0.0000
# 3 11.6333 8.1818 69.9875 0.0000 -21.5082 0.0000
# 4 0.0000 0.0000 0.0000 36.2865 0.0000 6.4534
# 5 -8.0274 -2.6359 -21.5082 0.0000 31.3115 0.0000
# 6 0.0000 0.0000 0.0000 6.4534 0.0000 23.5541
#
#
#
# Elastic Compliance Matrix: (Units=1/GPa)
#
#
# Indices 1 2 3 4 5 6 
#
# 1 0.015721 -0.013677 -0.000164 0.000000 0.002766 0.000000
# 2 -0.013677 0.068760 -0.006419 0.000000 -0.002127 0.000000
# 3 -0.000164 -0.006419 0.018870 0.000000 0.012380 0.000000
# 4 0.000000 0.000000 0.000000 0.028970 0.000000 -0.007937
# 5 0.002766 -0.002127 0.012380 0.000000 0.040971 0.000000
# 6 0.000000 0.000000 0.000000 -0.007937 0.000000 0.044630
#
#
# Mechanical properties :
#
#
# Convention : Reuss Voigt Hill
#
# Bulk Modulus (GPa) = 15.91546 26.79832 21.35689
# Shear Modulus (GPa) = 17.89637 27.00991 22.45314
#
# Velocity S-wave (km/s) = 3.03933 3.73385 3.40435
# Velocity P-wave (km/s) = 4.53120 5.69397 5.14554
#
# Compressibility (1/GPa) = 0.06283197
#
# Stress axis : x y z
#
# Youngs Moduli (GPa) = 63.61055 14.54326 52.99297
#
# Poissons Ratio (x) = 0.19891 0.00869
# Poissons Ratio (y) = 0.87001 0.34014
# Poissons Ratio (z) = 0.01044 0.09335
#
# Static dielectric constant tensor:
#      x y z
#    x 3.592130 0.000000 -0.087610 
#    y 0.000000 3.057480 0.000000 
#    z -0.087610 0.000000 4.314640 
# 
# 
# High freq. dielectric constant tensor:
#      x y z
#    x 1.761630 0.000000 -0.005680 
#    y 0.000000 1.697440 0.000000 
#    z -0.005680 0.000000 1.780740 
# 
# From -- ./inp_files/12613.got.cif
#   From: 2010.03.12/outbox.cif.g09.slc.cpg/sg4_7_cif.got.tgz:12613.got - 2010.03.31 09:31:35.
