data_PCOD8045897
_publ_section_title
;
Structure prediction by ZEFSAII (Michael W. Deem and Ramdas Pophale) SiO2 
 PCOD8045897
Probable space group: P 21
;
_chemical_formula_sum "Si O2"
_cell_formula_units_Z 16
_cell_length_a 21.664036
_cell_length_b 8.540316
_cell_length_c 14.996470
_cell_angle_alpha 90.000000
_cell_angle_beta 18.482293
_cell_angle_gamma 90.000000
_cell_volume 879.584282
_symmetry_space_group_name_H-M "P 21"
_symmetry_group_IT_number 4
_symmetry_cell_setting 'monoclinic'
loop_
_space_group_symop_operation_xyz
x,y,z
-x,1/2+y,-z
loop_
_atom_site_type_symbol
_atom_site_label
_atom_site_fract_x
_atom_site_fract_y
_atom_site_fract_z
Si Si1 0.857325 0.568270 0.105250
Si Si2 0.854932 0.342663 0.959578
Si Si3 0.957668 0.846595 0.651318
Si Si4 0.113415 0.003664 0.262635
Si Si5 0.946360 0.989147 0.852739
Si Si6 0.164845 0.828801 0.706412
Si Si7 0.573195 0.785263 0.398124
Si Si8 0.563926 0.721015 0.207334
O O1 0.808538 0.441728 0.246298
O O2 0.657645 0.649873 0.346715
O O3 0.947973 0.475651 0.896279
O O4 0.006605 0.694014 0.940625
O O5 0.922528 0.379415 0.766610
O O6 0.939555 0.175076 0.869797
O O7 0.620990 0.350263 0.290152
O O8 0.015337 0.661615 0.577266
O O9 0.021488 0.934998 0.653301
O O10 0.062747 0.926106 0.425100
O O11 0.721360 0.857710 0.967626
O O12 0.341905 0.053384 0.948988
O O13 0.111628 0.928666 0.693136
O O14 0.734826 0.921579 0.168253
O O15 0.372747 0.744979 0.409839
O O16 0.521684 0.717667 0.371197
#
# Coordination Sequence:
#
# PCOD8045897 Si02
#       8
#     2   2   2   2   2   2   2   2
#     4  11  22  36  55  85 126 161 188 240 290 366
#     4  12  20  33  62  89 118 153 201 244 298 356
#     4   9  20  40  60  88 112 148 208 250 296 333
#     4  10  20  36  65  87 113 150 200 258 297 334
#     4  10  22  35  58  84 121 161 187 247 292 359
#     4  11  22  38  56  85 128 162 192 230 306 361
#     4  10  20  36  56  89 119 150 201 244 294 346
#     4   9  20  36  62  81 119 149 193 249 291 345
#
# _framework density 18.19041
#
# number of rings (size 3 to 8) (size 9 to 14) (size 15 to 20)
#    0.750    1.000    2.500    3.000    1.750    1.000 
#    0.000    0.000    5.500    0.000    0.000    0.000 
#    0.000    0.000    0.000    0.000    0.000    0.000 
#
# Total GULP energy -198327.603635 kJ/mol
# GULP energy per Si atom -12395.475227 kJ/mol
# Density = 1.814901 g / cm^3
# Si number density = 18.190410 Si / 1000 Ang^3
#
#
#
# Elastic Constant Matrix: (Units=GPa)
#
#
# Indices 1 2 3 4 5 6 
#
# 1 86.9558 16.1599 41.5938 0.0000 9.3274 0.0000
# 2 16.1599 74.9395 14.7792 0.0000 5.3952 0.0000
# 3 41.5938 14.7792 52.1631 0.0000 1.0543 0.0000
# 4 0.0000 0.0000 0.0000 26.7758 0.0000 6.4705
# 5 9.3274 5.3952 1.0543 0.0000 34.4296 0.0000
# 6 0.0000 0.0000 0.0000 6.4705 0.0000 42.0496
#
#
#
# Elastic Compliance Matrix: (Units=1/GPa)
#
#
# Indices 1 2 3 4 5 6 
#
# 1 0.019396 -0.000864 -0.015127 0.000000 -0.004656 0.000000
# 2 -0.000864 0.014325 -0.003331 0.000000 -0.001909 0.000000
# 3 -0.015127 -0.003331 0.032103 0.000000 0.003637 0.000000
# 4 0.000000 0.000000 0.000000 0.038790 0.000000 -0.005969
# 5 -0.004656 -0.001909 0.003637 0.000000 0.030494 0.000000
# 6 0.000000 0.000000 0.000000 -0.005969 0.000000 0.024700
#
#
# Mechanical properties :
#
#
# Convention : Reuss Voigt Hill
#
# Bulk Modulus (GPa) = 36.79260 39.90268 38.34764
# Shear Modulus (GPa) = 24.09516 30.08603 27.09059
#
# Velocity S-wave (km/s) = 3.64346 4.07129 3.86330
# Velocity P-wave (km/s) = 6.16199 6.63960 6.40525
#
# Compressibility (1/GPa) = 0.02717938
#
# Stress axis : x y z
#
# Youngs Moduli (GPa) = 51.55754 69.80923 31.14990
#
# Poissons Ratio (x) = 0.06032 0.47120
# Poissons Ratio (y) = 0.04455 0.10376
# Poissons Ratio (z) = 0.77991 0.23254
#
# Static dielectric constant tensor:
#      x y z
#    x 3.328890 0.000000 -0.026230 
#    y 0.000000 3.448460 0.000000 
#    z -0.026230 0.000000 3.117200 
# 
# 
# High freq. dielectric constant tensor:
#      x y z
#    x 1.702870 0.000000 0.005870 
#    y 0.000000 1.717820 0.000000 
#    z 0.005870 0.000000 1.672180 
# 
# From -- ./inp_files/7710.got.cif
#   From: 2010.03.12/outbox.cif.g09.slc.cpg/sg4_4_cif.got.tgz:7710.got - 2010.03.31 09:31:35.
