data_PCOD8045394
_publ_section_title
;
Structure prediction by ZEFSAII (Michael W. Deem and Ramdas Pophale) SiO2 
 PCOD8045394
Probable space group: P 2
;
_chemical_formula_sum "Si O2"
_cell_formula_units_Z 12
_cell_length_a 9.674602
_cell_length_b 10.532485
_cell_length_c 5.543907
_cell_angle_alpha 90.000000
_cell_angle_beta 79.221092
_cell_angle_gamma 90.000000
_cell_volume 554.943626
_symmetry_space_group_name_H-M "P 2"
_symmetry_group_IT_number 3
_symmetry_cell_setting 'monoclinic'
loop_
_space_group_symop_operation_xyz
x,y,z
-x,y,-z
loop_
_atom_site_type_symbol
_atom_site_label
_atom_site_fract_x
_atom_site_fract_y
_atom_site_fract_z
Si Si1 0.866817 0.283010 0.180925
Si Si2 0.071976 0.547774 0.720161
Si Si3 0.656081 0.380771 0.876846
Si Si4 0.344844 0.613835 0.446206
Si Si5 0.585364 0.876058 0.723810
Si Si6 0.655617 0.137726 0.560141
O O1 0.927584 0.394318 0.330114
O O2 0.780303 0.168810 0.331660
O O3 0.761449 0.371537 0.062456
O O4 0.000000 0.218983 0.000000
O O5 0.226720 0.615031 0.693193
O O6 0.000000 0.605674 0.500000
O O7 0.000000 0.581253 0.000000
O O8 0.708267 0.493175 0.689943
O O9 0.658515 0.242039 0.762906
O O10 0.500000 0.419628 0.000000
O O11 0.500000 0.589913 0.500000
O O12 0.334148 0.741906 0.288019
O O13 0.500000 0.867985 0.500000
O O14 0.686466 0.999358 0.666634
O O15 0.500000 0.894082 0.000000
O O16 0.500000 0.138834 0.500000
#
# Coordination Sequence:
#
# PCOD8045394 Si02
#       6
#     2   2   2   2   2   2
#     4  11  24  38  62  98 131 174 214 276 330 388
#     4  11  24  42  63  94 139 174 207 264 339 393
#     4  12  21  36  67  96 129 163 224 277 325 381
#     4  11  22  41  68 101 127 171 225 275 323 389
#     4  10  24  42  65  96 135 173 214 270 335 389
#     4  11  22  40  63  95 128 172 220 268 332 386
#
# _framework density 21.623818
#
# number of rings (size 3 to 8) (size 9 to 14) (size 15 to 20)
#    0.000    1.000    3.333    4.500    2.333    4.000 
#    0.000    0.833    3.667    0.000    0.000    0.000 
#    0.000    0.000    0.000    0.000    0.000    0.000 
#
# Total GULP energy -148671.768357 kJ/mol
# GULP energy per Si atom -12389.314030 kJ/mol
# Density = 2.157460 g / cm^3
# Si number density = 21.623818 Si / 1000 Ang^3
#
#
#
# Elastic Constant Matrix: (Units=GPa)
#
#
# Indices 1 2 3 4 5 6 
#
# 1 102.3585 1.5860 55.3805 0.0000 -32.0942 0.0000
# 2 1.5860 106.0588 38.5067 0.0000 -10.4585 0.0000
# 3 55.3805 38.5067 141.8621 0.0000 -21.8706 0.0000
# 4 0.0000 0.0000 0.0000 24.0185 0.0000 -7.2801
# 5 -32.0942 -10.4585 -21.8706 0.0000 49.6811 0.0000
# 6 0.0000 0.0000 0.0000 -7.2801 0.0000 6.6433
#
#
#
# Elastic Compliance Matrix: (Units=1/GPa)
#
#
# Indices 1 2 3 4 5 6 
#
# 1 0.015117 0.002501 -0.005357 0.000000 0.007934 0.000000
# 2 0.002501 0.010922 -0.003581 0.000000 0.002339 0.000000
# 3 -0.005357 -0.003581 0.010152 0.000000 0.000254 0.000000
# 4 0.000000 0.000000 0.000000 0.062342 0.000000 0.068318
# 5 0.007934 0.002339 0.000254 0.000000 0.025858 0.000000
# 6 0.000000 0.000000 0.000000 0.068318 0.000000 0.225394
#
#
# Mechanical properties :
#
#
# Convention : Reuss Voigt Hill
#
# Bulk Modulus (GPa) = 42.88598 60.13621 51.51110
# Shear Modulus (GPa) = 13.49785 33.05566 23.27676
#
# Velocity S-wave (km/s) = 2.50113 3.91406 3.28447
# Velocity P-wave (km/s) = 5.31194 6.94961 6.18521
#
# Compressibility (1/GPa) = 0.02331764
#
# Stress axis : x y z
#
# Youngs Moduli (GPa) = 66.15102 91.55884 98.50695
#
# Poissons Ratio (x) = -0.22902 0.52772
# Poissons Ratio (y) = -0.16547 0.35271
# Poissons Ratio (z) = 0.35438 0.32783
#
# Static dielectric constant tensor:
#      x y z
#    x 4.111110 0.000000 -0.200760 
#    y 0.000000 4.315740 0.000000 
#    z -0.200760 0.000000 3.998010 
# 
# 
# High freq. dielectric constant tensor:
#      x y z
#    x 1.842010 0.000000 -0.011980 
#    y 0.000000 1.835880 0.000000 
#    z -0.011980 0.000000 1.858850 
# 
# From -- ./inp_files/1204.got.cif
#   From: 2010.03.12/outbox.cif.g09.slc.cpg/sg3_1_cif.got.tgz:1204.got - 2010.03.31 09:20:49.
