data_PCOD8045725
_publ_section_title
;
Structure prediction by ZEFSAII (Michael W. Deem and Ramdas Pophale) SiO2 
 PCOD8045725
Probable space group: P 21
;
_chemical_formula_sum "Si O2"
_cell_formula_units_Z 16
_cell_length_a 18.461222
_cell_length_b 9.325465
_cell_length_c 8.791764
_cell_angle_alpha 90.000000
_cell_angle_beta 146.698404
_cell_angle_gamma 90.000000
_cell_volume 831.028223
_symmetry_space_group_name_H-M "P 21"
_symmetry_group_IT_number 4
_symmetry_cell_setting 'monoclinic'
loop_
_space_group_symop_operation_xyz
x,y,z
-x,1/2+y,-z
loop_
_atom_site_type_symbol
_atom_site_label
_atom_site_fract_x
_atom_site_fract_y
_atom_site_fract_z
Si Si1 0.225362 0.786460 0.348854
Si Si2 0.227481 0.251849 0.438115
Si Si3 0.590450 0.950725 0.092013
Si Si4 0.321586 0.990798 0.760471
Si Si5 0.136362 0.539167 0.369515
Si Si6 0.858996 0.560030 0.977662
Si Si7 0.477773 0.798385 0.608764
Si Si8 0.357598 0.023721 0.169872
O O1 0.132372 0.648791 0.218049
O O2 0.350951 0.733383 0.472148
O O3 0.271017 0.845928 0.593589
O O4 0.151671 0.909956 0.128457
O O5 0.370197 0.328733 0.713276
O O6 0.220852 0.121618 0.548710
O O7 0.116446 0.373982 0.276703
O O8 0.209743 0.188156 0.238485
O O9 0.718795 0.055080 0.297461
O O10 0.566490 0.884457 0.884421
O O11 0.463233 0.033579 0.933328
O O12 0.333779 0.964380 0.960112
O O13 0.016776 0.583439 0.272838
O O14 0.786793 0.554455 0.012288
O O15 0.559934 0.669590 0.681536
O O16 0.436163 0.905170 0.401946
#
# Coordination Sequence:
#
# PCOD8045725 Si02
#       8
#     2   2   2   2   2   2   2   2
#     4   9  20  36  57  79 109 139 190 229 262 318
#     4   9  20  35  60  79 103 150 181 229 267 312
#     4   9  20  33  60  77 105 140 189 223 259 320
#     4  10  19  37  56  82 109 140 182 226 284 320
#     4  10  19  33  59  80 105 143 194 224 256 319
#     4  10  21  36  52  84 112 145 178 225 274 326
#     4  10  21  37  53  84 108 141 177 231 279 327
#     4  11  22  35  55  79 119 138 171 227 291 322
#
# _framework density 19.253254999999999
#
# number of rings (size 3 to 8) (size 9 to 14) (size 15 to 20)
#    0.750    1.500    1.250    2.250    3.500    1.000 
#    0.000    2.500    0.000    3.000    0.000    0.000 
#    0.000    0.000    0.000    0.000    0.000    0.000 
#
# Total GULP energy -198240.921699 kJ/mol
# GULP energy per Si atom -12390.057606 kJ/mol
# Density = 1.920943 g / cm^3
# Si number density = 19.253255 Si / 1000 Ang^3
#
#
#
# Elastic Constant Matrix: (Units=GPa)
#
#
# Indices 1 2 3 4 5 6 
#
# 1 128.7900 54.7051 48.6781 0.0000 4.9539 0.0000
# 2 54.7051 94.4211 22.1044 0.0000 1.3713 0.0000
# 3 48.6781 22.1044 59.1900 0.0000 -0.0265 0.0000
# 4 0.0000 0.0000 0.0000 18.2154 0.0000 2.0127
# 5 4.9539 1.3713 -0.0265 0.0000 31.6728 0.0000
# 6 0.0000 0.0000 0.0000 2.0127 0.0000 25.9160
#
#
#
# Elastic Compliance Matrix: (Units=1/GPa)
#
#
# Indices 1 2 3 4 5 6 
#
# 1 0.013762 -0.005803 -0.009152 0.000000 -0.001909 0.000000
# 2 -0.005803 0.014061 -0.000478 0.000000 0.000298 0.000000
# 3 -0.009152 -0.000478 0.024600 0.000000 0.001473 0.000000
# 4 0.000000 0.000000 0.000000 0.055374 0.000000 -0.004300
# 5 -0.001909 0.000298 0.001473 0.000000 0.031860 0.000000
# 6 0.000000 0.000000 0.000000 -0.004300 0.000000 0.038920
#
#
# Mechanical properties :
#
#
# Convention : Reuss Voigt Hill
#
# Bulk Modulus (GPa) = 46.38871 59.26403 52.82637
# Shear Modulus (GPa) = 23.08103 25.62173 24.35138
#
# Velocity S-wave (km/s) = 3.46614 3.65194 3.56025
# Velocity P-wave (km/s) = 6.33760 6.97354 6.66316
#
# Compressibility (1/GPa) = 0.02155697
#
# Stress axis : x y z
#
# Youngs Moduli (GPa) = 72.66428 71.12033 40.64996
#
# Poissons Ratio (x) = 0.41272 0.37201
# Poissons Ratio (y) = 0.42168 0.01944
# Poissons Ratio (z) = 0.66499 0.03401
#
# Static dielectric constant tensor:
#      x y z
#    x 3.320680 0.000000 0.107680 
#    y 0.000000 3.513860 0.000000 
#    z 0.107680 0.000000 3.422240 
# 
# 
# High freq. dielectric constant tensor:
#      x y z
#    x 1.725150 0.000000 0.010910 
#    y 0.000000 1.755250 0.000000 
#    z 0.010910 0.000000 1.739180 
# 
# From -- ./inp_files/9608.got.cif
#   From: 2010.03.12/outbox.cif.g09.slc.cpg/sg4_5_cif.got.tgz:9608.got - 2010.03.31 09:31:35.
