data_PCOD8045631
_publ_section_title
;
Structure prediction by ZEFSAII (Michael W. Deem and Ramdas Pophale) SiO2 
 PCOD8045631
Probable space group: P 21
;
_chemical_formula_sum "Si O2"
_cell_formula_units_Z 14
_cell_length_a 12.555426
_cell_length_b 4.989398
_cell_length_c 11.946050
_cell_angle_alpha 90.000000
_cell_angle_beta 118.406925
_cell_angle_gamma 90.000000
_cell_volume 658.240722
_symmetry_space_group_name_H-M "P 21"
_symmetry_group_IT_number 4
_symmetry_cell_setting 'monoclinic'
loop_
_space_group_symop_operation_xyz
x,y,z
-x,1/2+y,-z
loop_
_atom_site_type_symbol
_atom_site_label
_atom_site_fract_x
_atom_site_fract_y
_atom_site_fract_z
Si Si1 0.909349 0.162030 0.576450
Si Si2 0.158163 0.162489 0.592351
Si Si3 0.499999 0.456580 0.430169
Si Si4 0.841837 0.750687 0.934189
Si Si5 0.577524 0.723362 0.822026
Si Si6 0.422477 0.189809 0.744501
Si Si7 0.909349 0.251145 0.832899
O O1 0.840728 0.368545 0.461109
O O2 0.874828 0.206586 0.687414
O O3 0.054120 0.192294 0.633607
O O4 0.863899 0.869411 0.519431
O O5 0.285580 0.218880 0.720884
O O6 0.442900 0.706575 0.471454
O O7 0.402187 0.314361 0.298739
O O8 0.402190 0.098811 0.603448
O O9 0.714421 0.694295 0.935306
O O10 0.863899 0.543766 0.844469
O O11 0.840728 0.044632 0.879621
O O12 0.945881 0.720880 0.079487
O O13 0.500001 0.456585 0.795043
O O14 0.499999 0.956585 0.846646
#
# Coordination Sequence:
#
# PCOD8045631 Si02
#       7
#     2   2   2   2   2   2   2
#     4  10  21  37  57  79 103 139 181 223 262 304
#     4  10  21  37  55  79 108 139 177 217 265 313
#     4  10  18  30  42  68 104 134 168 198 246 314
#     4  10  21  37  55  79 108 139 177 217 265 313
#     4  10  20  33  48  71 104 141 160 206 260 312
#     4  10  20  33  48  71 104 141 160 206 260 312
#     4  10  21  37  57  79 103 139 181 223 262 304
#
# _framework density 21.268815
#
# number of rings (size 3 to 8) (size 9 to 14) (size 15 to 20)
#    0.857    1.143    1.429    2.571    0.000    3.429 
#    0.000    0.000    0.000    1.714    0.000    0.000 
#    0.000    0.000    0.000    0.000    0.000    0.000 
#
# Total GULP energy -173459.648430 kJ/mol
# GULP energy per Si atom -12389.974888 kJ/mol
# Density = 2.122041 g / cm^3
# Si number density = 21.268815 Si / 1000 Ang^3
#
#
#
# Elastic Constant Matrix: (Units=GPa)
#
#
# Indices 1 2 3 4 5 6 
#
# 1 93.3011 20.6801 16.9799 0.0000 50.0530 0.0000
# 2 20.6801 117.7885 2.3646 0.0000 15.8617 0.0000
# 3 16.9799 2.3646 21.4235 0.0000 12.1938 0.0000
# 4 0.0000 0.0000 0.0000 16.6672 0.0000 4.0432
# 5 50.0530 15.8617 12.1938 0.0000 42.0500 0.0000
# 6 0.0000 0.0000 0.0000 4.0432 0.0000 21.3370
#
#
#
# Elastic Compliance Matrix: (Units=1/GPa)
#
#
# Indices 1 2 3 4 5 6 
#
# 1 0.029992 -0.000567 -0.004204 0.000000 -0.034267 0.000000
# 2 -0.000567 0.008977 0.001200 0.000000 -0.003060 0.000000
# 3 -0.004204 0.001200 0.056634 0.000000 -0.011871 0.000000
# 4 0.000000 0.000000 0.000000 0.062889 0.000000 -0.011917
# 5 -0.034267 -0.003060 -0.011871 0.000000 0.069166 0.000000
# 6 0.000000 0.000000 0.000000 -0.011917 0.000000 0.049125
#
#
# Mechanical properties :
#
#
# Convention : Reuss Voigt Hill
#
# Bulk Modulus (GPa) = 11.30450 34.72916 23.01683
# Shear Modulus (GPa) = 15.95341 28.84344 22.39842
#
# Velocity S-wave (km/s) = 2.74174 3.68657 3.24869
# Velocity P-wave (km/s) = 3.91784 5.87241 4.99173
#
# Compressibility (1/GPa) = 0.08846038
#
# Stress axis : x y z
#
# Youngs Moduli (GPa) = 33.34250 111.39303 17.65717
#
# Poissons Ratio (x) = 0.06314 0.07424
# Poissons Ratio (y) = 0.01890 -0.02118
# Poissons Ratio (z) = 0.14018 -0.13365
#
# Static dielectric constant tensor:
#      x y z
#    x 3.657980 0.000000 0.243610 
#    y 0.000000 3.985100 0.000000 
#    z 0.243610 0.000000 3.376680 
# 
# 
# High freq. dielectric constant tensor:
#      x y z
#    x 1.817280 0.000000 0.024360 
#    y 0.000000 1.856840 0.000000 
#    z 0.024360 0.000000 1.789150 
# 
# From -- ./inp_files/11482.got.cif
#   From: 2010.03.12/outbox.cif.g09.slc.cpg/sg4_6_cif.got.tgz:11482.got - 2010.03.31 09:31:35.
