data_PCOD8045254
_publ_section_title
;
Structure prediction by ZEFSAII (Michael W. Deem and Ramdas Pophale) SiO2 
 PCOD8045254
Probable space group: P 2
;
_chemical_formula_sum "Si O2"
_cell_formula_units_Z 11
_cell_length_a 12.975547
_cell_length_b 5.211464
_cell_length_c 17.463785
_cell_angle_alpha 90.000000
_cell_angle_beta 22.077147
_cell_angle_gamma 90.000000
_cell_volume 443.857695
_symmetry_space_group_name_H-M "P 2"
_symmetry_group_IT_number 3
_symmetry_cell_setting 'monoclinic'
loop_
_space_group_symop_operation_xyz
x,y,z
-x,y,-z
loop_
_atom_site_type_symbol
_atom_site_label
_atom_site_fract_x
_atom_site_fract_y
_atom_site_fract_z
Si Si1 0.783224 0.254050 0.341272
Si Si2 0.926664 0.750134 0.328605
Si Si3 0.000000 0.047740 0.500000
Si Si4 0.458365 0.746054 0.878114
Si Si5 0.192734 0.097024 0.936983
Si Si6 0.302742 0.396672 0.393976
O O1 0.500000 0.169602 0.500000
O O2 0.770011 0.538767 0.384669
O O3 0.842827 0.042230 0.366960
O O4 0.013409 0.268876 0.117791
O O5 0.829927 0.659782 0.479876
O O6 0.254667 0.724602 0.090849
O O7 0.061499 0.204376 0.536011
O O8 0.266628 0.894144 0.288623
O O9 0.552144 0.463863 0.787164
O O10 0.301452 0.858050 0.911267
O O11 0.454166 0.259818 0.723676
O O12 0.000000 0.000649 0.000000
#
# Coordination Sequence:
#
# PCOD8045254 Si02
#       6
#     2   2   1   2   2   2
#     4  11  23  42  65 106 146 187 233 283 337 426
#     4  11  25  43  71 100 144 181 233 290 348 416
#     4  10  24  46  74  96 138 182 242 300 362 406
#     4  10  23  46  66 101 139 177 236 294 342 427
#     4  10  22  39  68 102 144 185 227 280 348 416
#     4  11  23  44  71  98 136 184 233 289 353 419
#
# _framework density 24.782717000000002
#
# number of rings (size 3 to 8) (size 9 to 14) (size 15 to 20)
#    0.000    1.455    1.818    2.182    7.636    0.727 
#    0.000    5.455    0.000    0.000    0.000    0.000 
#    0.000    0.000    0.000    0.000    0.000    0.000 
#
# Total GULP energy -136329.586795 kJ/mol
# GULP energy per Si atom -12393.598800 kJ/mol
# Density = 2.472631 g / cm^3
# Si number density = 24.782717 Si / 1000 Ang^3
#
#
#
# Elastic Constant Matrix: (Units=GPa)
#
#
# Indices 1 2 3 4 5 6 
#
# 1 63.3767 3.9609 44.8708 0.0000 -23.9627 0.0000
# 2 3.9609 56.1980 25.0514 0.0000 -11.9004 0.0000
# 3 44.8708 25.0514 168.4011 0.0000 -12.7583 0.0000
# 4 0.0000 0.0000 0.0000 39.8126 0.0000 3.7591
# 5 -23.9627 -11.9004 -12.7583 0.0000 43.6002 0.0000
# 6 0.0000 0.0000 0.0000 3.7591 0.0000 27.8943
#
#
#
# Elastic Compliance Matrix: (Units=1/GPa)
#
#
# Indices 1 2 3 4 5 6 
#
# 1 0.024772 0.003726 -0.006183 0.000000 0.012822 0.000000
# 2 0.003726 0.020511 -0.003543 0.000000 0.006609 0.000000
# 3 -0.006183 -0.003543 0.007959 0.000000 -0.002037 0.000000
# 4 0.000000 0.000000 0.000000 0.025441 0.000000 -0.003429
# 5 0.012822 0.006609 -0.002037 0.000000 0.031191 0.000000
# 6 0.000000 0.000000 0.000000 -0.003429 0.000000 0.036312
#
#
# Mechanical properties :
#
#
# Convention : Reuss Voigt Hill
#
# Bulk Modulus (GPa) = 24.24888 48.41579 36.33234
# Shear Modulus (GPa) = 29.08122 36.53428 32.80775
#
# Velocity S-wave (km/s) = 3.42928 3.84368 3.64237
# Velocity P-wave (km/s) = 5.04834 6.26713 5.69046
#
# Compressibility (1/GPa) = 0.04123901
#
# Stress axis : x y z
#
# Youngs Moduli (GPa) = 40.36885 48.75529 125.65147
#
# Poissons Ratio (x) = -0.18164 0.77693
# Poissons Ratio (y) = -0.15040 0.44520
# Poissons Ratio (z) = 0.24961 0.17275
#
# Static dielectric constant tensor:
#      x y z
#    x 4.190090 0.000000 -0.018650 
#    y 0.000000 4.291430 0.000000 
#    z -0.018650 0.000000 4.993380 
# 
# 
# High freq. dielectric constant tensor:
#      x y z
#    x 1.963230 0.000000 -0.001660 
#    y 0.000000 1.985100 0.000000 
#    z -0.001660 0.000000 2.011060 
# 
# From -- ./inp_files/15945.got.cif
#   From: 2010.03.12/outbox.cif.g09.slc.cpg/sg3_8_cif.got.tgz:15945.got - 2010.03.31 09:20:49.
