data_PCOD8045419
_publ_section_title
;
Structure prediction by ZEFSAII (Michael W. Deem and Ramdas Pophale) SiO2 
 PCOD8045419
Probable space group: P 2
;
_chemical_formula_sum "Si O2"
_cell_formula_units_Z 14
_cell_length_a 10.291865
_cell_length_b 7.027777
_cell_length_c 15.242992
_cell_angle_alpha 90.000000
_cell_angle_beta 33.550577
_cell_angle_gamma 90.000000
_cell_volume 609.326998
_symmetry_space_group_name_H-M "P 2"
_symmetry_group_IT_number 3
_symmetry_cell_setting 'monoclinic'
loop_
_space_group_symop_operation_xyz
x,y,z
-x,y,-z
loop_
_atom_site_type_symbol
_atom_site_label
_atom_site_fract_x
_atom_site_fract_y
_atom_site_fract_z
Si Si1 0.451109 0.389750 0.346664
Si Si2 0.592547 0.810775 0.690880
Si Si3 0.076182 0.325757 0.329430
Si Si4 0.766166 0.110786 0.081858
Si Si5 0.014712 0.040850 0.225607
Si Si6 0.000000 0.042032 0.500000
Si Si7 0.714054 0.730509 0.817226
Si Si8 0.500000 0.183280 0.500000
O O1 0.456881 0.617057 0.332436
O O2 0.186553 0.323475 0.483662
O O3 0.607940 0.301645 0.179502
O O4 0.536961 0.321652 0.394951
O O5 0.612389 0.816833 0.785492
O O6 0.372427 0.943172 0.789176
O O7 0.842089 0.908538 0.522855
O O8 0.090899 0.244325 0.223394
O O9 0.181984 0.167794 0.336979
O O10 0.175639 0.533947 0.277802
O O11 0.000000 0.162856 0.000000
O O12 0.834083 0.039038 0.947534
O O13 0.729684 0.044877 0.376227
O O14 0.095941 0.862262 0.239477
O O15 0.500000 0.680809 0.000000
#
# Coordination Sequence:
#
# PCOD8045419 Si02
#       8
#     2   2   2   2   2   1   2   1
#     4  11  25  47  74 106 146 200 253 310 372 448
#     4  12  26  44  74 109 150 193 248 313 380 452
#     4  11  25  43  71 106 145 195 240 306 374 449
#     4  12  26  49  74 105 147 199 251 310 380 447
#     4  11  25  48  75 107 150 192 253 308 380 446
#     4  12  22  46  74 108 148 194 250 316 386 450
#     4  12  26  44  72 115 151 191 244 313 385 452
#     4  10  24  52  78 108 152 204 254 312 370 450
#
# _framework density 22.976167
#
# number of rings (size 3 to 8) (size 9 to 14) (size 15 to 20)
#    0.000    0.571    5.714    1.714    2.000    1.143 
#    5.143    1.429    0.000    0.000    0.000    0.000 
#    0.000    0.000    0.000    0.000    0.000    0.000 
#
# Total GULP energy -173467.374525 kJ/mol
# GULP energy per Si atom -12390.526752 kJ/mol
# Density = 2.292387 g / cm^3
# Si number density = 22.976167 Si / 1000 Ang^3
#
#
#
# Elastic Constant Matrix: (Units=GPa)
#
#
# Indices 1 2 3 4 5 6 
#
# 1 59.4445 33.0278 39.9805 0.0000 -7.2336 0.0000
# 2 33.0278 159.7722 54.1236 0.0000 -9.3339 0.0000
# 3 39.9805 54.1236 104.0760 0.0000 -1.2204 0.0000
# 4 0.0000 0.0000 0.0000 29.1389 0.0000 -1.1100
# 5 -7.2336 -9.3339 -1.2204 0.0000 35.3028 0.0000
# 6 0.0000 0.0000 0.0000 -1.1100 0.0000 38.6226
#
#
#
# Elastic Compliance Matrix: (Units=1/GPa)
#
#
# Indices 1 2 3 4 5 6 
#
# 1 0.023851 -0.001947 -0.008102 0.000000 0.004092 0.000000
# 2 -0.001947 0.007882 -0.003333 0.000000 0.001570 0.000000
# 3 -0.008102 -0.003333 0.014430 0.000000 -0.002042 0.000000
# 4 0.000000 0.000000 0.000000 0.034356 0.000000 0.000987
# 5 0.004092 0.001570 -0.002042 0.000000 0.029509 0.000000
# 6 0.000000 0.000000 0.000000 0.000987 0.000000 0.025920
#
#
# Mechanical properties :
#
#
# Convention : Reuss Voigt Hill
#
# Bulk Modulus (GPa) = 51.54595 64.17295 57.85945
# Shear Modulus (GPa) = 29.55467 33.69024 31.62246
#
# Velocity S-wave (km/s) = 3.59042 3.83340 3.71390
# Velocity P-wave (km/s) = 6.29852 6.89813 6.60513
#
# Compressibility (1/GPa) = 0.01940017
#
# Stress axis : x y z
#
# Youngs Moduli (GPa) = 41.92666 126.87079 69.30068
#
# Poissons Ratio (x) = 0.24700 0.56147
# Poissons Ratio (y) = 0.08162 0.23096
# Poissons Ratio (z) = 0.33969 0.42282
#
# Static dielectric constant tensor:
#      x y z
#    x 4.439200 0.000000 0.139790 
#    y 0.000000 4.142260 0.000000 
#    z 0.139790 0.000000 4.396190 
# 
# 
# High freq. dielectric constant tensor:
#      x y z
#    x 1.907140 0.000000 0.006720 
#    y 0.000000 1.909970 0.000000 
#    z 0.006720 0.000000 1.920120 
# 
# From -- ./inp_files/15176.got.cif
#   From: 2010.03.12/outbox.cif.g09.slc.cpg/sg3_8_cif.got.tgz:15176.got - 2010.03.31 09:20:49.
