data_PCOD8045669
_publ_section_title
;
Structure prediction by ZEFSAII (Michael W. Deem and Ramdas Pophale) SiO2 
 PCOD8045669
Probable space group: P 21
;
_chemical_formula_sum "Si O2"
_cell_formula_units_Z 16
_cell_length_a 12.006099
_cell_length_b 8.022338
_cell_length_c 12.056920
_cell_angle_alpha 90.000000
_cell_angle_beta 143.222235
_cell_angle_gamma 90.000000
_cell_volume 695.276909
_symmetry_space_group_name_H-M "P 21"
_symmetry_group_IT_number 4
_symmetry_cell_setting 'monoclinic'
loop_
_space_group_symop_operation_xyz
x,y,z
-x,1/2+y,-z
loop_
_atom_site_type_symbol
_atom_site_label
_atom_site_fract_x
_atom_site_fract_y
_atom_site_fract_z
Si Si1 0.268105 0.379040 0.516523
Si Si2 0.939282 0.135038 0.228401
Si Si3 0.470681 0.650601 0.145729
Si Si4 0.228303 0.144648 0.790637
Si Si5 0.900941 0.782718 0.089505
Si Si6 0.422188 0.414853 0.291287
Si Si7 0.692704 0.156098 0.620842
Si Si8 0.947746 0.958026 0.456504
O O1 0.437429 0.269699 0.692334
O O2 0.349568 0.498325 0.489408
O O3 0.204746 0.491453 0.569944
O O4 0.104025 0.264116 0.333254
O O5 0.941689 0.104387 0.361758
O O6 0.968835 0.961453 0.188299
O O7 0.740219 0.211788 0.037253
O O8 0.566475 0.656788 0.099737
O O9 0.483174 0.466353 0.213456
O O10 0.216608 0.172853 0.913417
O O11 0.085635 0.280973 0.626552
O O12 0.144704 0.967921 0.681053
O O13 0.086483 0.688656 0.198902
O O14 0.765096 0.803756 0.874452
O O15 0.578905 0.314677 0.483957
O O16 0.376624 0.591985 0.314858
#
# Coordination Sequence:
#
# PCOD8045669 Si02
#       8
#     2   2   2   2   2   2   2   2
#     4  11  22  39  63  93 129 177 221 271 330 390
#     4  10  21  40  61  95 135 176 218 267 335 399
#     4  10  22  42  66  96 136 172 214 280 326 394
#     4  10  20  38  62 100 132 173 215 258 337 394
#     4  10  24  45  69  98 131 175 222 272 334 392
#     4  11  27  46  69 100 131 175 227 272 333 388
#     4  12  26  45  71  95 130 175 223 281 326 390
#     4  10  18  35  59  91 130 167 218 255 325 395
#
# _framework density 23.012414
#
# number of rings (size 3 to 8) (size 9 to 14) (size 15 to 20)
#    0.000    1.500    3.750    1.500    1.750    5.000 
#    9.000    0.000    0.000    0.000    0.000    0.000 
#    0.000    0.000    0.000    0.000    0.000    0.000 
#
# Total GULP energy -198271.736320 kJ/mol
# GULP energy per Si atom -12391.983520 kJ/mol
# Density = 2.296004 g / cm^3
# Si number density = 23.012414 Si / 1000 Ang^3
#
#
#
# Elastic Constant Matrix: (Units=GPa)
#
#
# Indices 1 2 3 4 5 6 
#
# 1 91.0213 29.3597 20.3740 0.0000 5.1680 0.0000
# 2 29.3597 50.3252 21.4175 0.0000 11.0381 0.0000
# 3 20.3740 21.4175 97.1761 0.0000 5.9309 0.0000
# 4 0.0000 0.0000 0.0000 20.5412 0.0000 6.7429
# 5 5.1680 11.0381 5.9309 0.0000 21.8676 0.0000
# 6 0.0000 0.0000 0.0000 6.7429 0.0000 38.1598
#
#
#
# Elastic Compliance Matrix: (Units=1/GPa)
#
#
# Indices 1 2 3 4 5 6 
#
# 1 0.013682 -0.007669 -0.001238 0.000000 0.000973 0.000000
# 2 -0.007669 0.028569 -0.003985 0.000000 -0.011528 0.000000
# 3 -0.001238 -0.003985 0.011478 0.000000 -0.000809 0.000000
# 4 0.000000 0.000000 0.000000 0.051680 0.000000 -0.009132
# 5 0.000973 -0.011528 -0.000809 0.000000 0.051538 0.000000
# 6 0.000000 0.000000 0.000000 -0.009132 0.000000 0.027819
#
#
# Mechanical properties :
#
#
# Convention : Reuss Voigt Hill
#
# Bulk Modulus (GPa) = 35.78402 42.31389 39.04895
# Shear Modulus (GPa) = 22.74128 27.27182 25.00655
#
# Velocity S-wave (km/s) = 3.14700 3.44625 3.30002
# Velocity P-wave (km/s) = 5.36549 5.85345 5.61477
#
# Compressibility (1/GPa) = 0.02794544
#
# Stress axis : x y z
#
# Youngs Moduli (GPa) = 73.08962 35.00291 87.12459
#
# Poissons Ratio (x) = 0.26842 0.10784
# Poissons Ratio (y) = 0.56050 0.34721
# Poissons Ratio (z) = 0.09047 0.13949
#
# Static dielectric constant tensor:
#      x y z
#    x 4.095940 0.000000 -0.085140 
#    y 0.000000 4.177230 0.000000 
#    z -0.085140 0.000000 4.200160 
# 
# 
# High freq. dielectric constant tensor:
#      x y z
#    x 1.902750 0.000000 -0.002930 
#    y 0.000000 1.901600 0.000000 
#    z -0.002930 0.000000 1.909830 
# 
# From -- ./inp_files/12150.got.cif
#   From: 2010.03.12/outbox.cif.g09.slc.cpg/sg4_7_cif.got.tgz:12150.got - 2010.03.31 09:31:35.
