data_PCOD8045820
_publ_section_title
;
Structure prediction by ZEFSAII (Michael W. Deem and Ramdas Pophale) SiO2 
 PCOD8045820
Probable space group: P 21
;
_chemical_formula_sum "Si O2"
_cell_formula_units_Z 16
_cell_length_a 14.994539
_cell_length_b 7.273120
_cell_length_c 9.093228
_cell_angle_alpha 90.000000
_cell_angle_beta 140.350522
_cell_angle_gamma 90.000000
_cell_volume 632.780809
_symmetry_space_group_name_H-M "P 21"
_symmetry_group_IT_number 4
_symmetry_cell_setting 'monoclinic'
loop_
_space_group_symop_operation_xyz
x,y,z
-x,1/2+y,-z
loop_
_atom_site_type_symbol
_atom_site_label
_atom_site_fract_x
_atom_site_fract_y
_atom_site_fract_z
Si Si1 0.880100 0.407760 0.876527
Si Si2 0.195400 0.309464 0.757235
Si Si3 0.237265 0.101804 0.525317
Si Si4 0.509020 0.918874 0.877251
Si Si5 0.547082 0.002190 0.252887
Si Si6 0.146804 0.545921 0.350035
Si Si7 0.267584 0.933058 0.014515
Si Si8 0.114553 0.794356 0.567860
O O1 0.858031 0.585565 0.741776
O O2 0.862010 0.228338 0.757136
O O3 0.764478 0.416310 0.855616
O O4 0.030150 0.407393 0.144663
O O5 0.199123 0.276583 0.581828
O O6 0.042895 0.378880 0.615852
O O7 0.327057 0.444341 0.963724
O O8 0.218163 0.121437 0.875094
O O9 0.403479 0.082761 0.690753
O O10 0.209486 0.926899 0.592728
O O11 0.451958 0.723756 0.747709
O O12 0.500841 0.914453 0.041745
O O13 0.705704 0.940820 0.494812
O O14 0.436129 0.920920 0.227294
O O15 0.120618 0.596214 0.491107
O O16 0.187500 0.772118 0.820472
#
# Coordination Sequence:
#
# PCOD8045820 Si02
#       8
#     2   2   2   2   2   2   2   2
#     4  11  24  42  62  92 133 172 199 264 322 382
#     4  10  21  35  66  95 121 162 217 264 310 372
#     4  10  21  40  59  89 131 163 208 262 319 379
#     4  11  19  38  65  91 126 160 214 264 310 366
#     4  11  21  41  65  93 124 168 212 263 312 377
#     4  11  24  42  66  90 132 170 211 258 322 383
#     4  10  21  39  63  90 126 163 210 263 312 372
#     4  10  19  39  62  94 121 160 213 270 301 367
#
# _framework density 25.285218
#
# number of rings (size 3 to 8) (size 9 to 14) (size 15 to 20)
#    0.000    1.500    7.500    0.000    3.500    0.000 
#    0.000    5.000    0.000    0.000    0.000    0.000 
#    0.000    0.000    0.000    0.000    0.000    0.000 
#
# Total GULP energy -198301.109576 kJ/mol
# GULP energy per Si atom -12393.819349 kJ/mol
# Density = 2.522767 g / cm^3
# Si number density = 25.285218 Si / 1000 Ang^3
#
#
#
# Elastic Constant Matrix: (Units=GPa)
#
#
# Indices 1 2 3 4 5 6 
#
# 1 135.2005 27.4355 47.1972 0.0000 28.3870 0.0000
# 2 27.4355 39.3588 11.7184 0.0000 5.7750 0.0000
# 3 47.1972 11.7184 113.2538 0.0000 27.7958 0.0000
# 4 0.0000 0.0000 0.0000 29.5071 0.0000 7.1444
# 5 28.3870 5.7750 27.7958 0.0000 61.2421 0.0000
# 6 0.0000 0.0000 0.0000 7.1444 0.0000 20.6470
#
#
#
# Elastic Compliance Matrix: (Units=1/GPa)
#
#
# Indices 1 2 3 4 5 6 
#
# 1 0.010204 -0.005817 -0.002953 0.000000 -0.002841 0.000000
# 2 -0.005817 0.029637 -0.000696 0.000000 0.000217 0.000000
# 3 -0.002953 -0.000696 0.011006 0.000000 -0.003561 0.000000
# 4 0.000000 0.000000 0.000000 0.036989 0.000000 -0.012799
# 5 -0.002841 0.000217 -0.003561 0.000000 0.019241 0.000000
# 6 0.000000 0.000000 0.000000 -0.012799 0.000000 0.052862
#
#
# Mechanical properties :
#
#
# Convention : Reuss Voigt Hill
#
# Bulk Modulus (GPa) = 31.33232 51.16836 41.25034
# Shear Modulus (GPa) = 26.38369 35.71004 31.04686
#
# Velocity S-wave (km/s) = 3.23374 3.76212 3.50789
# Velocity P-wave (km/s) = 5.13432 6.25714 5.72333
#
# Compressibility (1/GPa) = 0.03191592
#
# Stress axis : x y z
#
# Youngs Moduli (GPa) = 97.99789 33.74126 90.85570
#
# Poissons Ratio (x) = 0.19627 0.26833
# Poissons Ratio (y) = 0.57004 0.06322
# Poissons Ratio (z) = 0.28943 0.02348
#
# Static dielectric constant tensor:
#      x y z
#    x 4.758700 0.000000 0.239400 
#    y 0.000000 4.689740 0.000000 
#    z 0.239400 0.000000 4.988090 
# 
# 
# High freq. dielectric constant tensor:
#      x y z
#    x 2.001080 0.000000 0.028340 
#    y 0.000000 2.014150 0.000000 
#    z 0.028340 0.000000 2.007470 
# 
# From -- ./inp_files/9203.got.cif
#   From: 2010.03.12/outbox.cif.g09.slc.cpg/sg4_5_cif.got.tgz:9203.got - 2010.03.31 09:31:35.
