data_PCOD8045342
_publ_section_title
;
Structure prediction by ZEFSAII (Michael W. Deem and Ramdas Pophale) SiO2 
 PCOD8045342
Probable space group: P 2
;
_chemical_formula_sum "Si O2"
_cell_formula_units_Z 13
_cell_length_a 11.656720
_cell_length_b 5.244775
_cell_length_c 8.834542
_cell_angle_alpha 90.000000
_cell_angle_beta 100.001290
_cell_angle_gamma 90.000000
_cell_volume 531.908586
_symmetry_space_group_name_H-M "P 2"
_symmetry_group_IT_number 3
_symmetry_cell_setting 'monoclinic'
loop_
_space_group_symop_operation_xyz
x,y,z
-x,y,-z
loop_
_atom_site_type_symbol
_atom_site_label
_atom_site_fract_x
_atom_site_fract_y
_atom_site_fract_z
Si Si1 0.000000 0.457760 0.000000
Si Si2 0.583501 0.484936 0.271354
Si Si3 0.874291 0.816810 0.732528
Si Si4 0.500000 0.155307 0.500000
Si Si5 0.500000 0.167019 0.000000
Si Si6 0.379633 0.852305 0.222999
Si Si7 0.929048 0.182731 0.246461
Si Si8 0.828378 0.681082 0.376442
O O1 0.953501 0.626737 0.849930
O O2 0.094476 0.273798 0.933911
O O3 0.591443 0.310562 0.420465
O O4 0.452286 0.592421 0.238803
O O5 0.689979 0.679803 0.308947
O O6 0.593340 0.327170 0.118806
O O7 0.757558 0.818265 0.804640
O O8 0.855054 0.709633 0.559369
O O9 0.933068 0.097821 0.724745
O O10 0.412278 0.990698 0.383813
O O11 0.585273 0.000460 0.918759
O O12 0.893055 0.416553 0.347492
O O13 0.867302 0.921809 0.284840
#
# Coordination Sequence:
#
# PCOD8045342 Si02
#       8
#     1   2   2   1   1   2   2   2
#     4  12  30  54  76 120 162 220 272 344 412 478
#     4  11  25  48  74 118 152 210 264 337 410 488
#     4  12  29  53  83 121 164 223 277 349 408 499
#     4  10  22  44  76 118 148 200 264 334 402 484
#     4  10  26  46  76 116 162 202 262 332 416 490
#     4  11  25  49  79 115 160 205 271 332 417 490
#     4  12  30  53  79 122 162 218 276 340 406 489
#     4  12  30  51  90 115 167 216 282 341 412 494
#
# _framework density 24.440287999999999
#
# number of rings (size 3 to 8) (size 9 to 14) (size 15 to 20)
#    0.000    0.615    1.538    3.692   10.769    7.385 
#    0.000    0.000    0.000    0.000    0.000    0.000 
#    0.000    0.000    0.000    0.000    0.000    0.000 
#
# Total GULP energy -161072.683548 kJ/mol
# GULP energy per Si atom -12390.206427 kJ/mol
# Density = 2.438466 g / cm^3
# Si number density = 24.440288 Si / 1000 Ang^3
#
#
#
# Elastic Constant Matrix: (Units=GPa)
#
#
# Indices 1 2 3 4 5 6 
#
# 1 125.4914 32.0461 23.5072 0.0000 -11.7686 0.0000
# 2 32.0461 125.4130 45.1324 0.0000 -14.4260 0.0000
# 3 23.5072 45.1324 150.9064 0.0000 -23.9903 0.0000
# 4 0.0000 0.0000 0.0000-1617.2932 0.0000 269.6743
# 5 -11.7686 -14.4260 -23.9903 0.0000 26.8672 0.0000
# 6 0.0000 0.0000 0.0000 269.6743 0.0000 -10.0969
#
#
#
# Elastic Compliance Matrix: (Units=1/GPa)
#
#
# Indices 1 2 3 4 5 6 
#
# 1 0.008740 -0.001793 -0.000431 0.000000 0.002481 0.000000
# 2 -0.001793 0.009489 -0.002183 0.000000 0.002360 0.000000
# 3 -0.000431 -0.002183 0.008310 0.000000 0.006059 0.000000
# 4 0.000000 0.000000 0.000000 0.000179 0.000000 0.004782
# 5 0.002481 0.002360 0.006059 0.000000 0.044984 0.000000
# 6 0.000000 0.000000 0.000000 0.004782 0.000000 0.028678
#
#
# Mechanical properties :
#
#
# Convention : Reuss Voigt Hill
#
# Bulk Modulus (GPa) = 56.41875 67.02026 61.71950
# Shear Modulus (GPa) = 43.43937 -300.02959 -128.29511
#
# Velocity S-wave (km/s) = 4.22046 -11.09174 -7.25309
# Velocity P-wave (km/s) = 6.84720 11.68564 6.69589
#
# Compressibility (1/GPa) = 0.01772460
#
# Stress axis : x y z
#
# Youngs Moduli (GPa) = 114.41823 105.38520 120.33692
#
# Poissons Ratio (x) = 0.18894 0.05185
# Poissons Ratio (y) = 0.20513 0.26275
# Poissons Ratio (z) = 0.04930 0.23011
#
# Static dielectric constant tensor:
#      x y z
#    x 7.363930 0.000000 -2.581370 
#    y 0.000000 4.724580 0.000000 
#    z -2.581370 0.000000 6.674240 
# 
# 
# High freq. dielectric constant tensor:
#      x y z
#    x 1.966070 0.000000 -0.024540 
#    y 0.000000 1.984610 0.000000 
#    z -0.024540 0.000000 1.992870 
# 
# From -- ./inp_files/6761.got.cif
#   From: 2010.03.12/outbox.cif.g09.slc.cpg/sg3_4_cif.got.tgz:6761.got - 2010.03.31 09:20:49.
