data_PCOD8045678
_publ_section_title
;
Structure prediction by ZEFSAII (Michael W. Deem and Ramdas Pophale) SiO2 
 PCOD8045678
Probable space group: P 21
;
_chemical_formula_sum "Si O2"
_cell_formula_units_Z 16
_cell_length_a 14.983988
_cell_length_b 6.880711
_cell_length_c 7.249055
_cell_angle_alpha 90.000000
_cell_angle_beta 89.181198
_cell_angle_gamma 90.000000
_cell_volume 747.304814
_symmetry_space_group_name_H-M "P 21"
_symmetry_group_IT_number 4
_symmetry_cell_setting 'monoclinic'
loop_
_space_group_symop_operation_xyz
x,y,z
-x,1/2+y,-z
loop_
_atom_site_type_symbol
_atom_site_label
_atom_site_fract_x
_atom_site_fract_y
_atom_site_fract_z
Si Si1 0.037629 0.120640 0.749620
Si Si2 0.614858 0.123792 0.113172
Si Si3 0.002771 0.682075 0.840382
Si Si4 0.592130 0.462189 0.401371
Si Si5 0.809054 0.185159 0.069853
Si Si6 0.481660 0.796722 0.227596
Si Si7 0.118640 0.851443 0.305551
Si Si8 0.785816 0.502344 0.362430
O O1 0.982568 0.391300 0.251185
O O2 0.963072 0.216661 0.620075
O O3 0.136278 0.164013 0.662467
O O4 0.029477 0.220917 0.949428
O O5 0.601067 0.259120 0.292724
O O6 0.718827 0.056641 0.085362
O O7 0.559934 0.926182 0.137043
O O8 0.586804 0.243292 0.932195
O O9 0.926769 0.559241 0.741146
O O10 0.102377 0.581560 0.845629
O O11 0.518360 0.597187 0.311224
O O12 0.567965 0.419744 0.613776
O O13 0.685943 0.582420 0.397452
O O14 0.785700 0.384199 0.173312
O O15 0.830428 0.247123 0.861375
O O16 0.190861 0.867936 0.463220
#
# Coordination Sequence:
#
# PCOD8045678 Si02
#       8
#     2   2   2   2   2   2   2   2
#     4  10  20  36  58  87 118 164 207 243 303 359
#     4  11  23  42  68  96 127 165 218 257 327 393
#     4  10  18  37  59  82 119 163 200 248 301 349
#     4  11  24  43  66  95 134 159 210 272 326 378
#     4   9  21  39  58  90 122 159 204 257 302 362
#     4  12  23  43  72  96 126 171 206 269 326 393
#     4  11  21  38  61  83 127 166 200 253 296 358
#     4  10  22  38  60  91 121 165 201 251 307 368
#
# _framework density 21.410271999999999
#
# number of rings (size 3 to 8) (size 9 to 14) (size 15 to 20)
#    0.000    1.500    6.250    0.750    3.500    1.000 
#    0.000    2.500    2.750    0.000    0.000    0.000 
#    0.000    0.000    0.000    0.000    0.000    0.000 
#
# Total GULP energy -198291.037109 kJ/mol
# GULP energy per Si atom -12393.189819 kJ/mol
# Density = 2.136154 g / cm^3
# Si number density = 21.410272 Si / 1000 Ang^3
#
#
#
# Elastic Constant Matrix: (Units=GPa)
#
#
# Indices 1 2 3 4 5 6 
#
# 1 99.7114 -5.7941 17.9854 0.0000 -6.5626 0.0000
# 2 -5.7941 30.8282 -6.7970 0.0000 0.9067 0.0000
# 3 17.9854 -6.7970 67.0945 0.0000 0.7361 0.0000
# 4 0.0000 0.0000 0.0000 23.7154 0.0000 -3.0286
# 5 -6.5626 0.9067 0.7361 0.0000 28.8025 0.0000
# 6 0.0000 0.0000 0.0000 -3.0286 0.0000 27.7498
#
#
#
# Elastic Compliance Matrix: (Units=1/GPa)
#
#
# Indices 1 2 3 4 5 6 
#
# 1 0.010771 0.001339 -0.002779 0.000000 0.002483 0.000000
# 2 0.001339 0.033382 0.003032 0.000000 -0.000823 0.000000
# 3 -0.002779 0.003032 0.015969 0.000000 -0.001137 0.000000
# 4 0.000000 0.000000 0.000000 0.042763 0.000000 0.004667
# 5 0.002483 -0.000823 -0.001137 0.000000 0.035340 0.000000
# 6 0.000000 0.000000 0.000000 0.004667 0.000000 0.036546
#
#
# Mechanical properties :
#
#
# Convention : Reuss Voigt Hill
#
# Bulk Modulus (GPa) = 15.79635 23.15808 19.47722
# Shear Modulus (GPa) = 25.94849 28.86952 27.40900
#
# Velocity S-wave (km/s) = 3.48510 3.67603 3.58184
# Velocity P-wave (km/s) = 4.85680 5.37191 5.12084
#
# Compressibility (1/GPa) = 0.06330576
#
# Stress axis : x y z
#
# Youngs Moduli (GPa) = 92.83815 29.95614 62.62164
#
# Poissons Ratio (x) = -0.04010 0.17403
# Poissons Ratio (y) = -0.12428 -0.18987
# Poissons Ratio (z) = 0.25800 -0.09083
#
# Static dielectric constant tensor:
#      x y z
#    x 4.383460 0.000000 -0.118990 
#    y 0.000000 3.493630 0.000000 
#    z -0.118990 0.000000 3.922440 
# 
# 
# High freq. dielectric constant tensor:
#      x y z
#    x 1.852130 0.000000 -0.006510 
#    y 0.000000 1.807160 0.000000 
#    z -0.006510 0.000000 1.849100 
# 
# From -- ./inp_files/3565.got.cif
#   From: 2010.03.12/outbox.cif.g09.slc.cpg/sg4_2_cif.got.tgz:3565.got - 2010.03.31 09:31:35.
