data_PCOD8045901
_publ_section_title
;
Structure prediction by ZEFSAII (Michael W. Deem and Ramdas Pophale) SiO2 
 PCOD8045901
Probable space group: P 21
;
_chemical_formula_sum "Si O2"
_cell_formula_units_Z 14
_cell_length_a 17.568253
_cell_length_b 4.928758
_cell_length_c 17.665414
_cell_angle_alpha 90.000000
_cell_angle_beta 152.862408
_cell_angle_gamma 90.000000
_cell_volume 697.714043
_symmetry_space_group_name_H-M "P 21"
_symmetry_group_IT_number 4
_symmetry_cell_setting 'monoclinic'
loop_
_space_group_symop_operation_xyz
x,y,z
-x,1/2+y,-z
loop_
_atom_site_type_symbol
_atom_site_label
_atom_site_fract_x
_atom_site_fract_y
_atom_site_fract_z
Si Si1 0.197324 0.213640 0.029838
Si Si2 0.535893 0.220932 0.245472
Si Si3 0.560903 0.317369 0.095306
Si Si4 0.896021 0.603666 0.896294
Si Si5 0.754084 0.709628 0.464412
Si Si6 0.972694 0.713989 0.805634
Si Si7 0.096028 0.067875 0.561047
O O1 0.130588 0.511285 0.950043
O O2 0.048645 0.013620 0.873837
O O3 0.365354 0.140002 0.134997
O O4 0.236322 0.184989 0.155143
O O5 0.501193 0.229186 0.125448
O O6 0.595127 0.511958 0.328182
O O7 0.683996 0.012088 0.395031
O O8 0.745093 0.441765 0.256376
O O9 0.437051 0.549451 0.954756
O O10 0.845406 0.669116 0.764556
O O11 0.937865 0.285341 0.940256
O O12 0.869057 0.635286 0.495047
O O13 0.866741 0.672872 0.637173
O O14 0.049909 0.344075 0.563911
#
# Coordination Sequence:
#
# PCOD8045901 Si02
#       7
#     2   2   2   2   2   2   2
#     4  10  20  36  59  85 109 146 190 227 265 324
#     4  11  23  40  56  81 118 148 175 227 287 327
#     4  11  23  40  59  81 110 146 184 228 278 328
#     4   8  16  32  54  80 112 140 178 230 272 306
#     4  11  23  40  56  81 118 148 175 227 287 327
#     4  10  20  36  59  85 109 146 190 227 265 324
#     4  11  23  40  59  81 110 146 184 228 278 328
#
# _framework density 20.065525999999998
#
# number of rings (size 3 to 8) (size 9 to 14) (size 15 to 20)
#    0.000    1.714    0.000    6.000    0.000    3.429 
#    0.000    1.429    0.000    0.000    0.000    0.000 
#    0.000    0.000    0.000    0.000    0.000    0.000 
#
# Total GULP energy -173587.648360 kJ/mol
# GULP energy per Si atom -12399.117740 kJ/mol
# Density = 2.001986 g / cm^3
# Si number density = 20.065526 Si / 1000 Ang^3
#
#
#
# Elastic Constant Matrix: (Units=GPa)
#
#
# Indices 1 2 3 4 5 6 
#
# 1 133.8109 28.2986 68.9403 0.0000 -12.1544 0.0000
# 2 28.2986 86.4066 10.0975 0.0000 -5.9694 0.0000
# 3 68.9403 10.0975 67.4214 0.0000 -14.9054 0.0000
# 4 0.0000 0.0000 0.0000 38.5703 0.0000 0.7471
# 5 -12.1544 -5.9694 -14.9054 0.0000 20.5451 0.0000
# 6 0.0000 0.0000 0.0000 0.7471 0.0000 29.9541
#
#
#
# Elastic Compliance Matrix: (Units=1/GPa)
#
#
# Indices 1 2 3 4 5 6 
#
# 1 0.017056 -0.003781 -0.017729 0.000000 -0.003871 0.000000
# 2 -0.003781 0.012731 0.002719 0.000000 0.003435 0.000000
# 3 -0.017729 0.002719 0.036219 0.000000 0.016578 0.000000
# 4 0.000000 0.000000 0.000000 0.025939 0.000000 -0.000647
# 5 -0.003871 0.003435 0.016578 0.000000 0.059408 0.000000
# 6 0.000000 0.000000 0.000000 -0.000647 0.000000 0.033401
#
#
# Mechanical properties :
#
#
# Convention : Reuss Voigt Hill
#
# Bulk Modulus (GPa) = 35.18362 55.81240 45.49801
# Shear Modulus (GPa) = 21.56935 29.83407 25.70171
#
# Velocity S-wave (km/s) = 3.28219 3.86013 3.58283
# Velocity P-wave (km/s) = 5.65121 6.90963 6.31186
#
# Compressibility (1/GPa) = 0.02842232
#
# Stress axis : x y z
#
# Youngs Moduli (GPa) = 58.63190 78.54762 27.61015
#
# Poissons Ratio (x) = 0.29702 0.48951
# Poissons Ratio (y) = 0.22171 -0.07508
# Poissons Ratio (z) = 1.03950 -0.21359
#
# Static dielectric constant tensor:
#      x y z
#    x 3.810470 0.000000 -0.180190 
#    y 0.000000 3.893000 0.000000 
#    z -0.180190 0.000000 3.277720 
# 
# 
# High freq. dielectric constant tensor:
#      x y z
#    x 1.791640 0.000000 -0.015000 
#    y 0.000000 1.810210 0.000000 
#    z -0.015000 0.000000 1.747040 
# 
# From -- ./inp_files/14105.got.cif
#   From: 2010.03.12/outbox.cif.g09.slc.cpg/sg4_8_cif.got.tgz:14105.got - 2010.03.31 09:31:35.
