data_PCOD8045095
_publ_section_title
;
Structure prediction by ZEFSAII (Michael W. Deem and Ramdas Pophale) SiO2 
 PCOD8045095
Probable space group: P 2
;
_chemical_formula_sum "Si O2"
_cell_formula_units_Z 7
_cell_length_a 7.463812
_cell_length_b 6.574115
_cell_length_c 7.725247
_cell_angle_alpha 90.000000
_cell_angle_beta 126.095982
_cell_angle_gamma 90.000000
_cell_volume 306.294003
_symmetry_space_group_name_H-M "P 2"
_symmetry_group_IT_number 3
_symmetry_cell_setting 'monoclinic'
loop_
_space_group_symop_operation_xyz
x,y,z
-x,y,-z
loop_
_atom_site_type_symbol
_atom_site_label
_atom_site_fract_x
_atom_site_fract_y
_atom_site_fract_z
Si Si1 0.613712 0.536480 0.309861
Si Si2 0.871661 0.196227 0.259850
Si Si3 0.500000 0.887078 0.000000
Si Si4 0.170892 0.465176 0.226400
O O1 0.733480 0.399102 0.234562
O O2 0.537350 0.751084 0.190700
O O3 0.397222 0.413388 0.253292
O O4 0.775172 0.587047 0.565179
O O5 0.000000 0.108752 0.500000
O O6 0.048039 0.255809 0.212047
O O7 0.714791 0.025128 0.090749
O O8 0.000000 0.584703 0.000000
#
# Coordination Sequence:
#
# PCOD8045095 Si02
#       4
#     2   2   1   2
#     4  10  23  41  63  94 130 165 208 261 316 375
#     4  10  23  42  64  92 128 168 210 259 316 374
#     4  12  22  40  68  98 128 162 212 268 312 370
#     4  10  20  41  66  87 123 170 207 251 313 373
#
# _framework density 22.853860000000001
#
# number of rings (size 3 to 8) (size 9 to 14) (size 15 to 20)
#    0.000    1.714    0.000    4.286    0.000    5.714 
#    0.000   35.714    0.000    0.000    0.000    0.000 
#    0.000    0.000    0.000    0.000    0.000    0.000 
#
# Total GULP energy -86775.281850 kJ/mol
# GULP energy per Si atom -12396.468836 kJ/mol
# Density = 2.280184 g / cm^3
# Si number density = 22.853860 Si / 1000 Ang^3
#
#
#
# Elastic Constant Matrix: (Units=GPa)
#
#
# Indices 1 2 3 4 5 6 
#
# 1 120.5443 44.5849 46.2831 0.0000 5.1733 0.0000
# 2 44.5849 102.8510 73.7686 0.0000 7.7923 0.0000
# 3 46.2831 73.7686 196.5874 0.0000 9.4971 0.0000
# 4 0.0000 0.0000 0.0000 40.9897 0.0000 6.7455
# 5 5.1733 7.7923 9.4971 0.0000 37.4039 0.0000
# 6 0.0000 0.0000 0.0000 6.7455 0.0000 14.3620
#
#
#
# Elastic Compliance Matrix: (Units=1/GPa)
#
#
# Indices 1 2 3 4 5 6 
#
# 1 0.010026 -0.003609 -0.000988 0.000000 -0.000384 0.000000
# 2 -0.003609 0.014688 -0.004595 0.000000 -0.001394 0.000000
# 3 -0.000988 -0.004595 0.007077 0.000000 -0.000703 0.000000
# 4 0.000000 0.000000 0.000000 0.026440 0.000000 -0.012418
# 5 -0.000384 -0.001394 -0.000703 0.000000 0.027257 0.000000
# 6 0.000000 0.000000 0.000000 -0.012418 0.000000 0.075461
#
#
# Mechanical properties :
#
#
# Convention : Reuss Voigt Hill
#
# Bulk Modulus (GPa) = 74.57395 83.25066 78.91231
# Shear Modulus (GPa) = 27.20316 35.57418 31.38867
#
# Velocity S-wave (km/s) = 3.45383 3.94965 3.71003
# Velocity P-wave (km/s) = 6.97186 7.57008 7.27712
#
# Compressibility (1/GPa) = 0.01340951
#
# Stress axis : x y z
#
# Youngs Moduli (GPa) = 99.73903 68.08143 141.29293
#
# Poissons Ratio (x) = 0.24568 0.13957
# Poissons Ratio (y) = 0.35992 0.64921
# Poissons Ratio (z) = 0.09852 0.31282
#
# Static dielectric constant tensor:
#      x y z
#    x 4.201050 0.000000 0.202100 
#    y 0.000000 3.510240 0.000000 
#    z 0.202100 0.000000 4.842550 
# 
# 
# High freq. dielectric constant tensor:
#      x y z
#    x 1.912330 0.000000 0.009260 
#    y 0.000000 1.839100 0.000000 
#    z 0.009260 0.000000 1.943130 
# 
# From -- ./inp_files/4813.got.cif
#   From: 2010.03.12/outbox.cif.g09.slc.cpg/sg3_3_cif.got.tgz:4813.got - 2010.03.31 09:20:49.
