data_PCOD8045909
_publ_section_title
;
Structure prediction by ZEFSAII (Michael W. Deem and Ramdas Pophale) SiO2 
 PCOD8045909
Probable space group: P 21
;
_chemical_formula_sum "Si O2"
_cell_formula_units_Z 12
_cell_length_a 8.450031
_cell_length_b 4.896966
_cell_length_c 23.082515
_cell_angle_alpha 90.000000
_cell_angle_beta 139.449673
_cell_angle_gamma 90.000000
_cell_volume 620.953648
_symmetry_space_group_name_H-M "P 21"
_symmetry_group_IT_number 4
_symmetry_cell_setting 'monoclinic'
loop_
_space_group_symop_operation_xyz
x,y,z
-x,1/2+y,-z
loop_
_atom_site_type_symbol
_atom_site_label
_atom_site_fract_x
_atom_site_fract_y
_atom_site_fract_z
Si Si1 0.416315 0.085300 0.011844
Si Si2 0.019932 0.325911 0.469082
Si Si3 0.650879 0.945088 0.533870
Si Si4 0.550967 0.970202 0.178417
Si Si5 0.959143 0.245816 0.950853
Si Si6 0.822775 0.472582 0.298927
O O1 0.135786 0.180776 0.945267
O O2 0.573743 0.341741 0.032482
O O3 0.526061 0.964266 0.101965
O O4 0.813049 0.433626 0.366262
O O5 0.021702 0.510920 0.526902
O O6 0.284870 0.346428 0.513197
O O7 0.565437 0.257051 0.503196
O O8 0.894725 0.922608 0.641812
O O9 0.297863 0.880131 0.139076
O O10 0.762168 0.776436 0.261117
O O11 0.625363 0.275543 0.215430
O O12 0.097255 0.464698 0.030453
#
# Coordination Sequence:
#
# PCOD8045909 Si02
#       6
#     2   2   2   2   2   2
#     4  11  22  37  62  86 117 151 190 238 289 335
#     4  10  20  36  61  85 112 146 195 230 286 336
#     4  10  20  36  61  85 112 153 197 226 276 363
#     4  11  20  39  60  84 116 151 196 238 273 347
#     4  10  20  36  61  88 106 157 198 223 276 357
#     4  10  22  34  65  84 113 150 198 231 294 324
#
# _framework density 19.325112000000001
#
# number of rings (size 3 to 8) (size 9 to 14) (size 15 to 20)
#    1.000    0.667    0.000    8.000    0.000    0.000 
#    0.000    0.000   36.667    0.000    0.000    0.000 
#    0.000    0.000    0.000    0.000    0.000    0.000 
#
# Total GULP energy -148705.441708 kJ/mol
# GULP energy per Si atom -12392.120142 kJ/mol
# Density = 1.928113 g / cm^3
# Si number density = 19.325112 Si / 1000 Ang^3
#
#
#
# Elastic Constant Matrix: (Units=GPa)
#
#
# Indices 1 2 3 4 5 6 
#
# 1 84.9888 14.5809 27.5261 0.0000 14.4534 0.0000
# 2 14.5809 73.5135 13.8571 0.0000 8.0640 0.0000
# 3 27.5261 13.8571 84.0387 0.0000 14.0622 0.0000
# 4 0.0000 0.0000 0.0000 44.3215 0.0000 2.8453
# 5 14.4534 8.0640 14.0622 0.0000 28.0264 0.0000
# 6 0.0000 0.0000 0.0000 2.8453 0.0000 52.6985
#
#
#
# Elastic Compliance Matrix: (Units=1/GPa)
#
#
# Indices 1 2 3 4 5 6 
#
# 1 0.014022 -0.001571 -0.003493 0.000000 -0.005027 0.000000
# 2 -0.001571 0.014473 -0.001431 0.000000 -0.002636 0.000000
# 3 -0.003493 -0.001431 0.014092 0.000000 -0.004858 0.000000
# 4 0.000000 0.000000 0.000000 0.022641 0.000000 -0.001222
# 5 -0.005027 -0.002636 -0.004858 0.000000 0.041469 0.000000
# 6 0.000000 0.000000 0.000000 -0.001222 0.000000 0.019042
#
#
# Mechanical properties :
#
#
# Convention : Reuss Voigt Hill
#
# Bulk Modulus (GPa) = 33.78597 39.38547 36.58572
# Shear Modulus (GPa) = 33.64867 37.44774 35.54820
#
# Velocity S-wave (km/s) = 4.17728 4.40679 4.29357
# Velocity P-wave (km/s) = 6.38648 6.80572 6.59943
#
# Compressibility (1/GPa) = 0.02959809
#
# Stress axis : x y z
#
# Youngs Moduli (GPa) = 71.31720 69.09188 70.96229
#
# Poissons Ratio (x) = 0.10857 0.24784
# Poissons Ratio (y) = 0.11207 0.10153
# Poissons Ratio (z) = 0.24908 0.09885
#
# Static dielectric constant tensor:
#      x y z
#    x 3.375330 0.000000 0.082750 
#    y 0.000000 3.611930 0.000000 
#    z 0.082750 0.000000 3.243360 
# 
# 
# High freq. dielectric constant tensor:
#      x y z
#    x 1.734190 0.000000 0.012070 
#    y 0.000000 1.777270 0.000000 
#    z 0.012070 0.000000 1.727760 
# 
# From -- ./inp_files/16063.got.cif
#   From: 2010.03.12/outbox.cif.g09.slc.cpg/sg4_9_cif.got.tgz:16063.got - 2010.03.31 09:31:35.
