data_PCOD8045629
_publ_section_title
;
Structure prediction by ZEFSAII (Michael W. Deem and Ramdas Pophale) SiO2 
 PCOD8045629
Probable space group: P 21
;
_chemical_formula_sum "Si O2"
_cell_formula_units_Z 14
_cell_length_a 12.701066
_cell_length_b 5.296580
_cell_length_c 19.276099
_cell_angle_alpha 90.000000
_cell_angle_beta 29.868074
_cell_angle_gamma 90.000000
_cell_volume 645.785404
_symmetry_space_group_name_H-M "P 21"
_symmetry_group_IT_number 4
_symmetry_cell_setting 'monoclinic'
loop_
_space_group_symop_operation_xyz
x,y,z
-x,1/2+y,-z
loop_
_atom_site_type_symbol
_atom_site_label
_atom_site_fract_x
_atom_site_fract_y
_atom_site_fract_z
Si Si1 0.880790 0.995440 0.928892
Si Si2 0.678634 0.494967 0.277610
Si Si3 0.171006 0.488452 0.330234
Si Si4 0.396713 0.494834 0.721112
Si Si5 0.276768 0.988513 0.347798
Si Si6 0.361085 0.494313 0.076086
Si Si7 0.109955 0.995664 0.994508
O O1 0.774051 0.997440 0.915882
O O2 0.812507 0.742000 0.008207
O O3 0.135730 0.994450 0.771493
O O4 0.813263 0.248291 0.008179
O O5 0.536511 0.748243 0.362602
O O6 0.535715 0.242268 0.362587
O O7 0.783886 0.496698 0.140794
O O8 0.281250 0.735701 0.299471
O O9 0.197137 0.492186 0.233175
O O10 0.921786 0.490257 0.487216
O O11 0.278228 0.235486 0.298837
O O12 0.508798 0.493508 0.731088
O O13 0.141984 0.496553 0.874744
O O14 0.500050 0.744134 0.000844
#
# Coordination Sequence:
#
# PCOD8045629 Si02
#       7
#     2   2   2   2   2   2   2
#     4  10  20  34  48  70 110 141 170 221 272 322
#     4  10  19  30  49  78 108 139 176 224 277 322
#     4  10  23  40  57  83 113 149 192 233 283 323
#     4  10  18  29  51  79 101 130 177 225 274 327
#     4  10  21  39  62  82 110 147 191 245 275 315
#     4  12  26  39  57  84 115 154 191 223 277 350
#     4  10  19  31  50  76 107 142 177 221 278 323
#
# _framework density 21.679027000000001
#
# number of rings (size 3 to 8) (size 9 to 14) (size 15 to 20)
#    0.000    1.714    0.000    6.857    0.000    9.143 
#    0.000    0.000    0.000    6.857    0.000    0.000 
#    0.000    0.000    0.000    0.000    0.000    0.000 
#
# Total GULP energy -173533.719292 kJ/mol
# GULP energy per Si atom -12395.265664 kJ/mol
# Density = 2.162968 g / cm^3
# Si number density = 21.679027 Si / 1000 Ang^3
#
#
#
# Elastic Constant Matrix: (Units=GPa)
#
#
# Indices 1 2 3 4 5 6 
#
# 1 175.0052 59.9186 34.8161 0.0000 -6.5970 0.0000
# 2 59.9186 219.0584 16.3306 0.0000 -3.2518 0.0000
# 3 34.8161 16.3306 49.1146 0.0000 7.9566 0.0000
# 4 0.0000 0.0000 0.0000 0.4355 0.0000 0.3563
# 5 -6.5970 -3.2518 7.9566 0.0000 21.4539 0.0000
# 6 0.0000 0.0000 0.0000 0.3563 0.0000 30.0855
#
#
#
# Elastic Compliance Matrix: (Units=1/GPa)
#
#
# Indices 1 2 3 4 5 6 
#
# 1 0.007494 -0.001583 -0.005448 0.000000 0.004085 0.000000
# 2 -0.001583 0.005054 -0.000642 0.000000 0.000517 0.000000
# 3 -0.005448 -0.000642 0.026303 0.000000 -0.011527 0.000000
# 4 0.000000 0.000000 0.000000 2.318861 0.000000 -0.027463
# 5 0.004085 0.000517 -0.011527 0.000000 0.052221 0.000000
# 6 0.000000 0.000000 0.000000 -0.027463 0.000000 0.033564
#
#
# Mechanical properties :
#
#
# Convention : Reuss Voigt Hill
#
# Bulk Modulus (GPa) = 42.54341 73.92321 58.23331
# Shear Modulus (GPa) = 2.02702 32.53583 17.28142
#
# Velocity S-wave (km/s) = 0.96801 3.87822 2.82645
# Velocity P-wave (km/s) = 4.57343 7.36390 6.12957
#
# Compressibility (1/GPa) = 0.02350540
#
# Stress axis : x y z
#
# Youngs Moduli (GPa) = 133.44263 197.88146 38.01834
#
# Poissons Ratio (x) = 0.31325 0.20711
# Poissons Ratio (y) = 0.21124 0.02440
# Poissons Ratio (z) = 0.72694 0.12703
#
# Static dielectric constant tensor:
#      x y z
#    x 3.875130 0.000000 -0.141080 
#    y 0.000000 10.847580 0.000000 
#    z -0.141080 0.000000 3.432460 
# 
# 
# High freq. dielectric constant tensor:
#      x y z
#    x 1.851340 0.000000 -0.019910 
#    y 0.000000 1.899920 0.000000 
#    z -0.019910 0.000000 1.797700 
# 
# From -- ./inp_files/14759.got.cif
#   From: 2010.03.12/outbox.cif.g09.slc.cpg/sg4_8_cif.got.tgz:14759.got - 2010.03.31 09:31:35.
