data_PCOD8045092
_publ_section_title
;
Structure prediction by ZEFSAII (Michael W. Deem and Ramdas Pophale) SiO2 
 PCOD8045092
Probable space group: P 2
;
_chemical_formula_sum "Si O2"
_cell_formula_units_Z 13
_cell_length_a 9.247081
_cell_length_b 9.812469
_cell_length_c 7.414552
_cell_angle_alpha 90.000000
_cell_angle_beta 62.751760
_cell_angle_gamma 90.000000
_cell_volume 598.115256
_symmetry_space_group_name_H-M "P 2"
_symmetry_group_IT_number 3
_symmetry_cell_setting 'monoclinic'
loop_
_space_group_symop_operation_xyz
x,y,z
-x,y,-z
loop_
_atom_site_type_symbol
_atom_site_label
_atom_site_fract_x
_atom_site_fract_y
_atom_site_fract_z
Si Si1 0.308720 0.024680 0.302165
Si Si2 0.000000 0.853388 0.500000
Si Si3 0.331679 0.982361 0.872453
Si Si4 0.866770 0.724105 0.936899
Si Si5 0.815440 0.252641 0.147951
Si Si6 0.311456 0.459294 0.072781
Si Si7 0.823149 0.302023 0.539273
O O1 0.306638 0.181675 0.360640
O O2 0.476674 0.955491 0.274849
O O3 0.155012 0.943959 0.471814
O O4 0.300687 0.029202 0.092646
O O5 0.949734 0.763619 0.700448
O O6 0.270635 0.104856 0.778111
O O7 0.228831 0.844788 0.904631
O O8 0.740256 0.604264 0.974011
O O9 0.000000 0.668316 0.000000
O O10 0.813560 0.340359 0.333785
O O11 0.729300 0.339004 0.042435
O O12 0.000000 0.218469 0.000000
O O13 0.222717 0.432874 0.314692
O O14 0.500000 0.463163 0.000000
O O15 0.000000 0.248668 0.500000
#
# Coordination Sequence:
#
# PCOD8045092 Si02
#       7
#     2   1   2   2   2   2   2
#     4  10  20  40  68 105 136 176 221 287 344 405
#     4  10  24  42  68  96 140 178 228 278 342 414
#     4  10  22  41  71 101 141 175 225 287 347 405
#     4  11  27  46  70  98 138 187 231 277 347 415
#     4  12  24  43  75 104 137 179 235 288 349 410
#     4  12  28  47  69 100 141 185 231 288 341 415
#     4  12  24  42  73 101 136 181 231 282 346 409
#
# _framework density 21.734940999999999
#
# number of rings (size 3 to 8) (size 9 to 14) (size 15 to 20)
#    0.000    0.923    3.846    1.846    9.692    2.462 
#    0.000    0.000    0.000    0.000    0.000    0.000 
#    0.000    0.000    0.000    0.000    0.000    0.000 
#
# Total GULP energy -161233.989786 kJ/mol
# GULP energy per Si atom -12402.614599 kJ/mol
# Density = 2.168547 g / cm^3
# Si number density = 21.734941 Si / 1000 Ang^3
#
#
#
# Elastic Constant Matrix: (Units=GPa)
#
#
# Indices 1 2 3 4 5 6 
#
# 1 153.4312 51.9208 53.2104 0.0000 -13.1817 0.0000
# 2 51.9208 109.6753 29.5506 0.0000 -5.7643 0.0000
# 3 53.2104 29.5506 73.4464 0.0000 -7.3989 0.0000
# 4 0.0000 0.0000 0.0000 26.4587 0.0000 -9.3873
# 5 -13.1817 -5.7643 -7.3989 0.0000 41.2108 0.0000
# 6 0.0000 0.0000 0.0000 -9.3873 0.0000 55.1660
#
#
#
# Elastic Compliance Matrix: (Units=1/GPa)
#
#
# Indices 1 2 3 4 5 6 
#
# 1 0.009600 -0.002948 -0.005602 0.000000 0.001652 0.000000
# 2 -0.002948 0.011152 -0.002331 0.000000 0.000198 0.000000
# 3 -0.005602 -0.002331 0.018738 0.000000 0.001246 0.000000
# 4 0.000000 0.000000 0.000000 0.040223 0.000000 0.006845
# 5 0.001652 0.000198 0.001246 0.000000 0.025045 0.000000
# 6 0.000000 0.000000 0.000000 0.006845 0.000000 0.019292
#
#
# Mechanical properties :
#
#
# Convention : Reuss Voigt Hill
#
# Bulk Modulus (GPa) = 56.41316 67.32406 61.86861
# Shear Modulus (GPa) = 32.95490 38.02519 35.49005
#
# Velocity S-wave (km/s) = 3.89809 4.18724 4.04525
# Velocity P-wave (km/s) = 6.80232 7.37696 7.09546
#
# Compressibility (1/GPa) = 0.01772636
#
# Stress axis : x y z
#
# Youngs Moduli (GPa) = 104.16408 89.66934 53.36875
#
# Poissons Ratio (x) = 0.26439 0.29899
# Poissons Ratio (y) = 0.30712 0.12440
# Poissons Ratio (z) = 0.58357 0.20901
#
# Static dielectric constant tensor:
#      x y z
#    x 4.063690 0.000000 -0.048410 
#    y 0.000000 3.778770 0.000000 
#    z -0.048410 0.000000 3.935220 
# 
# 
# High freq. dielectric constant tensor:
#      x y z
#    x 1.868040 0.000000 -0.003290 
#    y 0.000000 1.838060 0.000000 
#    z -0.003290 0.000000 1.857890 
# 
# From -- ./inp_files/5513.got.cif
#   From: 2010.03.12/outbox.cif.g09.slc.cpg/sg3_3_cif.got.tgz:5513.got - 2010.03.31 09:20:49.
