data_PCOD8045496
_publ_section_title
;
Structure prediction by ZEFSAII (Michael W. Deem and Ramdas Pophale) SiO2 
 PCOD8045496
Probable space group: P 2
;
_chemical_formula_sum "Si O2"
_cell_formula_units_Z 16
_cell_length_a 21.866440
_cell_length_b 6.582853
_cell_length_c 6.517074
_cell_angle_alpha 90.000000
_cell_angle_beta 128.403674
_cell_angle_gamma 90.000000
_cell_volume 735.138283
_symmetry_space_group_name_H-M "P 2"
_symmetry_group_IT_number 3
_symmetry_cell_setting 'monoclinic'
loop_
_space_group_symop_operation_xyz
x,y,z
-x,y,-z
loop_
_atom_site_type_symbol
_atom_site_label
_atom_site_fract_x
_atom_site_fract_y
_atom_site_fract_z
Si Si1 0.323297 0.162450 0.256262
Si Si2 0.083501 0.815972 0.104396
Si Si3 0.583501 0.558150 0.604397
Si Si4 0.417449 0.882808 0.729078
Si Si5 0.821635 0.537357 0.421865
Si Si6 0.917449 0.491314 0.229078
Si Si7 0.321635 0.836765 0.921867
Si Si8 0.176703 0.211673 0.243738
O O1 0.351683 0.384370 0.250190
O O2 0.250000 0.187067 0.250000
O O3 0.396199 0.053321 0.518348
O O4 0.297347 0.036513 0.000460
O O5 0.106112 0.645423 0.316035
O O6 0.148317 0.989750 0.249807
O O7 0.080503 0.714450 0.871697
O O8 0.000000 0.903973 0.000000
O O9 0.500000 0.470151 0.500000
O O10 0.580504 0.659672 0.371700
O O11 0.606112 0.728700 0.816035
O O12 0.348941 0.896685 0.752807
O O13 0.500000 0.939111 0.000000
O O14 0.848941 0.477437 0.252804
O O15 0.749999 0.687061 0.249999
O O16 0.797348 0.337605 0.500458
O O17 0.000000 0.435008 0.500000
O O18 0.896200 0.320802 0.018346
#
# Coordination Sequence:
#
# PCOD8045496 Si02
#       8
#     2   2   2   2   2   2   2   2
#     4  11  26  43  66 100 134 169 220 272 322 388
#     4  11  24  42  66  96 132 171 218 271 323 384
#     4  11  24  42  66  96 132 171 218 271 323 384
#     4  11  24  43  66  96 133 173 217 268 327 384
#     4  11  24  44  69  93 134 173 214 265 326 389
#     4  11  24  43  66  96 133 173 217 268 327 384
#     4  11  24  44  69  93 134 173 214 265 326 389
#     4  11  26  43  66 100 134 169 220 272 322 388
#
# _framework density 21.764614000000002
#
# number of rings (size 3 to 8) (size 9 to 14) (size 15 to 20)
#    0.000    1.000    2.500    3.000    3.500   11.000 
#    0.000    0.000    0.000    0.000    0.000    0.000 
#    0.000    0.000    0.000    0.000    0.000    0.000 
#
# Total GULP energy -198486.298957 kJ/mol
# GULP energy per Si atom -12405.393685 kJ/mol
# Density = 2.171508 g / cm^3
# Si number density = 21.764614 Si / 1000 Ang^3
#
#
#
# Elastic Constant Matrix: (Units=GPa)
#
#
# Indices 1 2 3 4 5 6 
#
# 1 118.8933 27.8320 12.7756 0.0000 -16.9367 0.0000
# 2 27.8320 99.7469 25.1008 0.0000 -11.1285 0.0000
# 3 12.7756 25.1008 86.8079 0.0000 -6.3486 0.0000
# 4 0.0000 0.0000 0.0000 43.1892 0.0000 0.7594
# 5 -16.9367 -11.1285 -6.3486 0.0000 43.2062 0.0000
# 6 0.0000 0.0000 0.0000 0.7594 0.0000 36.6109
#
#
#
# Elastic Compliance Matrix: (Units=1/GPa)
#
#
# Indices 1 2 3 4 5 6 
#
# 1 0.009407 -0.002148 -0.000540 0.000000 0.003055 0.000000
# 2 -0.002148 0.011544 -0.002897 0.000000 0.001706 0.000000
# 3 -0.000540 -0.002897 0.012501 0.000000 0.000879 0.000000
# 4 0.000000 0.000000 0.000000 0.023162 0.000000 -0.000480
# 5 0.003055 0.001706 0.000879 0.000000 0.024911 0.000000
# 6 0.000000 0.000000 0.000000 -0.000480 0.000000 0.027324
#
#
# Mechanical properties :
#
#
# Convention : Reuss Voigt Hill
#
# Bulk Modulus (GPa) = 44.87937 48.54054 46.70995
# Shear Modulus (GPa) = 39.23191 40.58388 39.90790
#
# Velocity S-wave (km/s) = 4.25026 4.32287 4.28672
# Velocity P-wave (km/s) = 6.68964 6.87511 6.78301
#
# Compressibility (1/GPa) = 0.02228195
#
# Stress axis : x y z
#
# Youngs Moduli (GPa) = 106.30445 86.62442 79.99260
#
# Poissons Ratio (x) = 0.18608 0.04319
# Poissons Ratio (y) = 0.22835 0.23175
# Poissons Ratio (z) = 0.05739 0.25096
#
# Static dielectric constant tensor:
#      x y z
#    x 5.442690 0.000000 -1.374520 
#    y 0.000000 3.878510 0.000000 
#    z -1.374520 0.000000 5.107520 
# 
# 
# High freq. dielectric constant tensor:
#      x y z
#    x 1.863750 0.000000 -0.000040 
#    y 0.000000 1.851960 0.000000 
#    z -0.000040 0.000000 1.869740 
# 
# From -- ./inp_files/3985.got.cif
#   From: 2010.03.12/outbox.cif.g09.slc.cpg/sg3_2_cif.got.tgz:3985.got - 2010.03.31 09:20:49.
