data_PCOD8045486
_publ_section_title
;
Structure prediction by ZEFSAII (Michael W. Deem and Ramdas Pophale) SiO2 
 PCOD8045486
Probable space group: P 2
;
_chemical_formula_sum "Si O2"
_cell_formula_units_Z 6
_cell_length_a 4.603554
_cell_length_b 6.523213
_cell_length_c 9.606068
_cell_angle_alpha 90.000000
_cell_angle_beta 59.178871
_cell_angle_gamma 90.000000
_cell_volume 247.729562
_symmetry_space_group_name_H-M "P 2"
_symmetry_group_IT_number 3
_symmetry_cell_setting 'monoclinic'
loop_
_space_group_symop_operation_xyz
x,y,z
-x,y,-z
loop_
_atom_site_type_symbol
_atom_site_label
_atom_site_fract_x
_atom_site_fract_y
_atom_site_fract_z
Si Si1 0.126458 0.717020 0.111153
Si Si2 0.913020 0.084927 0.679534
Si Si3 0.253589 0.312342 0.816173
O O1 0.181037 0.868737 0.226674
O O2 0.500000 0.612043 0.000000
O O3 0.164759 0.545372 0.792687
O O4 0.000000 0.832086 0.000000
O O5 0.636196 0.266512 0.770515
O O6 0.000000 0.039191 0.500000
O O7 0.233727 0.168389 0.684854
O O8 0.000000 0.242302 0.000000
#
# Coordination Sequence:
#
# PCOD8045486 Si02
#       3
#     2   2   2
#     4  11  23  43  72 100 131 179 233 280 329 397
#     4  12  25  42  67 101 140 176 216 279 347 402
#     4  11  23  43  69  97 131 177 231 277 326 399
#
# _framework density 24.219958999999999
#
# number of rings (size 3 to 8) (size 9 to 14) (size 15 to 20)
#    0.000    0.667    0.000   11.000    0.000    1.333 
#    0.000   10.000    0.000    0.000    0.000    0.000 
#    0.000    0.000    0.000    0.000    0.000    0.000 
#
# Total GULP energy -74344.348693 kJ/mol
# GULP energy per Si atom -12390.724782 kJ/mol
# Density = 2.416483 g / cm^3
# Si number density = 24.219959 Si / 1000 Ang^3
#
#
#
# Elastic Constant Matrix: (Units=GPa)
#
#
# Indices 1 2 3 4 5 6 
#
# 1 83.8383 26.3798 21.4424 0.0000 0.7844 0.0000
# 2 26.3798 140.2222 44.0580 0.0000 -2.0785 0.0000
# 3 21.4424 44.0580 151.5518 0.0000 25.3043 0.0000
# 4 0.0000 0.0000 0.0000 16.7582 0.0000 19.1488
# 5 0.7844 -2.0785 25.3043 0.0000 35.0554 0.0000
# 6 0.0000 0.0000 0.0000 19.1488 0.0000 40.0803
#
#
#
# Elastic Compliance Matrix: (Units=1/GPa)
#
#
# Indices 1 2 3 4 5 6 
#
# 1 0.012893 -0.001997 -0.001337 0.000000 0.000558 0.000000
# 2 -0.001997 0.008340 -0.002538 0.000000 0.002371 0.000000
# 3 -0.001337 -0.002538 0.008579 0.000000 -0.006314 0.000000
# 4 0.000000 0.000000 0.000000 0.131412 0.000000 -0.062783
# 5 0.000558 0.002371 -0.006314 0.000000 0.033212 0.000000
# 6 0.000000 0.000000 0.000000 -0.062783 0.000000 0.054945
#
#
# Mechanical properties :
#
#
# Convention : Reuss Voigt Hill
#
# Bulk Modulus (GPa) = 55.34457 62.15250 58.74854
# Shear Modulus (GPa) = 18.71626 37.29425 28.00526
#
# Velocity S-wave (km/s) = 2.78288 3.92830 3.40411
# Velocity P-wave (km/s) = 5.76422 6.80388 6.30552
#
# Compressibility (1/GPa) = 0.01806862
#
# Stress axis : x y z
#
# Youngs Moduli (GPa) = 77.56261 119.90695 116.55752
#
# Poissons Ratio (x) = 0.23948 0.15580
# Poissons Ratio (y) = 0.15491 0.29580
# Poissons Ratio (z) = 0.10368 0.30430
#
# Static dielectric constant tensor:
#      x y z
#    x 4.675350 0.000000 0.401350 
#    y 0.000000 4.036160 0.000000 
#    z 0.401350 0.000000 4.061830 
# 
# 
# High freq. dielectric constant tensor:
#      x y z
#    x 1.986100 0.000000 0.030970 
#    y 0.000000 1.956620 0.000000 
#    z 0.030970 0.000000 1.939780 
# 
# From -- ./inp_files/1771.got.cif
#   From: 2010.03.12/outbox.cif.g09.slc.cpg/sg3_1_cif.got.tgz:1771.got - 2010.03.31 09:20:49.
