data_PCOD8045568
_publ_section_title
;
Structure prediction by ZEFSAII (Michael W. Deem and Ramdas Pophale) SiO2 
 PCOD8045568
Probable space group: P 2
;
_chemical_formula_sum "Si O2"
_cell_formula_units_Z 11
_cell_length_a 15.027451
_cell_length_b 6.036682
_cell_length_c 15.200003
_cell_angle_alpha 90.000000
_cell_angle_beta 161.607913
_cell_angle_gamma 90.000000
_cell_volume 435.062263
_symmetry_space_group_name_H-M "P 2"
_symmetry_group_IT_number 3
_symmetry_cell_setting 'monoclinic'
loop_
_space_group_symop_operation_xyz
x,y,z
-x,y,-z
loop_
_atom_site_type_symbol
_atom_site_label
_atom_site_fract_x
_atom_site_fract_y
_atom_site_fract_z
Si Si1 0.415013 0.481840 0.105609
Si Si2 0.087998 0.184213 0.392928
Si Si3 0.000000 0.311203 0.000000
Si Si4 0.257193 0.976828 0.376033
Si Si5 0.264331 0.681154 0.139324
Si Si6 0.216533 0.822759 0.775202
O O1 0.709965 0.355392 0.364982
O O2 0.442603 0.633902 0.218063
O O3 0.331065 0.623655 0.942245
O O4 0.169604 0.307347 0.895570
O O5 0.268602 0.073120 0.485316
O O6 0.963034 0.005001 0.342046
O O7 0.771589 0.459732 0.837400
O O8 0.813107 0.166436 0.758963
O O9 0.566694 0.870947 0.647878
O O10 0.042250 0.772797 0.170749
O O11 0.000000 0.723902 0.500000
O O12 0.500000 0.933273 0.000000
#
# Coordination Sequence:
#
# PCOD8045568 Si02
#       6
#     2   2   1   2   2   2
#     4  12  26  50  83 114 155 209 256 316 394 463
#     4  12  26  50  83 114 155 209 256 316 394 463
#     4  12  30  54  76 124 156 202 270 322 384 452
#     4  12  28  51  81 115 157 210 259 320 389 462
#     4  12  28  51  81 115 157 210 259 320 389 462
#     4  12  28  50  82 117 156 201 260 326 384 464
#
# _framework density 25.283738
#
# number of rings (size 3 to 8) (size 9 to 14) (size 15 to 20)
#    0.000    0.000    3.636    4.909    2.545    7.273 
#    0.000    0.000    0.000    0.000    0.000    0.000 
#    0.000    0.000    0.000    0.000    0.000    0.000 
#
# Total GULP energy -136488.914600 kJ/mol
# GULP energy per Si atom -12408.083145 kJ/mol
# Density = 2.522619 g / cm^3
# Si number density = 25.283738 Si / 1000 Ang^3
#
#
#
# Elastic Constant Matrix: (Units=GPa)
#
#
# Indices 1 2 3 4 5 6 
#
# 1 126.2893 57.6727 53.1905 0.0000 -22.9318 0.0000
# 2 57.6727 119.1587 50.2781 0.0000 -20.0104 0.0000
# 3 53.1905 50.2781 150.1479 0.0000 -7.6121 0.0000
# 4 0.0000 0.0000 0.0000 69.6318 0.0000 8.6741
# 5 -22.9318 -20.0104 -7.6121 0.0000 33.9546 0.0000
# 6 0.0000 0.0000 0.0000 8.6741 0.0000 26.2766
#
#
#
# Elastic Compliance Matrix: (Units=1/GPa)
#
#
# Indices 1 2 3 4 5 6 
#
# 1 0.011625 -0.003658 -0.002635 0.000000 0.005105 0.000000
# 2 -0.003658 0.011876 -0.002480 0.000000 0.003973 0.000000
# 3 -0.002635 -0.002480 0.008354 0.000000 -0.001368 0.000000
# 4 0.000000 0.000000 0.000000 0.014977 0.000000 -0.004944
# 5 0.005105 0.003973 -0.001368 0.000000 0.034933 0.000000
# 6 0.000000 0.000000 0.000000 -0.004944 0.000000 0.039689
#
#
# Mechanical properties :
#
#
# Convention : Reuss Voigt Hill
#
# Bulk Modulus (GPa) = 69.87276 79.76428 74.81852
# Shear Modulus (GPa) = 34.77791 41.60290 38.19040
#
# Velocity S-wave (km/s) = 3.71280 4.06080 3.89070
# Velocity P-wave (km/s) = 6.78788 7.32141 7.05969
#
# Compressibility (1/GPa) = 0.01431173
#
# Stress axis : x y z
#
# Youngs Moduli (GPa) = 86.01880 84.20461 119.69717
#
# Poissons Ratio (x) = 0.30799 0.31537
# Poissons Ratio (y) = 0.31463 0.29680
# Poissons Ratio (z) = 0.22664 0.20879
#
# Static dielectric constant tensor:
#      x y z
#    x 4.628510 0.000000 0.005040 
#    y 0.000000 4.617370 0.000000 
#    z 0.005040 0.000000 4.790960 
# 
# 
# High freq. dielectric constant tensor:
#      x y z
#    x 2.016910 0.000000 -0.001110 
#    y 0.000000 2.016740 0.000000 
#    z -0.001110 0.000000 2.026300 
# 
# From -- ./inp_files/13882.got.cif
#   From: 2010.03.12/outbox.cif.g09.slc.cpg/sg3_7_cif.got.tgz:13882.got - 2010.03.31 09:20:49.
