data_PCOD8045208
_publ_section_title
;
Structure prediction by ZEFSAII (Michael W. Deem and Ramdas Pophale) SiO2 
 PCOD8045208
Probable space group: P 2
;
_chemical_formula_sum "Si O2"
_cell_formula_units_Z 10
_cell_length_a 12.595928
_cell_length_b 5.128895
_cell_length_c 21.460596
_cell_angle_alpha 90.000000
_cell_angle_beta 20.067418
_cell_angle_gamma 90.000000
_cell_volume 475.717241
_symmetry_space_group_name_H-M "P 2"
_symmetry_group_IT_number 3
_symmetry_cell_setting 'monoclinic'
loop_
_space_group_symop_operation_xyz
x,y,z
-x,y,-z
loop_
_atom_site_type_symbol
_atom_site_label
_atom_site_fract_x
_atom_site_fract_y
_atom_site_fract_z
Si Si1 0.113462 0.963180 0.325509
Si Si2 0.220962 0.470573 0.509685
Si Si3 0.164078 0.689929 0.178070
Si Si4 0.203725 0.867447 0.018539
Si Si5 0.937425 0.371863 0.104922
O O1 0.180672 0.945438 0.213969
O O2 0.885438 0.725386 0.470791
O O3 0.435672 0.941941 0.184740
O O4 0.938907 0.229306 0.437521
O O5 0.585166 0.447452 0.310599
O O6 0.097821 0.495577 0.649470
O O7 0.087295 0.774173 0.150531
O O8 0.500000 0.549367 0.000000
O O9 0.145629 0.624692 0.004723
O O10 0.011645 0.124307 0.107133
O O11 0.000000 0.285853 0.000000
#
# Coordination Sequence:
#
# PCOD8045208 Si02
#       5
#     2   2   2   2   2
#     4   9  20  39  66  97 124 157 207 262 324 384
#     4  10  21  41  64  93 134 160 205 264 324 374
#     4   8  20  37  68  96 128 153 198 274 323 382
#     4  11  23  42  69  93 128 170 216 257 331 377
#     4  12  27  45  61  90 137 178 216 263 306 372
#
# _framework density 21.020890999999999
#
# number of rings (size 3 to 8) (size 9 to 14) (size 15 to 20)
#    1.200    0.800    0.000    3.000    2.800    1.600 
#    0.000    6.000    0.000    0.000    0.000    0.000 
#    0.000    0.000    0.000    0.000    0.000    0.000 
#
# Total GULP energy -123933.279013 kJ/mol
# GULP energy per Si atom -12393.327901 kJ/mol
# Density = 2.097305 g / cm^3
# Si number density = 21.020891 Si / 1000 Ang^3
#
#
#
# Elastic Constant Matrix: (Units=GPa)
#
#
# Indices 1 2 3 4 5 6 
#
# 1 70.0681 34.7201 75.6708 0.0000 -7.2776 0.0000
# 2 34.7201 151.6094 55.9828 0.0000 -14.5008 0.0000
# 3 75.6708 55.9828 99.5156 0.0000 -24.7467 0.0000
# 4 0.0000 0.0000 0.0000 29.6161 0.0000 -12.2482
# 5 -7.2776 -14.5008 -24.7467 0.0000 16.9903 0.0000
# 6 0.0000 0.0000 0.0000 -12.2482 0.0000 24.4660
#
#
#
# Elastic Compliance Matrix: (Units=1/GPa)
#
#
# Indices 1 2 3 4 5 6 
#
# 1 -5.127601 -0.308790 5.426400 0.000001 5.443745 0.000000
# 2 -0.308790 -0.010268 0.322210 0.000000 0.328274 0.000000
# 3 5.426400 0.322210 -5.724343 -0.000001 -5.738264 0.000000
# 4 0.000001 0.000000 -0.000001 0.042582 -0.000001 0.021317
# 5 5.443745 0.328274 -5.738264 -0.000001 -5.687077 0.000000
# 6 0.000000 0.000000 0.000000 0.021317 0.000000 0.051545
#
#
# Mechanical properties :
#
#
# Convention : Reuss Voigt Hill
#
# Bulk Modulus (GPa) = 57.38062 72.66006 65.02034
# Shear Modulus (GPa) = -0.18296 24.53578 12.17641
#
# Velocity S-wave (km/s) = -0.29534 3.42015 2.40938
# Velocity P-wave (km/s) = 5.21919 7.08782 6.22403
#
# Compressibility (1/GPa) = 0.01742749
#
# Stress axis : x y z
#
# Youngs Moduli (GPa) = -0.19502 -97.38784 -0.17469
#
# Poissons Ratio (x) = -30.07236 0.94795
# Poissons Ratio (y) = -0.06022 0.05629
# Poissons Ratio (z) = 1.05827 31.37931
#
# Static dielectric constant tensor:
#      x y z
#    x 3.614530 0.000000 -0.081190 
#    y 0.000000 3.729360 0.000000 
#    z -0.081190 0.000000 3.679390 
# 
# 
# High freq. dielectric constant tensor:
#      x y z
#    x 1.802740 0.000000 -0.011130 
#    y 0.000000 1.826010 0.000000 
#    z -0.011130 0.000000 1.823340 
# 
# From -- ./inp_files/6485.got.cif
#   From: 2010.03.12/outbox.cif.g09.slc.cpg/sg3_4_cif.got.tgz:6485.got - 2010.03.31 09:20:49.
