data_PCOD8045785
_publ_section_title
;
Structure prediction by ZEFSAII (Michael W. Deem and Ramdas Pophale) SiO2 
 PCOD8045785
Probable space group: P 21
;
_chemical_formula_sum "Si O2"
_cell_formula_units_Z 16
_cell_length_a 30.578612
_cell_length_b 4.930223
_cell_length_c 24.022864
_cell_angle_alpha 90.000000
_cell_angle_beta 11.834815
_cell_angle_gamma 90.000000
_cell_volume 742.771640
_symmetry_space_group_name_H-M "P 21"
_symmetry_group_IT_number 4
_symmetry_cell_setting 'monoclinic'
loop_
_space_group_symop_operation_xyz
x,y,z
-x,1/2+y,-z
loop_
_atom_site_type_symbol
_atom_site_label
_atom_site_fract_x
_atom_site_fract_y
_atom_site_fract_z
Si Si1 0.259501 0.095150 0.649697
Si Si2 0.110128 0.943330 0.599981
Si Si3 0.973740 0.092626 0.105272
Si Si4 0.605735 0.566473 0.092948
Si Si5 0.490186 0.399873 0.974792
Si Si6 0.862711 0.709211 0.667865
Si Si7 0.310423 0.570172 0.940708
Si Si8 0.134430 0.444964 0.644716
O O1 0.514008 0.059822 0.327398
O O2 0.205644 0.395985 0.696526
O O3 0.193111 0.058360 0.797072
O O4 0.125103 0.892465 0.777563
O O5 0.331832 0.986829 0.291553
O O6 0.097915 0.639148 0.637836
O O7 0.096455 0.142502 0.669906
O O8 0.917258 0.984214 0.798356
O O9 0.025603 0.019582 0.105052
O O10 0.725233 0.557074 0.885608
O O11 0.716236 0.367987 0.999782
O O12 0.367117 0.468529 0.380911
O O13 0.610124 0.871212 0.109893
O O14 0.421053 0.665364 0.095406
O O15 0.278429 0.289609 0.209170
O O16 0.032662 0.481580 0.436858
#
# Coordination Sequence:
#
# PCOD8045785 Si02
#       8
#     2   2   2   2   2   2   2   2
#     4  10  19  37  61 101 129 165 217 271 315 376
#     4  12  28  43  65  95 137 169 216 262 331 398
#     4  10  20  35  66  95 130 168 217 268 320 373
#     4  12  25  43  70  94 129 167 226 267 317 378
#     4  12  28  48  67  93 133 175 210 263 342 399
#     4  12  28  46  68 100 127 165 222 279 321 383
#     4  12  24  43  66 100 132 173 214 271 321 382
#     4  12  22  45  65  96 127 178 214 265 319 387
#
# _framework density 21.540939999999999
#
# number of rings (size 3 to 8) (size 9 to 14) (size 15 to 20)
#    0.000    0.500    3.750    4.500    7.000    0.000 
#    0.000    1.250    0.000    0.000    0.000    0.000 
#    0.000    0.000    0.000    0.000    0.000    0.000 
#
# Total GULP energy -198505.309417 kJ/mol
# GULP energy per Si atom -12406.581839 kJ/mol
# Density = 2.149191 g / cm^3
# Si number density = 21.540940 Si / 1000 Ang^3
#
#
#
# Elastic Constant Matrix: (Units=GPa)
#
#
# Indices 1 2 3 4 5 6 
#
# 1 83.3081 9.7028 24.1642 0.0000 8.8908 0.0000
# 2 9.7028 81.1036 13.9354 0.0000 -1.0242 0.0000
# 3 24.1642 13.9354 46.8963 0.0000 1.4742 0.0000
# 4 0.0000 0.0000 0.0000 29.2870 0.0000 -1.7468
# 5 8.8908 -1.0242 1.4742 0.0000 34.2989 0.0000
# 6 0.0000 0.0000 0.0000 -1.7468 0.0000 45.1852
#
#
#
# Elastic Compliance Matrix: (Units=1/GPa)
#
#
# Indices 1 2 3 4 5 6 
#
# 1 0.014531 -0.000542 -0.007217 0.000000 -0.003473 0.000000
# 2 -0.000542 0.013024 -0.003612 0.000000 0.000685 0.000000
# 3 -0.007217 -0.003612 0.026096 0.000000 0.000641 0.000000
# 4 0.000000 0.000000 0.000000 0.034224 0.000000 0.001323
# 5 -0.003473 0.000685 0.000641 0.000000 0.030048 0.000000
# 6 0.000000 0.000000 0.000000 0.001323 0.000000 0.022182
#
#
# Mechanical properties :
#
#
# Convention : Reuss Voigt Hill
#
# Bulk Modulus (GPa) = 32.35461 34.10142 33.22802
# Shear Modulus (GPa) = 28.87666 32.65461 30.76563
#
# Velocity S-wave (km/s) = 3.66532 3.89772 3.78331
# Velocity P-wave (km/s) = 5.74155 6.01013 5.87738
#
# Compressibility (1/GPa) = 0.03090749
#
# Stress axis : x y z
#
# Youngs Moduli (GPa) = 68.81971 76.78078 38.32066
#
# Poissons Ratio (x) = 0.04163 0.27656
# Poissons Ratio (y) = 0.03731 0.13843
# Poissons Ratio (z) = 0.49667 0.27735
#
# Static dielectric constant tensor:
#      x y z
#    x 3.942880 0.000000 0.344330 
#    y 0.000000 4.232910 0.000000 
#    z 0.344330 0.000000 3.904150 
# 
# 
# High freq. dielectric constant tensor:
#      x y z
#    x 1.841990 0.000000 0.021530 
#    y 0.000000 1.867180 0.000000 
#    z 0.021530 0.000000 1.834370 
# 
# From -- ./inp_files/16255.got.cif
#   From: 2010.03.12/outbox.cif.g09.slc.cpg/sg4_9_cif.got.tgz:16255.got - 2010.03.31 09:31:35.
