data_PCOD8045829
_publ_section_title
;
Structure prediction by ZEFSAII (Michael W. Deem and Ramdas Pophale) SiO2 
 PCOD8045829
Probable space group: P 21
;
_chemical_formula_sum "Si O2"
_cell_formula_units_Z 16
_cell_length_a 9.634585
_cell_length_b 13.346986
_cell_length_c 9.590977
_cell_angle_alpha 90.000000
_cell_angle_beta 137.782134
_cell_angle_gamma 90.000000
_cell_volume 828.737575
_symmetry_space_group_name_H-M "P 21"
_symmetry_group_IT_number 4
_symmetry_cell_setting 'monoclinic'
loop_
_space_group_symop_operation_xyz
x,y,z
-x,1/2+y,-z
loop_
_atom_site_type_symbol
_atom_site_label
_atom_site_fract_x
_atom_site_fract_y
_atom_site_fract_z
Si Si1 0.503889 0.630590 0.188987
Si Si2 0.217554 0.943327 0.558693
Si Si3 0.858519 0.134458 0.477444
Si Si4 0.504866 0.771987 0.711365
Si Si5 0.115676 0.399623 0.499959
Si Si6 0.935844 0.092544 0.224928
Si Si7 0.738240 0.757043 0.161232
Si Si8 0.273539 0.240669 0.411897
O O1 0.663302 0.540611 0.305033
O O2 0.552007 0.689853 0.083191
O O3 0.543280 0.701013 0.351977
O O4 0.272518 0.587782 0.020207
O O5 0.361131 0.868621 0.581255
O O6 0.124523 0.889361 0.628302
O O7 0.024477 0.980361 0.318249
O O8 0.639824 0.176651 0.367544
O O9 0.894648 0.150114 0.339782
O O10 0.048012 0.193596 0.692059
O O11 0.842234 0.016396 0.499215
O O12 0.633896 0.763046 0.667988
O O13 0.668466 0.791118 0.956374
O O14 0.246074 0.354192 0.726724
O O15 0.163749 0.339270 0.394693
O O16 0.101586 0.155793 0.261274
#
# Coordination Sequence:
#
# PCOD8045829 Si02
#       8
#     2   2   2   2   2   2   2   2
#     4  10  20  39  69  87 113 165 207 251 306 363
#     4  10  21  37  64  92 119 153 213 257 301 359
#     4  11  21  39  65  89 121 155 215 265 291 360
#     4  12  25  36  61  91 131 163 198 252 320 366
#     4  10  20  41  63  84 122 156 207 260 293 355
#     4  10  19  40  65  89 118 157 208 259 298 357
#     4  11  21  38  63  94 118 159 211 253 307 365
#     4  10  23  42  56  92 130 160 201 247 310 375
#
# _framework density 19.306474000000001
#
# number of rings (size 3 to 8) (size 9 to 14) (size 15 to 20)
#    0.000    1.500    7.500    0.000    3.500    3.000 
#    0.000    0.000    0.000    0.000    0.000    0.000 
#    0.000    0.000    0.000    0.000    0.000    0.000 
#
# Total GULP energy -198329.885382 kJ/mol
# GULP energy per Si atom -12395.617836 kJ/mol
# Density = 1.926253 g / cm^3
# Si number density = 19.306474 Si / 1000 Ang^3
#
#
#
# Elastic Constant Matrix: (Units=GPa)
#
#
# Indices 1 2 3 4 5 6 
#
# 1 116.2958 24.7958 22.7912 0.0000 -14.6287 0.0000
# 2 24.7958 77.9073 12.4076 0.0000 -0.3133 0.0000
# 3 22.7912 12.4076 81.9953 0.0000 6.2218 0.0000
# 4 0.0000 0.0000 0.0000 19.1843 0.0000 8.6050
# 5 -14.6287 -0.3133 6.2218 0.0000 30.1621 0.0000
# 6 0.0000 0.0000 0.0000 8.6050 0.0000 32.6435
#
#
#
# Elastic Compliance Matrix: (Units=1/GPa)
#
#
# Indices 1 2 3 4 5 6 
#
# 1 0.010490 -0.002852 -0.002914 0.000000 0.005659 0.000000
# 2 -0.002852 0.013937 -0.001242 0.000000 -0.000982 0.000000
# 3 -0.002914 -0.001242 0.013513 0.000000 -0.004213 0.000000
# 4 0.000000 0.000000 0.000000 0.059116 0.000000 -0.015583
# 5 0.005659 -0.000982 -0.004213 0.000000 0.036758 0.000000
# 6 0.000000 0.000000 0.000000 -0.015583 0.000000 0.034742
#
#
# Mechanical properties :
#
#
# Convention : Reuss Voigt Hill
#
# Bulk Modulus (GPa) = 41.79569 44.02086 42.90827
# Shear Modulus (GPa) = 26.24052 30.81155 28.52604
#
# Velocity S-wave (km/s) = 3.69067 3.99923 3.84804
# Velocity P-wave (km/s) = 6.31324 6.64648 6.48200
#
# Compressibility (1/GPa) = 0.02392591
#
# Stress axis : x y z
#
# Youngs Moduli (GPa) = 95.33250 71.75021 74.00120
#
# Poissons Ratio (x) = 0.20462 0.21560
# Poissons Ratio (y) = 0.27187 0.09189
# Poissons Ratio (z) = 0.27775 0.08910
#
# Static dielectric constant tensor:
#      x y z
#    x 3.419960 0.000000 0.243130 
#    y 0.000000 3.701830 0.000000 
#    z 0.243130 0.000000 3.425660 
# 
# 
# High freq. dielectric constant tensor:
#      x y z
#    x 1.740470 0.000000 0.022030 
#    y 0.000000 1.763650 0.000000 
#    z 0.022030 0.000000 1.732230 
# 
# From -- ./inp_files/6723.got.cif
#   From: 2010.03.12/outbox.cif.g09.slc.cpg/sg4_4_cif.got.tgz:6723.got - 2010.03.31 09:31:35.
