data_PCOD8045513
_publ_section_title
;
Structure prediction by ZEFSAII (Michael W. Deem and Ramdas Pophale) SiO2 
 PCOD8045513
Probable space group: P 2
;
_chemical_formula_sum "Si O2"
_cell_formula_units_Z 10
_cell_length_a 15.473563
_cell_length_b 5.559636
_cell_length_c 4.767629
_cell_angle_alpha 90.000000
_cell_angle_beta 71.777412
_cell_angle_gamma 90.000000
_cell_volume 389.577295
_symmetry_space_group_name_H-M "P 2"
_symmetry_group_IT_number 3
_symmetry_cell_setting 'monoclinic'
loop_
_space_group_symop_operation_xyz
x,y,z
-x,y,-z
loop_
_atom_site_type_symbol
_atom_site_label
_atom_site_fract_x
_atom_site_fract_y
_atom_site_fract_z
Si Si1 0.500000 0.758250 0.000000
Si Si2 0.787430 0.090813 0.740795
Si Si3 0.500000 0.088641 0.500000
Si Si4 0.791885 0.753959 0.260091
Si Si5 0.059439 0.405164 0.691158
Si Si6 0.350674 0.422585 0.401072
O O1 0.414316 0.602040 0.169640
O O2 0.535598 0.924165 0.213359
O O3 0.880689 0.204283 0.527457
O O4 0.708463 0.287260 0.777900
O O5 0.764145 0.854177 0.590680
O O6 0.796271 0.984773 0.047367
O O7 0.412110 0.241124 0.513053
O O8 0.887017 0.613934 0.193502
O O9 0.712064 0.555632 0.298578
O O10 0.000000 0.523451 0.500000
O O11 0.000000 0.281257 0.000000
#
# Coordination Sequence:
#
# PCOD8045513 Si02
#       6
#     1   2   1   2   2   2
#     4  12  28  48  74 108 146 194 250 308 368 430
#     4  11  26  47  74 108 148 195 243 299 369 438
#     4  12  28  48  74 108 146 194 250 308 368 430
#     4  11  26  47  74 108 148 195 243 299 369 438
#     4  11  24  46  75 110 150 190 243 304 362 439
#     4  11  28  48  73 108 150 194 251 308 362 435
#
# _framework density 25.668849999999999
#
# number of rings (size 3 to 8) (size 9 to 14) (size 15 to 20)
#    0.000    0.800    0.000    4.800    0.000   24.000 
#    0.000    0.000    0.000    0.000    0.000    0.000 
#    0.000    0.000    0.000    0.000    0.000    0.000 
#
# Total GULP energy -123971.554996 kJ/mol
# GULP energy per Si atom -12397.155500 kJ/mol
# Density = 2.561043 g / cm^3
# Si number density = 25.668850 Si / 1000 Ang^3
#
#
#
# Elastic Constant Matrix: (Units=GPa)
#
#
# Indices 1 2 3 4 5 6 
#
# 1 168.9112 78.3020 81.4775 0.0000 -13.9462 0.0000
# 2 78.3020 144.0142 57.9892 0.0000 -5.3683 0.0000
# 3 81.4775 57.9892 130.1919 0.0000 1.8788 0.0000
# 4 0.0000 0.0000 0.0000 44.2707 0.0000 4.8576
# 5 -13.9462 -5.3683 1.8788 0.0000 34.1609 0.0000
# 6 0.0000 0.0000 0.0000 4.8576 0.0000 36.6582
#
#
#
# Elastic Compliance Matrix: (Units=1/GPa)
#
#
# Indices 1 2 3 4 5 6 
#
# 1 0.010199 -0.003421 -0.004915 0.000000 0.003896 0.000000
# 2 -0.003421 0.009690 -0.002179 0.000000 0.000246 0.000000
# 3 -0.004915 -0.002179 0.011771 0.000000 -0.002996 0.000000
# 4 0.000000 0.000000 0.000000 0.022922 0.000000 -0.003037
# 5 0.003896 0.000246 -0.002996 0.000000 0.031067 0.000000
# 6 0.000000 0.000000 0.000000 -0.003037 0.000000 0.027682
#
#
# Mechanical properties :
#
#
# Convention : Reuss Voigt Hill
#
# Bulk Modulus (GPa) = 94.07347 97.62833 95.85090
# Shear Modulus (GPa) = 36.25738 38.04120 37.14929
#
# Velocity S-wave (km/s) = 3.76241 3.85385 3.80840
# Velocity P-wave (km/s) = 7.45672 7.61047 7.53399
#
# Compressibility (1/GPa) = 0.01062999
#
# Stress axis : x y z
#
# Youngs Moduli (GPa) = 98.05242 103.19733 84.95620
#
# Poissons Ratio (x) = 0.35301 0.41757
# Poissons Ratio (y) = 0.33541 0.18511
# Poissons Ratio (z) = 0.48194 0.22486
#
# Static dielectric constant tensor:
#      x y z
#    x 4.884660 0.000000 0.025590 
#    y 0.000000 4.813970 0.000000 
#    z 0.025590 0.000000 4.605250 
# 
# 
# High freq. dielectric constant tensor:
#      x y z
#    x 2.040270 0.000000 -0.003200 
#    y 0.000000 2.035380 0.000000 
#    z -0.003200 0.000000 2.035010 
# 
# From -- ./inp_files/2634.got.cif
#   From: 2010.03.12/outbox.cif.g09.slc.cpg/sg3_2_cif.got.tgz:2634.got - 2010.03.31 09:20:49.
