data_PCOD8045910
_publ_section_title
;
Structure prediction by ZEFSAII (Michael W. Deem and Ramdas Pophale) SiO2 
 PCOD8045910
Probable space group: P 21
;
_chemical_formula_sum "Si O2"
_cell_formula_units_Z 16
_cell_length_a 17.967913
_cell_length_b 5.230212
_cell_length_c 9.688671
_cell_angle_alpha 90.000000
_cell_angle_beta 126.787041
_cell_angle_gamma 90.000000
_cell_volume 729.191248
_symmetry_space_group_name_H-M "P 21"
_symmetry_group_IT_number 4
_symmetry_cell_setting 'monoclinic'
loop_
_space_group_symop_operation_xyz
x,y,z
-x,1/2+y,-z
loop_
_atom_site_type_symbol
_atom_site_label
_atom_site_fract_x
_atom_site_fract_y
_atom_site_fract_z
Si Si1 0.319914 0.294460 0.595642
Si Si2 0.220298 0.816309 0.556902
Si Si3 0.774071 0.787375 0.785110
Si Si4 0.494452 0.939241 0.313743
Si Si5 0.910405 0.187717 0.810361
Si Si6 0.918066 0.454064 0.088010
Si Si7 0.596600 0.945287 0.718413
Si Si8 0.059164 0.772914 0.592793
O O1 0.262802 0.534442 0.589739
O O2 0.294402 0.194062 0.412872
O O3 0.427261 0.383114 0.716070
O O4 0.296864 0.041847 0.662221
O O5 0.160653 0.874404 0.350437
O O6 0.152430 0.816611 0.611142
O O7 0.707637 0.942669 0.816440
O O8 0.854830 0.941335 0.800129
O O9 0.819301 0.569831 0.931836
O O10 0.541307 0.951934 0.514509
O O11 0.421712 0.707204 0.220310
O O12 0.439273 0.205176 0.228724
O O13 0.994066 0.144060 0.792354
O O14 0.956252 0.300246 0.998331
O O15 0.906428 0.282411 0.210028
O O16 0.015540 0.495000 0.519536
#
# Coordination Sequence:
#
# PCOD8045910 Si02
#       8
#     2   2   2   2   2   2   2   2
#     4  10  20  36  61  86 121 151 203 242 294 355
#     4  11  22  40  58  88 117 160 197 250 291 348
#     4  10  22  34  54  89 118 159 194 248 294 358
#     4   9  17  31  52  82 115 159 178 237 296 360
#     4  11  23  37  60  85 120 160 204 246 299 350
#     4  12  24  39  60  84 122 164 204 247 298 352
#     4   9  18  30  50  80 125 148 187 227 306 354
#     4  12  28  43  61  84 122 165 207 247 296 349
#
# _framework density 21.942115999999999
#
# number of rings (size 3 to 8) (size 9 to 14) (size 15 to 20)
#    0.000    1.500    3.750    1.500    7.000    3.000 
#    0.000    0.000    0.000    0.000    0.000    3.500 
#    0.000    0.000    0.000    0.000    0.000    0.000 
#
# Total GULP energy -198260.883050 kJ/mol
# GULP energy per Si atom -12391.305191 kJ/mol
# Density = 2.189217 g / cm^3
# Si number density = 21.942116 Si / 1000 Ang^3
#
#
#
# Elastic Constant Matrix: (Units=GPa)
#
#
# Indices 1 2 3 4 5 6 
#
# 1 103.2738 6.1640 15.1450 0.0000 -11.3157 0.0000
# 2 6.1640 88.4756 2.3424 0.0000 -4.6027 0.0000
# 3 15.1450 2.3424 32.9971 0.0000 -7.1985 0.0000
# 4 0.0000 0.0000 0.0000 14.7751 0.0000 -0.4322
# 5 -11.3157 -4.6027 -7.1985 0.0000 19.7912 0.0000
# 6 0.0000 0.0000 0.0000 -0.4322 0.0000 36.9769
#
#
#
# Elastic Compliance Matrix: (Units=1/GPa)
#
#
# Indices 1 2 3 4 5 6 
#
# 1 0.010790 -0.000406 -0.003909 0.000000 0.004653 0.000000
# 2 -0.000406 0.011458 -0.000105 0.000000 0.002394 0.000000
# 3 -0.003909 -0.000105 0.034339 0.000000 0.010231 0.000000
# 4 0.000000 0.000000 0.000000 0.067705 0.000000 0.000791
# 5 0.004653 0.002394 0.010231 0.000000 0.057466 0.000000
# 6 0.000000 0.000000 0.000000 0.000791 0.000000 0.027053
#
#
# Mechanical properties :
#
#
# Convention : Reuss Voigt Hill
#
# Bulk Modulus (GPa) = 20.94294 30.22771 25.58532
# Shear Modulus (GPa) = 21.40719 27.71497 24.56108
#
# Velocity S-wave (km/s) = 3.12688 3.55786 3.34931
# Velocity P-wave (km/s) = 4.75414 5.53930 5.16167
#
# Compressibility (1/GPa) = 0.04774878
#
# Stress axis : x y z
#
# Youngs Moduli (GPa) = 92.67590 87.27388 29.12143
#
# Poissons Ratio (x) = 0.03545 0.11382
# Poissons Ratio (y) = 0.03764 0.00305
# Poissons Ratio (z) = 0.36223 0.00913
#
# Static dielectric constant tensor:
#      x y z
#    x 4.129820 0.000000 0.130590 
#    y 0.000000 4.076780 0.000000 
#    z 0.130590 0.000000 3.668380 
# 
# 
# High freq. dielectric constant tensor:
#      x y z
#    x 1.879800 0.000000 0.007610 
#    y 0.000000 1.864320 0.000000 
#    z 0.007610 0.000000 1.806140 
# 
# From -- ./inp_files/8858.got.cif
#   From: 2010.03.12/outbox.cif.g09.slc.cpg/sg4_5_cif.got.tgz:8858.got - 2010.03.31 09:31:35.
