data_PCOD8045530
_publ_section_title
;
Structure prediction by ZEFSAII (Michael W. Deem and Ramdas Pophale) SiO2 
 PCOD8045530
Probable space group: P 2
;
_chemical_formula_sum "Si O2"
_cell_formula_units_Z 10
_cell_length_a 14.966274
_cell_length_b 5.341251
_cell_length_c 13.985086
_cell_angle_alpha 90.000000
_cell_angle_beta 20.700522
_cell_angle_gamma 90.000000
_cell_volume 395.176220
_symmetry_space_group_name_H-M "P 2"
_symmetry_group_IT_number 3
_symmetry_cell_setting 'monoclinic'
loop_
_space_group_symop_operation_xyz
x,y,z
-x,y,-z
loop_
_atom_site_type_symbol
_atom_site_label
_atom_site_fract_x
_atom_site_fract_y
_atom_site_fract_z
Si Si1 0.000000 0.334620 0.500000
Si Si2 0.500000 0.343753 0.500000
Si Si3 0.263019 0.988052 0.379227
Si Si4 0.167123 0.085105 0.680483
Si Si5 0.253427 0.687999 0.101822
Si Si6 0.845590 0.578664 0.003940
O O1 0.805864 0.474594 0.763288
O O2 0.793152 0.193415 0.643709
O O3 0.347958 0.147544 0.587452
O O4 0.666022 0.541883 0.274465
O O5 0.003525 0.840207 0.648268
O O6 0.328667 0.084535 0.420192
O O7 0.503987 0.834017 0.100480
O O8 0.982597 0.316457 0.853800
O O9 0.025678 0.819815 0.841333
O O10 0.319695 0.601649 0.927660
#
# Coordination Sequence:
#
# PCOD8045530 Si02
#       6
#     1   1   2   2   2   2
#     4  12  26  54  88 118 164 222 278 358 418 508
#     4  12  30  50  88 118 168 226 278 354 414 504
#     4  11  28  52  82 121 167 218 279 348 425 505
#     4  11  28  54  79 123 169 217 283 349 420 505
#     4  11  28  52  82 121 167 218 279 348 425 505
#     4  11  28  54  79 123 169 217 283 349 420 505
#
# _framework density 25.305167000000001
#
# number of rings (size 3 to 8) (size 9 to 14) (size 15 to 20)
#    0.000    0.800    2.000    1.200   11.200   11.200 
#    0.000    4.000    0.000    0.000    0.000    0.000 
#    0.000    0.000    0.000    0.000    0.000    0.000 
#
# Total GULP energy -123937.703979 kJ/mol
# GULP energy per Si atom -12393.770398 kJ/mol
# Density = 2.524757 g / cm^3
# Si number density = 25.305167 Si / 1000 Ang^3
#
#
#
# Elastic Constant Matrix: (Units=GPa)
#
#
# Indices 1 2 3 4 5 6 
#
# 1 187.9193 52.6679 129.1416 0.0000 107.0980 0.0000
# 2 52.6679 88.0522 87.3204 0.0000 61.5627 0.0000
# 3 129.1416 87.3204 58.5514 0.0000 -152.6838 0.0000
# 4 0.0000 0.0000 0.0000 35.7155 0.0000 6.2112
# 5 107.0980 61.5627 -152.6838 0.0000 -217.0426 0.0000
# 6 0.0000 0.0000 0.0000 6.2112 0.0000 77.9762
#
#
#
# Elastic Compliance Matrix: (Units=1/GPa)
#
#
# Indices 1 2 3 4 5 6 
#
# 1 0.005783 -0.004239 -0.000751 0.000000 0.002180 0.000000
# 2 -0.004239 0.013763 -0.002276 0.000000 0.003413 0.000000
# 3 -0.000751 -0.002276 0.006872 0.000000 -0.005851 0.000000
# 4 0.000000 0.000000 0.000000 0.028392 0.000000 -0.002262
# 5 0.002180 0.003413 -0.005851 0.000000 0.001552 0.000000
# 6 0.000000 0.000000 0.000000 -0.002262 0.000000 0.013005
#
#
# Mechanical properties :
#
#
# Convention : Reuss Voigt Hill
#
# Bulk Modulus (GPa) = 84.11736 96.97585 90.54661
# Shear Modulus (GPa) = 56.90882 -16.31064 20.29909
#
# Velocity S-wave (km/s) = 4.74740 -2.54157 2.83534
# Velocity P-wave (km/s) = 7.96014 5.45829 6.82484
#
# Compressibility (1/GPa) = 0.01188815
#
# Stress axis : x y z
#
# Youngs Moduli (GPa) = 172.91707 72.66040 145.50862
#
# Poissons Ratio (x) = 0.30797 0.10924
# Poissons Ratio (y) = 0.73291 0.33115
# Poissons Ratio (z) = 0.12981 0.16536
#
# Static dielectric constant tensor:
#      x y z
#    x 5.947730 0.000000 0.595470 
#    y 0.000000 4.776770 0.000000 
#    z 0.595470 0.000000 5.015040 
# 
# 
# High freq. dielectric constant tensor:
#      x y z
#    x 2.043610 0.000000 0.008220 
#    y 0.000000 2.016260 0.000000 
#    z 0.008220 0.000000 2.013270 
# 
# From -- ./inp_files/13886.got.cif
#   From: 2010.03.12/outbox.cif.g09.slc.cpg/sg3_7_cif.got.tgz:13886.got - 2010.03.31 09:20:49.
