data_PCOD8045889
_publ_section_title
;
Structure prediction by ZEFSAII (Michael W. Deem and Ramdas Pophale) SiO2 
 PCOD8045889
Probable space group: P 21
;
_chemical_formula_sum "Si O2"
_cell_formula_units_Z 14
_cell_length_a 7.979217
_cell_length_b 9.367555
_cell_length_c 15.822332
_cell_angle_alpha 90.000000
_cell_angle_beta 147.434706
_cell_angle_gamma 90.000000
_cell_volume 636.574794
_symmetry_space_group_name_H-M "P 21"
_symmetry_group_IT_number 4
_symmetry_cell_setting 'monoclinic'
loop_
_space_group_symop_operation_xyz
x,y,z
-x,1/2+y,-z
loop_
_atom_site_type_symbol
_atom_site_label
_atom_site_fract_x
_atom_site_fract_y
_atom_site_fract_z
Si Si1 0.587377 0.349200 0.400639
Si Si2 0.180670 0.862168 0.145841
Si Si3 0.056214 0.662518 0.325988
Si Si4 0.633557 0.769618 0.014016
Si Si5 0.295635 0.177725 0.132962
Si Si6 0.036538 0.350119 0.299811
Si Si7 0.395677 0.172905 0.574218
O O1 0.878414 0.272436 0.570391
O O2 0.540887 0.269056 0.292109
O O3 0.673123 0.514525 0.419586
O O4 0.279762 0.334981 0.326817
O O5 0.501477 0.781957 0.308041
O O6 0.258848 0.021730 0.154141
O O7 0.920367 0.875990 0.110627
O O8 0.029178 0.768216 0.005405
O O9 0.313914 0.673243 0.364014
O O10 0.065597 0.499816 0.362472
O O11 0.722903 0.693776 0.140162
O O12 0.590086 0.660799 0.915836
O O13 0.303307 0.845253 0.886982
O O14 0.094017 0.228756 0.395055
#
# Coordination Sequence:
#
# PCOD8045889 Si02
#       7
#     2   2   2   2   2   2   2
#     4  10  20  35  62  85 111 154 201 225 281 348
#     4   9  19  35  61  80 113 147 194 228 284 339
#     4   9  19  35  57  83 114 153 189 229 280 349
#     4   9  22  36  59  86 122 139 192 243 288 331
#     4  10  20  36  62  83 112 150 196 235 282 345
#     4  10  20  36  60  82 119 149 190 240 289 325
#     4   9  18  35  57  85 111 152 190 234 272 351
#
# _framework density 21.992701
#
# number of rings (size 3 to 8) (size 9 to 14) (size 15 to 20)
#    0.857    1.714    0.000    1.714    2.000    5.714 
#    0.000    2.857    6.286    0.000    0.000    0.000 
#    0.000    0.000    0.000    0.000    0.000    0.000 
#
# Total GULP energy -173464.637641 kJ/mol
# GULP energy per Si atom -12390.331260 kJ/mol
# Density = 2.194264 g / cm^3
# Si number density = 21.992701 Si / 1000 Ang^3
#
#
#
# Elastic Constant Matrix: (Units=GPa)
#
#
# Indices 1 2 3 4 5 6 
#
# 1 20.5949 10.9173 21.7711 0.0000 -7.0073 0.0000
# 2 10.9173 147.6281 52.9041 0.0000 -15.4413 0.0000
# 3 21.7711 52.9041 143.0266 0.0000 -22.9441 0.0000
# 4 0.0000 0.0000 0.0000 37.5046 0.0000 -10.8192
# 5 -7.0073 -15.4413 -22.9441 0.0000 33.0534 0.0000
# 6 0.0000 0.0000 0.0000 -10.8192 0.0000 17.0132
#
#
#
# Elastic Compliance Matrix: (Units=1/GPa)
#
#
# Indices 1 2 3 4 5 6 
#
# 1 0.059426 -0.000955 -0.007588 0.000000 0.006885 0.000000
# 2 -0.000955 0.007926 -0.002504 0.000000 0.001762 0.000000
# 3 -0.007588 -0.002504 0.009708 0.000000 0.003961 0.000000
# 4 0.000000 0.000000 0.000000 0.032654 0.000000 0.020766
# 5 0.006885 0.001762 0.003961 0.000000 0.035286 0.000000
# 6 0.000000 0.000000 0.000000 0.020766 0.000000 0.071984
#
#
# Mechanical properties :
#
#
# Convention : Reuss Voigt Hill
#
# Bulk Modulus (GPa) = 18.19297 53.60386 35.89841
# Shear Modulus (GPa) = 19.42511 32.55805 25.99158
#
# Velocity S-wave (km/s) = 2.97518 3.85177 3.44150
# Velocity P-wave (km/s) = 4.48247 6.64890 5.67012
#
# Compressibility (1/GPa) = 0.05496628
#
# Stress axis : x y z
#
# Youngs Moduli (GPa) = 16.82775 126.16791 103.00646
#
# Poissons Ratio (x) = 0.12053 0.78159
# Poissons Ratio (y) = 0.01608 0.25789
# Poissons Ratio (z) = 0.12769 0.31587
#
# Static dielectric constant tensor:
#      x y z
#    x 3.425780 0.000000 -0.159970 
#    y 0.000000 3.934220 0.000000 
#    z -0.159970 0.000000 4.140310 
# 
# 
# High freq. dielectric constant tensor:
#      x y z
#    x 1.820490 0.000000 -0.011200 
#    y 0.000000 1.860080 0.000000 
#    z -0.011200 0.000000 1.876280 
# 
# From -- ./inp_files/14957.got.cif
#   From: 2010.03.12/outbox.cif.g09.slc.cpg/sg4_8_cif.got.tgz:14957.got - 2010.03.31 09:31:35.
