data_PCOD8045081
_publ_section_title
;
Structure prediction by ZEFSAII (Michael W. Deem and Ramdas Pophale) SiO2 
 PCOD8045081
Probable space group: P 2
;
_chemical_formula_sum "Si O2"
_cell_formula_units_Z 14
_cell_length_a 10.595069
_cell_length_b 8.587485
_cell_length_c 10.258867
_cell_angle_alpha 90.000000
_cell_angle_beta 45.060117
_cell_angle_gamma 90.000000
_cell_volume 660.707724
_symmetry_space_group_name_H-M "P 2"
_symmetry_group_IT_number 3
_symmetry_cell_setting 'monoclinic'
loop_
_space_group_symop_operation_xyz
x,y,z
-x,y,-z
loop_
_atom_site_type_symbol
_atom_site_label
_atom_site_fract_x
_atom_site_fract_y
_atom_site_fract_z
Si Si1 0.039683 0.838870 0.829060
Si Si2 0.847412 0.055367 0.780482
Si Si3 0.451679 0.137641 0.835739
Si Si4 0.305617 0.107977 0.679723
Si Si5 0.130879 0.626448 0.522041
Si Si6 0.815731 0.266721 0.478121
Si Si7 0.614793 0.837963 0.793732
O O1 0.073974 0.702750 0.700185
O O2 0.206561 0.946550 0.737344
O O3 0.890567 0.954999 0.879092
O O4 0.000000 0.762995 0.000000
O O5 0.012636 0.160361 0.610158
O O6 0.790653 0.936503 0.708130
O O7 0.670252 0.161441 0.944858
O O8 0.318256 0.182832 0.814689
O O9 0.642070 0.228502 0.694974
O O10 0.495331 0.952942 0.793467
O O11 0.500000 0.056956 0.500000
O O12 0.228162 0.241058 0.641560
O O13 0.133117 0.443383 0.538576
O O14 0.324693 0.692370 0.338535
O O15 0.000000 0.670495 0.500000
O O16 0.500000 0.775385 0.000000
#
# Coordination Sequence:
#
# PCOD8045081 Si02
#       7
#     2   2   2   2   2   2   2
#     4  11  21  40  69  97 127 170 220 270 324 379
#     4  10  20  41  68  97 120 169 224 280 310 378
#     4  10  20  39  67  93 122 160 223 274 312 373
#     4   9  18  38  64  91 122 161 221 269 314 371
#     4  12  25  43  62  94 141 174 209 262 337 399
#     4  10  24  38  61  92 133 173 205 263 334 388
#     4  10  22  41  69  96 125 165 226 274 321 379
#
# _framework density 21.189399999999999
#
# number of rings (size 3 to 8) (size 9 to 14) (size 15 to 20)
#    0.000    1.714    2.857    2.571    2.000    0.000 
#    5.143    6.429    0.000    0.000    0.000    0.000 
#    0.000    0.000    0.000    0.000    0.000    0.000 
#
# Total GULP energy -173444.547700 kJ/mol
# GULP energy per Si atom -12388.896264 kJ/mol
# Density = 2.114117 g / cm^3
# Si number density = 21.189400 Si / 1000 Ang^3
#
#
#
# Elastic Constant Matrix: (Units=GPa)
#
#
# Indices 1 2 3 4 5 6 
#
# 1 76.8082 28.0589 44.2990 0.0000 -1.5028 0.0000
# 2 28.0589 88.7090 53.9118 0.0000 5.9202 0.0000
# 3 44.2990 53.9118 100.3992 0.0000 5.4895 0.0000
# 4 0.0000 0.0000 0.0000 23.1438 0.0000 2.0468
# 5 -1.5028 5.9202 5.4895 0.0000 41.9107 0.0000
# 6 0.0000 0.0000 0.0000 2.0468 0.0000 17.5728
#
#
#
# Elastic Compliance Matrix: (Units=1/GPa)
#
#
# Indices 1 2 3 4 5 6 
#
# 1 0.017685 -0.001352 -0.007174 0.000000 0.001765 0.000000
# 2 -0.001352 0.016897 -0.008404 0.000000 -0.001335 0.000000
# 3 -0.007174 -0.008404 0.017714 0.000000 -0.001390 0.000000
# 4 0.000000 0.000000 0.000000 0.043658 0.000000 -0.005085
# 5 0.001765 -0.001335 -0.001390 0.000000 0.024294 0.000000
# 6 0.000000 0.000000 0.000000 -0.005085 0.000000 0.057498
#
#
# Mechanical properties :
#
#
# Convention : Reuss Voigt Hill
#
# Bulk Modulus (GPa) = 54.23754 57.60620 55.92187
# Shear Modulus (GPa) = 22.96200 25.83524 24.39862
#
# Velocity S-wave (km/s) = 3.29546 3.49557 3.39699
# Velocity P-wave (km/s) = 6.33500 6.59828 6.46798
#
# Compressibility (1/GPa) = 0.01843742
#
# Stress axis : x y z
#
# Youngs Moduli (GPa) = 56.54401 59.18320 56.45218
#
# Poissons Ratio (x) = 0.08001 0.40498
# Poissons Ratio (y) = 0.07644 0.47440
# Poissons Ratio (z) = 0.40564 0.49735
#
# Static dielectric constant tensor:
#      x y z
#    x 4.210640 0.000000 0.158900 
#    y 0.000000 3.337280 0.000000 
#    z 0.158900 0.000000 4.140300 
# 
# 
# High freq. dielectric constant tensor:
#      x y z
#    x 1.851300 0.000000 0.000680 
#    y 0.000000 1.780850 0.000000 
#    z 0.000680 0.000000 1.844720 
# 
# From -- ./inp_files/11670.got.cif
#   From: 2010.03.12/outbox.cif.g09.slc.cpg/sg3_6_cif.got.tgz:11670.got - 2010.03.31 09:20:49.
