data_PCOD8045238
_publ_section_title
;
Structure prediction by ZEFSAII (Michael W. Deem and Ramdas Pophale) SiO2 
 PCOD8045238
Probable space group: P 2
;
_chemical_formula_sum "Si O2"
_cell_formula_units_Z 12
_cell_length_a 11.658949
_cell_length_b 9.255129
_cell_length_c 8.285919
_cell_angle_alpha 90.000000
_cell_angle_beta 39.872750
_cell_angle_gamma 90.000000
_cell_volume 573.189162
_symmetry_space_group_name_H-M "P 2"
_symmetry_group_IT_number 3
_symmetry_cell_setting 'monoclinic'
loop_
_space_group_symop_operation_xyz
x,y,z
-x,y,-z
loop_
_atom_site_type_symbol
_atom_site_label
_atom_site_fract_x
_atom_site_fract_y
_atom_site_fract_z
Si Si1 0.685451 0.099120 0.857740
Si Si2 0.707890 0.775696 0.776174
Si Si3 0.033271 0.729602 0.214280
Si Si4 0.000000 0.310437 0.500000
Si Si5 0.901173 0.425068 0.948437
Si Si6 0.000000 0.977857 0.000000
Si Si7 0.312840 0.157923 0.783030
O O1 0.834286 0.209029 0.639152
O O2 0.710837 0.946880 0.738956
O O3 0.500000 0.169476 0.000000
O O4 0.690622 0.074261 0.043815
O O5 0.837420 0.696759 0.505662
O O6 0.800413 0.747947 0.846323
O O7 0.500000 0.718110 0.000000
O O8 0.104746 0.598290 0.024115
O O9 0.003967 0.877473 0.151755
O O10 0.014100 0.405124 0.322206
O O11 0.719944 0.329887 0.147767
O O12 0.000000 0.362553 0.000000
O O13 0.829120 0.083215 0.182968
O O14 0.500000 0.136585 0.500000
#
# Coordination Sequence:
#
# PCOD8045238 Si02
#       7
#     2   2   2   1   2   1   2
#     4  10  22  37  64  97 125 165 221 271 334 384
#     4  10  22  40  66  96 131 171 219 278 331 394
#     4  11  23  43  65  95 132 174 219 273 335 402
#     4  10  22  40  64  92 128 178 218 276 322 396
#     4  11  24  45  67  95 136 177 224 273 340 399
#     4  12  24  40  68  96 132 172 218 276 334 394
#     4  11  26  43  66 100 133 172 225 279 332 399
#
# _framework density 20.935497000000002
#
# number of rings (size 3 to 8) (size 9 to 14) (size 15 to 20)
#    0.000    1.333    3.333    2.000    9.333    0.000 
#    3.000    5.000    0.000    0.000    0.000    0.000 
#    0.000    0.000    0.000    0.000    0.000    0.000 
#
# Total GULP energy -148669.091914 kJ/mol
# GULP energy per Si atom -12389.090993 kJ/mol
# Density = 2.088785 g / cm^3
# Si number density = 20.935497 Si / 1000 Ang^3
#
#
#
# Elastic Constant Matrix: (Units=GPa)
#
#
# Indices 1 2 3 4 5 6 
#
# 1 115.6908 22.5731 46.3805 0.0000 -19.2351 0.0000
# 2 22.5731 102.1717 32.8366 0.0000 -16.5292 0.0000
# 3 46.3805 32.8366 86.2733 0.0000 -24.8207 0.0000
# 4 0.0000 0.0000 0.0000 -19.4336 0.0000 53.6328
# 5 -19.2351 -16.5292 -24.8207 0.0000 44.8304 0.0000
# 6 0.0000 0.0000 0.0000 53.6328 0.0000 -50.6438
#
#
#
# Elastic Compliance Matrix: (Units=1/GPa)
#
#
# Indices 1 2 3 4 5 6 
#
# 1 0.011152 -0.000481 -0.005337 0.000000 0.001653 0.000000
# 2 -0.000481 0.011340 -0.003466 0.000000 0.002056 0.000000
# 3 -0.005337 -0.003466 0.017548 0.000000 0.006148 0.000000
# 4 0.000000 0.000000 0.000000 0.026763 0.000000 0.028343
# 5 0.001653 0.002056 0.006148 0.000000 0.027177 0.000000
# 6 0.000000 0.000000 0.000000 0.028343 0.000000 0.010270
#
#
# Mechanical properties :
#
#
# Convention : Reuss Voigt Hill
#
# Bulk Modulus (GPa) = 46.57177 56.41292 51.49235
# Shear Modulus (GPa) = 38.46869 8.44031 23.45450
#
# Velocity S-wave (km/s) = 4.29124 2.01006 3.35075
# Velocity P-wave (km/s) = 6.84446 5.69137 6.29438
#
# Compressibility (1/GPa) = 0.02147223
#
# Stress axis : x y z
#
# Youngs Moduli (GPa) = 89.67114 88.18106 56.98673
#
# Poissons Ratio (x) = 0.04244 0.30411
# Poissons Ratio (y) = 0.04316 0.19752
# Poissons Ratio (z) = 0.47853 0.30564
#
# Static dielectric constant tensor:
#      x y z
#    x 3.914740 0.000000 -0.122230 
#    y 0.000000 3.738640 0.000000 
#    z -0.122230 0.000000 4.564080 
# 
# 
# High freq. dielectric constant tensor:
#      x y z
#    x 1.833590 0.000000 0.004840 
#    y 0.000000 1.819720 0.000000 
#    z 0.004840 0.000000 1.803730 
# 
# From -- ./inp_files/7318.got.cif
#   From: 2010.03.12/outbox.cif.g09.slc.cpg/sg3_4_cif.got.tgz:7318.got - 2010.03.31 09:20:49.
