data_PCOD8045640
_publ_section_title
;
Structure prediction by ZEFSAII (Michael W. Deem and Ramdas Pophale) SiO2 
 PCOD8045640
Probable space group: P 21
;
_chemical_formula_sum "Si O2"
_cell_formula_units_Z 16
_cell_length_a 9.143050
_cell_length_b 9.149939
_cell_length_c 11.371716
_cell_angle_alpha 90.000000
_cell_angle_beta 114.241540
_cell_angle_gamma 90.000000
_cell_volume 867.452470
_symmetry_space_group_name_H-M "P 21"
_symmetry_group_IT_number 4
_symmetry_cell_setting 'monoclinic'
loop_
_space_group_symop_operation_xyz
x,y,z
-x,1/2+y,-z
loop_
_atom_site_type_symbol
_atom_site_label
_atom_site_fract_x
_atom_site_fract_y
_atom_site_fract_z
Si Si1 0.630296 0.954980 0.608737
Si Si2 0.141118 0.640881 0.633897
Si Si3 0.773570 0.150256 0.842633
Si Si4 0.032885 0.428790 0.406973
Si Si5 0.484652 0.651332 0.634826
Si Si6 0.929406 0.145958 0.126086
Si Si7 0.241878 0.986549 0.144953
Si Si8 0.073083 0.981559 0.861701
O O1 0.804272 0.917292 0.614639
O O2 0.537291 0.808422 0.606971
O O3 0.642961 0.050954 0.732623
O O4 0.527645 0.045010 0.480627
O O5 0.055740 0.513346 0.534416
O O6 0.318515 0.671534 0.647232
O O7 0.145155 0.603914 0.772888
O O8 0.024737 0.773876 0.567647
O O9 0.732348 0.319643 0.805407
O O10 0.783617 0.118242 0.985798
O O11 0.949134 0.109224 0.852469
O O12 0.898193 0.494866 0.270608
O O13 0.609724 0.584554 0.767892
O O14 0.990439 0.314405 0.137821
O O15 0.078960 0.041194 0.151374
O O16 0.228019 0.001010 0.997269
#
# Coordination Sequence:
#
# PCOD8045640 Si02
#       8
#     2   2   2   2   2   2   2   2
#     4  10  21  37  55  75 103 135 177 215 250 303
#     4  10  21  35  53  77 105 133 168 211 262 309
#     4   9  17  32  55  80 100 133 181 216 244 296
#     4   9  19  36  54  74 101 135 173 213 248 300
#     4  11  22  35  53  79 106 135 168 213 263 309
#     4   9  18  34  55  77 104 137 173 215 254 299
#     4  10  18  31  56  79 103 135 170 213 259 300
#     4   8  16  32  53  75 100 133 178 216 244 290
#
# _framework density 18.444814999999998
#
# number of rings (size 3 to 8) (size 9 to 14) (size 15 to 20)
#    0.000    2.500    0.000    3.000    0.000    6.000 
#    0.000    3.750    0.000    3.000    0.000    0.000 
#    0.000    0.000    0.000    0.000    0.000    0.000 
#
# Total GULP energy -198272.337499 kJ/mol
# GULP energy per Si atom -12392.021094 kJ/mol
# Density = 1.840283 g / cm^3
# Si number density = 18.444815 Si / 1000 Ang^3
#
#
#
# Elastic Constant Matrix: (Units=GPa)
#
#
# Indices 1 2 3 4 5 6 
#
# 1 47.6573 35.8957 36.0183 0.0000 -7.3483 0.0000
# 2 35.8957 76.2131 29.0260 0.0000 -0.9488 0.0000
# 3 36.0183 29.0260 110.4109 0.0000 -5.0198 0.0000
# 4 0.0000 0.0000 0.0000 34.2650 0.0000 6.2792
# 5 -7.3483 -0.9488 -5.0198 0.0000 25.9610 0.0000
# 6 0.0000 0.0000 0.0000 6.2792 0.0000 23.2140
#
#
#
# Elastic Compliance Matrix: (Units=1/GPa)
#
#
# Indices 1 2 3 4 5 6 
#
# 1 0.040996 -0.015847 -0.008784 0.000000 0.009326 0.000000
# 2 -0.015847 0.020708 -0.000448 0.000000 -0.003815 0.000000
# 3 -0.008784 -0.000448 0.012032 0.000000 -0.000176 0.000000
# 4 0.000000 0.000000 0.000000 0.030706 0.000000 -0.008306
# 5 0.009326 -0.003815 -0.000176 0.000000 0.040986 0.000000
# 6 0.000000 0.000000 0.000000 -0.008306 0.000000 0.045324
#
#
# Mechanical properties :
#
#
# Convention : Reuss Voigt Hill
#
# Bulk Modulus (GPa) = 42.41079 48.46237 45.43658
# Shear Modulus (GPa) = 20.09894 25.57741 22.83817
#
# Velocity S-wave (km/s) = 3.30461 3.72788 3.52261
# Velocity P-wave (km/s) = 6.13220 6.69782 6.42124
#
# Compressibility (1/GPa) = 0.02357891
#
# Stress axis : x y z
#
# Youngs Moduli (GPa) = 24.39265 48.29029 83.11074
#
# Poissons Ratio (x) = 0.76527 0.73001
# Poissons Ratio (y) = 0.38656 0.03721
# Poissons Ratio (z) = 0.21425 0.02162
#
# Static dielectric constant tensor:
#      x y z
#    x 3.002280 0.000000 -0.073530 
#    y 0.000000 3.434400 0.000000 
#    z -0.073530 0.000000 3.918020 
# 
# 
# High freq. dielectric constant tensor:
#      x y z
#    x 1.668300 0.000000 -0.003190 
#    y 0.000000 1.722010 0.000000 
#    z -0.003190 0.000000 1.745620 
# 
# From -- ./inp_files/7642.got.cif
#   From: 2010.03.12/outbox.cif.g09.slc.cpg/sg4_4_cif.got.tgz:7642.got - 2010.03.31 09:31:35.
