data_PCOD8045989
_publ_section_title
;
Structure prediction by ZEFSAII (Michael W. Deem and Ramdas Pophale) SiO2 
 PCOD8045989
Probable space group: P 21
;
_chemical_formula_sum "Si O2"
_cell_formula_units_Z 14
_cell_length_a 11.605886
_cell_length_b 7.813534
_cell_length_c 11.791769
_cell_angle_alpha 90.000000
_cell_angle_beta 140.629609
_cell_angle_gamma 90.000000
_cell_volume 678.298370
_symmetry_space_group_name_H-M "P 21"
_symmetry_group_IT_number 4
_symmetry_cell_setting 'monoclinic'
loop_
_space_group_symop_operation_xyz
x,y,z
-x,1/2+y,-z
loop_
_atom_site_type_symbol
_atom_site_label
_atom_site_fract_x
_atom_site_fract_y
_atom_site_fract_z
Si Si1 0.704849 0.793250 0.924650
Si Si2 0.416385 0.809014 0.527330
Si Si3 0.537529 0.105175 0.104086
Si Si4 0.227242 0.508371 0.512599
Si Si5 0.429176 0.193288 0.581569
Si Si6 0.841676 0.487641 0.144589
Si Si7 0.704235 0.151735 0.988612
O O1 0.620681 0.789870 0.734687
O O2 0.533849 0.774676 0.883369
O O3 0.800679 0.974113 0.025342
O O4 0.846498 0.637673 0.051728
O O5 0.279956 0.678593 0.483854
O O6 0.429432 0.757947 0.405942
O O7 0.348005 0.005741 0.488886
O O8 0.678100 0.003123 0.292646
O O9 0.641396 0.149000 0.070383
O O10 0.354623 0.992520 0.940548
O O11 0.274271 0.337033 0.477458
O O12 0.007995 0.510726 0.358385
O O13 0.532014 0.184179 0.778746
O O14 0.851439 0.303924 0.088696
#
# Coordination Sequence:
#
# PCOD8045989 Si02
#       7
#     2   2   2   2   2   2   2
#     4   8  20  35  60  83 119 156 202 245 304 359
#     4  10  20  38  66  91 119 165 207 251 312 363
#     4   9  20  41  61  84 127 156 198 255 301 362
#     4  11  22  42  62  94 122 160 206 262 303 364
#     4  11  21  37  71  87 122 169 205 248 316 363
#     4  10  22  38  64  91 123 155 205 257 307 362
#     4  11  19  39  64  88 120 167 201 244 315 365
#
# _framework density 20.639883999999999
#
# number of rings (size 3 to 8) (size 9 to 14) (size 15 to 20)
#    0.857    1.143    2.857    0.857    0.000    1.143 
#    5.143    1.429    0.000    0.000    0.000    0.000 
#    0.000    0.000    0.000    0.000    0.000    0.000 
#
# Total GULP energy -173453.584592 kJ/mol
# GULP energy per Si atom -12389.541757 kJ/mol
# Density = 2.059291 g / cm^3
# Si number density = 20.639884 Si / 1000 Ang^3
#
#
#
# Elastic Constant Matrix: (Units=GPa)
#
#
# Indices 1 2 3 4 5 6 
#
# 1 39.0283 27.2055 31.6934 0.0000 -7.9627 0.0000
# 2 27.2055 180.8345 50.5447 0.0000 3.0359 0.0000
# 3 31.6934 50.5447 94.0954 0.0000 16.3008 0.0000
# 4 0.0000 0.0000 0.0000 27.5496 0.0000 -5.7317
# 5 -7.9627 3.0359 16.3008 0.0000 28.6772 0.0000
# 6 0.0000 0.0000 0.0000 -5.7317 0.0000 12.9670
#
#
#
# Elastic Compliance Matrix: (Units=1/GPa)
#
#
# Indices 1 2 3 4 5 6 
#
# 1 0.047591 -0.002249 -0.019025 0.000000 0.024267 0.000000
# 2 -0.002249 0.006667 -0.002876 0.000000 0.000305 0.000000
# 3 -0.019025 -0.002876 0.021567 0.000000 -0.017237 0.000000
# 4 0.000000 0.000000 0.000000 0.039974 0.000000 0.017669
# 5 0.024267 0.000305 -0.017237 0.000000 0.051375 0.000000
# 6 0.000000 0.000000 0.000000 0.017669 0.000000 0.084929
#
#
# Mechanical properties :
#
#
# Convention : Reuss Voigt Hill
#
# Bulk Modulus (GPa) = 36.33352 59.20504 47.76928
# Shear Modulus (GPa) = 16.15085 27.47307 21.81196
#
# Velocity S-wave (km/s) = 2.80037 3.65234 3.25435
# Velocity P-wave (km/s) = 5.30074 6.82152 6.10864
#
# Compressibility (1/GPa) = 0.02752279
#
# Stress axis : x y z
#
# Youngs Moduli (GPa) = 21.01216 149.98735 46.36709
#
# Poissons Ratio (x) = 0.33739 0.88216
# Poissons Ratio (y) = 0.04727 0.13337
# Poissons Ratio (z) = 0.39977 0.43144
#
# Static dielectric constant tensor:
#      x y z
#    x 3.149850 0.000000 -0.204800 
#    y 0.000000 4.266970 0.000000 
#    z -0.204800 0.000000 3.538980 
# 
# 
# High freq. dielectric constant tensor:
#      x y z
#    x 1.754900 0.000000 -0.022590 
#    y 0.000000 1.834930 0.000000 
#    z -0.022590 0.000000 1.793800 
# 
# From -- ./inp_files/12133.got.cif
#   From: 2010.03.12/outbox.cif.g09.slc.cpg/sg4_7_cif.got.tgz:12133.got - 2010.03.31 09:31:35.
