data_PCOD8045892
_publ_section_title
;
Structure prediction by ZEFSAII (Michael W. Deem and Ramdas Pophale) SiO2 
 PCOD8045892
Probable space group: P 21
;
_chemical_formula_sum "Si O2"
_cell_formula_units_Z 16
_cell_length_a 11.046758
_cell_length_b 8.661566
_cell_length_c 9.475830
_cell_angle_alpha 90.000000
_cell_angle_beta 58.018602
_cell_angle_gamma 90.000000
_cell_volume 769.054431
_symmetry_space_group_name_H-M "P 21"
_symmetry_group_IT_number 4
_symmetry_cell_setting 'monoclinic'
loop_
_space_group_symop_operation_xyz
x,y,z
-x,1/2+y,-z
loop_
_atom_site_type_symbol
_atom_site_label
_atom_site_fract_x
_atom_site_fract_y
_atom_site_fract_z
Si Si1 0.810966 0.372090 0.846032
Si Si2 0.130526 0.068438 0.927817
Si Si3 0.038435 0.153787 0.566875
Si Si4 0.844608 0.900901 0.031907
Si Si5 0.374653 0.658776 0.833366
Si Si6 0.005726 0.315060 0.311237
Si Si7 0.713220 0.353906 0.360869
Si Si8 0.673993 0.530014 0.655786
O O1 0.857858 0.516489 0.914830
O O2 0.733600 0.433940 0.753059
O O3 0.952242 0.272001 0.719527
O O4 0.703632 0.262442 0.000810
O O5 0.144497 0.249182 0.877928
O O6 0.975979 0.018344 0.966931
O O7 0.259554 0.997381 0.759489
O O8 0.008920 0.179799 0.421067
O O9 0.211034 0.153579 0.478638
O O10 0.993949 0.978316 0.611865
O O11 0.698671 0.991942 0.138799
O O12 0.853325 0.820223 0.871979
O O13 0.379014 0.732840 0.673402
O O14 0.535178 0.626595 0.785955
O O15 0.867465 0.279688 0.300161
O O16 0.636422 0.407449 0.553264
#
# Coordination Sequence:
#
# PCOD8045892 Si02
#       8
#     2   2   2   2   2   2   2   2
#     4  11  22  44  66  95 131 168 221 271 318 385
#     4  10  22  36  67  97 125 167 221 273 312 380
#     4  11  20  39  64  93 130 162 213 269 319 369
#     4  11  21  37  63  92 130 169 219 262 330 375
#     4  11  25  44  65  93 133 175 211 267 327 394
#     4  10  20  35  64  93 122 166 214 267 313 375
#     4   9  21  43  61  89 132 169 214 264 316 385
#     4  11  25  42  68  94 135 168 215 269 327 389
#
# _framework density 20.804769
#
# number of rings (size 3 to 8) (size 9 to 14) (size 15 to 20)
#    0.000    1.500    3.750    3.000    3.500    3.000 
#    0.000    1.250    0.000    0.000    0.000    0.000 
#    0.000    0.000    0.000    0.000    0.000    0.000 
#
# Total GULP energy -198249.201191 kJ/mol
# GULP energy per Si atom -12390.575074 kJ/mol
# Density = 2.075742 g / cm^3
# Si number density = 20.804769 Si / 1000 Ang^3
#
#
#
# Elastic Constant Matrix: (Units=GPa)
#
#
# Indices 1 2 3 4 5 6 
#
# 1 85.6855 51.9153 41.7570 0.0000 -3.8709 0.0000
# 2 51.9153 86.2820 19.5388 0.0000 -4.8343 0.0000
# 3 41.7570 19.5388 97.2976 0.0000 9.0874 0.0000
# 4 0.0000 0.0000 0.0000 25.4624 0.0000 3.6319
# 5 -3.8709 -4.8343 9.0874 0.0000 39.5936 0.0000
# 6 0.0000 0.0000 0.0000 3.6319 0.0000 29.6587
#
#
#
# Elastic Compliance Matrix: (Units=1/GPa)
#
#
# Indices 1 2 3 4 5 6 
#
# 1 0.022581 -0.011732 -0.007570 0.000000 0.002513 0.000000
# 2 -0.011732 0.018409 0.001263 0.000000 0.000811 0.000000
# 3 -0.007570 0.001263 0.013620 0.000000 -0.003712 0.000000
# 4 0.000000 0.000000 0.000000 0.039972 0.000000 -0.004895
# 5 0.002513 0.000811 -0.003712 0.000000 0.026453 0.000000
# 6 0.000000 0.000000 0.000000 -0.004895 0.000000 0.034316
#
#
# Mechanical properties :
#
#
# Convention : Reuss Voigt Hill
#
# Bulk Modulus (GPa) = 53.96425 55.07636 54.52031
# Shear Modulus (GPa) = 25.30283 29.34657 27.32470
#
# Velocity S-wave (km/s) = 3.49119 3.75983 3.62800
# Velocity P-wave (km/s) = 6.49969 6.73638 6.61909
#
# Compressibility (1/GPa) = 0.01853079
#
# Stress axis : x y z
#
# Youngs Moduli (GPa) = 44.28430 54.32266 73.42338
#
# Poissons Ratio (x) = 0.63732 0.55581
# Poissons Ratio (y) = 0.51955 -0.09270
# Poissons Ratio (z) = 0.33523 -0.06859
#
# Static dielectric constant tensor:
#      x y z
#    x 3.550250 0.000000 0.130820 
#    y 0.000000 3.838750 0.000000 
#    z 0.130820 0.000000 4.133180 
# 
# 
# High freq. dielectric constant tensor:
#      x y z
#    x 1.786230 0.000000 0.017000 
#    y 0.000000 1.817800 0.000000 
#    z 0.017000 0.000000 1.828410 
# 
# From -- ./inp_files/8010.got.cif
#   From: 2010.03.12/outbox.cif.g09.slc.cpg/sg4_5_cif.got.tgz:8010.got - 2010.03.31 09:31:35.
