data_PCOD8045048
_publ_section_title
;
Structure prediction by ZEFSAII (Michael W. Deem and Ramdas Pophale) SiO2 
 PCOD8045048
Probable space group: P 2
;
_chemical_formula_sum "Si O2"
_cell_formula_units_Z 10
_cell_length_a 9.504615
_cell_length_b 11.098065
_cell_length_c 8.762313
_cell_angle_alpha 90.000000
_cell_angle_beta 148.151005
_cell_angle_gamma 90.000000
_cell_volume 487.722889
_symmetry_space_group_name_H-M "P 2"
_symmetry_group_IT_number 3
_symmetry_cell_setting 'monoclinic'
loop_
_space_group_symop_operation_xyz
x,y,z
-x,y,-z
loop_
_atom_site_type_symbol
_atom_site_label
_atom_site_fract_x
_atom_site_fract_y
_atom_site_fract_z
Si Si1 0.457720 0.805800 0.640379
Si Si2 0.063069 0.217353 0.880527
Si Si3 0.061048 0.700999 0.727304
Si Si4 0.560174 0.075619 0.377590
Si Si5 0.783728 0.429859 0.180950
O O1 0.500000 0.798921 0.500000
O O2 0.224578 0.709475 0.454319
O O3 0.366192 0.940034 0.605432
O O4 0.721594 0.779239 0.982240
O O5 0.173410 0.345639 0.925858
O O6 0.798757 0.167134 0.553547
O O7 0.290471 0.119973 0.048875
O O8 0.000000 0.232307 0.000000
O O9 0.167421 0.565556 0.827698
O O10 0.000000 0.747998 0.500000
O O11 0.500000 0.077272 0.500000
O O12 0.000000 0.386059 0.500000
O O13 0.500000 0.416921 0.000000
#
# Coordination Sequence:
#
# PCOD8045048 Si02
#       5
#     2   2   2   2   2
#     4  11  22  39  64  90 118 155 201 244 287 351
#     4  10  20  37  61  86 113 149 194 238 286 348
#     4  11  23  41  60  85 122 161 195 240 303 351
#     4   9  19  36  58  86 119 150 183 239 302 340
#     4  11  23  41  60  81 117 157 191 237 297 348
#
# _framework density 20.503447999999999
#
# number of rings (size 3 to 8) (size 9 to 14) (size 15 to 20)
#    0.000    1.600    0.000    6.000    0.000    4.800 
#    0.000   12.000    0.000    0.000    0.000    0.000 
#    0.000    0.000    0.000    0.000    0.000    0.000 
#
# Total GULP energy -123963.603072 kJ/mol
# GULP energy per Si atom -12396.360307 kJ/mol
# Density = 2.045678 g / cm^3
# Si number density = 20.503448 Si / 1000 Ang^3
#
#
#
# Elastic Constant Matrix: (Units=GPa)
#
#
# Indices 1 2 3 4 5 6 
#
# 1 96.4970 60.4272 55.0634 0.0000 16.9304 0.0000
# 2 60.4272 89.3966 43.6975 0.0000 -0.6543 0.0000
# 3 55.0634 43.6975 149.0817 0.0000 17.0041 0.0000
# 4 0.0000 0.0000 0.0000 15.8059 0.0000 25.1102
# 5 16.9304 -0.6543 17.0041 0.0000 35.7730 0.0000
# 6 0.0000 0.0000 0.0000 25.1102 0.0000 10.8875
#
#
#
# Elastic Compliance Matrix: (Units=1/GPa)
#
#
# Indices 1 2 3 4 5 6 
#
# 1 0.022341 -0.013604 -0.003204 0.000000 -0.009300 0.000000
# 2 -0.013604 0.021502 -0.002175 0.000000 0.007865 0.000000
# 3 -0.003204 -0.002175 0.008839 0.000000 -0.002725 0.000000
# 4 0.000000 0.000000 0.000000 -0.023749 0.000000 0.054774
# 5 -0.009300 0.007865 -0.002725 0.000000 0.033795 0.000000
# 6 0.000000 0.000000 0.000000 0.054774 0.000000 -0.034478
#
#
# Mechanical properties :
#
#
# Convention : Reuss Voigt Hill
#
# Bulk Modulus (GPa) = 67.94394 72.59461 70.26928
# Shear Modulus (GPa) = 70.30236 24.21244 47.25740
#
# Velocity S-wave (km/s) = 5.86195 3.44014 4.80610
# Velocity P-wave (km/s) = 8.88968 7.15977 8.07121
#
# Compressibility (1/GPa) = 0.01471802
#
# Stress axis : x y z
#
# Youngs Moduli (GPa) = 44.75983 46.50684 113.12942
#
# Poissons Ratio (x) = 0.63266 0.36244
# Poissons Ratio (y) = 0.60890 0.24607
# Poissons Ratio (z) = 0.14340 0.10116
#
# Static dielectric constant tensor:
#      x y z
#    x 3.641850 0.000000 0.084230 
#    y 0.000000 3.726420 0.000000 
#    z 0.084230 0.000000 3.990990 
# 
# 
# High freq. dielectric constant tensor:
#      x y z
#    x 1.791360 0.000000 0.013630 
#    y 0.000000 1.804200 0.000000 
#    z 0.013630 0.000000 1.818680 
# 
# From -- ./inp_files/4074.got.cif
#   From: 2010.03.12/outbox.cif.g09.slc.cpg/sg3_3_cif.got.tgz:4074.got - 2010.03.31 09:20:49.
