data_PCOD8045854
_publ_section_title
;
Structure prediction by ZEFSAII (Michael W. Deem and Ramdas Pophale) SiO2 
 PCOD8045854
Probable space group: P 21
;
_chemical_formula_sum "Si O2"
_cell_formula_units_Z 16
_cell_length_a 13.501363
_cell_length_b 5.103358
_cell_length_c 15.079755
_cell_angle_alpha 90.000000
_cell_angle_beta 63.779399
_cell_angle_gamma 90.000000
_cell_volume 932.113035
_symmetry_space_group_name_H-M "P 21"
_symmetry_group_IT_number 4
_symmetry_cell_setting 'monoclinic'
loop_
_space_group_symop_operation_xyz
x,y,z
-x,1/2+y,-z
loop_
_atom_site_type_symbol
_atom_site_label
_atom_site_fract_x
_atom_site_fract_y
_atom_site_fract_z
Si Si1 0.212257 0.619260 0.539116
Si Si2 0.571230 0.983473 0.458823
Si Si3 0.734013 0.980936 0.250025
Si Si4 0.003219 0.329150 0.710597
Si Si5 0.932707 0.517533 0.919532
Si Si6 0.172391 0.968455 0.701521
Si Si7 0.064780 0.684907 0.445542
Si Si8 0.856125 0.016705 0.039618
O O1 0.327697 0.471081 0.510128
O O2 0.111397 0.464184 0.625616
O O3 0.221298 0.903695 0.583966
O O4 0.184633 0.651913 0.445689
O O5 0.516204 0.700185 0.477907
O O6 0.616755 0.056014 0.341381
O O7 0.758302 0.693097 0.278024
O O8 0.740119 0.980512 0.140303
O O9 0.824885 0.200530 0.242871
O O10 0.943552 0.502438 0.808611
O O11 0.918560 0.262474 0.664108
O O12 0.045122 0.062402 0.742678
O O13 0.049355 0.491577 0.922836
O O14 0.870155 0.787168 0.963113
O O15 0.854438 0.287301 0.987678
O O16 0.999280 0.411279 0.475310
#
# Coordination Sequence:
#
# PCOD8045854 Si02
#       8
#     2   2   2   2   2   2   2   2
#     4  10  21  35  50  70 103 134 164 208 243 297
#     4  11  22  33  52  75  95 129 168 207 253 298
#     4  11  21  33  49  66  98 131 166 195 257 284
#     4  11  20  32  50  71 101 137 166 203 236 293
#     4  10  20  27  44  66  95 121 175 188 229 277
#     4  11  17  29  50  65  91 136 157 199 231 288
#     4  10  21  31  49  72  95 136 176 195 237 297
#     4  10  20  30  42  65  90 134 158 199 228 288
#
# _framework density 17.165299000000001
#
# number of rings (size 3 to 8) (size 9 to 14) (size 15 to 20)
#    0.000    1.500    5.000    2.250    5.250    0.000 
#    0.000    0.000    0.000    0.000    0.000    0.000 
#    0.000    4.000    0.000    0.500    0.000    0.000 
#
# Total GULP energy -198249.806733 kJ/mol
# GULP energy per Si atom -12390.612921 kJ/mol
# Density = 1.712623 g / cm^3
# Si number density = 17.165299 Si / 1000 Ang^3
#
#
#
# Elastic Constant Matrix: (Units=GPa)
#
#
# Indices 1 2 3 4 5 6 
#
# 1 61.8894 10.4923 29.2210 0.0000 5.3965 0.0000
# 2 10.4923 74.3865 5.3708 0.0000 -3.5482 0.0000
# 3 29.2210 5.3708 85.4922 0.0000 2.0696 0.0000
# 4 0.0000 0.0000 0.0000 24.6769 0.0000 -2.1184
# 5 5.3965 -3.5482 2.0696 0.0000 15.4317 0.0000
# 6 0.0000 0.0000 0.0000 -2.1184 0.0000 15.6034
#
#
#
# Elastic Compliance Matrix: (Units=1/GPa)
#
#
# Indices 1 2 3 4 5 6 
#
# 1 0.020339 -0.002718 -0.006615 0.000000 -0.006851 0.000000
# 2 -0.002718 0.014030 -0.000054 0.000000 0.004184 0.000000
# 3 -0.006615 -0.000054 0.013951 0.000000 0.000430 0.000000
# 4 0.000000 0.000000 0.000000 0.041002 0.000000 0.005567
# 5 -0.006851 0.004184 0.000430 0.000000 0.068102 0.000000
# 6 0.000000 0.000000 0.000000 0.005567 0.000000 0.064844
#
#
# Mechanical properties :
#
#
# Convention : Reuss Voigt Hill
#
# Bulk Modulus (GPa) = 33.84501 34.65960 34.25230
# Shear Modulus (GPa) = 19.92895 22.92132 21.42513
#
# Velocity S-wave (km/s) = 3.41104 3.65818 3.53677
# Velocity P-wave (km/s) = 5.93915 6.17078 6.05607
#
# Compressibility (1/GPa) = 0.02954646
#
# Stress axis : x y z
#
# Youngs Moduli (GPa) = 49.16548 71.27522 71.67915
#
# Poissons Ratio (x) = 0.19373 0.47419
# Poissons Ratio (y) = 0.13363 0.00385
# Poissons Ratio (z) = 0.32525 0.00382
#
# Static dielectric constant tensor:
#      x y z
#    x 2.912550 0.000000 0.164360 
#    y 0.000000 3.469550 0.000000 
#    z 0.164360 0.000000 3.313020 
# 
# 
# High freq. dielectric constant tensor:
#      x y z
#    x 1.591410 0.000000 0.016290 
#    y 0.000000 1.690500 0.000000 
#    z 0.016290 0.000000 1.650340 
# 
# From -- ./inp_files/13779.got.cif
#   From: 2010.03.12/outbox.cif.g09.slc.cpg/sg4_7_cif.got.tgz:13779.got - 2010.03.31 09:31:35.
