data_PCOD8045726
_publ_section_title
;
Structure prediction by ZEFSAII (Michael W. Deem and Ramdas Pophale) SiO2 
 PCOD8045726
Probable space group: P 21
;
_chemical_formula_sum "Si O2"
_cell_formula_units_Z 16
_cell_length_a 21.465549
_cell_length_b 8.920958
_cell_length_c 7.990738
_cell_angle_alpha 90.000000
_cell_angle_beta 31.423592
_cell_angle_gamma 90.000000
_cell_volume 797.772321
_symmetry_space_group_name_H-M "P 21"
_symmetry_group_IT_number 4
_symmetry_cell_setting 'monoclinic'
loop_
_space_group_symop_operation_xyz
x,y,z
-x,1/2+y,-z
loop_
_atom_site_type_symbol
_atom_site_label
_atom_site_fract_x
_atom_site_fract_y
_atom_site_fract_z
Si Si1 0.108900 0.462640 0.602873
Si Si2 0.958066 0.174315 0.942848
Si Si3 0.627353 0.880822 0.020082
Si Si4 0.585750 0.557525 0.615475
Si Si5 0.506072 0.122253 0.833523
Si Si6 0.130165 0.557082 0.180614
Si Si7 0.740410 0.295672 0.280884
Si Si8 0.645270 0.872419 0.353312
O O1 0.250515 0.462579 0.317169
O O2 0.078042 0.525514 0.485543
O O3 0.067084 0.289944 0.711171
O O4 0.044946 0.566456 0.888140
O O5 0.968721 0.076630 0.743032
O O6 0.837854 0.276951 0.206232
O O7 0.601083 0.730820 0.976642
O O8 0.643236 0.818813 0.168888
O O9 0.518793 0.000121 0.267766
O O10 0.710344 0.467288 0.302324
O O11 0.612430 0.732333 0.542602
O O12 0.537926 0.524475 0.910525
O O13 0.618626 0.223119 0.627551
O O14 0.547182 0.003151 0.600045
O O15 0.208704 0.711746 0.003000
O O16 0.220259 0.426428 0.911964
#
# Coordination Sequence:
#
# PCOD8045726 Si02
#       8
#     2   2   2   2   2   2   2   2
#     4  11  23  43  65  93 119 169 207 267 318 359
#     4  10  23  43  64  89 122 161 213 262 308 376
#     4  10  22  37  55  86 127 155 204 249 304 377
#     4  11  20  33  61  91 118 164 202 239 314 366
#     4  10  19  33  59  86 121 160 196 242 308 367
#     4   8  21  43  62  84 127 158 201 256 312 367
#     4   8  19  40  55  84 122 160 200 247 306 366
#     4  10  19  36  59  89 120 161 195 256 302 364
#
# _framework density 20.055847
#
# number of rings (size 3 to 8) (size 9 to 14) (size 15 to 20)
#    0.750    1.500    0.000    3.000    1.750    3.000 
#    4.500    1.250    0.000    0.000    0.000    0.000 
#    0.000    0.000    0.000    0.000    0.000    0.000 
#
# Total GULP energy -198239.507454 kJ/mol
# GULP energy per Si atom -12389.969216 kJ/mol
# Density = 2.001020 g / cm^3
# Si number density = 20.055847 Si / 1000 Ang^3
#
#
#
# Elastic Constant Matrix: (Units=GPa)
#
#
# Indices 1 2 3 4 5 6 
#
# 1 76.9370 30.6451 27.2293 0.0000 8.3259 0.0000
# 2 30.6451 101.2200 25.6513 0.0000 4.3434 0.0000
# 3 27.2293 25.6513 51.8776 0.0000 14.3575 0.0000
# 4 0.0000 0.0000 0.0000 30.5472 0.0000 -0.5827
# 5 8.3259 4.3434 14.3575 0.0000 31.7178 0.0000
# 6 0.0000 0.0000 0.0000 -0.5827 0.0000 26.5042
#
#
#
# Elastic Compliance Matrix: (Units=1/GPa)
#
#
# Indices 1 2 3 4 5 6 
#
# 1 0.016878 -0.003301 -0.007003 0.000000 -0.000808 0.000000
# 2 -0.003301 0.011975 -0.004544 0.000000 0.001283 0.000000
# 3 -0.007003 -0.004544 0.028029 0.000000 -0.010227 0.000000
# 4 0.000000 0.000000 0.000000 0.032750 0.000000 0.000720
# 5 -0.000808 0.001283 -0.010227 0.000000 0.036194 0.000000
# 6 0.000000 0.000000 0.000000 0.000720 0.000000 0.037746
#
#
# Mechanical properties :
#
#
# Convention : Reuss Voigt Hill
#
# Bulk Modulus (GPa) = 36.78227 44.12067 40.45147
# Shear Modulus (GPa) = 24.71199 27.52110 26.11654
#
# Velocity S-wave (km/s) = 3.51402 3.70837 3.61250
# Velocity P-wave (km/s) = 5.90290 6.35474 6.13298
#
# Compressibility (1/GPa) = 0.02718701
#
# Stress axis : x y z
#
# Youngs Moduli (GPa) = 59.24733 83.50567 35.67691
#
# Poissons Ratio (x) = 0.27562 0.24986
# Poissons Ratio (y) = 0.19555 0.16212
# Poissons Ratio (z) = 0.41493 0.37946
#
# Static dielectric constant tensor:
#      x y z
#    x 3.507990 0.000000 -0.051800 
#    y 0.000000 3.548930 0.000000 
#    z -0.051800 0.000000 3.449660 
# 
# 
# High freq. dielectric constant tensor:
#      x y z
#    x 1.770130 0.000000 0.002590 
#    y 0.000000 1.781210 0.000000 
#    z 0.002590 0.000000 1.767870 
# 
# From -- ./inp_files/9579.got.cif
#   From: 2010.03.12/outbox.cif.g09.slc.cpg/sg4_5_cif.got.tgz:9579.got - 2010.03.31 09:31:35.
