data_PCOD8045584
_publ_section_title
;
Structure prediction by ZEFSAII (Michael W. Deem and Ramdas Pophale) SiO2 
 PCOD8045584
Probable space group: P 21
;
_chemical_formula_sum "Si O2"
_cell_formula_units_Z 14
_cell_length_a 16.064969
_cell_length_b 5.152712
_cell_length_c 10.640580
_cell_angle_alpha 90.000000
_cell_angle_beta 114.733526
_cell_angle_gamma 90.000000
_cell_volume 800.005420
_symmetry_space_group_name_H-M "P 21"
_symmetry_group_IT_number 4
_symmetry_cell_setting 'monoclinic'
loop_
_space_group_symop_operation_xyz
x,y,z
-x,1/2+y,-z
loop_
_atom_site_type_symbol
_atom_site_label
_atom_site_fract_x
_atom_site_fract_y
_atom_site_fract_z
Si Si1 0.382130 0.274900 0.464393
Si Si2 0.209782 0.255545 0.198611
Si Si3 0.541560 0.272769 0.369493
Si Si4 0.170887 0.544507 0.936006
Si Si5 0.014632 0.076212 0.088249
Si Si6 0.731105 0.551337 0.011163
Si Si7 0.525919 0.689365 0.945616
O O1 0.277522 0.316788 0.355812
O O2 0.445467 0.285985 0.381374
O O3 0.406832 0.504633 0.574183
O O4 0.393107 0.006841 0.546224
O O5 0.117055 0.137528 0.201410
O O6 0.186908 0.509357 0.098279
O O7 0.259082 0.050131 0.134931
O O8 0.521650 0.294140 0.210066
O O9 0.206011 0.281922 0.889957
O O10 0.061714 0.594706 0.848240
O O11 0.230099 0.778062 0.915436
O O12 0.988067 0.283968 0.964785
O O13 0.627403 0.583864 0.986713
O O14 0.470173 0.441084 0.962133
#
# Coordination Sequence:
#
# PCOD8045584 Si02
#       7
#     2   2   2   2   2   2   2
#     4  10  20  31  53  70 104 130 163 202 239 327
#     4   9  19  27  49  71 105 135 162 190 249 309
#     4  10  21  35  48  74  95 133 170 202 254 287
#     4   9  17  28  46  68 107 134 159 197 238 319
#     4  10  16  26  41  71 101 141 153 194 241 298
#     4  10  19  31  48  70  97 132 169 194 258 292
#     4  12  24  38  55  72 101 133 178 223 247 284
#
# _framework density 17.499881999999999
#
# number of rings (size 3 to 8) (size 9 to 14) (size 15 to 20)
#    0.857    1.143    2.857    1.714    2.000    1.143 
#    0.000    0.000    0.000    0.000    0.000    0.000 
#    0.000   22.857    0.000    0.000    0.000    0.000 
#
# Total GULP energy -173483.774452 kJ/mol
# GULP energy per Si atom -12391.698175 kJ/mol
# Density = 1.746005 g / cm^3
# Si number density = 17.499882 Si / 1000 Ang^3
#
#
#
# Elastic Constant Matrix: (Units=GPa)
#
#
# Indices 1 2 3 4 5 6 
#
# 1 95.1432 20.4453 33.7818 0.0000 19.6943 0.0000
# 2 20.4453 101.0841 15.9049 0.0000 -2.3911 0.0000
# 3 33.7818 15.9049 44.5667 0.0000 3.1486 0.0000
# 4 0.0000 0.0000 0.0000 15.6765 0.0000 -0.4955
# 5 19.6943 -2.3911 3.1486 0.0000 20.5109 0.0000
# 6 0.0000 0.0000 0.0000 -0.4955 0.0000 24.5273
#
#
#
# Elastic Compliance Matrix: (Units=1/GPa)
#
#
# Indices 1 2 3 4 5 6 
#
# 1 0.018725 -0.002249 -0.012235 0.000000 -0.016364 0.000000
# 2 -0.002249 0.010819 -0.002424 0.000000 0.003793 0.000000
# 3 -0.012235 -0.002424 0.032116 0.000000 0.006535 0.000000
# 4 0.000000 0.000000 0.000000 0.063831 0.000000 0.001289
# 5 -0.016364 0.003793 0.006535 0.000000 0.063906 0.000000
# 6 0.000000 0.000000 0.000000 0.001289 0.000000 0.040797
#
#
# Mechanical properties :
#
#
# Convention : Reuss Voigt Hill
#
# Bulk Modulus (GPa) = 35.91532 42.33977 39.12754
# Shear Modulus (GPa) = 18.29548 23.52039 20.90794
#
# Velocity S-wave (km/s) = 3.23687 3.67008 3.46026
# Velocity P-wave (km/s) = 5.87686 6.49663 6.19450
#
# Compressibility (1/GPa) = 0.02784327
#
# Stress axis : x y z
#
# Youngs Moduli (GPa) = 53.40362 92.43147 31.13722
#
# Poissons Ratio (x) = 0.20791 0.38097
# Poissons Ratio (y) = 0.12012 0.07548
# Poissons Ratio (z) = 0.65340 0.22405
#
# Static dielectric constant tensor:
#      x y z
#    x 3.342380 0.000000 0.120070 
#    y 0.000000 3.328050 0.000000 
#    z 0.120070 0.000000 2.731260 
# 
# 
# High freq. dielectric constant tensor:
#      x y z
#    x 1.678970 0.000000 0.018940 
#    y 0.000000 1.694930 0.000000 
#    z 0.018940 0.000000 1.606940 
# 
# From -- ./inp_files/8707.got.cif
#   From: 2010.03.12/outbox.cif.g09.slc.cpg/sg4_5_cif.got.tgz:8707.got - 2010.03.31 09:31:35.
