data_PCOD8045606
_publ_section_title
;
Structure prediction by ZEFSAII (Michael W. Deem and Ramdas Pophale) SiO2 
 PCOD8045606
Probable space group: P 21
;
_chemical_formula_sum "Si O2"
_cell_formula_units_Z 14
_cell_length_a 24.660732
_cell_length_b 5.476397
_cell_length_c 7.229347
_cell_angle_alpha 90.000000
_cell_angle_beta 144.794324
_cell_angle_gamma 90.000000
_cell_volume 562.871503
_symmetry_space_group_name_H-M "P 21"
_symmetry_group_IT_number 4
_symmetry_cell_setting 'monoclinic'
loop_
_space_group_symop_operation_xyz
x,y,z
-x,1/2+y,-z
loop_
_atom_site_type_symbol
_atom_site_label
_atom_site_fract_x
_atom_site_fract_y
_atom_site_fract_z
Si Si1 0.705485 0.810460 0.139432
Si Si2 0.098083 0.486164 0.354383
Si Si3 0.373895 0.816303 0.027052
Si Si4 0.859293 0.341517 0.224478
Si Si5 0.641487 0.343918 0.587080
Si Si6 0.025923 0.660842 0.778332
Si Si7 0.576391 0.837518 0.420471
O O1 0.815898 0.794369 0.396959
O O2 0.685157 0.559285 0.194764
O O3 0.646449 0.806061 0.787800
O O4 0.680452 0.063428 0.179973
O O5 0.136783 0.731368 0.557459
O O6 0.005206 0.413332 0.211879
O O7 0.068457 0.494543 0.058423
O O8 0.395411 0.813275 0.305560
O O9 0.469549 0.844663 0.183288
O O10 0.895181 0.167194 0.159310
O O11 0.929179 0.569938 0.414724
O O12 0.751854 0.399389 0.881256
O O13 0.591459 0.579738 0.350321
O O14 0.608050 0.086565 0.398511
#
# Coordination Sequence:
#
# PCOD8045606 Si02
#       7
#     2   2   2   2   2   2   2
#     4  10  19  31  53  83 127 162 201 277 319 386
#     4  12  24  42  63  95 133 170 228 280 343 396
#     4  10  17  30  53  89 125 160 213 266 323 392
#     4  12  24  42  63  95 133 170 228 280 343 396
#     4  10  19  31  53  83 127 162 201 277 319 386
#     4  12  26  42  68  94 128 182 226 284 340 410
#     4  10  17  30  53  89 125 160 213 266 323 392
#
# _framework density 24.87246
#
# number of rings (size 3 to 8) (size 9 to 14) (size 15 to 20)
#    0.000    1.143    5.714    6.000    0.000    0.000 
#    0.000    0.000    0.000    0.000    0.000    6.000 
#    0.000    0.000    0.000    0.000    0.000    0.000 
#
# Total GULP energy -173455.243297 kJ/mol
# GULP energy per Si atom -12389.660236 kJ/mol
# Density = 2.481585 g / cm^3
# Si number density = 24.872460 Si / 1000 Ang^3
#
#
#
# Elastic Constant Matrix: (Units=GPa)
#
#
# Indices 1 2 3 4 5 6 
#
# 1 82.2754 16.5587 41.4062 0.0000 11.5993 0.0000
# 2 16.5587 184.2539 13.6309 0.0000 15.2964 0.0000
# 3 41.4062 13.6309 49.4830 0.0000 28.4965 0.0000
# 4 0.0000 0.0000 0.0000 30.7548 0.0000 20.6703
# 5 11.5993 15.2964 28.4965 0.0000 39.5104 0.0000
# 6 0.0000 0.0000 0.0000 20.6703 0.0000 23.7432
#
#
#
# Elastic Compliance Matrix: (Units=1/GPa)
#
#
# Indices 1 2 3 4 5 6 
#
# 1 0.024588 -0.001256 -0.027968 0.000000 0.013440 0.000000
# 2 -0.001256 0.005679 0.000925 0.000000 -0.002497 0.000000
# 3 -0.027968 0.000925 0.066424 0.000000 -0.040055 0.000000
# 4 0.000000 0.000000 0.000000 0.078371 0.000000 -0.068228
# 5 0.013440 -0.002497 -0.040055 0.000000 0.051220 0.000000
# 6 0.000000 0.000000 0.000000 -0.068228 0.000000 0.101515
#
#
# Mechanical properties :
#
#
# Convention : Reuss Voigt Hill
#
# Bulk Modulus (GPa) = 24.94272 51.02265 37.98269
# Shear Modulus (GPa) = 12.57035 35.09611 23.83323
#
# Velocity S-wave (km/s) = 2.25053 3.76046 3.09887
# Velocity P-wave (km/s) = 4.09917 6.27798 5.30171
#
# Compressibility (1/GPa) = 0.04009185
#
# Stress axis : x y z
#
# Youngs Moduli (GPa) = 40.67069 176.08527 15.05471
#
# Poissons Ratio (x) = 0.22123 0.42105
# Poissons Ratio (y) = 0.05110 -0.01392
# Poissons Ratio (z) = 1.13748 -0.16284
#
# Static dielectric constant tensor:
#      x y z
#    x 4.274560 0.000000 0.226990 
#    y 0.000000 5.811440 0.000000 
#    z 0.226990 0.000000 4.359100 
# 
# 
# High freq. dielectric constant tensor:
#      x y z
#    x 1.965890 0.000000 0.028970 
#    y 0.000000 2.006250 0.000000 
#    z 0.028970 0.000000 1.979390 
# 
# From -- ./inp_files/10130.got.cif
#   From: 2010.03.12/outbox.cif.g09.slc.cpg/sg4_6_cif.got.tgz:10130.got - 2010.03.31 09:31:35.
