data_PCOD8045588
_publ_section_title
;
Structure prediction by ZEFSAII (Michael W. Deem and Ramdas Pophale) SiO2 
 PCOD8045588
Probable space group: P 21
;
_chemical_formula_sum "Si O2"
_cell_formula_units_Z 14
_cell_length_a 10.646446
_cell_length_b 5.153976
_cell_length_c 16.453672
_cell_angle_alpha 90.000000
_cell_angle_beta 48.819664
_cell_angle_gamma 90.000000
_cell_volume 679.512913
_symmetry_space_group_name_H-M "P 21"
_symmetry_group_IT_number 4
_symmetry_cell_setting 'monoclinic'
loop_
_space_group_symop_operation_xyz
x,y,z
-x,1/2+y,-z
loop_
_atom_site_type_symbol
_atom_site_label
_atom_site_fract_x
_atom_site_fract_y
_atom_site_fract_z
Si Si1 0.853029 0.627720 0.927664
Si Si2 0.145354 0.838150 0.230678
Si Si3 0.606927 0.723114 0.360319
Si Si4 0.044516 0.295418 0.527416
Si Si5 0.027203 0.133962 0.841122
Si Si6 0.496874 0.663385 0.054041
Si Si7 0.602928 0.725225 0.551553
O O1 0.932418 0.364262 0.931131
O O2 0.840469 0.592553 0.833867
O O3 0.663566 0.680243 0.039825
O O4 0.975901 0.859502 0.901528
O O5 0.049362 0.906790 0.353559
O O6 0.038107 0.627892 0.224663
O O7 0.328840 0.726919 0.175627
O O8 0.775817 0.682823 0.237578
O O9 0.651536 0.713550 0.436344
O O10 0.481094 0.496446 0.390180
O O11 0.523826 0.995183 0.371314
O O12 0.231313 0.201228 0.466111
O O13 0.050613 0.539736 0.464002
O O14 0.485604 0.371308 0.025804
#
# Coordination Sequence:
#
# PCOD8045588 Si02
#       7
#     2   2   2   2   2   2   2
#     4   9  17  27  48  72 107 131 156 202 262 330
#     4   9  21  31  50  69 109 136 175 206 249 311
#     4  10  19  31  55  72  98 129 163 221 268 304
#     4  12  26  38  53  72 106 150 187 209 239 299
#     4  10  17  28  48  75 103 127 157 198 264 313
#     4  10  16  28  45  73  99 142 154 202 263 318
#     4  10  20  35  49  73  96 129 178 216 257 293
#
# _framework density 20.602995
#
# number of rings (size 3 to 8) (size 9 to 14) (size 15 to 20)
#    0.857    1.143    2.857    1.714    2.000    1.143 
#    0.000    0.000    0.000    0.000    0.000    0.000 
#    0.000   22.857    0.000    0.000    0.000    0.000 
#
# Total GULP energy -173492.029040 kJ/mol
# GULP energy per Si atom -12392.287789 kJ/mol
# Density = 2.055610 g / cm^3
# Si number density = 20.602995 Si / 1000 Ang^3
#
#
#
# Elastic Constant Matrix: (Units=GPa)
#
#
# Indices 1 2 3 4 5 6 
#
# 1 72.1573 20.4426 25.1525 0.0000 -23.6470 0.0000
# 2 20.4426 112.2727 2.2571 0.0000 -3.7722 0.0000
# 3 25.1525 2.2571 38.2856 0.0000 -26.5230 0.0000
# 4 0.0000 0.0000 0.0000 17.6621 0.0000 -10.3055
# 5 -23.6470 -3.7722 -26.5230 0.0000 31.2974 0.0000
# 6 0.0000 0.0000 0.0000 -10.3055 0.0000 20.2705
#
#
#
# Elastic Compliance Matrix: (Units=1/GPa)
#
#
# Indices 1 2 3 4 5 6 
#
# 1 0.020092 -0.003217 -0.006689 0.000000 0.009124 0.000000
# 2 -0.003217 0.009463 0.001603 0.000000 0.000068 0.000000
# 3 -0.006689 0.001603 0.065516 0.000000 0.050660 0.000000
# 4 0.000000 0.000000 0.000000 0.080497 0.000000 0.040924
# 5 0.009124 0.000068 0.050660 0.000000 0.081786 0.000000
# 6 0.000000 0.000000 0.000000 0.040924 0.000000 0.070138
#
#
# Mechanical properties :
#
#
# Convention : Reuss Voigt Hill
#
# Bulk Modulus (GPa) = 12.74486 35.38000 24.06243
# Shear Modulus (GPa) = 13.50429 25.50356 19.50392
#
# Velocity S-wave (km/s) = 2.56296 3.52214 3.08011
# Velocity P-wave (km/s) = 3.86752 5.80949 4.93497
#
# Compressibility (1/GPa) = 0.07846299
#
# Stress axis : x y z
#
# Youngs Moduli (GPa) = 49.77134 105.67746 15.26353
#
# Poissons Ratio (x) = 0.34000 0.10210
# Poissons Ratio (y) = 0.16013 -0.02447
# Poissons Ratio (z) = 0.33294 -0.16940
#
# Static dielectric constant tensor:
#      x y z
#    x 3.495130 0.000000 -0.416880 
#    y 0.000000 3.668440 0.000000 
#    z -0.416880 0.000000 3.380400 
# 
# 
# High freq. dielectric constant tensor:
#      x y z
#    x 1.784550 0.000000 -0.047520 
#    y 0.000000 1.816480 0.000000 
#    z -0.047520 0.000000 1.770830 
# 
# From -- ./inp_files/13436.got.cif
#   From: 2010.03.12/outbox.cif.g09.slc.cpg/sg4_7_cif.got.tgz:13436.got - 2010.03.31 09:31:35.
