data_PCOD8045569
_publ_section_title
;
Structure prediction by ZEFSAII (Michael W. Deem and Ramdas Pophale) SiO2 
 PCOD8045569
Probable space group: P 2
;
_chemical_formula_sum "Si O2"
_cell_formula_units_Z 10
_cell_length_a 8.640714
_cell_length_b 4.711411
_cell_length_c 8.678895
_cell_angle_alpha 90.000000
_cell_angle_beta 81.341335
_cell_angle_gamma 90.000000
_cell_volume 349.290579
_symmetry_space_group_name_H-M "P 2"
_symmetry_group_IT_number 3
_symmetry_cell_setting 'monoclinic'
loop_
_space_group_symop_operation_xyz
x,y,z
-x,y,-z
loop_
_atom_site_type_symbol
_atom_site_label
_atom_site_fract_x
_atom_site_fract_y
_atom_site_fract_z
Si Si1 0.725406 0.411540 0.892645
Si Si2 0.706302 0.940991 0.103256
Si Si3 0.448637 0.709275 0.343660
Si Si4 0.918710 0.355475 0.248145
Si Si5 0.152205 0.857236 0.551969
O O1 0.593027 0.495808 0.787600
O O2 0.896743 0.393046 0.794243
O O3 0.746512 0.627965 0.034334
O O4 0.649542 0.112708 0.959256
O O5 0.582577 0.928350 0.264270
O O6 0.851100 0.155328 0.122717
O O7 0.500000 0.563120 0.500000
O O8 0.291423 0.878767 0.409078
O O9 0.827121 0.662625 0.291571
O O10 0.883652 0.182865 0.408600
O O11 0.000000 0.709391 0.500000
#
# Coordination Sequence:
#
# PCOD8045569 Si02
#       5
#     2   2   2   2   2
#     4  12  29  55  88 125 176 224 286 354 430 514
#     4  12  29  55  86 127 172 225 285 356 436 503
#     4  12  29  59  87 125 176 229 287 356 428 508
#     4  12  26  52  87 122 167 224 293 345 422 514
#     4  12  26  51  86 125 167 225 288 354 418 507
#
# _framework density 28.629460000000002
#
# number of rings (size 3 to 8) (size 9 to 14) (size 15 to 20)
#    0.000    0.000    4.000    4.200    0.000    6.400 
#    0.000    0.000    0.000    0.000    0.000    0.000 
#    0.000    0.000    0.000    0.000    0.000    0.000 
#
# Total GULP energy -123937.675088 kJ/mol
# GULP energy per Si atom -12393.767509 kJ/mol
# Density = 2.856430 g / cm^3
# Si number density = 28.629460 Si / 1000 Ang^3
#
#
#
# Elastic Constant Matrix: (Units=GPa)
#
#
# Indices 1 2 3 4 5 6 
#
# 1 128.7534 11.9411 25.5362 0.0000 -21.4585 0.0000
# 2 11.9411 126.9516 13.6097 0.0000 -36.7352 0.0000
# 3 25.5362 13.6097 108.2721 0.0000 -27.9956 0.0000
# 4 0.0000 0.0000 0.0000 30.7122 0.0000 -1.9797
# 5 -21.4585 -36.7352 -27.9956 0.0000 52.6539 0.0000
# 6 0.0000 0.0000 0.0000 -1.9797 0.0000 33.9590
#
#
#
# Elastic Compliance Matrix: (Units=1/GPa)
#
#
# Indices 1 2 3 4 5 6 
#
# 1 0.008487 0.000179 -0.001272 0.000000 0.002907 0.000000
# 2 0.000179 0.009910 0.000601 0.000000 0.007307 0.000000
# 3 -0.001272 0.000601 0.010939 0.000000 0.005717 0.000000
# 4 0.000000 0.000000 0.000000 0.032683 0.000000 0.001905
# 5 0.002907 0.007307 0.005717 0.000000 0.028314 0.000000
# 6 0.000000 0.000000 0.000000 0.001905 0.000000 0.029558
#
#
# Mechanical properties :
#
#
# Convention : Reuss Voigt Hill
#
# Bulk Modulus (GPa) = 35.27058 51.79457 43.53258
# Shear Modulus (GPa) = 38.36538 44.32435 41.34486
#
# Velocity S-wave (km/s) = 3.66466 3.93900 3.80430
# Velocity P-wave (km/s) = 5.50025 6.23043 5.87669
#
# Compressibility (1/GPa) = 0.02835224
#
# Stress axis : x y z
#
# Youngs Moduli (GPa) = 117.82605 100.90832 91.41827
#
# Poissons Ratio (x) = -0.01811 0.11633
# Poissons Ratio (y) = -0.02114 -0.05497
# Poissons Ratio (z) = 0.14993 -0.06067
#
# Static dielectric constant tensor:
#      x y z
#    x 5.666490 0.000000 0.645950 
#    y 0.000000 5.215860 0.000000 
#    z 0.645950 0.000000 5.781630 
# 
# 
# High freq. dielectric constant tensor:
#      x y z
#    x 2.180540 0.000000 0.016550 
#    y 0.000000 2.155050 0.000000 
#    z 0.016550 0.000000 2.188730 
# 
# From -- ./inp_files/4837.got.cif
#   From: 2010.03.12/outbox.cif.g09.slc.cpg/sg3_3_cif.got.tgz:4837.got - 2010.03.31 09:20:49.
