data_PCOD8045863
_publ_section_title
;
Structure prediction by ZEFSAII (Michael W. Deem and Ramdas Pophale) SiO2 
 PCOD8045863
Probable space group: P 21
;
_chemical_formula_sum "Si O2"
_cell_formula_units_Z 16
_cell_length_a 11.476598
_cell_length_b 8.479884
_cell_length_c 8.844521
_cell_angle_alpha 90.000000
_cell_angle_beta 109.818130
_cell_angle_gamma 90.000000
_cell_volume 809.771505
_symmetry_space_group_name_H-M "P 21"
_symmetry_group_IT_number 4
_symmetry_cell_setting 'monoclinic'
loop_
_space_group_symop_operation_xyz
x,y,z
-x,1/2+y,-z
loop_
_atom_site_type_symbol
_atom_site_label
_atom_site_fract_x
_atom_site_fract_y
_atom_site_fract_z
Si Si1 0.396918 0.407230 0.798414
Si Si2 0.855942 0.010473 0.452685
Si Si3 0.277082 0.740750 0.424663
Si Si4 0.625157 0.604532 0.997652
Si Si5 0.258890 0.073985 0.265457
Si Si6 0.088626 0.169481 0.427510
Si Si7 0.536202 0.676414 0.421577
Si Si8 0.699885 0.470702 0.318107
O O1 0.263732 0.480778 0.704276
O O2 0.384514 0.272841 0.922432
O O3 0.451801 0.340644 0.664407
O O4 0.488737 0.545973 0.891326
O O5 0.828386 0.108312 0.597269
O O6 0.953246 0.099084 0.389240
O O7 0.920137 0.851536 0.535593
O O8 0.399564 0.651972 0.425089
O O9 0.286958 0.798875 0.604572
O O10 0.250757 0.885859 0.300170
O O11 0.690190 0.472535 0.133407
O O12 0.721374 0.610103 0.901177
O O13 0.129795 0.146905 0.270076
O O14 0.369153 0.166225 0.398014
O O15 0.191072 0.087367 0.579495
O O16 0.566930 0.535227 0.319989
#
# Coordination Sequence:
#
# PCOD8045863 Si02
#       8
#     2   2   2   2   2   2   2   2
#     4  11  23  40  61  95 133 170 200 261 322 393
#     4  12  22  41  68  92 122 165 221 265 313 360
#     4  10  20  33  62  92 120 162 210 258 311 373
#     4  11  22  40  61  91 141 164 202 256 341 389
#     4  10  20  37  60  89 121 169 208 265 311 370
#     4  10  21  41  65  88 119 163 223 265 298 366
#     4   9  17  35  57  88 124 154 209 250 301 369
#     4   9  21  37  58  89 128 167 197 256 321 376
#
# _framework density 19.758658
#
# number of rings (size 3 to 8) (size 9 to 14) (size 15 to 20)
#    0.000    2.000    5.000    2.250    5.250    0.000 
#    2.250    0.000    5.500    0.000    0.000    0.000 
#    0.000    0.000    0.000    0.000    0.000    0.000 
#
# Total GULP energy -198266.238549 kJ/mol
# GULP energy per Si atom -12391.639909 kJ/mol
# Density = 1.971369 g / cm^3
# Si number density = 19.758658 Si / 1000 Ang^3
#
#
#
# Elastic Constant Matrix: (Units=GPa)
#
#
# Indices 1 2 3 4 5 6 
#
# 1 128.8734 45.6039 34.2462 0.0000 -30.4039 0.0000
# 2 45.6039 94.0645 24.4672 0.0000 -4.8304 0.0000
# 3 34.2462 24.4672 96.6556 0.0000 -26.1778 0.0000
# 4 0.0000 0.0000 0.0000 22.4873 0.0000 1.0346
# 5 -30.4039 -4.8304 -26.1778 0.0000 28.4721 0.0000
# 6 0.0000 0.0000 0.0000 1.0346 0.0000 35.0325
#
#
#
# Elastic Compliance Matrix: (Units=1/GPa)
#
#
# Indices 1 2 3 4 5 6 
#
# 1 0.012694 -0.005602 0.000445 0.000000 0.013014 0.000000
# 2 -0.005602 0.013872 -0.003341 0.000000 -0.006700 0.000000
# 3 0.000445 -0.003341 0.014660 0.000000 0.013387 0.000000
# 4 0.000000 0.000000 0.000000 0.044530 0.000000 -0.001315
# 5 0.013014 -0.006700 0.013387 0.000000 0.060190 0.000000
# 6 0.000000 0.000000 0.000000 -0.001315 0.000000 0.028584
#
#
# Mechanical properties :
#
#
# Convention : Reuss Voigt Hill
#
# Bulk Modulus (GPa) = 41.27240 58.69200 49.98220
# Shear Modulus (GPa) = 25.04989 31.55015 28.30002
#
# Velocity S-wave (km/s) = 3.56447 4.00030 3.78866
# Velocity P-wave (km/s) = 6.15420 7.14881 6.67007
#
# Compressibility (1/GPa) = 0.02422927
#
# Stress axis : x y z
#
# Youngs Moduli (GPa) = 78.77918 72.08868 68.21366
#
# Poissons Ratio (x) = 0.40381 -0.03036
# Poissons Ratio (y) = 0.44129 0.22794
# Poissons Ratio (z) = -0.03506 0.24088
#
# Static dielectric constant tensor:
#      x y z
#    x 3.617000 0.000000 -0.273840 
#    y 0.000000 3.686400 0.000000 
#    z -0.273840 0.000000 3.525150 
# 
# 
# High freq. dielectric constant tensor:
#      x y z
#    x 1.767970 0.000000 -0.023520 
#    y 0.000000 1.778220 0.000000 
#    z -0.023520 0.000000 1.740700 
# 
# From -- ./inp_files/7724.got.cif
#   From: 2010.03.12/outbox.cif.g09.slc.cpg/sg4_4_cif.got.tgz:7724.got - 2010.03.31 09:31:35.
