data_PCOD8045022
_publ_section_title
;
Structure prediction by ZEFSAII (Michael W. Deem and Ramdas Pophale) SiO2 
 PCOD8045022
Probable space group: P 2
;
_chemical_formula_sum "Si O2"
_cell_formula_units_Z 10
_cell_length_a 7.838194
_cell_length_b 7.176037
_cell_length_c 8.681887
_cell_angle_alpha 90.000000
_cell_angle_beta 107.041950
_cell_angle_gamma 90.000000
_cell_volume 466.889148
_symmetry_space_group_name_H-M "P 2"
_symmetry_group_IT_number 3
_symmetry_cell_setting 'monoclinic'
loop_
_space_group_symop_operation_xyz
x,y,z
-x,y,-z
loop_
_atom_site_type_symbol
_atom_site_label
_atom_site_fract_x
_atom_site_fract_y
_atom_site_fract_z
Si Si1 0.598227 0.333680 0.881190
Si Si2 0.645766 0.473193 0.423052
Si Si3 0.093838 0.427913 0.249271
Si Si4 0.135761 0.080963 0.909588
Si Si5 0.115829 0.755277 0.676708
O O1 0.448775 0.313656 0.707417
O O2 0.768621 0.446763 0.858070
O O3 0.500000 0.435183 0.000000
O O4 0.675453 0.134402 0.959605
O O5 0.500000 0.560880 0.500000
O O6 0.805450 0.379667 0.562880
O O7 0.711257 0.642426 0.334030
O O8 0.948700 0.267842 0.186012
O O9 0.999953 0.626425 0.240081
O O10 0.178171 0.934872 0.787448
O O11 0.000000 0.996530 0.000000
O O12 0.000000 0.820909 0.500000
#
# Coordination Sequence:
#
# PCOD8045022 Si02
#       5
#     2   2   2   2   2
#     4  10  20  36  58  87 120 151 187 239 300 344
#     4   9  19  38  63  86 114 157 199 240 294 346
#     4   9  20  40  62  83 115 159 202 239 282 348
#     4  10  22  38  59  89 119 153 196 241 293 351
#     4  10  21  38  64  89 114 156 203 243 286 347
#
# _framework density 21.418362999999999
#
# number of rings (size 3 to 8) (size 9 to 14) (size 15 to 20)
#    0.000    2.400    0.000    1.200    0.000    8.000 
#    0.000   15.000    0.000    9.600    0.000    0.000 
#    0.000    0.000    0.000    0.000    0.000    0.000 
#
# Total GULP energy -123925.870319 kJ/mol
# GULP energy per Si atom -12392.587032 kJ/mol
# Density = 2.136961 g / cm^3
# Si number density = 21.418363 Si / 1000 Ang^3
#
#
#
# Elastic Constant Matrix: (Units=GPa)
#
#
# Indices 1 2 3 4 5 6 
#
# 1 118.8381 41.2028 61.0650 0.0000 -12.3407 0.0000
# 2 41.2028 86.8063 72.8134 0.0000 0.2342 0.0000
# 3 61.0650 72.8134 135.1759 0.0000 -1.6012 0.0000
# 4 0.0000 0.0000 0.0000 49.6500 0.0000 -5.3026
# 5 -12.3407 0.2342 -1.6012 0.0000 42.2669 0.0000
# 6 0.0000 0.0000 0.0000 -5.3026 0.0000 15.3771
#
#
#
# Elastic Compliance Matrix: (Units=1/GPa)
#
#
# Indices 1 2 3 4 5 6 
#
# 1 0.011561 -0.002093 -0.004057 0.000000 0.003233 0.000000
# 2 -0.002093 0.021407 -0.010599 0.000000 -0.001131 0.000000
# 3 -0.004057 -0.010599 0.014933 0.000000 -0.000560 0.000000
# 4 0.000000 0.000000 0.000000 0.020911 0.000000 0.007211
# 5 0.003233 -0.001131 -0.000560 0.000000 0.024588 0.000000
# 6 0.000000 0.000000 0.000000 0.007211 0.000000 0.067519
#
#
# Mechanical properties :
#
#
# Convention : Reuss Voigt Hill
#
# Bulk Modulus (GPa) = 69.42976 76.77586 73.10281
# Shear Modulus (GPa) = 25.09831 32.50806 28.80318
#
# Velocity S-wave (km/s) = 3.42689 3.90008 3.67112
# Velocity P-wave (km/s) = 6.93862 7.49696 7.22319
#
# Compressibility (1/GPa) = 0.01440305
#
# Stress axis : x y z
#
# Youngs Moduli (GPa) = 86.49848 46.71429 66.96706
#
# Poissons Ratio (x) = 0.09779 0.27166
# Poissons Ratio (y) = 0.18107 0.70976
# Poissons Ratio (z) = 0.35089 0.49511
#
# Static dielectric constant tensor:
#      x y z
#    x 4.175480 0.000000 -0.046420 
#    y 0.000000 3.267990 0.000000 
#    z -0.046420 0.000000 4.306000 
# 
# 
# High freq. dielectric constant tensor:
#      x y z
#    x 1.859610 0.000000 -0.005990 
#    y 0.000000 1.778700 0.000000 
#    z -0.005990 0.000000 1.864810 
# 
# From -- ./inp_files/4680.got.cif
#   From: 2010.03.12/outbox.cif.g09.slc.cpg/sg3_3_cif.got.tgz:4680.got - 2010.03.31 09:20:49.
