data_PCOD8045040
_publ_section_title
;
Structure prediction by ZEFSAII (Michael W. Deem and Ramdas Pophale) SiO2 
 PCOD8045040
Probable space group: P 2
;
_chemical_formula_sum "Si O2"
_cell_formula_units_Z 13
_cell_length_a 8.996342
_cell_length_b 8.511587
_cell_length_c 10.554061
_cell_angle_alpha 90.000000
_cell_angle_beta 136.670041
_cell_angle_gamma 90.000000
_cell_volume 554.556823
_symmetry_space_group_name_H-M "P 2"
_symmetry_group_IT_number 3
_symmetry_cell_setting 'monoclinic'
loop_
_space_group_symop_operation_xyz
x,y,z
-x,y,-z
loop_
_atom_site_type_symbol
_atom_site_label
_atom_site_fract_x
_atom_site_fract_y
_atom_site_fract_z
Si Si1 0.338241 0.142790 0.705085
Si Si2 0.504878 0.802200 0.799170
Si Si3 0.679144 0.589625 0.702837
Si Si4 0.013419 0.843368 0.862137
Si Si5 0.744035 0.365183 0.970528
Si Si6 0.000645 0.153017 0.710743
Si Si7 0.500000 0.582052 0.000000
O O1 0.559438 0.236116 0.836133
O O2 0.227549 0.150463 0.774350
O O3 0.185722 0.212063 0.499559
O O4 0.378043 0.961362 0.699668
O O5 0.539226 0.724825 0.684349
O O6 0.735135 0.819766 0.014990
O O7 0.377272 0.685128 0.815240
O O8 0.500000 0.508996 0.500000
O O9 0.777788 0.462381 0.861621
O O10 0.879659 0.679700 0.757978
O O11 0.928680 0.983582 0.720383
O O12 0.000000 0.896970 0.000000
O O13 0.965074 0.275213 0.150704
O O14 0.684610 0.478494 0.049089
#
# Coordination Sequence:
#
# PCOD8045040 Si02
#       7
#     2   2   2   2   2   2   1
#     4  11  22  40  72 104 130 174 228 284 342 394
#     4  10  20  38  70  97 128 178 229 281 332 397
#     4  10  23  44  63  95 140 180 231 275 335 409
#     4  10  21  41  65  96 130 180 229 274 328 403
#     4  11  22  44  66  95 142 177 216 283 342 402
#     4  11  22  40  71 101 137 173 229 280 333 407
#     4  10  20  36  68  96 132 182 210 276 354 388
#
# _framework density 23.442142
#
# number of rings (size 3 to 8) (size 9 to 14) (size 15 to 20)
#    0.000    1.538    3.077    1.846    0.000    0.000 
#   13.846    0.769   10.154    0.000    0.000    0.000 
#    0.000    0.000    0.000    0.000    0.000    0.000 
#
# Total GULP energy -161156.085910 kJ/mol
# GULP energy per Si atom -12396.621993 kJ/mol
# Density = 2.338879 g / cm^3
# Si number density = 23.442142 Si / 1000 Ang^3
#
#
#
# Elastic Constant Matrix: (Units=GPa)
#
#
# Indices 1 2 3 4 5 6 
#
# 1 38.6607 22.0927 24.2613 0.0000 -8.4476 0.0000
# 2 22.0927 122.4434 42.9044 0.0000 -9.2885 0.0000
# 3 24.2613 42.9044 120.4612 0.0000 -10.5853 0.0000
# 4 0.0000 0.0000 0.0000 28.3284 0.0000 -1.5584
# 5 -8.4476 -9.2885 -10.5853 0.0000 19.8305 0.0000
# 6 0.0000 0.0000 0.0000 -1.5584 0.0000 34.9604
#
#
#
# Elastic Compliance Matrix: (Units=1/GPa)
#
#
# Indices 1 2 3 4 5 6 
#
# 1 0.032908 -0.003619 -0.004465 0.000000 0.009940 0.000000
# 2 -0.003619 0.009872 -0.002640 0.000000 0.001673 0.000000
# 3 -0.004465 -0.002640 0.010351 0.000000 0.002386 0.000000
# 4 0.000000 0.000000 0.000000 0.035387 0.000000 0.001577
# 5 0.009940 0.001673 0.002386 0.000000 0.056719 0.000000
# 6 0.000000 0.000000 0.000000 0.001577 0.000000 0.028674
#
#
# Mechanical properties :
#
#
# Convention : Reuss Voigt Hill
#
# Bulk Modulus (GPa) = 31.56373 51.12025 41.34199
# Shear Modulus (GPa) = 24.28111 29.44431 26.86271
#
# Velocity S-wave (km/s) = 3.22186 3.54791 3.38881
# Velocity P-wave (km/s) = 5.22822 6.21594 5.74335
#
# Compressibility (1/GPa) = 0.03168193
#
# Stress axis : x y z
#
# Youngs Moduli (GPa) = 30.38746 101.29579 96.61059
#
# Poissons Ratio (x) = 0.36659 0.43141
# Poissons Ratio (y) = 0.10997 0.25507
# Poissons Ratio (z) = 0.13569 0.26744
#
# Static dielectric constant tensor:
#      x y z
#    x 4.259640 0.000000 -0.101900 
#    y 0.000000 4.311180 0.000000 
#    z -0.101900 0.000000 4.022540 
# 
# 
# High freq. dielectric constant tensor:
#      x y z
#    x 1.924070 0.000000 -0.010490 
#    y 0.000000 1.931480 0.000000 
#    z -0.010490 0.000000 1.914150 
# 
# From -- ./inp_files/10867.got.cif
#   From: 2010.03.12/outbox.cif.g09.slc.cpg/sg3_6_cif.got.tgz:10867.got - 2010.03.31 09:20:49.
