data_PCOD8045429
_publ_section_title
;
Structure prediction by ZEFSAII (Michael W. Deem and Ramdas Pophale) SiO2 
 PCOD8045429
Probable space group: P 2
;
_chemical_formula_sum "Si O2"
_cell_formula_units_Z 16
_cell_length_a 9.074227
_cell_length_b 11.298264
_cell_length_c 8.909203
_cell_angle_alpha 90.000000
_cell_angle_beta 51.135004
_cell_angle_gamma 90.000000
_cell_volume 711.196279
_symmetry_space_group_name_H-M "P 2"
_symmetry_group_IT_number 3
_symmetry_cell_setting 'monoclinic'
loop_
_space_group_symop_operation_xyz
x,y,z
-x,y,-z
loop_
_atom_site_type_symbol
_atom_site_label
_atom_site_fract_x
_atom_site_fract_y
_atom_site_fract_z
Si Si1 0.663859 0.953490 0.495424
Si Si2 0.536920 0.337971 0.651296
Si Si3 0.171008 0.761441 0.816338
Si Si4 0.490356 0.781026 0.185813
Si Si5 0.278296 0.552458 0.336967
Si Si6 0.861082 0.298217 0.967957
Si Si7 0.901456 0.170140 0.413368
Si Si8 0.972014 0.542844 0.775847
O O1 0.500000 0.013909 0.500000
O O2 0.727998 0.831794 0.378384
O O3 0.579056 0.910360 0.710160
O O4 0.833965 0.045492 0.389369
O O5 0.500000 0.371639 0.500000
O O6 0.558494 0.454340 0.742480
O O7 0.719900 0.254699 0.546974
O O8 0.353677 0.274042 0.841115
O O9 0.314114 0.736702 0.862940
O O10 0.065896 0.645047 0.816519
O O11 0.000000 0.837157 0.000000
O O12 0.343622 0.683180 0.338836
O O13 0.500000 0.787990 0.000000
O O14 0.120717 0.505240 0.552907
O O15 0.216478 0.568871 0.202232
O O16 0.917632 0.229469 0.782083
O O17 0.915821 0.436015 0.920129
O O18 0.000000 0.239843 0.000000
O O19 0.000000 0.131116 0.500000
#
# Coordination Sequence:
#
# PCOD8045429 Si02
#       8
#     2   2   2   2   2   2   2   2
#     4  10  25  50  73  95 136 186 236 296 357 419
#     4  12  26  46  73 102 149 193 236 299 360 423
#     4  11  24  43  69 100 139 184 231 289 352 430
#     4  11  25  44  69 106 141 181 236 285 357 426
#     4  11  24  39  68 101 146 187 224 293 353 418
#     4  12  26  45  73 108 139 190 240 287 357 441
#     4  12  27  49  73 104 140 185 242 304 360 420
#     4  11  23  42  66 101 147 185 233 283 354 430
#
# _framework density 22.497305999999998
#
# number of rings (size 3 to 8) (size 9 to 14) (size 15 to 20)
#    0.000    0.750    3.750    2.250    7.000    4.000 
#    4.500    0.000    0.000    0.000    0.000    0.000 
#    0.000    0.000    0.000    0.000    0.000    0.000 
#
# Total GULP energy -198238.440342 kJ/mol
# GULP energy per Si atom -12389.902521 kJ/mol
# Density = 2.244610 g / cm^3
# Si number density = 22.497306 Si / 1000 Ang^3
#
#
#
# Elastic Constant Matrix: (Units=GPa)
#
#
# Indices 1 2 3 4 5 6 
#
# 1 157.0062 50.8456 47.2056 0.0000 12.3546 0.0000
# 2 50.8456 81.6000 24.6969 0.0000 6.5255 0.0000
# 3 47.2056 24.6969 118.1774 0.0000 -4.5240 0.0000
# 4 0.0000 0.0000 0.0000 -8.1662 0.0000 3.5034
# 5 12.3546 6.5255 -4.5240 0.0000 32.9031 0.0000
# 6 0.0000 0.0000 0.0000 3.5034 0.0000 24.0288
#
#
#
# Elastic Compliance Matrix: (Units=1/GPa)
#
#
# Indices 1 2 3 4 5 6 
#
# 1 0.008853 -0.004472 -0.002709 0.000000 -0.002810 0.000000
# 2 -0.004472 0.015640 -0.001545 0.000000 -0.001635 0.000000
# 3 -0.002709 -0.001545 0.009970 0.000000 0.002695 0.000000
# 4 0.000000 0.000000 0.000000 -0.115247 0.000000 0.016803
# 5 -0.002810 -0.001635 0.002695 0.000000 0.032142 0.000000
# 6 0.000000 0.000000 0.000000 0.016803 0.000000 0.039167
#
#
# Mechanical properties :
#
#
# Convention : Reuss Voigt Hill
#
# Bulk Modulus (GPa) = 58.78548 66.91995 62.85272
# Shear Modulus (GPa) = 366.38645 25.35550 195.87097
#
# Velocity S-wave (km/s) = 12.77542 3.36079 9.34094
# Velocity P-wave (km/s) = 15.61416 6.69853 12.01400
#
# Compressibility (1/GPa) = 0.01701100
#
# Stress axis : x y z
#
# Youngs Moduli (GPa) = 112.95607 63.94055 100.30006
#
# Poissons Ratio (x) = 0.28592 0.27175
# Poissons Ratio (y) = 0.50510 0.15494
# Poissons Ratio (z) = 0.30604 0.09877
#
# Static dielectric constant tensor:
#      x y z
#    x 4.445620 0.000000 -0.129270 
#    y 0.000000 3.719320 0.000000 
#    z -0.129270 0.000000 4.520820 
# 
# 
# High freq. dielectric constant tensor:
#      x y z
#    x 1.906690 0.000000 0.001620 
#    y 0.000000 1.864470 0.000000 
#    z 0.001620 0.000000 1.897740 
# 
# From -- ./inp_files/5960.got.cif
#   From: 2010.03.12/outbox.cif.g09.slc.cpg/sg3_3_cif.got.tgz:5960.got - 2010.03.31 09:20:49.
