data_PCOD8045477
_publ_section_title
;
Structure prediction by ZEFSAII (Michael W. Deem and Ramdas Pophale) SiO2 
 PCOD8045477
Probable space group: P 2
;
_chemical_formula_sum "Si O2"
_cell_formula_units_Z 12
_cell_length_a 10.772539
_cell_length_b 8.648030
_cell_length_c 7.906794
_cell_angle_alpha 90.000000
_cell_angle_beta 42.776700
_cell_angle_gamma 90.000000
_cell_volume 500.261212
_symmetry_space_group_name_H-M "P 2"
_symmetry_group_IT_number 3
_symmetry_cell_setting 'monoclinic'
loop_
_space_group_symop_operation_xyz
x,y,z
-x,y,-z
loop_
_atom_site_type_symbol
_atom_site_label
_atom_site_fract_x
_atom_site_fract_y
_atom_site_fract_z
Si Si1 0.751115 0.547100 0.419781
Si Si2 0.751085 0.355815 0.078024
Si Si3 0.909841 0.259864 0.410596
Si Si4 0.458938 0.781575 0.844192
Si Si5 0.090179 0.643042 0.230260
Si Si6 0.458920 0.121356 0.237950
O O1 0.725052 0.451476 0.274942
O O2 0.801686 0.425523 0.519866
O O3 0.569565 0.647209 0.634702
O O4 0.933358 0.654449 0.240738
O O5 0.569520 0.255727 0.226226
O O6 0.801698 0.477370 0.876734
O O7 0.933319 0.248449 0.892586
O O8 0.757273 0.134714 0.515527
O O9 0.000000 0.221745 0.500000
O O10 0.499993 0.951470 0.731056
O O11 0.500000 0.765920 0.000000
O O12 0.242753 0.768185 0.030045
O O13 0.000000 0.681172 0.500000
O O14 0.500000 0.137067 0.000000
#
# Coordination Sequence:
#
# PCOD8045477 Si02
#       6
#     2   2   2   2   2   2
#     4  11  24  43  71 107 141 186 245 307 362 422
#     4  11  24  43  71 107 141 186 245 307 362 422
#     4  11  22  41  71 105 142 189 247 301 352 426
#     4  11  25  44  70 109 149 195 240 293 368 445
#     4  11  22  41  71 105 142 189 247 301 352 426
#     4  11  25  44  70 109 149 195 240 293 368 445
#
# _framework density 23.987466999999999
#
# number of rings (size 3 to 8) (size 9 to 14) (size 15 to 20)
#    0.000    1.000    3.333    5.000    0.000    6.667 
#    0.000    3.333    0.000    8.000    0.000    0.000 
#    0.000    0.000    0.000    0.000    0.000    0.000 
#
# Total GULP energy -148697.679531 kJ/mol
# GULP energy per Si atom -12391.473294 kJ/mol
# Density = 2.393287 g / cm^3
# Si number density = 23.987467 Si / 1000 Ang^3
#
#
#
# Elastic Constant Matrix: (Units=GPa)
#
#
# Indices 1 2 3 4 5 6 
#
# 1 131.1741 60.5260 82.4278 0.0000 -20.6605 0.0000
# 2 60.5260 98.0256 63.2673 0.0000 -9.0710 0.0000
# 3 82.4278 63.2673 145.5357 0.0000 -26.9040 0.0000
# 4 0.0000 0.0000 0.0000 32.8400 0.0000 -11.1379
# 5 -20.6605 -9.0710 -26.9040 0.0000 48.0799 0.0000
# 6 0.0000 0.0000 0.0000 -11.1379 0.0000 29.4621
#
#
#
# Elastic Compliance Matrix: (Units=1/GPa)
#
#
# Indices 1 2 3 4 5 6 
#
# 1 0.013350 -0.004748 -0.005133 0.000000 0.001968 0.000000
# 2 -0.004748 0.015901 -0.004513 0.000000 -0.001565 0.000000
# 3 -0.005133 -0.004513 0.012464 0.000000 0.003918 0.000000
# 4 0.000000 0.000000 0.000000 0.034929 0.000000 0.013205
# 5 0.001968 -0.001565 0.003918 0.000000 0.023541 0.000000
# 6 0.000000 0.000000 0.000000 0.013205 0.000000 0.038934
#
#
# Mechanical properties :
#
#
# Convention : Reuss Voigt Hill
#
# Bulk Modulus (GPa) = 77.35343 87.46416 82.40879
# Shear Modulus (GPa) = 29.03340 33.31069 31.17204
#
# Velocity S-wave (km/s) = 3.48279 3.73053 3.60879
# Velocity P-wave (km/s) = 6.96352 7.42276 7.19680
#
# Compressibility (1/GPa) = 0.01292768
#
# Stress axis : x y z
#
# Youngs Moduli (GPa) = 74.90779 62.89081 80.22806
#
# Poissons Ratio (x) = 0.29858 0.41183
# Poissons Ratio (y) = 0.35563 0.36205
# Poissons Ratio (z) = 0.38452 0.28381
#
# Static dielectric constant tensor:
#      x y z
#    x 4.564700 0.000000 -0.456250 
#    y 0.000000 4.283760 0.000000 
#    z -0.456250 0.000000 4.703060 
# 
# 
# High freq. dielectric constant tensor:
#      x y z
#    x 1.954730 0.000000 -0.022140 
#    y 0.000000 1.921860 0.000000 
#    z -0.022140 0.000000 1.961440 
# 
# From -- ./inp_files/7275.got.cif
#   From: 2010.03.12/outbox.cif.g09.slc.cpg/sg3_4_cif.got.tgz:7275.got - 2010.03.31 09:20:49.
