data_PCOD8045587
_publ_section_title
;
Structure prediction by ZEFSAII (Michael W. Deem and Ramdas Pophale) SiO2 
 PCOD8045587
Probable space group: P 21
;
_chemical_formula_sum "Si O2"
_cell_formula_units_Z 14
_cell_length_a 15.564634
_cell_length_b 5.132565
_cell_length_c 21.511760
_cell_angle_alpha 90.000000
_cell_angle_beta 152.401737
_cell_angle_gamma 90.000000
_cell_volume 796.127660
_symmetry_space_group_name_H-M "P 21"
_symmetry_group_IT_number 4
_symmetry_cell_setting 'monoclinic'
loop_
_space_group_symop_operation_xyz
x,y,z
-x,1/2+y,-z
loop_
_atom_site_type_symbol
_atom_site_label
_atom_site_fract_x
_atom_site_fract_y
_atom_site_fract_z
Si Si1 0.236732 0.457040 0.634855
Si Si2 0.164256 0.954654 0.665617
Si Si3 0.827982 0.245564 0.083880
Si Si4 0.381763 0.888847 0.926903
Si Si5 0.951860 0.738671 0.111619
Si Si6 0.106168 0.842374 0.087776
Si Si7 0.364740 0.956224 0.150570
O O1 0.227876 0.675703 0.681724
O O2 0.416324 0.510071 0.707321
O O3 0.058881 0.475390 0.475810
O O4 0.249211 0.178848 0.676612
O O5 0.238000 0.982466 0.782521
O O6 0.726495 0.275697 0.083846
O O7 0.978237 0.477617 0.169563
O O8 0.937610 0.974127 0.151291
O O9 0.676832 0.246054 0.930950
O O10 0.506342 0.648939 0.981464
O O11 0.121366 0.773660 0.171151
O O12 0.761288 0.709881 0.948030
O O13 0.305853 0.856075 0.181601
O O14 0.991357 0.623346 0.977570
#
# Coordination Sequence:
#
# PCOD8045587 Si02
#       7
#     2   2   2   2   2   2   2
#     4  10  21  35  55  70  99 135 166 211 246 297
#     4  10  22  38  49  73 101 131 171 209 250 286
#     4  10  19  29  45  68  96 131 154 197 249 291
#     4  12  23  34  52  73 100 132 170 211 247 296
#     4   9  18  29  43  71 101 124 156 196 251 297
#     4  10  16  28  43  69 102 125 151 204 245 300
#     4   9  19  27  51  70  97 126 166 190 254 295
#
# _framework density 17.585121000000001
#
# number of rings (size 3 to 8) (size 9 to 14) (size 15 to 20)
#    0.857    1.143    1.429    3.429    4.000    0.000 
#    0.000    0.000    0.000    0.000    0.000    2.000 
#    0.000    0.000    0.000    0.000    0.000    0.000 
#
# Total GULP energy -173472.295719 kJ/mol
# GULP energy per Si atom -12390.878266 kJ/mol
# Density = 1.754510 g / cm^3
# Si number density = 17.585121 Si / 1000 Ang^3
#
#
#
# Elastic Constant Matrix: (Units=GPa)
#
#
# Indices 1 2 3 4 5 6 
#
# 1 115.6290 13.0513 37.8681 0.0000 10.5662 0.0000
# 2 13.0513 85.5482 14.5827 0.0000 -2.4614 0.0000
# 3 37.8681 14.5827 59.2615 0.0000 4.9215 0.0000
# 4 0.0000 0.0000 0.0000 12.9439 0.0000 -0.6502
# 5 10.5662 -2.4614 4.9215 0.0000 23.8833 0.0000
# 6 0.0000 0.0000 0.0000 -0.6502 0.0000 24.9736
#
#
#
# Elastic Compliance Matrix: (Units=1/GPa)
#
#
# Indices 1 2 3 4 5 6 
#
# 1 0.011262 -0.000677 -0.006726 0.000000 -0.003666 0.000000
# 2 -0.000677 0.012328 -0.002779 0.000000 0.002143 0.000000
# 3 -0.006726 -0.002779 0.022009 0.000000 -0.001846 0.000000
# 4 0.000000 0.000000 0.000000 0.077358 0.000000 0.002014
# 5 -0.003666 0.002143 -0.001846 0.000000 0.044094 0.000000
# 6 0.000000 0.000000 0.000000 0.002014 0.000000 0.040095
#
#
# Mechanical properties :
#
#
# Convention : Reuss Voigt Hill
#
# Bulk Modulus (GPa) = 39.62538 43.49365 41.55951
# Shear Modulus (GPa) = 21.19354 25.35593 23.27474
#
# Velocity S-wave (km/s) = 3.47536 3.80135 3.64201
# Velocity P-wave (km/s) = 6.21985 6.63731 6.43197
#
# Compressibility (1/GPa) = 0.02523635
#
# Stress axis : x y z
#
# Youngs Moduli (GPa) = 88.79082 81.11647 45.43580
#
# Poissons Ratio (x) = 0.05494 0.30558
# Poissons Ratio (y) = 0.06013 0.12626
# Poissons Ratio (z) = 0.59717 0.22540
#
# Static dielectric constant tensor:
#      x y z
#    x 3.257450 0.000000 0.122540 
#    y 0.000000 3.399040 0.000000 
#    z 0.122540 0.000000 2.844440 
# 
# 
# High freq. dielectric constant tensor:
#      x y z
#    x 1.686500 0.000000 0.009180 
#    y 0.000000 1.699440 0.000000 
#    z 0.009180 0.000000 1.609970 
# 
# From -- ./inp_files/15737.got.cif
#   From: 2010.03.12/outbox.cif.g09.slc.cpg/sg4_8_cif.got.tgz:15737.got - 2010.03.31 09:31:35.
