data_PCOD8045928
_publ_section_title
;
Structure prediction by ZEFSAII (Michael W. Deem and Ramdas Pophale) SiO2 
 PCOD8045928
Probable space group: P 21
;
_chemical_formula_sum "Si O2"
_cell_formula_units_Z 16
_cell_length_a 17.295076
_cell_length_b 8.896028
_cell_length_c 5.044369
_cell_angle_alpha 90.000000
_cell_angle_beta 99.248985
_cell_angle_gamma 90.000000
_cell_volume 766.023814
_symmetry_space_group_name_H-M "P 21"
_symmetry_group_IT_number 4
_symmetry_cell_setting 'monoclinic'
loop_
_space_group_symop_operation_xyz
x,y,z
-x,1/2+y,-z
loop_
_atom_site_type_symbol
_atom_site_label
_atom_site_fract_x
_atom_site_fract_y
_atom_site_fract_z
Si Si1 0.444773 0.589880 0.735835
Si Si2 0.723808 0.871912 0.907780
Si Si3 0.959044 0.552151 0.471739
Si Si4 0.271237 0.565795 0.583946
Si Si5 0.119852 0.627045 0.746961
Si Si6 0.960947 0.344918 0.971889
Si Si7 0.877351 0.776825 0.124784
Si Si8 0.449791 0.382339 0.246968
O O1 0.355472 0.647784 0.639998
O O2 0.471356 0.472489 0.524891
O O3 0.494263 0.741725 0.763153
O O4 0.456440 0.504516 0.018487
O O5 0.638117 0.811508 0.780833
O O6 0.746564 0.008615 0.722998
O O7 0.793792 0.745695 0.930552
O O8 0.721141 0.925641 0.210738
O O9 0.939686 0.440936 0.701225
O O10 0.887034 0.669824 0.388356
O O11 0.038956 0.651439 0.539171
O O12 0.968534 0.457822 0.214684
O O13 0.199070 0.674721 0.633204
O O14 0.125522 0.451132 0.802455
O O15 0.109614 0.726429 0.008435
O O16 0.043743 0.252952 0.005865
#
# Coordination Sequence:
#
# PCOD8045928 Si02
#       8
#     2   2   2   2   2   2   2   2
#     4  10  20  37  62  90 119 151 190 235 287 347
#     4   9  19  34  57  86 111 145 195 239 274 334
#     4  11  23  36  54  83 114 147 191 246 297 337
#     4   9  19  34  57  86 111 145 195 239 274 334
#     4  10  20  37  59  79 108 153 198 236 283 342
#     4  11  23  36  54  83 114 147 191 246 297 337
#     4  10  20  37  59  79 108 153 198 236 283 342
#     4  10  20  37  62  90 119 151 190 235 287 347
#
# _framework density 20.887080999999998
#
# number of rings (size 3 to 8) (size 9 to 14) (size 15 to 20)
#    0.000    2.000    0.000    4.500    0.000    6.000 
#    0.000    1.250    0.000    7.500    0.000    0.000 
#    0.000    0.000    0.000    0.000    0.000    0.000 
#
# Total GULP energy -198232.037919 kJ/mol
# GULP energy per Si atom -12389.502370 kJ/mol
# Density = 2.083954 g / cm^3
# Si number density = 20.887081 Si / 1000 Ang^3
#
#
#
# Elastic Constant Matrix: (Units=GPa)
#
#
# Indices 1 2 3 4 5 6 
#
# 1 144.8451 49.8502 13.0253 0.0000 -7.9509 0.0000
# 2 49.8502 81.7244 15.4952 0.0000 -6.3097 0.0000
# 3 13.0253 15.4952 59.7762 0.0000 -16.4492 0.0000
# 4 0.0000 0.0000 0.0000 29.0133 0.0000 -4.0252
# 5 -7.9509 -6.3097 -16.4492 0.0000 24.7249 0.0000
# 6 0.0000 0.0000 0.0000 -4.0252 0.0000 49.2229
#
#
#
# Elastic Compliance Matrix: (Units=1/GPa)
#
#
# Indices 1 2 3 4 5 6 
#
# 1 0.008793 -0.005223 -0.000185 0.000000 0.001372 0.000000
# 2 -0.005223 0.016005 -0.002875 0.000000 0.000492 0.000000
# 3 -0.000185 -0.002875 0.021173 0.000000 0.013293 0.000000
# 4 0.000000 0.000000 0.000000 0.034863 0.000000 0.002851
# 5 0.001372 0.000492 0.013293 0.000000 0.049855 0.000000
# 6 0.000000 0.000000 0.000000 0.002851 0.000000 0.020549
#
#
# Mechanical properties :
#
#
# Convention : Reuss Voigt Hill
#
# Bulk Modulus (GPa) = 34.00750 49.23190 41.61970
# Shear Modulus (GPa) = 28.15230 34.45722 31.30476
#
# Velocity S-wave (km/s) = 3.67527 4.06604 3.87558
# Velocity P-wave (km/s) = 5.85893 6.75761 6.32425
#
# Compressibility (1/GPa) = 0.02940528
#
# Stress axis : x y z
#
# Youngs Moduli (GPa) = 113.72249 62.47958 47.23095
#
# Poissons Ratio (x) = 0.32632 0.00872
# Poissons Ratio (y) = 0.59395 0.13581
# Poissons Ratio (z) = 0.02100 0.17966
#
# Static dielectric constant tensor:
#      x y z
#    x 4.534190 0.000000 0.248140 
#    y 0.000000 3.975150 0.000000 
#    z 0.248140 0.000000 3.445400 
# 
# 
# High freq. dielectric constant tensor:
#      x y z
#    x 1.818860 0.000000 -0.003950 
#    y 0.000000 1.784920 0.000000 
#    z -0.003950 0.000000 1.833680 
# 
# From -- ./inp_files/4070.got.cif
#   From: 2010.03.12/outbox.cif.g09.slc.cpg/sg4_3_cif.got.tgz:4070.got - 2010.03.31 09:31:35.
