data_PCOD8045330
_publ_section_title
;
Structure prediction by ZEFSAII (Michael W. Deem and Ramdas Pophale) SiO2 
 PCOD8045330
Probable space group: P 2
;
_chemical_formula_sum "Si O2"
_cell_formula_units_Z 15
_cell_length_a 22.871333
_cell_length_b 5.123499
_cell_length_c 5.020968
_cell_angle_alpha 90.000000
_cell_angle_beta 119.597838
_cell_angle_gamma 90.000000
_cell_volume 511.589885
_symmetry_space_group_name_H-M "P 2"
_symmetry_group_IT_number 3
_symmetry_cell_setting 'monoclinic'
loop_
_space_group_symop_operation_xyz
x,y,z
-x,y,-z
loop_
_atom_site_type_symbol
_atom_site_label
_atom_site_fract_x
_atom_site_fract_y
_atom_site_fract_z
Si Si1 0.423946 0.521110 0.273421
Si Si2 0.767485 0.428618 0.599855
Si Si3 0.686765 0.124295 0.057920
Si Si4 0.926065 0.596483 0.955202
Si Si5 0.639452 0.724775 0.378019
Si Si6 0.895391 0.093542 0.625815
Si Si7 0.000000 0.290584 0.500000
Si Si8 0.204019 0.928968 0.040795
O O1 0.500000 0.439694 0.500000
O O2 0.399721 0.749708 0.427031
O O3 0.380784 0.254660 0.205330
O O4 0.416486 0.630947 0.960084
O O5 0.745879 0.347311 0.245511
O O6 0.694139 0.496874 0.555687
O O7 0.812188 0.680982 0.797007
O O8 0.806110 0.179516 0.800980
O O9 0.675865 0.975662 0.319703
O O10 0.718466 0.926885 0.904308
O O11 0.875044 0.392875 0.673676
O O12 0.904326 0.900842 0.902542
O O13 0.936506 0.475429 0.272026
O O14 0.000000 0.555319 0.000000
O O15 0.969029 0.102742 0.655821
O O16 0.844480 0.940235 0.320457
#
# Coordination Sequence:
#
# PCOD8045330 Si02
#       8
#     2   2   2   2   2   2   1   2
#     4  11  25  46  75 114 154 201 262 325 391 468
#     4  11  24  45  72 105 148 193 252 304 384 456
#     4  11  26  46  75 104 155 201 252 322 387 464
#     4  10  22  44  68 103 141 188 250 301 377 445
#     4  11  23  46  75 107 151 203 253 316 391 462
#     4  11  25  44  70 108 146 192 255 312 372 461
#     4  10  24  48  76  98 150 204 238 322 382 448
#     4  12  25  47  73 108 154 195 254 317 384 461
#
# _framework density 29.320363
#
# number of rings (size 3 to 8) (size 9 to 14) (size 15 to 20)
#    0.000    1.067    2.667    3.200    1.867    6.400 
#    2.400    8.000    0.000    0.000    0.000    0.000 
#    0.000    0.000    0.000    0.000    0.000    0.000 
#
# Total GULP energy -185877.861427 kJ/mol
# GULP energy per Si atom -12391.857428 kJ/mol
# Density = 2.925363 g / cm^3
# Si number density = 29.320363 Si / 1000 Ang^3
#
#
#
# Elastic Constant Matrix: (Units=GPa)
#
#
# Indices 1 2 3 4 5 6 
#
# 1 107.0313 65.7448 22.4129 0.0000 0.9357 0.0000
# 2 65.7448 180.9850 57.2059 0.0000 19.5071 0.0000
# 3 22.4129 57.2059 112.9008 0.0000 22.0115 0.0000
# 4 0.0000 0.0000 0.0000 41.6638 0.0000 -4.5147
# 5 0.9357 19.5071 22.0115 0.0000 47.5601 0.0000
# 6 0.0000 0.0000 0.0000 -4.5147 0.0000 44.3412
#
#
#
# Elastic Compliance Matrix: (Units=1/GPa)
#
#
# Indices 1 2 3 4 5 6 
#
# 1 0.012172 -0.004456 -0.000515 0.000000 0.001826 0.000000
# 2 -0.004456 0.008281 -0.002931 0.000000 -0.001952 0.000000
# 3 -0.000515 -0.002931 0.011221 0.000000 -0.003981 0.000000
# 4 0.000000 0.000000 0.000000 0.024269 0.000000 0.002471
# 5 0.001826 -0.001952 -0.003981 0.000000 0.023633 0.000000
# 6 0.000000 0.000000 0.000000 0.002471 0.000000 0.022804
#
#
# Mechanical properties :
#
#
# Convention : Reuss Voigt Hill
#
# Bulk Modulus (GPa) = 63.00779 76.84935 69.92857
# Shear Modulus (GPa) = 40.49504 43.74994 42.12249
#
# Velocity S-wave (km/s) = 3.72038 3.86701 3.79440
# Velocity P-wave (km/s) = 6.32385 6.79746 6.56493
#
# Compressibility (1/GPa) = 0.01587105
#
# Stress axis : x y z
#
# Youngs Moduli (GPa) = 82.15694 120.76393 89.12242
#
# Poissons Ratio (x) = 0.53809 0.04587
# Poissons Ratio (y) = 0.36607 0.26118
# Poissons Ratio (z) = 0.04229 0.35390
#
# Static dielectric constant tensor:
#      x y z
#    x 5.493920 0.000000 0.086160 
#    y 0.000000 5.357430 0.000000 
#    z 0.086160 0.000000 5.797640 
# 
# 
# High freq. dielectric constant tensor:
#      x y z
#    x 2.215890 0.000000 0.007760 
#    y 0.000000 2.195810 0.000000 
#    z 0.007760 0.000000 2.207430 
# 
# From -- ./inp_files/4029.got.cif
#   From: 2010.03.12/outbox.cif.g09.slc.cpg/sg3_3_cif.got.tgz:4029.got - 2010.03.31 09:20:49.
