data_PCOD8045973
_publ_section_title
;
Structure prediction by ZEFSAII (Michael W. Deem and Ramdas Pophale) SiO2 
 PCOD8045973
Probable space group: P 21
;
_chemical_formula_sum "Si O2"
_cell_formula_units_Z 14
_cell_length_a 15.992574
_cell_length_b 4.928978
_cell_length_c 15.939141
_cell_angle_alpha 90.000000
_cell_angle_beta 31.509841
_cell_angle_gamma 90.000000
_cell_volume 656.669681
_symmetry_space_group_name_H-M "P 21"
_symmetry_group_IT_number 4
_symmetry_cell_setting 'monoclinic'
loop_
_space_group_symop_operation_xyz
x,y,z
-x,1/2+y,-z
loop_
_atom_site_type_symbol
_atom_site_label
_atom_site_fract_x
_atom_site_fract_y
_atom_site_fract_z
Si Si1 0.461144 0.952850 0.301801
Si Si2 0.803867 0.797565 0.955936
Si Si3 0.095556 0.225409 0.943692
Si Si4 0.102933 0.573985 0.394438
Si Si5 0.272669 0.456365 0.409034
Si Si6 0.078664 0.794836 0.238963
Si Si7 0.562553 0.891884 0.400675
O O1 0.615012 0.849023 0.119848
O O2 0.319398 0.735037 0.414681
O O3 0.501319 0.003991 0.364365
O O4 0.411315 0.237635 0.304149
O O5 0.868573 0.690828 0.989050
O O6 0.833592 0.571884 0.860171
O O7 0.897367 0.073315 0.854036
O O8 0.249762 0.327568 0.761228
O O9 0.950153 0.431690 0.052811
O O10 0.253553 0.507444 0.325447
O O11 0.158736 0.686044 0.256677
O O12 0.000967 0.300498 0.467526
O O13 0.109152 0.345029 0.588547
O O14 0.464737 0.621441 0.506541
#
# Coordination Sequence:
#
# PCOD8045973 Si02
#       7
#     2   2   2   2   2   2   2
#     4  11  24  41  60  90 128 160 194 250 312 356
#     4  11  24  41  60  90 128 160 194 250 312 356
#     4  11  24  41  62  88 123 162 202 250 302 355
#     4  10  20  38  62  92 124 154 198 256 302 342
#     4  11  22  39  65  91 117 159 208 249 292 358
#     4  11  22  39  65  91 117 159 208 249 292 358
#     4  11  24  41  62  88 123 162 202 250 302 355
#
# _framework density 21.319697999999999
#
# number of rings (size 3 to 8) (size 9 to 14) (size 15 to 20)
#    0.000    1.143    0.000    7.714    0.000   11.429 
#    0.000    2.857    0.000    1.714    0.000    0.000 
#    0.000    0.000    0.000    0.000    0.000    0.000 
#
# Total GULP energy -173703.881960 kJ/mol
# GULP energy per Si atom -12407.420140 kJ/mol
# Density = 2.127117 g / cm^3
# Si number density = 21.319698 Si / 1000 Ang^3
#
#
#
# Elastic Constant Matrix: (Units=GPa)
#
#
# Indices 1 2 3 4 5 6 
#
# 1 84.9782 12.1556 30.1530 0.0000 -6.0215 0.0000
# 2 12.1556 79.5764 1.6939 0.0000 0.5339 0.0000
# 3 30.1530 1.6939 75.7295 0.0000 7.7089 0.0000
# 4 0.0000 0.0000 0.0000 37.0889 0.0000 1.9713
# 5 -6.0215 0.5339 7.7089 0.0000 17.3391 0.0000
# 6 0.0000 0.0000 0.0000 1.9713 0.0000 45.8107
#
#
#
# Elastic Compliance Matrix: (Units=1/GPa)
#
#
# Indices 1 2 3 4 5 6 
#
# 1 0.015091 -0.002216 -0.006808 0.000000 0.008336 0.000000
# 2 -0.002216 0.012899 0.000746 0.000000 -0.001499 0.000000
# 3 -0.006808 0.000746 0.016907 0.000000 -0.009904 0.000000
# 4 0.000000 0.000000 0.000000 0.027024 0.000000 -0.001163
# 5 0.008336 -0.001499 -0.009904 0.000000 0.065017 0.000000
# 6 0.000000 0.000000 0.000000 -0.001163 0.000000 0.021879
#
#
# Mechanical properties :
#
#
# Convention : Reuss Voigt Hill
#
# Bulk Modulus (GPa) = 35.28297 36.47657 35.87977
# Shear Modulus (GPa) = 27.05338 33.13319 30.09328
#
# Velocity S-wave (km/s) = 3.56608 3.94650 3.76110
# Velocity P-wave (km/s) = 5.79149 6.15735 5.97722
#
# Compressibility (1/GPa) = 0.02834228
#
# Stress axis : x y z
#
# Youngs Moduli (GPa) = 66.26471 77.52391 59.14724
#
# Poissons Ratio (x) = 0.17181 0.40266
# Poissons Ratio (y) = 0.14686 -0.04415
# Poissons Ratio (z) = 0.45111 -0.05787
#
# Static dielectric constant tensor:
#      x y z
#    x 3.809550 0.000000 0.055500 
#    y 0.000000 4.010910 0.000000 
#    z 0.055500 0.000000 3.781850 
# 
# 
# High freq. dielectric constant tensor:
#      x y z
#    x 1.838380 0.000000 0.003980 
#    y 0.000000 1.859070 0.000000 
#    z 0.003980 0.000000 1.824910 
# 
# From -- ./inp_files/14056.got.cif
#   From: 2010.03.12/outbox.cif.g09.slc.cpg/sg4_8_cif.got.tgz:14056.got - 2010.03.31 09:31:35.
