data_PCOD8045280
_publ_section_title
;
Structure prediction by ZEFSAII (Michael W. Deem and Ramdas Pophale) SiO2 
 PCOD8045280
Probable space group: P 2
;
_chemical_formula_sum "Si O2"
_cell_formula_units_Z 14
_cell_length_a 20.832244
_cell_length_b 5.072808
_cell_length_c 12.694547
_cell_angle_alpha 90.000000
_cell_angle_beta 151.690484
_cell_angle_gamma 90.000000
_cell_volume 636.201625
_symmetry_space_group_name_H-M "P 2"
_symmetry_group_IT_number 3
_symmetry_cell_setting 'monoclinic'
loop_
_space_group_symop_operation_xyz
x,y,z
-x,y,-z
loop_
_atom_site_type_symbol
_atom_site_label
_atom_site_fract_x
_atom_site_fract_y
_atom_site_fract_z
Si Si1 0.704228 0.957500 0.976218
Si Si2 0.124934 0.946823 0.113368
Si Si3 0.545983 0.464838 0.684111
Si Si4 0.770477 0.299271 0.424851
Si Si5 0.976246 0.006328 0.256914
Si Si6 0.726833 0.437826 0.601590
Si Si7 0.241303 0.805437 0.709597
O O1 0.651283 0.708779 0.831741
O O2 0.606537 0.204175 0.823666
O O3 0.706608 0.858325 0.098934
O O4 0.851084 0.063731 0.152898
O O5 0.235710 0.181431 0.273982
O O6 0.171763 0.679378 0.236428
O O7 0.083026 0.875324 0.934397
O O8 0.000000 0.059421 0.000000
O O9 0.500000 0.399287 0.500000
O O10 0.419170 0.543119 0.573616
O O11 0.728759 0.357812 0.482897
O O12 0.710672 0.521731 0.261069
O O13 0.935044 0.266482 0.647699
O O14 0.699719 0.027256 0.285206
O O15 0.076682 0.808217 0.464006
#
# Coordination Sequence:
#
# PCOD8045280 Si02
#       7
#     2   2   2   2   2   2   2
#     4  12  25  45  69  96 130 182 227 262 338 400
#     4  12  22  37  68 101 131 169 214 273 348 393
#     4  12  27  47  67  96 135 182 223 271 322 407
#     4  10  22  41  65  94 136 166 211 280 341 374
#     4  10  24  39  67 100 132 167 216 285 331 395
#     4  12  24  43  64  98 138 174 221 277 330 395
#     4  10  23  42  64 100 132 165 219 278 339 386
#
# _framework density 22.005603000000001
#
# number of rings (size 3 to 8) (size 9 to 14) (size 15 to 20)
#    0.857    0.000    1.429    6.429    4.000    0.000 
#    2.571    4.286    0.000    0.000    0.000    0.000 
#    0.000    0.000    0.000    0.000    0.000    0.000 
#
# Total GULP energy -173574.646322 kJ/mol
# GULP energy per Si atom -12398.189023 kJ/mol
# Density = 2.195552 g / cm^3
# Si number density = 22.005603 Si / 1000 Ang^3
#
#
#
# Elastic Constant Matrix: (Units=GPa)
#
#
# Indices 1 2 3 4 5 6 
#
# 1 88.6262 23.8354 27.2125 0.0000 -4.2633 0.0000
# 2 23.8354 113.2485 17.3591 0.0000 -0.4296 0.0000
# 3 27.2125 17.3591 63.2487 0.0000 -11.7923 0.0000
# 4 0.0000 0.0000 0.0000 26.9036 0.0000 -3.1128
# 5 -4.2633 -0.4296 -11.7923 0.0000 27.8235 0.0000
# 6 0.0000 0.0000 0.0000 -3.1128 0.0000 24.7929
#
#
#
# Elastic Compliance Matrix: (Units=1/GPa)
#
#
# Indices 1 2 3 4 5 6 
#
# 1 0.013433 -0.002021 -0.005263 0.000000 -0.000203 0.000000
# 2 -0.002021 0.009548 -0.001934 0.000000 -0.000982 0.000000
# 3 -0.005263 -0.001934 0.020033 0.000000 0.007654 0.000000
# 4 0.000000 0.000000 0.000000 0.037718 0.000000 0.004736
# 5 -0.000203 -0.000982 0.007654 0.000000 0.039138 0.000000
# 6 0.000000 0.000000 0.000000 0.004736 0.000000 0.040929
#
#
# Mechanical properties :
#
#
# Convention : Reuss Voigt Hill
#
# Bulk Modulus (GPa) = 40.68675 44.65970 42.67323
# Shear Modulus (GPa) = 26.67695 29.01842 27.84768
#
# Velocity S-wave (km/s) = 3.48556 3.63531 3.56122
# Velocity P-wave (km/s) = 5.89307 6.16112 6.02858
#
# Compressibility (1/GPa) = 0.02457803
#
# Stress axis : x y z
#
# Youngs Moduli (GPa) = 74.44306 104.73068 49.91839
#
# Poissons Ratio (x) = 0.21170 0.26270
# Poissons Ratio (y) = 0.15048 0.09654
# Poissons Ratio (z) = 0.39177 0.20255
#
# Static dielectric constant tensor:
#      x y z
#    x 3.781190 0.000000 -0.015090 
#    y 0.000000 3.916770 0.000000 
#    z -0.015090 0.000000 3.964910 
# 
# 
# High freq. dielectric constant tensor:
#      x y z
#    x 1.860170 0.000000 -0.011850 
#    y 0.000000 1.869150 0.000000 
#    z -0.011850 0.000000 1.863860 
# 
# From -- ./inp_files/12614.got.cif
#   From: 2010.03.12/outbox.cif.g09.slc.cpg/sg3_7_cif.got.tgz:12614.got - 2010.03.31 09:20:49.
