data_PCOD8045141
_publ_section_title
;
Structure prediction by ZEFSAII (Michael W. Deem and Ramdas Pophale) SiO2 
 PCOD8045141
Probable space group: P 2
;
_chemical_formula_sum "Si O2"
_cell_formula_units_Z 10
_cell_length_a 11.378981
_cell_length_b 8.147289
_cell_length_c 11.293807
_cell_angle_alpha 90.000000
_cell_angle_beta 25.105352
_cell_angle_gamma 90.000000
_cell_volume 444.235766
_symmetry_space_group_name_H-M "P 2"
_symmetry_group_IT_number 3
_symmetry_cell_setting 'monoclinic'
loop_
_space_group_symop_operation_xyz
x,y,z
-x,y,-z
loop_
_atom_site_type_symbol
_atom_site_label
_atom_site_fract_x
_atom_site_fract_y
_atom_site_fract_z
Si Si1 0.435553 0.294620 0.432100
Si Si2 0.145297 0.681044 0.142479
Si Si3 0.595617 0.676477 0.536737
Si Si4 0.000000 0.890808 0.500000
Si Si5 0.869519 0.299822 0.843697
Si Si6 0.500000 0.096396 0.000000
O O1 0.500000 0.207726 0.500000
O O2 0.369413 0.483834 0.515898
O O3 0.176734 0.226094 0.589834
O O4 0.717824 0.273610 0.105260
O O5 0.130110 0.783244 0.276255
O O6 0.121844 0.490619 0.201486
O O7 0.898836 0.745284 0.284543
O O8 0.416143 0.717610 0.817214
O O9 0.500000 0.758484 0.500000
O O10 0.276262 0.994916 0.283850
O O11 0.705376 0.204421 0.892360
#
# Coordination Sequence:
#
# PCOD8045141 Si02
#       6
#     2   2   2   1   2   1
#     4   9  17  32  58  92 122 148 191 254 311 356
#     4  10  21  37  61  89 119 159 205 250 298 363
#     4   9  17  32  58  92 122 148 191 254 311 356
#     4  12  26  42  60  86 128 170 206 254 310 364
#     4  10  21  37  61  89 119 159 205 250 298 363
#     4  12  26  42  60  86 128 170 206 254 310 364
#
# _framework density 22.510569
#
# number of rings (size 3 to 8) (size 9 to 14) (size 15 to 20)
#    0.000    2.000    0.000    3.600    0.000   11.200 
#    0.000    0.000    0.000   18.000    0.000    0.000 
#    0.000    0.000    0.000    0.000    0.000    0.000 
#
# Total GULP energy -123885.165796 kJ/mol
# GULP energy per Si atom -12388.516580 kJ/mol
# Density = 2.245933 g / cm^3
# Si number density = 22.510569 Si / 1000 Ang^3
#
#
#
# Elastic Constant Matrix: (Units=GPa)
#
#
# Indices 1 2 3 4 5 6 
#
# 1 139.2168 45.7955 26.9860 0.0000 -9.1353 0.0000
# 2 45.7955 58.3987 33.8811 0.0000 0.7566 0.0000
# 3 26.9860 33.8811 95.6419 0.0000 -23.3730 0.0000
# 4 0.0000 0.0000 0.0000 25.0890 0.0000 -1.8514
# 5 -9.1353 0.7566 -23.3730 0.0000 38.3944 0.0000
# 6 0.0000 0.0000 0.0000 -1.8514 0.0000 59.8353
#
#
#
# Elastic Compliance Matrix: (Units=1/GPa)
#
#
# Indices 1 2 3 4 5 6 
#
# 1 0.009968 -0.008387 0.000915 0.000000 0.003094 0.000000
# 2 -0.008387 0.029838 -0.010379 0.000000 -0.008902 0.000000
# 3 0.000915 -0.010379 0.016420 0.000000 0.010418 0.000000
# 4 0.000000 0.000000 0.000000 0.039949 0.000000 0.001236
# 5 0.003094 -0.008902 0.010418 0.000000 0.033299 0.000000
# 6 0.000000 0.000000 0.000000 0.001236 0.000000 0.016751
#
#
# Mechanical properties :
#
#
# Convention : Reuss Voigt Hill
#
# Bulk Modulus (GPa) = 48.72614 56.28696 52.50655
# Shear Modulus (GPa) = 26.48734 37.10339 31.79537
#
# Velocity S-wave (km/s) = 3.43397 4.06429 3.76235
# Velocity P-wave (km/s) = 6.11684 6.86175 6.49997
#
# Compressibility (1/GPa) = 0.02052286
#
# Stress axis : x y z
#
# Youngs Moduli (GPa) = 100.32318 33.51440 60.90026
#
# Poissons Ratio (x) = 0.28110 -0.05572
# Poissons Ratio (y) = 0.84146 0.63208
# Poissons Ratio (z) = -0.09178 0.34784
#
# Static dielectric constant tensor:
#      x y z
#    x 4.163780 0.000000 -0.251510 
#    y 0.000000 3.929880 0.000000 
#    z -0.251510 0.000000 4.286850 
# 
# 
# High freq. dielectric constant tensor:
#      x y z
#    x 1.894300 0.000000 -0.008720 
#    y 0.000000 1.845450 0.000000 
#    z -0.008720 0.000000 1.908120 
# 
# From -- ./inp_files/993.got.cif
#   From: 2010.03.12/outbox.cif.g09.slc.cpg/sg3_1_cif.got.tgz:993.got - 2010.03.31 09:20:49.
