data_PCOD8045540
_publ_section_title
;
Structure prediction by ZEFSAII (Michael W. Deem and Ramdas Pophale) SiO2 
 PCOD8045540
Probable space group: P 2
;
_chemical_formula_sum "Si O2"
_cell_formula_units_Z 12
_cell_length_a 24.370277
_cell_length_b 4.823383
_cell_length_c 11.753617
_cell_angle_alpha 90.000000
_cell_angle_beta 22.085897
_cell_angle_gamma 90.000000
_cell_volume 519.478043
_symmetry_space_group_name_H-M "P 2"
_symmetry_group_IT_number 3
_symmetry_cell_setting 'monoclinic'
loop_
_space_group_symop_operation_xyz
x,y,z
-x,y,-z
loop_
_atom_site_type_symbol
_atom_site_label
_atom_site_fract_x
_atom_site_fract_y
_atom_site_fract_z
Si Si1 0.056831 0.745490 0.121221
Si Si2 0.731353 0.867626 0.753084
Si Si3 0.657406 0.941072 0.139290
Si Si4 0.658730 0.362989 0.742260
Si Si5 0.889273 0.244497 0.124203
Si Si6 0.839176 0.450830 0.859675
O O1 0.153352 0.596848 0.032305
O O2 0.903186 0.876119 0.457282
O O3 0.020428 0.497977 0.104452
O O4 0.152290 0.999877 0.885262
O O5 0.689814 0.562147 0.789758
O O6 0.690555 0.054689 0.724187
O O7 0.642487 0.991464 0.032312
O O8 0.500000 0.942510 0.500000
O O9 0.765290 0.147612 0.000749
O O10 0.730115 0.637398 0.995857
O O11 0.753763 0.392519 0.445171
O O12 0.500000 0.412026 0.000000
O O13 0.000000 0.099018 0.000000
O O14 0.000000 0.425141 0.500000
#
# Coordination Sequence:
#
# PCOD8045540 Si02
#       6
#     2   2   2   2   2   2
#     4  12  24  42  74 106 136 186 240 297 353 429
#     4  12  24  46  73  98 141 193 236 292 379 426
#     4  12  28  48  74 107 150 193 242 312 374 445
#     4  12  27  44  69 103 143 187 235 298 359 443
#     4  12  23  42  69 102 137 180 239 290 350 423
#     4  12  26  46  75 108 141 193 254 303 359 442
#
# _framework density 23.100110999999998
#
# number of rings (size 3 to 8) (size 9 to 14) (size 15 to 20)
#    0.000    0.000    5.000    5.000    2.333    4.000 
#    0.000    0.000    0.000    0.000    0.000    0.000 
#    0.000    0.000    0.000    0.000    0.000    0.000 
#
# Total GULP energy -148786.481202 kJ/mol
# GULP energy per Si atom -12398.873433 kJ/mol
# Density = 2.304753 g / cm^3
# Si number density = 23.100111 Si / 1000 Ang^3
#
#
#
# Elastic Constant Matrix: (Units=GPa)
#
#
# Indices 1 2 3 4 5 6 
#
# 1 80.3236 21.7712 54.0894 0.0000 4.2024 0.0000
# 2 21.7712 108.0480 43.0410 0.0000 9.4361 0.0000
# 3 54.0894 43.0410 157.4711 0.0000 5.0441 0.0000
# 4 0.0000 0.0000 0.0000 24.3808 0.0000 10.1955
# 5 4.2024 9.4361 5.0441 0.0000 36.7405 0.0000
# 6 0.0000 0.0000 0.0000 10.1955 0.0000 45.1319
#
#
#
# Elastic Compliance Matrix: (Units=1/GPa)
#
#
# Indices 1 2 3 4 5 6 
#
# 1 0.016356 -0.001115 -0.005286 0.000000 -0.000859 0.000000
# 2 -0.001115 0.010657 -0.002457 0.000000 -0.002272 0.000000
# 3 -0.005286 -0.002457 0.008837 0.000000 0.000022 0.000000
# 4 0.000000 0.000000 0.000000 0.045295 0.000000 -0.010232
# 5 -0.000859 -0.002272 0.000022 0.000000 0.027897 0.000000
# 6 0.000000 0.000000 0.000000 -0.010232 0.000000 0.024469
#
#
# Mechanical properties :
#
#
# Convention : Reuss Voigt Hill
#
# Bulk Modulus (GPa) = 55.14462 64.84955 59.99708
# Shear Modulus (GPa) = 31.79224 36.38007 34.08615
#
# Velocity S-wave (km/s) = 3.71385 3.97279 3.84550
# Velocity P-wave (km/s) = 6.50493 7.01272 6.76359
#
# Compressibility (1/GPa) = 0.01813413
#
# Stress axis : x y z
#
# Youngs Moduli (GPa) = 61.13859 93.83476 113.16225
#
# Poissons Ratio (x) = 0.10463 0.59816
# Poissons Ratio (y) = 0.06817 0.27805
# Poissons Ratio (z) = 0.32317 0.23056
#
# Static dielectric constant tensor:
#      x y z
#    x 4.156200 0.000000 0.283100 
#    y 0.000000 4.199980 0.000000 
#    z 0.283100 0.000000 4.144500 
# 
# 
# High freq. dielectric constant tensor:
#      x y z
#    x 1.914890 0.000000 0.014780 
#    y 0.000000 1.928400 0.000000 
#    z 0.014780 0.000000 1.903400 
# 
# From -- ./inp_files/12732.got.cif
#   From: 2010.03.12/outbox.cif.g09.slc.cpg/sg3_7_cif.got.tgz:12732.got - 2010.03.31 09:20:49.
