data_PCOD8045654
_publ_section_title
;
Structure prediction by ZEFSAII (Michael W. Deem and Ramdas Pophale) SiO2 
 PCOD8045654
Probable space group: P 21
;
_chemical_formula_sum "Si O2"
_cell_formula_units_Z 14
_cell_length_a 16.530140
_cell_length_b 7.409442
_cell_length_c 10.517635
_cell_angle_alpha 90.000000
_cell_angle_beta 146.903281
_cell_angle_gamma 90.000000
_cell_volume 703.421622
_symmetry_space_group_name_H-M "P 21"
_symmetry_group_IT_number 4
_symmetry_cell_setting 'monoclinic'
loop_
_space_group_symop_operation_xyz
x,y,z
-x,1/2+y,-z
loop_
_atom_site_type_symbol
_atom_site_label
_atom_site_fract_x
_atom_site_fract_y
_atom_site_fract_z
Si Si1 0.862599 0.635870 0.316692
Si Si2 0.026063 0.766040 0.301741
Si Si3 0.354601 0.248858 0.779484
Si Si4 0.129740 0.090419 0.290152
Si Si5 0.687457 0.144693 0.193800
Si Si6 0.919391 0.413556 0.022518
Si Si7 0.143136 0.752352 0.809124
O O1 0.698070 0.667734 0.154247
O O2 0.877080 0.432803 0.296662
O O3 0.902525 0.767679 0.251299
O O4 0.978743 0.663009 0.587705
O O5 0.191691 0.767174 0.577183
O O6 0.003877 0.586094 0.190356
O O7 0.016067 0.952215 0.210912
O O8 0.277795 0.144320 0.561361
O O9 0.309305 0.456925 0.727612
O O10 0.529740 0.239158 0.996774
O O11 0.041786 0.270846 0.136091
O O12 0.179178 0.984612 0.225658
O O13 0.734450 0.130929 0.104671
O O14 0.816986 0.308744 0.993182
#
# Coordination Sequence:
#
# PCOD8045654 Si02
#       7
#     2   2   2   2   2   2   2
#     4  10  18  33  57  88 119 151 192 252 310 352
#     4  10  21  37  60  93 125 153 200 256 308 363
#     4  12  22  37  60  92 124 160 199 253 315 368
#     4  12  22  38  61  89 126 163 207 251 293 361
#     4  11  23  37  59  92 126 157 196 255 322 370
#     4  11  22  37  61  89 122 165 209 248 297 351
#     4  10  20  35  56  89 120 155 201 251 301 361
#
# _framework density 19.902715000000001
#
# number of rings (size 3 to 8) (size 9 to 14) (size 15 to 20)
#    0.000    1.143    4.286    5.143    2.000    0.000 
#    0.000    0.000    0.000   10.286    0.000    0.000 
#    0.000    0.000    0.000    0.000    0.000    0.000 
#
# Total GULP energy -173470.482005 kJ/mol
# GULP energy per Si atom -12390.748715 kJ/mol
# Density = 1.985742 g / cm^3
# Si number density = 19.902715 Si / 1000 Ang^3
#
#
#
# Elastic Constant Matrix: (Units=GPa)
#
#
# Indices 1 2 3 4 5 6 
#
# 1 114.0353 29.2241 50.8020 0.0000 -5.5210 0.0000
# 2 29.2241 63.2278 15.8471 0.0000 -13.7082 0.0000
# 3 50.8020 15.8471 63.8552 0.0000 0.5037 0.0000
# 4 0.0000 0.0000 0.0000 28.6435 0.0000 -10.0886
# 5 -5.5210 -13.7082 0.5037 0.0000 37.6789 0.0000
# 6 0.0000 0.0000 0.0000 -10.0886 0.0000 33.3611
#
#
#
# Elastic Compliance Matrix: (Units=1/GPa)
#
#
# Indices 1 2 3 4 5 6 
#
# 1 0.014526 -0.003870 -0.010603 0.000000 0.000862 0.000000
# 2 -0.003870 0.019476 -0.001806 0.000000 0.006543 0.000000
# 3 -0.010603 -0.001806 0.024565 0.000000 -0.002539 0.000000
# 4 0.000000 0.000000 0.000000 0.039074 0.000000 0.011816
# 5 0.000862 0.006543 -0.002539 0.000000 0.029081 0.000000
# 6 0.000000 0.000000 0.000000 0.011816 0.000000 0.033548
#
#
# Mechanical properties :
#
#
# Convention : Reuss Voigt Hill
#
# Bulk Modulus (GPa) = 38.44978 48.09606 43.27292
# Shear Modulus (GPa) = 24.81424 29.61971 27.21698
#
# Velocity S-wave (km/s) = 3.53480 3.86194 3.70199
# Velocity P-wave (km/s) = 6.00171 6.64109 6.32948
#
# Compressibility (1/GPa) = 0.02600795
#
# Stress axis : x y z
#
# Youngs Moduli (GPa) = 68.84032 51.34632 40.70900
#
# Poissons Ratio (x) = 0.19869 0.43165
# Poissons Ratio (y) = 0.26638 0.07353
# Poissons Ratio (z) = 0.72994 0.09275
#
# Static dielectric constant tensor:
#      x y z
#    x 4.237320 0.000000 -0.020920 
#    y 0.000000 3.906400 0.000000 
#    z -0.020920 0.000000 3.332500 
# 
# 
# High freq. dielectric constant tensor:
#      x y z
#    x 1.783670 0.000000 -0.013080 
#    y 0.000000 1.807790 0.000000 
#    z -0.013080 0.000000 1.715330 
# 
# From -- ./inp_files/12919.got.cif
#   From: 2010.03.12/outbox.cif.g09.slc.cpg/sg4_7_cif.got.tgz:12919.got - 2010.03.31 09:31:35.
