data_PCOD8045502
_publ_section_title
;
Structure prediction by ZEFSAII (Michael W. Deem and Ramdas Pophale) SiO2 
 PCOD8045502
Probable space group: P 2
;
_chemical_formula_sum "Si O2"
_cell_formula_units_Z 16
_cell_length_a 6.763343
_cell_length_b 6.707861
_cell_length_c 26.573095
_cell_angle_alpha 90.000000
_cell_angle_beta 40.742635
_cell_angle_gamma 90.000000
_cell_volume 786.821429
_symmetry_space_group_name_H-M "P 2"
_symmetry_group_IT_number 3
_symmetry_cell_setting 'monoclinic'
loop_
_space_group_symop_operation_xyz
x,y,z
-x,y,-z
loop_
_atom_site_type_symbol
_atom_site_label
_atom_site_fract_x
_atom_site_fract_y
_atom_site_fract_z
Si Si1 0.621268 0.074980 0.178888
Si Si2 0.878732 0.574980 0.321112
Si Si3 0.656812 0.339144 0.078349
Si Si4 0.387689 0.737051 0.155733
Si Si5 0.156812 0.839144 0.578349
Si Si6 0.202252 0.541924 0.415182
Si Si7 0.297748 0.041924 0.084818
Si Si8 0.887689 0.237051 0.655733
O O1 0.562765 0.247606 0.149856
O O2 0.403085 0.117641 0.267924
O O3 0.554226 0.858484 0.167951
O O4 0.961761 0.086290 0.131961
O O5 0.937235 0.747606 0.350144
O O6 0.538239 0.586289 0.368039
O O7 0.096915 0.617641 0.232076
O O8 0.945774 0.358484 0.332049
O O9 0.621523 0.577025 0.087824
O O10 0.443802 0.248417 0.076015
O O11 0.000000 0.280135 0.000000
O O12 0.283089 0.880476 0.131561
O O13 0.500000 0.780135 0.500000
O O14 0.943802 0.748417 0.576015
O O15 0.121523 0.077025 0.587824
O O16 0.216911 0.380476 0.368439
O O17 0.000000 0.457796 0.500000
O O18 0.500000 0.957796 0.000000
#
# Coordination Sequence:
#
# PCOD8045502 Si02
#       8
#     2   2   2   2   2   2   2   2
#     4  11  24  46  63  96 134 166 219 263 315 384
#     4  11  24  46  63  96 134 166 219 263 315 384
#     4  11  24  44  67  93 131 174 212 263 322 377
#     4  11  26  41  70  94 128 176 210 266 321 377
#     4  11  24  44  67  93 131 174 212 263 322 377
#     4  11  26  43  65  98 133 165 216 268 315 385
#     4  11  26  43  65  98 133 165 216 268 315 385
#     4  11  26  41  70  94 128 176 210 266 321 377
#
# _framework density 20.334983999999999
#
# number of rings (size 3 to 8) (size 9 to 14) (size 15 to 20)
#    0.000    1.000    5.000    0.000    7.000    3.000 
#    0.000    0.000    0.000    0.000    0.000    0.000 
#    0.000    0.000    0.000    0.000    0.000    0.000 
#
# Total GULP energy -198506.395147 kJ/mol
# GULP energy per Si atom -12406.649697 kJ/mol
# Density = 2.028870 g / cm^3
# Si number density = 20.334984 Si / 1000 Ang^3
#
#
#
# Elastic Constant Matrix: (Units=GPa)
#
#
# Indices 1 2 3 4 5 6 
#
# 1 136.5293 40.2910 47.0460 0.0000 -17.1072 0.0000
# 2 40.2910 110.9828 26.2528 0.0000 0.0418 0.0000
# 3 47.0460 26.2528 99.6949 0.0000 -1.9420 0.0000
# 4 0.0000 0.0000 0.0000 37.2361 0.0000 0.5683
# 5 -17.1072 0.0418 -1.9420 0.0000 39.8817 0.0000
# 6 0.0000 0.0000 0.0000 0.5683 0.0000 15.5615
#
#
#
# Elastic Compliance Matrix: (Units=1/GPa)
#
#
# Indices 1 2 3 4 5 6 
#
# 1 0.009985 -0.002699 -0.003922 0.000000 0.004095 0.000000
# 2 -0.002699 0.010339 -0.001473 0.000000 -0.001240 0.000000
# 3 -0.003922 -0.001473 0.012248 0.000000 -0.001084 0.000000
# 4 0.000000 0.000000 0.000000 0.026871 0.000000 -0.000981
# 5 0.004095 -0.001240 -0.001084 0.000000 0.026779 0.000000
# 6 0.000000 0.000000 0.000000 -0.000981 0.000000 0.064297
#
#
# Mechanical properties :
#
#
# Convention : Reuss Voigt Hill
#
# Bulk Modulus (GPa) = 61.03097 63.82074 62.42586
# Shear Modulus (GPa) = 29.04128 34.11032 31.57580
#
# Velocity S-wave (km/s) = 3.78318 4.10008 3.94481
# Velocity P-wave (km/s) = 7.01151 7.33941 7.17733
#
# Compressibility (1/GPa) = 0.01638512
#
# Stress axis : x y z
#
# Youngs Moduli (GPa) = 100.14647 96.71950 81.64586
#
# Poissons Ratio (x) = 0.26104 0.32018
# Poissons Ratio (y) = 0.27029 0.12028
# Poissons Ratio (z) = 0.39273 0.14248
#
# Static dielectric constant tensor:
#      x y z
#    x 3.674590 0.000000 0.137820 
#    y 0.000000 3.634670 0.000000 
#    z 0.137820 0.000000 3.761230 
# 
# 
# High freq. dielectric constant tensor:
#      x y z
#    x 1.798000 0.000000 0.002310 
#    y 0.000000 1.795020 0.000000 
#    z 0.002310 0.000000 1.810340 
# 
# From -- ./inp_files/16436.got.cif
#   From: 2010.03.12/outbox.cif.g09.slc.cpg/sg3_9_cif.got.tgz:16436.got - 2010.03.31 09:20:49.
