data_PCOD8045982
_publ_section_title
;
Structure prediction by ZEFSAII (Michael W. Deem and Ramdas Pophale) SiO2 
 PCOD8045982
Probable space group: P 21
;
_chemical_formula_sum "Si O2"
_cell_formula_units_Z 16
_cell_length_a 8.589350
_cell_length_b 13.281494
_cell_length_c 8.896143
_cell_angle_alpha 90.000000
_cell_angle_beta 129.224295
_cell_angle_gamma 90.000000
_cell_volume 786.193272
_symmetry_space_group_name_H-M "P 21"
_symmetry_group_IT_number 4
_symmetry_cell_setting 'monoclinic'
loop_
_space_group_symop_operation_xyz
x,y,z
-x,1/2+y,-z
loop_
_atom_site_type_symbol
_atom_site_label
_atom_site_fract_x
_atom_site_fract_y
_atom_site_fract_z
Si Si1 0.627904 0.934740 0.558323
Si Si2 0.958696 0.349012 0.564391
Si Si3 0.262409 0.964615 0.156042
Si Si4 0.925699 0.476471 0.267546
Si Si5 0.598673 0.091065 0.783308
Si Si6 0.842538 0.655559 0.411699
Si Si7 0.676728 0.276527 0.637409
Si Si8 0.963141 0.044552 0.202870
O O1 0.492451 0.990434 0.346493
O O2 0.860945 0.940384 0.665708
O O3 0.553170 0.818104 0.524184
O O4 0.574305 0.983858 0.686876
O O5 0.790850 0.283792 0.547923
O O6 0.854800 0.401837 0.356878
O O7 0.132028 0.273087 0.613237
O O8 0.055776 0.436449 0.726189
O O9 0.210697 0.850047 0.174733
O O10 0.109917 0.039139 0.148579
O O11 0.240383 0.974263 0.964402
O O12 0.940840 0.589642 0.338524
O O13 0.392596 0.132342 0.723450
O O14 0.684159 0.164516 0.705556
O O15 0.746351 0.080804 0.014685
O O16 0.951782 0.629867 0.634645
#
# Coordination Sequence:
#
# PCOD8045982 Si02
#       8
#     2   2   2   2   2   2   2   2
#     4  10  20  38  64  91 121 160 209 259 303 373
#     4  10  22  42  60  93 133 161 204 266 325 359
#     4   9  20  40  62  91 116 160 212 254 301 373
#     4  11  21  38  66  90 125 164 196 267 322 355
#     4  12  21  41  67  91 123 169 216 252 310 378
#     4  11  24  40  61  93 132 163 201 267 316 370
#     4   9  22  41  63  88 123 165 215 251 300 391
#     4  10  22  42  65  89 125 166 213 262 305 379
#
# _framework density 20.351230000000001
#
# number of rings (size 3 to 8) (size 9 to 14) (size 15 to 20)
#    0.750    1.000    2.500    2.250    1.750    2.000 
#    0.000    2.500    0.000    0.000    0.000    0.000 
#    0.000    0.000    0.000    0.000    0.000    0.000 
#
# Total GULP energy -198347.972185 kJ/mol
# GULP energy per Si atom -12396.748262 kJ/mol
# Density = 2.030491 g / cm^3
# Si number density = 20.351230 Si / 1000 Ang^3
#
#
#
# Elastic Constant Matrix: (Units=GPa)
#
#
# Indices 1 2 3 4 5 6 
#
# 1 70.3865 11.7989 26.2562 0.0000 -1.7942 0.0000
# 2 11.7989 69.6657 11.2895 0.0000 -5.7999 0.0000
# 3 26.2562 11.2895 118.9479 0.0000 3.5831 0.0000
# 4 0.0000 0.0000 0.0000 17.0547 0.0000 -0.7186
# 5 -1.7942 -5.7999 3.5831 0.0000 33.9509 0.0000
# 6 0.0000 0.0000 0.0000 -0.7186 0.0000 34.7929
#
#
#
# Elastic Compliance Matrix: (Units=1/GPa)
#
#
# Indices 1 2 3 4 5 6 
#
# 1 0.015814 -0.002071 -0.003319 0.000000 0.000832 0.000000
# 2 -0.002071 0.015090 -0.001053 0.000000 0.002580 0.000000
# 3 -0.003319 -0.001053 0.009280 0.000000 -0.001335 0.000000
# 4 0.000000 0.000000 0.000000 0.058686 0.000000 0.001212
# 5 0.000832 0.002580 -0.001335 0.000000 0.030080 0.000000
# 6 0.000000 0.000000 0.000000 0.001212 0.000000 0.028767
#
#
# Mechanical properties :
#
#
# Convention : Reuss Voigt Hill
#
# Bulk Modulus (GPa) = 36.63292 39.74326 38.18809
# Shear Modulus (GPa) = 27.82383 31.13670 29.48027
#
# Velocity S-wave (km/s) = 3.70155 3.91572 3.81014
# Velocity P-wave (km/s) = 6.02562 6.32573 6.17750
#
# Compressibility (1/GPa) = 0.02729785
#
# Stress axis : x y z
#
# Youngs Moduli (GPa) = 63.23578 66.26725 107.76047
#
# Poissons Ratio (x) = 0.13725 0.35768
# Poissons Ratio (y) = 0.13097 0.11345
# Poissons Ratio (z) = 0.20989 0.06976
#
# Static dielectric constant tensor:
#      x y z
#    x 3.575720 0.000000 -0.137780 
#    y 0.000000 3.611920 0.000000 
#    z -0.137780 0.000000 3.576660 
# 
# 
# High freq. dielectric constant tensor:
#      x y z
#    x 1.793860 0.000000 -0.008920 
#    y 0.000000 1.786430 0.000000 
#    z -0.008920 0.000000 1.785690 
# 
# From -- ./inp_files/6469.got.cif
#   From: 2010.03.12/outbox.cif.g09.slc.cpg/sg4_4_cif.got.tgz:6469.got - 2010.03.31 09:31:35.
