data_PCOD8045425
_publ_section_title
;
Structure prediction by ZEFSAII (Michael W. Deem and Ramdas Pophale) SiO2 
 PCOD8045425
Probable space group: P 2
;
_chemical_formula_sum "Si O2"
_cell_formula_units_Z 14
_cell_length_a 22.144119
_cell_length_b 5.020488
_cell_length_c 15.701401
_cell_angle_alpha 90.000000
_cell_angle_beta 161.066846
_cell_angle_gamma 90.000000
_cell_volume 566.383185
_symmetry_space_group_name_H-M "P 2"
_symmetry_group_IT_number 3
_symmetry_cell_setting 'monoclinic'
loop_
_space_group_symop_operation_xyz
x,y,z
-x,y,-z
loop_
_atom_site_type_symbol
_atom_site_label
_atom_site_fract_x
_atom_site_fract_y
_atom_site_fract_z
Si Si1 0.616690 0.564050 0.083458
Si Si2 0.707924 0.427425 0.752134
Si Si3 0.795170 0.922825 0.759757
Si Si4 0.192813 0.224891 0.783921
Si Si5 0.431773 0.889767 0.710927
Si Si6 0.058801 0.451364 0.772934
Si Si7 0.183653 0.961254 0.534800
O O1 0.790696 0.405974 0.279076
O O2 0.676874 0.846501 0.206816
O O3 0.500000 0.399861 0.000000
O O4 0.480252 0.608209 0.820272
O O5 0.500000 0.510795 0.500000
O O6 0.808686 0.672716 0.840277
O O7 0.706572 0.174085 0.688730
O O8 0.818681 0.352940 0.984671
O O9 0.657134 0.843894 0.499212
O O10 0.000000 0.996765 0.000000
O O11 0.180118 0.419683 0.848969
O O12 0.000000 0.068057 0.500000
O O13 0.371308 0.040654 0.034545
O O14 0.279819 0.016902 0.571693
O O15 0.989761 0.752453 0.698615
O O16 0.884085 0.253204 0.530160
#
# Coordination Sequence:
#
# PCOD8045425 Si02
#       7
#     2   2   2   2   2   2   2
#     4  10  25  45  71 108 149 196 243 306 373 455
#     4  12  27  48  73 109 153 198 247 317 383 444
#     4  12  27  50  78 113 147 197 264 317 369 442
#     4  12  26  44  76 112 152 195 255 304 377 456
#     4  11  27  44  78 104 152 198 254 307 379 443
#     4  12  26  47  77 105 151 195 251 305 381 443
#     4  11  26  49  74 109 147 197 245 306 376 453
#
# _framework density 24.718246000000001
#
# number of rings (size 3 to 8) (size 9 to 14) (size 15 to 20)
#    0.000    0.571    1.429    5.143   10.000    1.143 
#    0.000    0.000    0.000    0.000    0.000    0.000 
#    0.000    0.000    0.000    0.000    0.000    0.000 
#
# Total GULP energy -173555.042080 kJ/mol
# GULP energy per Si atom -12396.788720 kJ/mol
# Density = 2.466199 g / cm^3
# Si number density = 24.718246 Si / 1000 Ang^3
#
#
#
# Elastic Constant Matrix: (Units=GPa)
#
#
# Indices 1 2 3 4 5 6 
#
# 1 159.1722 29.3366 64.2767 0.0000 10.9099 0.0000
# 2 29.3366 61.6960 0.5048 0.0000 7.6332 0.0000
# 3 64.2767 0.5048 116.6934 0.0000 -1.6954 0.0000
# 4 0.0000 0.0000 0.0000 32.9300 0.0000 4.9957
# 5 10.9099 7.6332 -1.6954 0.0000 39.5862 0.0000
# 6 0.0000 0.0000 0.0000 4.9957 0.0000 30.7801
#
#
#
# Elastic Compliance Matrix: (Units=1/GPa)
#
#
# Indices 1 2 3 4 5 6 
#
# 1 0.009232 -0.004104 -0.005096 0.000000 -0.001971 0.000000
# 2 -0.004104 0.018431 0.002147 0.000000 -0.002331 0.000000
# 3 -0.005096 0.002147 0.011389 0.000000 0.001478 0.000000
# 4 0.000000 0.000000 0.000000 0.031134 0.000000 -0.005053
# 5 -0.001971 -0.002331 0.001478 0.000000 0.026317 0.000000
# 6 0.000000 0.000000 0.000000 -0.005053 0.000000 0.033309
#
#
# Mechanical properties :
#
#
# Convention : Reuss Voigt Hill
#
# Bulk Modulus (GPa) = 40.08794 58.42200 49.25497
# Shear Modulus (GPa) = 32.84446 36.88883 34.86664
#
# Velocity S-wave (km/s) = 3.64916 3.86731 3.75982
# Velocity P-wave (km/s) = 5.83167 6.60515 6.23042
#
# Compressibility (1/GPa) = 0.02494516
#
# Stress axis : x y z
#
# Youngs Moduli (GPa) = 108.32014 54.25673 87.80715
#
# Poissons Ratio (x) = 0.22268 0.44746
# Poissons Ratio (y) = 0.44457 -0.18853
# Poissons Ratio (z) = 0.55200 -0.11649
#
# Static dielectric constant tensor:
#      x y z
#    x 4.987790 0.000000 0.145040 
#    y 0.000000 4.142670 0.000000 
#    z 0.145040 0.000000 4.520980 
# 
# 
# High freq. dielectric constant tensor:
#      x y z
#    x 2.013970 0.000000 0.002870 
#    y 0.000000 1.966130 0.000000 
#    z 0.002870 0.000000 1.995750 
# 
# From -- ./inp_files/14306.got.cif
#   From: 2010.03.12/outbox.cif.g09.slc.cpg/sg3_8_cif.got.tgz:14306.got - 2010.03.31 09:20:49.
