data_PCOD8045487
_publ_section_title
;
Structure prediction by ZEFSAII (Michael W. Deem and Ramdas Pophale) SiO2 
 PCOD8045487
Probable space group: P 2
;
_chemical_formula_sum "Si O2"
_cell_formula_units_Z 11
_cell_length_a 11.365322
_cell_length_b 8.623206
_cell_length_c 11.113448
_cell_angle_alpha 90.000000
_cell_angle_beta 154.579136
_cell_angle_gamma 90.000000
_cell_volume 467.545463
_symmetry_space_group_name_H-M "P 2"
_symmetry_group_IT_number 3
_symmetry_cell_setting 'monoclinic'
loop_
_space_group_symop_operation_xyz
x,y,z
-x,y,-z
loop_
_atom_site_type_symbol
_atom_site_label
_atom_site_fract_x
_atom_site_fract_y
_atom_site_fract_z
Si Si1 0.821149 0.530570 0.479530
Si Si2 0.235697 0.450062 0.313816
Si Si3 0.114455 0.046121 0.829318
Si Si4 0.441976 0.115531 0.575823
Si Si5 0.327267 0.727364 0.948957
Si Si6 0.000000 0.248689 0.500000
O O1 0.890880 0.529741 0.685799
O O2 0.526389 0.610957 0.203055
O O3 0.801033 0.361581 0.395223
O O4 0.077199 0.627549 0.661980
O O5 0.500000 0.538738 0.500000
O O6 0.341696 0.286189 0.457107
O O7 0.000000 0.432199 0.000000
O O8 0.794164 0.028816 0.566756
O O9 0.155126 0.137331 0.739692
O O10 0.282412 0.130640 0.090115
O O11 0.223052 0.870694 0.930037
O O12 0.500000 0.031765 0.500000
O O13 0.500000 0.801141 0.000000
#
# Coordination Sequence:
#
# PCOD8045487 Si02
#       6
#     2   2   2   2   2   1
#     4  12  26  47  72 107 142 189 241 295 359 432
#     4  11  23  43  73 105 141 183 241 306 355 412
#     4  12  28  45  73 109 144 188 241 300 360 435
#     4  11  24  45  73 104 143 184 243 306 359 415
#     4  12  27  47  68 102 155 190 224 290 382 432
#     4  12  28  44  80 110 146 182 260 300 346 434
#
# _framework density 23.527124000000001
#
# number of rings (size 3 to 8) (size 9 to 14) (size 15 to 20)
#    0.000    0.364    3.636    4.909    7.636    1.455 
#    0.000    9.091    0.000    0.000    0.000    0.000 
#    0.000    0.000    0.000    0.000    0.000    0.000 
#
# Total GULP energy -136360.854786 kJ/mol
# GULP energy per Si atom -12396.441344 kJ/mol
# Density = 2.347358 g / cm^3
# Si number density = 23.527124 Si / 1000 Ang^3
#
#
#
# Elastic Constant Matrix: (Units=GPa)
#
#
# Indices 1 2 3 4 5 6 
#
# 1 133.6878 25.8084 45.4254 0.0000 -13.3042 0.0000
# 2 25.8084 95.7256 43.1065 0.0000 -6.4767 0.0000
# 3 45.4254 43.1065 138.3507 0.0000 -20.9495 0.0000
# 4 0.0000 0.0000 0.0000 27.5532 0.0000 6.3323
# 5 -13.3042 -6.4767 -20.9495 0.0000 57.0787 0.0000
# 6 0.0000 0.0000 0.0000 6.3323 0.0000 17.4786
#
#
#
# Elastic Compliance Matrix: (Units=1/GPa)
#
#
# Indices 1 2 3 4 5 6 
#
# 1 0.008594 -0.001218 -0.002287 0.000000 0.001026 0.000000
# 2 -0.001218 0.012324 -0.003464 0.000000 -0.000157 0.000000
# 3 -0.002287 -0.003464 0.009443 0.000000 0.002540 0.000000
# 4 0.000000 0.000000 0.000000 0.039590 0.000000 -0.014343
# 5 0.001026 -0.000157 0.002540 0.000000 0.018673 0.000000
# 6 0.000000 0.000000 0.000000 -0.014343 0.000000 0.062409
#
#
# Mechanical properties :
#
#
# Convention : Reuss Voigt Hill
#
# Bulk Modulus (GPa) = 60.88710 66.27164 63.57937
# Shear Modulus (GPa) = 29.33496 37.31700 33.32598
#
# Velocity S-wave (km/s) = 3.53492 3.98694 3.76771
# Velocity P-wave (km/s) = 6.52660 7.03019 6.78307
#
# Compressibility (1/GPa) = 0.01642384
#
# Stress axis : x y z
#
# Youngs Moduli (GPa) = 116.35468 81.14235 105.90178
#
# Poissons Ratio (x) = 0.09882 0.24221
# Poissons Ratio (y) = 0.14170 0.36682
# Poissons Ratio (z) = 0.26612 0.28106
#
# Static dielectric constant tensor:
#      x y z
#    x 5.494210 0.000000 0.144440 
#    y 0.000000 3.903500 0.000000 
#    z 0.144440 0.000000 4.336480 
# 
# 
# High freq. dielectric constant tensor:
#      x y z
#    x 1.955780 0.000000 -0.004210 
#    y 0.000000 1.905380 0.000000 
#    z -0.004210 0.000000 1.941670 
# 
# From -- ./inp_files/11643.got.cif
#   From: 2010.03.12/outbox.cif.g09.slc.cpg/sg3_6_cif.got.tgz:11643.got - 2010.03.31 09:20:49.
