data_PCOD8045804
_publ_section_title
;
Structure prediction by ZEFSAII (Michael W. Deem and Ramdas Pophale) SiO2 
 PCOD8045804
Probable space group: P 21
;
_chemical_formula_sum "Si O2"
_cell_formula_units_Z 16
_cell_length_a 13.293672
_cell_length_b 9.379249
_cell_length_c 16.759529
_cell_angle_alpha 90.000000
_cell_angle_beta 24.875335
_cell_angle_gamma 90.000000
_cell_volume 879.004058
_symmetry_space_group_name_H-M "P 21"
_symmetry_group_IT_number 4
_symmetry_cell_setting 'monoclinic'
loop_
_space_group_symop_operation_xyz
x,y,z
-x,1/2+y,-z
loop_
_atom_site_type_symbol
_atom_site_label
_atom_site_fract_x
_atom_site_fract_y
_atom_site_fract_z
Si Si1 0.811371 0.003330 0.805210
Si Si2 0.363344 0.700005 0.362665
Si Si3 0.501158 0.006584 0.876546
Si Si4 0.626859 0.194463 0.067867
Si Si5 0.320273 0.019603 0.388808
Si Si6 0.093858 0.241943 0.007681
Si Si7 0.071278 0.205790 0.206645
Si Si8 0.180688 0.560380 0.923035
O O1 0.688779 0.966421 0.809804
O O2 0.674490 0.131598 0.946450
O O3 0.074900 0.067092 0.604301
O O4 0.823481 0.861088 0.849143
O O5 0.352706 0.588906 0.297579
O O6 0.630700 0.698034 0.206719
O O7 0.165197 0.663327 0.572774
O O8 0.306058 0.856160 0.368198
O O9 0.283354 0.094987 0.071455
O O10 0.389407 0.863765 0.920240
O O11 0.373354 0.124798 0.276667
O O12 0.834585 0.145296 0.981099
O O13 0.536232 0.032724 0.298413
O O14 0.046604 0.409110 0.026376
O O15 0.010248 0.202688 0.156976
O O16 0.928738 0.152924 0.067953
#
# Coordination Sequence:
#
# PCOD8045804 Si02
#       8
#     2   2   2   2   2   2   2   2
#     4  11  20  39  61  81 115 164 195 236 293 350
#     4   9  20  40  57  82 118 154 192 238 284 352
#     4  11  23  33  60  89 118 153 197 241 291 343
#     4  10  21  39  54  85 124 147 189 252 285 341
#     4   8  20  38  58  78 117 150 190 238 287 345
#     4  10  19  38  62  86 113 156 192 234 301 345
#     4  10  21  41  59  85 120 154 198 239 291 353
#     4   9  20  38  61  84 117 152 187 244 292 341
#
# _framework density 18.202418000000002
#
# number of rings (size 3 to 8) (size 9 to 14) (size 15 to 20)
#    0.750    1.500    1.250    1.500    3.500    4.000 
#    2.250    0.000    0.000    0.000    0.000    0.000 
#    0.000    0.000    0.000    0.000    0.000    0.000 
#
# Total GULP energy -198317.448384 kJ/mol
# GULP energy per Si atom -12394.840524 kJ/mol
# Density = 1.816099 g / cm^3
# Si number density = 18.202418 Si / 1000 Ang^3
#
#
#
# Elastic Constant Matrix: (Units=GPa)
#
#
# Indices 1 2 3 4 5 6 
#
# 1 101.2073 31.3465 25.8219 0.0000 3.3030 0.0000
# 2 31.3465 88.6043 45.3413 0.0000 5.6509 0.0000
# 3 25.8219 45.3413 119.3899 0.0000 9.7285 0.0000
# 4 0.0000 0.0000 0.0000 7.1168 0.0000 -3.0506
# 5 3.3030 5.6509 9.7285 0.0000 19.3062 0.0000
# 6 0.0000 0.0000 0.0000 -3.0506 0.0000 31.1357
#
#
#
# Elastic Compliance Matrix: (Units=1/GPa)
#
#
# Indices 1 2 3 4 5 6 
#
# 1 0.011223 -0.003376 -0.001115 0.000000 -0.000370 0.000000
# 2 -0.003376 0.015065 -0.004879 0.000000 -0.001373 0.000000
# 3 -0.001115 -0.004879 0.010781 0.000000 -0.003814 0.000000
# 4 0.000000 0.000000 0.000000 0.146673 0.000000 0.014371
# 5 -0.000370 -0.001373 -0.003814 0.000000 0.054184 0.000000
# 6 0.000000 0.000000 0.000000 0.014371 0.000000 0.033526
#
#
# Mechanical properties :
#
#
# Convention : Reuss Voigt Hill
#
# Bulk Modulus (GPa) = 54.56161 57.13568 55.84864
# Shear Modulus (GPa) = 16.87472 25.29118 21.08295
#
# Velocity S-wave (km/s) = 3.04807 3.73156 3.40700
# Velocity P-wave (km/s) = 6.51365 7.07272 6.79893
#
# Compressibility (1/GPa) = 0.01832791
#
# Stress axis : x y z
#
# Youngs Moduli (GPa) = 89.10280 66.37896 92.75745
#
# Poissons Ratio (x) = 0.22412 0.10342
# Poissons Ratio (y) = 0.30084 0.45258
# Poissons Ratio (z) = 0.09934 0.32387
#
# Static dielectric constant tensor:
#      x y z
#    x 3.111020 0.000000 -0.003460 
#    y 0.000000 3.324320 0.000000 
#    z -0.003460 0.000000 3.352780 
# 
# 
# High freq. dielectric constant tensor:
#      x y z
#    x 1.692030 0.000000 0.000870 
#    y 0.000000 1.711150 0.000000 
#    z 0.000870 0.000000 1.699460 
# 
# From -- ./inp_files/13939.got.cif
#   From: 2010.03.12/outbox.cif.g09.slc.cpg/sg4_7_cif.got.tgz:13939.got - 2010.03.31 09:31:35.
