data_PCOD8045855
_publ_section_title
;
Structure prediction by ZEFSAII (Michael W. Deem and Ramdas Pophale) SiO2 
 PCOD8045855
Probable space group: P 21
;
_chemical_formula_sum "Si O2"
_cell_formula_units_Z 14
_cell_length_a 12.635092
_cell_length_b 5.178239
_cell_length_c 22.627282
_cell_angle_alpha 90.000000
_cell_angle_beta 30.660131
_cell_angle_gamma 90.000000
_cell_volume 754.945804
_symmetry_space_group_name_H-M "P 21"
_symmetry_group_IT_number 4
_symmetry_cell_setting 'monoclinic'
loop_
_space_group_symop_operation_xyz
x,y,z
-x,1/2+y,-z
loop_
_atom_site_type_symbol
_atom_site_label
_atom_site_fract_x
_atom_site_fract_y
_atom_site_fract_z
Si Si1 0.380663 0.768740 0.987318
Si Si2 0.773037 0.773183 0.882189
Si Si3 0.302125 0.330535 0.393983
Si Si4 0.407500 0.290383 0.471822
Si Si5 0.154195 0.650344 0.367582
Si Si6 0.770372 0.286028 0.385894
Si Si7 0.369805 0.160056 0.241003
O O1 0.600166 0.757923 0.914866
O O2 0.427095 0.716727 0.895844
O O3 0.233950 0.538846 0.078886
O O4 0.259139 0.035902 0.056673
O O5 0.991610 0.771655 0.745356
O O6 0.442171 0.336877 0.385152
O O7 0.241995 0.609694 0.393217
O O8 0.428125 0.170854 0.282986
O O9 0.089977 0.185903 0.512794
O O10 0.634622 0.295789 0.391401
O O11 0.268989 0.524606 0.560436
O O12 0.284894 0.027662 0.545729
O O13 0.200313 0.386452 0.309061
O O14 0.268177 0.881191 0.277477
#
# Coordination Sequence:
#
# PCOD8045855 Si02
#       7
#     2   2   2   2   2   2   2
#     4  10  21  35  54  83 101 150 182 226 274 333
#     4  10  21  36  56  75 112 139 191 226 277 307
#     4  10  21  33  52  81 114 141 179 216 278 333
#     4  10  23  35  60  81 114 143 192 212 285 331
#     4  10  20  30  48  79 111 144 168 211 275 335
#     4  10  22  40  54  85 107 151 183 236 262 328
#     4  10  20  33  50  76 113 136 177 217 273 327
#
# _framework density 18.544377999999998
#
# number of rings (size 3 to 8) (size 9 to 14) (size 15 to 20)
#    0.857    1.143    1.429    1.714    6.000    0.000 
#    0.000    0.000    0.000    1.714    0.000    0.000 
#    0.000    0.000    0.000    0.000    0.000    0.000 
#
# Total GULP energy -173491.216090 kJ/mol
# GULP energy per Si atom -12392.229721 kJ/mol
# Density = 1.850217 g / cm^3
# Si number density = 18.544378 Si / 1000 Ang^3
#
#
#
# Elastic Constant Matrix: (Units=GPa)
#
#
# Indices 1 2 3 4 5 6 
#
# 1 794.7238 2561.2621 1296.3863 0.0000 476.8405 0.0000
# 2 2561.2621 8855.5316 4432.0708 0.0000 1583.5818 0.0000
# 3 1296.3863 4432.0708 2292.4113 0.0000 807.1283 0.0000
# 4 0.0000 0.0000 0.0000 -148.5607 0.0000 125.5686
# 5 476.8405 1583.5818 807.1283 0.0000 308.1062 0.0000
# 6 0.0000 0.0000 0.0000 125.5686 0.0000 -70.8536
#
#
#
# Elastic Compliance Matrix: (Units=1/GPa)
#
#
# Indices 1 2 3 4 5 6 
#
# 1 0.025297 -0.003365 -0.001350 0.000000 -0.018318 0.000000
# 2 -0.003365 0.004230 -0.005847 0.000000 -0.001216 0.000000
# 3 -0.001350 -0.005847 0.015291 0.000000 -0.007918 0.000000
# 4 0.000000 0.000000 0.000000 0.013518 0.000000 0.023957
# 5 -0.018318 -0.001216 -0.007918 0.000000 0.058586 0.000000
# 6 0.000000 0.000000 0.000000 0.023957 0.000000 0.028344
#
#
# Mechanical properties :
#
#
# Convention : Reuss Voigt Hill
#
# Bulk Modulus (GPa) = 42.20475 3169.12279 1605.66377
# Shear Modulus (GPa) = 28.68820 261.26820 144.97820
#
# Velocity S-wave (km/s) = 3.93746 11.88251 8.85148
# Velocity P-wave (km/s) = 6.59391 43.59941 31.18003
#
# Compressibility (1/GPa) = 0.02369401
#
# Stress axis : x y z
#
# Youngs Moduli (GPa) = 39.53045 236.41820 65.39718
#
# Poissons Ratio (x) = 0.79557 0.08830
# Poissons Ratio (y) = 0.13302 0.38235
# Poissons Ratio (z) = 0.05337 1.38225
#
# Static dielectric constant tensor:
#      x y z
#    x 4.560640 0.000000 0.473010 
#    y 0.000000 -8.023430 0.000000 
#    z 0.473010 0.000000 3.248790 
# 
# 
# High freq. dielectric constant tensor:
#      x y z
#    x 1.685190 0.000000 0.025410 
#    y 0.000000 1.739730 0.000000 
#    z 0.025410 0.000000 1.705710 
# 
# From -- ./inp_files/12989.got.cif
#   From: 2010.03.12/outbox.cif.g09.slc.cpg/sg4_7_cif.got.tgz:12989.got - 2010.03.31 09:31:35.
