data_PCOD8045630
_publ_section_title
;
Structure prediction by ZEFSAII (Michael W. Deem and Ramdas Pophale) SiO2 
 PCOD8045630
Probable space group: P 21
;
_chemical_formula_sum "Si O2"
_cell_formula_units_Z 14
_cell_length_a 9.378583
_cell_length_b 5.316743
_cell_length_c 13.542698
_cell_angle_alpha 90.000000
_cell_angle_beta 99.039096
_cell_angle_gamma 90.000000
_cell_volume 666.900396
_symmetry_space_group_name_H-M "P 21"
_symmetry_group_IT_number 4
_symmetry_cell_setting 'monoclinic'
loop_
_space_group_symop_operation_xyz
x,y,z
-x,1/2+y,-z
loop_
_atom_site_type_symbol
_atom_site_label
_atom_site_fract_x
_atom_site_fract_y
_atom_site_fract_z
Si Si1 0.999250 0.657220 0.722538
Si Si2 0.042774 0.170871 0.062077
Si Si3 0.625866 0.658496 0.916814
Si Si4 0.945206 0.157091 0.628961
Si Si5 0.545427 0.658604 0.130561
Si Si6 0.713113 0.657260 0.345346
Si Si7 0.758345 0.157365 0.413047
O O1 0.040223 0.659318 0.842517
O O2 0.905842 0.407202 0.686893
O O3 0.148087 0.656620 0.678028
O O4 0.905147 0.906002 0.685990
O O5 0.211706 0.153610 0.103618
O O6 0.008099 0.436184 0.008120
O O7 0.551500 0.910139 0.867555
O O8 0.549233 0.409429 0.866968
O O9 0.627387 0.657889 0.035577
O O10 0.860386 0.158398 0.517947
O O11 0.114238 0.156455 0.622940
O O12 0.668151 0.657200 0.226727
O O13 0.657413 0.406662 0.396468
O O14 0.657712 0.907650 0.396771
#
# Coordination Sequence:
#
# PCOD8045630 Si02
#       7
#     2   2   2   2   2   2   2
#     4  10  20  33  52  78 112 154 175 219 299 335
#     4  12  26  39  59  86 118 157 192 236 288 356
#     4  10  23  40  55  80 115 148 206 235 280 328
#     4  10  19  34  53  87 117 142 184 240 296 339
#     4  10  21  38  59  79 109 160 192 248 272 324
#     4  10  18  29  54  82 111 142 182 230 292 335
#     4  10  19  31  54  88 118 139 183 242 297 335
#
# _framework density 20.992640000000002
#
# number of rings (size 3 to 8) (size 9 to 14) (size 15 to 20)
#    0.000    1.714    0.000    6.857    8.000    0.000 
#    0.000    0.000    0.000    0.000    0.000   34.000 
#    0.000    0.000    0.000    0.000    0.000    0.000 
#
# Total GULP energy -173547.085218 kJ/mol
# GULP energy per Si atom -12396.220373 kJ/mol
# Density = 2.094486 g / cm^3
# Si number density = 20.992640 Si / 1000 Ang^3
#
#
#
# Elastic Constant Matrix: (Units=GPa)
#
#
# Indices 1 2 3 4 5 6 
#
# 1 21.2620 7.7591 1.0654 0.0000 1.7843 0.0000
# 2 7.7591 219.6708 39.1352 0.0000 13.0688 0.0000
# 3 1.0654 39.1352 99.5352 0.0000 15.2356 0.0000
# 4 0.0000 0.0000 0.0000 37.5430 0.0000 11.2477
# 5 1.7843 13.0688 15.2356 0.0000 26.6597 0.0000
# 6 0.0000 0.0000 0.0000 11.2477 0.0000 15.2565
#
#
#
# Elastic Compliance Matrix: (Units=1/GPa)
#
#
# Indices 1 2 3 4 5 6 
#
# 1 0.047826 -0.001624 0.000542 0.000000 -0.002715 0.000000
# 2 -0.001624 0.005000 -0.001742 0.000000 -0.001347 0.000000
# 3 0.000542 -0.001742 0.011617 0.000000 -0.005821 0.000000
# 4 0.000000 0.000000 0.000000 0.034187 0.000000 -0.025204
# 5 -0.002715 -0.001347 -0.005821 0.000000 0.041678 0.000000
# 6 0.000000 0.000000 0.000000 -0.025204 0.000000 0.084128
#
#
# Mechanical properties :
#
#
# Convention : Reuss Voigt Hill
#
# Bulk Modulus (GPa) = 17.00864 48.48750 32.74807
# Shear Modulus (GPa) = 20.02538 35.39238 27.70888
#
# Velocity S-wave (km/s) = 3.09192 4.11048 3.63703
# Velocity P-wave (km/s) = 4.56797 6.75837 5.76810
#
# Compressibility (1/GPa) = 0.05879366
#
# Stress axis : x y z
#
# Youngs Moduli (GPa) = 20.90929 199.99271 86.08071
#
# Poissons Ratio (x) = 0.32486 -0.04668
# Poissons Ratio (y) = 0.03396 0.14999
# Poissons Ratio (z) = -0.01134 0.34848
#
# Static dielectric constant tensor:
#      x y z
#    x 3.185550 0.000000 0.107900 
#    y 0.000000 6.007450 0.000000 
#    z 0.107900 0.000000 3.690070 
# 
# 
# High freq. dielectric constant tensor:
#      x y z
#    x 1.753340 0.000000 0.022980 
#    y 0.000000 1.870890 0.000000 
#    z 0.022980 0.000000 1.824540 
# 
# From -- ./inp_files/9539.got.cif
#   From: 2010.03.12/outbox.cif.g09.slc.cpg/sg4_5_cif.got.tgz:9539.got - 2010.03.31 09:31:35.
