data_PCOD8045240
_publ_section_title
;
Structure prediction by ZEFSAII (Michael W. Deem and Ramdas Pophale) SiO2 
 PCOD8045240
Probable space group: P 2
;
_chemical_formula_sum "Si O2"
_cell_formula_units_Z 14
_cell_length_a 13.086008
_cell_length_b 5.540886
_cell_length_c 12.871498
_cell_angle_alpha 90.000000
_cell_angle_beta 134.392453
_cell_angle_gamma 90.000000
_cell_volume 666.894489
_symmetry_space_group_name_H-M "P 2"
_symmetry_group_IT_number 3
_symmetry_cell_setting 'monoclinic'
loop_
_space_group_symop_operation_xyz
x,y,z
-x,y,-z
loop_
_atom_site_type_symbol
_atom_site_label
_atom_site_fract_x
_atom_site_fract_y
_atom_site_fract_z
Si Si1 0.517434 0.373030 0.711258
Si Si2 0.000000 0.408982 0.000000
Si Si3 0.797267 0.408000 0.493475
Si Si4 0.378290 0.883203 0.281008
Si Si5 0.000000 0.710396 0.500000
Si Si6 0.025406 0.012924 0.710937
Si Si7 0.222871 0.162912 0.014506
Si Si8 0.162295 0.712122 0.279171
O O1 0.363351 0.347113 0.657844
O O2 0.531585 0.633376 0.663453
O O3 0.645646 0.354963 0.887992
O O4 0.529725 0.133942 0.645217
O O5 0.914039 0.245210 0.018078
O O6 0.885896 0.562145 0.854842
O O7 0.870207 0.556850 0.453418
O O8 0.775256 0.547729 0.585374
O O9 0.894151 0.177076 0.582599
O O10 0.288287 0.882067 0.324660
O O11 0.277106 0.911709 0.105994
O O12 0.927853 0.864112 0.356794
O O13 0.168740 0.141753 0.856362
O O14 0.972885 0.852795 0.770371
#
# Coordination Sequence:
#
# PCOD8045240 Si02
#       8
#     2   1   2   2   1   2   2   2
#     4  10  25  42  66  97 148 182 221 280 345 422
#     4  12  18  40  58 108 142 190 222 276 330 418
#     4  11  25  46  66 101 134 183 234 299 352 413
#     4  10  22  42  60 101 146 190 218 264 338 420
#     4  10  26  44  76  92 132 168 248 312 356 400
#     4  11  23  42  69 102 124 185 236 295 348 402
#     4  10  22  37  68  97 144 180 226 279 335 418
#     4  11  22  35  65  97 147 183 234 267 335 419
#
# _framework density 20.992826999999998
#
# number of rings (size 3 to 8) (size 9 to 14) (size 15 to 20)
#    0.857    0.571    2.857    2.143    6.000    0.571 
#    0.000    0.000    0.000   12.857    0.000    0.000 
#    0.000    0.000    0.000    0.000    0.000    0.000 
#
# Total GULP energy -173465.327761 kJ/mol
# GULP energy per Si atom -12390.380554 kJ/mol
# Density = 2.094505 g / cm^3
# Si number density = 20.992827 Si / 1000 Ang^3
#
#
#
# Elastic Constant Matrix: (Units=GPa)
#
#
# Indices 1 2 3 4 5 6 
#
# 1 107.4119 32.9946 50.6725 0.0000 -4.1933 0.0000
# 2 32.9946 107.2102 21.1362 0.0000 -2.1465 0.0000
# 3 50.6725 21.1362 82.8172 0.0000 6.8021 0.0000
# 4 0.0000 0.0000 0.0000 24.4912 0.0000 -4.6344
# 5 -4.1933 -2.1465 6.8021 0.0000 30.1878 0.0000
# 6 0.0000 0.0000 0.0000 -4.6344 0.0000 8.8696
#
#
#
# Elastic Compliance Matrix: (Units=1/GPa)
#
#
# Indices 1 2 3 4 5 6 
#
# 1 0.014184 -0.002656 -0.008301 0.000000 0.003652 0.000000
# 2 -0.002656 0.010368 -0.001071 0.000000 0.000610 0.000000
# 3 -0.008301 -0.001071 0.017859 0.000000 -0.005253 0.000000
# 4 0.000000 0.000000 0.000000 0.045311 0.000000 0.023675
# 5 0.003652 0.000610 -0.005253 0.000000 0.034860 0.000000
# 6 0.000000 0.000000 0.000000 0.023675 0.000000 0.125115
#
#
# Mechanical properties :
#
#
# Convention : Reuss Voigt Hill
#
# Bulk Modulus (GPa) = 54.48020 56.33843 55.40931
# Shear Modulus (GPa) = 17.99388 25.55212 21.77300
#
# Velocity S-wave (km/s) = 2.93088 3.49260 3.22400
# Velocity P-wave (km/s) = 6.12058 6.56960 6.34906
#
# Compressibility (1/GPa) = 0.01835529
#
# Stress axis : x y z
#
# Youngs Moduli (GPa) = 70.50009 96.44891 55.99496
#
# Poissons Ratio (x) = 0.25614 0.46482
# Poissons Ratio (y) = 0.18723 0.05999
# Poissons Ratio (z) = 0.58522 0.10333
#
# Static dielectric constant tensor:
#      x y z
#    x 3.559990 0.000000 0.101200 
#    y 0.000000 3.902470 0.000000 
#    z 0.101200 0.000000 3.844210 
# 
# 
# High freq. dielectric constant tensor:
#      x y z
#    x 1.798320 0.000000 0.011480 
#    y 0.000000 1.828740 0.000000 
#    z 0.011480 0.000000 1.818480 
# 
# From -- ./inp_files/13631.got.cif
#   From: 2010.03.12/outbox.cif.g09.slc.cpg/sg3_7_cif.got.tgz:13631.got - 2010.03.31 09:20:49.
