data_PCOD8045979
_publ_section_title
;
Structure prediction by ZEFSAII (Michael W. Deem and Ramdas Pophale) SiO2 
 PCOD8045979
Probable space group: P 21
;
_chemical_formula_sum "Si O2"
_cell_formula_units_Z 16
_cell_length_a 9.076775
_cell_length_b 11.440486
_cell_length_c 8.492702
_cell_angle_alpha 90.000000
_cell_angle_beta 67.405677
_cell_angle_gamma 90.000000
_cell_volume 814.217516
_symmetry_space_group_name_H-M "P 21"
_symmetry_group_IT_number 4
_symmetry_cell_setting 'monoclinic'
loop_
_space_group_symop_operation_xyz
x,y,z
-x,1/2+y,-z
loop_
_atom_site_type_symbol
_atom_site_label
_atom_site_fract_x
_atom_site_fract_y
_atom_site_fract_z
Si Si1 0.387617 0.813580 0.312019
Si Si2 0.409291 0.083823 0.267140
Si Si3 0.341995 0.161998 0.952177
Si Si4 0.720412 0.015341 0.009811
Si Si5 0.527522 0.415802 0.135163
Si Si6 0.585875 0.785098 0.516351
Si Si7 0.194231 0.757035 0.129299
Si Si8 0.145310 0.319579 0.843627
O O1 0.533361 0.765042 0.144106
O O2 0.423367 0.779737 0.477847
O O3 0.225242 0.760381 0.306247
O O4 0.354845 0.951300 0.305879
O O5 0.600624 0.082974 0.176310
O O6 0.365317 0.157062 0.440577
O O7 0.330818 0.146834 0.145738
O O8 0.176565 0.204589 0.939918
O O9 0.389337 0.038557 0.855846
O O10 0.841790 0.933162 0.052156
O O11 0.823557 0.119342 0.893864
O O12 0.614483 0.940988 0.930056
O O13 0.444838 0.370520 0.326491
O O14 0.657800 0.323391 0.017069
O O15 0.729651 0.832217 0.350816
O O16 0.031334 0.820356 0.152537
#
# Coordination Sequence:
#
# PCOD8045979 Si02
#       8
#     2   2   2   2   2   2   2   2
#     4  11  21  36  60  90 122 158 210 253 298 368
#     4  11  19  37  67  88 113 159 220 255 287 359
#     4  10  20  38  64  89 119 162 209 255 299 368
#     4  11  21  42  68  89 121 166 221 254 298 370
#     4  11  21  38  71  88 114 163 222 250 293 371
#     4  11  23  38  61  93 124 159 206 262 316 358
#     4  12  23  42  62  94 124 167 208 255 308 376
#     4  11  26  39  59  93 137 156 196 264 331 362
#
# _framework density 19.650770000000001
#
# number of rings (size 3 to 8) (size 9 to 14) (size 15 to 20)
#    0.000    1.000    8.750    0.750    5.250    0.000 
#    0.000    3.750    0.000    0.000    0.000    0.000 
#    0.000    0.000    0.000    0.000    0.000    0.000 
#
# Total GULP energy -198239.938406 kJ/mol
# GULP energy per Si atom -12389.996150 kJ/mol
# Density = 1.960604 g / cm^3
# Si number density = 19.650770 Si / 1000 Ang^3
#
#
#
# Elastic Constant Matrix: (Units=GPa)
#
#
# Indices 1 2 3 4 5 6 
#
# 1 121.2645 37.0229 43.8484 0.0000 21.0679 0.0000
# 2 37.0229 127.3324 58.2458 0.0000 13.7887 0.0000
# 3 43.8484 58.2458 94.9541 0.0000 20.6672 0.0000
# 4 0.0000 0.0000 0.0000 23.1270 0.0000 5.4654
# 5 21.0679 13.7887 20.6672 0.0000 16.9174 0.0000
# 6 0.0000 0.0000 0.0000 5.4654 0.0000 27.8483
#
#
#
# Elastic Compliance Matrix: (Units=1/GPa)
#
#
# Indices 1 2 3 4 5 6 
#
# 1 0.011183 -0.001112 -0.002245 0.000000 -0.010278 0.000000
# 2 -0.001112 0.011039 -0.006268 0.000000 0.000044 0.000000
# 3 -0.002245 -0.006268 0.018652 0.000000 -0.014881 0.000000
# 4 0.000000 0.000000 0.000000 0.045343 0.000000 -0.008899
# 5 -0.010278 0.000044 -0.014881 0.000000 0.090055 0.000000
# 6 0.000000 0.000000 0.000000 -0.008899 0.000000 0.037655
#
#
# Mechanical properties :
#
#
# Convention : Reuss Voigt Hill
#
# Bulk Modulus (GPa) = 46.24261 69.08723 57.66492
# Shear Modulus (GPa) = 20.80003 27.20745 24.00374
#
# Velocity S-wave (km/s) = 3.25696 3.72499 3.49881
# Velocity P-wave (km/s) = 6.14224 7.33039 6.76246
#
# Compressibility (1/GPa) = 0.02162508
#
# Stress axis : x y z
#
# Youngs Moduli (GPa) = 89.41848 90.58869 53.61372
#
# Poissons Ratio (x) = 0.10069 0.12039
# Poissons Ratio (y) = 0.09939 0.33603
# Poissons Ratio (z) = 0.20078 0.56777
#
# Static dielectric constant tensor:
#      x y z
#    x 3.537090 0.000000 0.488740 
#    y 0.000000 3.856440 0.000000 
#    z 0.488740 0.000000 3.663120 
# 
# 
# High freq. dielectric constant tensor:
#      x y z
#    x 1.738640 0.000000 0.038150 
#    y 0.000000 1.789870 0.000000 
#    z 0.038150 0.000000 1.745780 
# 
# From -- ./inp_files/5905.got.cif
#   From: 2010.03.12/outbox.cif.g09.slc.cpg/sg4_3_cif.got.tgz:5905.got - 2010.03.31 09:31:35.
