data_PCOD8045624
_publ_section_title
;
Structure prediction by ZEFSAII (Michael W. Deem and Ramdas Pophale) SiO2 
 PCOD8045624
Probable space group: P 21
;
_chemical_formula_sum "Si O2"
_cell_formula_units_Z 14
_cell_length_a 24.204638
_cell_length_b 4.991833
_cell_length_c 15.977359
_cell_angle_alpha 90.000000
_cell_angle_beta 28.393964
_cell_angle_gamma 90.000000
_cell_volume 918.000584
_symmetry_space_group_name_H-M "P 21"
_symmetry_group_IT_number 4
_symmetry_cell_setting 'monoclinic'
loop_
_space_group_symop_operation_xyz
x,y,z
-x,1/2+y,-z
loop_
_atom_site_type_symbol
_atom_site_label
_atom_site_fract_x
_atom_site_fract_y
_atom_site_fract_z
Si Si1 0.573246 0.632920 0.690938
Si Si2 0.293832 0.668215 0.435899
Si Si3 0.355622 0.726913 0.654938
Si Si4 0.464680 0.901207 0.094297
Si Si5 0.476105 0.228118 0.424690
Si Si6 0.053103 0.706630 0.825344
Si Si7 0.904174 0.207783 0.039975
O O1 0.666308 0.393763 0.549094
O O2 0.488245 0.531221 0.880322
O O3 0.498279 0.684931 0.707795
O O4 0.645738 0.889613 0.623293
O O5 0.154638 0.645976 0.623070
O O6 0.336809 0.775296 0.286426
O O7 0.423717 0.522825 0.504396
O O8 0.403009 0.695328 0.686771
O O9 0.379582 0.023321 0.588354
O O10 0.219676 0.662451 0.838097
O O11 0.455963 0.149636 0.040815
O O12 0.949747 0.496514 0.951922
O O13 0.109757 0.680944 0.841702
O O14 0.997617 0.994774 0.881886
#
# Coordination Sequence:
#
# PCOD8045624 Si02
#       7
#     2   2   2   2   2   2   2
#     4  10  18  28  48  66  91 124 144 187 216 292
#     4  10  19  29  47  66  92 125 146 185 218 289
#     4  10  20  31  45  63  93 125 159 203 214 254
#     4  10  18  31  45  69  96 119 139 184 240 282
#     4  10  19  31  46  66  88 124 166 183 231 263
#     4  10  19  29  42  64  86 124 161 180 221 259
#     4  10  19  29  43  60  92 121 157 196 210 251
#
# _framework density 15.250534
#
# number of rings (size 3 to 8) (size 9 to 14) (size 15 to 20)
#    0.857    1.143    1.429    4.286    0.000    2.286 
#    0.000    0.000    0.000    0.000    0.000    0.000 
#    0.000    4.571    0.857    0.000    0.000    0.000 
#
# Total GULP energy -173463.648936 kJ/mol
# GULP energy per Si atom -12390.260638 kJ/mol
# Density = 1.521582 g / cm^3
# Si number density = 15.250534 Si / 1000 Ang^3
#
#
#
# Elastic Constant Matrix: (Units=GPa)
#
#
# Indices 1 2 3 4 5 6 
#
# 1 62.8511 13.3351 42.6205 0.0000 -3.4541 0.0000
# 2 13.3351 79.3423 18.9228 0.0000 0.1974 0.0000
# 3 42.6205 18.9228 79.8862 0.0000 1.0005 0.0000
# 4 0.0000 0.0000 0.0000 16.5118 0.0000 -0.0037
# 5 -3.4541 0.1974 1.0005 0.0000 23.2100 0.0000
# 6 0.0000 0.0000 0.0000 -0.0037 0.0000 15.1623
#
#
#
# Elastic Compliance Matrix: (Units=1/GPa)
#
#
# Indices 1 2 3 4 5 6 
#
# 1 0.025454 -0.001099 -0.013374 0.000000 0.004374 0.000000
# 2 -0.001099 0.013406 -0.002587 0.000000 -0.000166 0.000000
# 3 -0.013374 -0.002587 0.020302 0.000000 -0.002843 0.000000
# 4 0.000000 0.000000 0.000000 0.060563 0.000000 0.000015
# 5 0.004374 -0.000166 -0.002843 0.000000 0.043860 0.000000
# 6 0.000000 0.000000 0.000000 0.000015 0.000000 0.065953
#
#
# Mechanical properties :
#
#
# Convention : Reuss Voigt Hill
#
# Bulk Modulus (GPa) = 39.93596 41.31517 40.62556
# Shear Modulus (GPa) = 18.38210 20.79024 19.58617
#
# Velocity S-wave (km/s) = 3.47557 3.69622 3.58759
# Velocity P-wave (km/s) = 6.50765 6.73542 6.62252
#
# Compressibility (1/GPa) = 0.02504009
#
# Stress axis : x y z
#
# Youngs Moduli (GPa) = 39.28730 74.59488 49.25733
#
# Poissons Ratio (x) = 0.08199 0.65878
# Poissons Ratio (y) = 0.04318 0.12743
# Poissons Ratio (z) = 0.52544 0.19297
#
# Static dielectric constant tensor:
#      x y z
#    x 2.755430 0.000000 0.101800 
#    y 0.000000 3.195120 0.000000 
#    z 0.101800 0.000000 2.712690 
# 
# 
# High freq. dielectric constant tensor:
#      x y z
#    x 1.545280 0.000000 0.007820 
#    y 0.000000 1.616650 0.000000 
#    z 0.007820 0.000000 1.557250 
# 
# From -- ./inp_files/10170.got.cif
#   From: 2010.03.12/outbox.cif.g09.slc.cpg/sg4_6_cif.got.tgz:10170.got - 2010.03.31 09:31:35.
