data_PCOD8045031
_publ_section_title
;
Structure prediction by ZEFSAII (Michael W. Deem and Ramdas Pophale) SiO2 
 PCOD8045031
Probable space group: P 2
;
_chemical_formula_sum "Si O2"
_cell_formula_units_Z 14
_cell_length_a 8.270697
_cell_length_b 16.352290
_cell_length_c 9.430699
_cell_angle_alpha 90.000000
_cell_angle_beta 31.781158
_cell_angle_gamma 90.000000
_cell_volume 671.751014
_symmetry_space_group_name_H-M "P 2"
_symmetry_group_IT_number 3
_symmetry_cell_setting 'monoclinic'
loop_
_space_group_symop_operation_xyz
x,y,z
-x,y,-z
loop_
_atom_site_type_symbol
_atom_site_label
_atom_site_fract_x
_atom_site_fract_y
_atom_site_fract_z
Si Si1 0.400743 0.309140 0.414005
Si Si2 0.854244 0.563406 0.755291
Si Si3 0.346754 0.157240 0.266981
Si Si4 0.859059 0.742608 0.753845
Si Si5 0.232065 0.394963 0.082201
Si Si6 0.085405 0.893922 0.098988
Si Si7 0.277401 0.976907 0.400370
O O1 0.500000 0.295655 0.500000
O O2 0.482781 0.226611 0.267247
O O3 0.042118 0.333101 0.673417
O O4 0.618784 0.378019 0.182079
O O5 0.989483 0.651978 0.701587
O O6 0.903494 0.487698 0.826373
O O7 0.000000 0.533485 0.500000
O O8 0.500000 0.579812 0.000000
O O9 0.000000 0.179918 0.500000
O O10 0.387549 0.070549 0.314592
O O11 0.500000 0.155253 0.000000
O O12 0.000000 0.771155 0.500000
O O13 0.500000 0.742737 0.000000
O O14 0.964393 0.804624 0.796889
O O15 0.500000 0.386221 0.000000
O O16 0.436800 0.921078 0.858086
O O17 0.000000 0.889725 0.000000
O O18 0.848880 0.957059 0.348741
O O19 0.000000 0.959165 0.500000
#
# Coordination Sequence:
#
# PCOD8045031 Si02
#       7
#     2   2   2   2   2   2   2
#     4  12  25  39  58  89 124 155 189 236 297 351
#     4   9  18  33  58  89 111 143 198 249 283 326
#     4  11  23  41  64  87 112 150 200 244 285 340
#     4  10  20  36  60  85 114 152 197 241 283 338
#     4  11  21  39  64  86 115 156 201 242 283 342
#     4  12  24  38  59  90 124 155 189 235 296 351
#     4  11  23  42  64  86 113 153 201 243 284 342
#
# _framework density 20.841055999999998
#
# number of rings (size 3 to 8) (size 9 to 14) (size 15 to 20)
#    0.000    1.143    0.000    9.429    0.000    1.143 
#    0.000    1.429    0.000    0.000    0.000    0.000 
#    0.000    0.000    0.000    0.000    0.000    0.000 
#
# Total GULP energy -173589.312806 kJ/mol
# GULP energy per Si atom -12399.236629 kJ/mol
# Density = 2.079362 g / cm^3
# Si number density = 20.841056 Si / 1000 Ang^3
#
#
#
# Elastic Constant Matrix: (Units=GPa)
#
#
# Indices 1 2 3 4 5 6 
#
# 1 76.8806 70.8532 43.2379 0.0000 24.3331 0.0000
# 2 70.8532 158.9943 64.5628 0.0000 25.0922 0.0000
# 3 43.2379 64.5628 166.0111 0.0000 19.8456 0.0000
# 4 0.0000 0.0000 0.0000 39.2874 0.0000 5.1741
# 5 24.3331 25.0922 19.8456 0.0000 41.3593 0.0000
# 6 0.0000 0.0000 0.0000 5.1741 0.0000 12.1561
#
#
#
# Elastic Compliance Matrix: (Units=1/GPa)
#
#
# Indices 1 2 3 4 5 6 
#
# 1 0.025133 -0.009065 -0.002027 0.000000 -0.008314 0.000000
# 2 -0.009065 0.011197 -0.001930 0.000000 -0.000534 0.000000
# 3 -0.002027 -0.001930 0.007447 0.000000 -0.001210 0.000000
# 4 0.000000 0.000000 0.000000 0.026965 0.000000 -0.011477
# 5 -0.008314 -0.000534 -0.001210 0.000000 0.029975 0.000000
# 6 0.000000 0.000000 0.000000 -0.011477 0.000000 0.087148
#
#
# Mechanical properties :
#
#
# Convention : Reuss Voigt Hill
#
# Bulk Modulus (GPa) = 56.38890 84.35485 70.37188
# Shear Modulus (GPa) = 22.74608 33.44270 28.09439
#
# Velocity S-wave (km/s) = 3.30723 4.01016 3.67554
# Velocity P-wave (km/s) = 6.45748 7.87433 7.20084
#
# Compressibility (1/GPa) = 0.01773399
#
# Stress axis : x y z
#
# Youngs Moduli (GPa) = 39.78884 89.30922 134.28808
#
# Poissons Ratio (x) = 0.80958 0.27214
# Poissons Ratio (y) = 0.36068 0.25915
# Poissons Ratio (z) = 0.08063 0.17235
#
# Static dielectric constant tensor:
#      x y z
#    x 3.302040 0.000000 -0.002930 
#    y 0.000000 4.299780 0.000000 
#    z -0.002930 0.000000 4.056970 
# 
# 
# High freq. dielectric constant tensor:
#      x y z
#    x 1.769030 0.000000 0.000950 
#    y 0.000000 1.835340 0.000000 
#    z 0.000950 0.000000 1.847370 
# 
# From -- ./inp_files/6181.got.cif
#   From: 2010.03.12/outbox.cif.g09.slc.cpg/sg3_4_cif.got.tgz:6181.got - 2010.03.31 09:20:49.
