data_PCOD8045361
_publ_section_title
;
Structure prediction by ZEFSAII (Michael W. Deem and Ramdas Pophale) SiO2 
 PCOD8045361
Probable space group: P 2
;
_chemical_formula_sum "Si O2"
_cell_formula_units_Z 12
_cell_length_a 9.782304
_cell_length_b 5.248031
_cell_length_c 15.518057
_cell_angle_alpha 90.000000
_cell_angle_beta 44.960568
_cell_angle_gamma 90.000000
_cell_volume 562.938299
_symmetry_space_group_name_H-M "P 2"
_symmetry_group_IT_number 3
_symmetry_cell_setting 'monoclinic'
loop_
_space_group_symop_operation_xyz
x,y,z
-x,y,-z
loop_
_atom_site_type_symbol
_atom_site_label
_atom_site_fract_x
_atom_site_fract_y
_atom_site_fract_z
Si Si1 0.719112 0.587100 0.437990
Si Si2 0.389619 0.086594 0.457758
Si Si3 0.879985 0.620455 0.816386
Si Si4 0.416931 0.130173 0.807606
Si Si5 0.327229 0.122201 0.146297
Si Si6 0.797145 0.630492 0.050817
O O1 0.500000 0.578807 0.500000
O O2 0.748895 0.334206 0.482495
O O3 0.885577 0.597662 0.290647
O O4 0.741838 0.833122 0.489467
O O5 0.500000 0.078299 0.500000
O O6 0.535657 0.090770 0.313380
O O7 0.783951 0.390510 0.806352
O O8 0.819910 0.892139 0.804911
O O9 0.803425 0.597780 0.946404
O O10 0.596519 0.083121 0.790835
O O11 0.351208 0.421608 0.847486
O O12 0.254679 0.920307 0.901929
O O13 0.500000 0.116009 0.000000
O O14 0.000000 0.558266 0.000000
#
# Coordination Sequence:
#
# PCOD8045361 Si02
#       6
#     2   2   2   2   2   2
#     4  10  23  43  66  94 130 179 225 271 329 394
#     4  10  23  41  66  89 130 178 222 266 329 392
#     4  12  24  43  71 102 135 180 221 276 339 403
#     4  12  25  44  67 101 137 180 218 278 339 401
#     4  12  23  45  68 101 142 176 221 269 340 414
#     4  12  26  39  67 106 139 163 228 285 345 399
#
# _framework density 21.316725999999999
#
# number of rings (size 3 to 8) (size 9 to 14) (size 15 to 20)
#    0.000    0.667    3.333    4.000    9.333    0.000 
#    0.000    5.000    0.000    0.000    0.000    0.000 
#    0.000    0.000    0.000    0.000    0.000    0.000 
#
# Total GULP energy -148773.717230 kJ/mol
# GULP energy per Si atom -12397.809769 kJ/mol
# Density = 2.126821 g / cm^3
# Si number density = 21.316726 Si / 1000 Ang^3
#
#
#
# Elastic Constant Matrix: (Units=GPa)
#
#
# Indices 1 2 3 4 5 6 
#
# 1 84.2234 1.9118 28.0094 0.0000 15.0459 0.0000
# 2 1.9118 157.4522 28.5975 0.0000 0.0899 0.0000
# 3 28.0094 28.5975 125.7892 0.0000 8.4218 0.0000
# 4 0.0000 0.0000 0.0000 28.9077 0.0000 2.7081
# 5 15.0459 0.0899 8.4218 0.0000 35.4811 0.0000
# 6 0.0000 0.0000 0.0000 2.7081 0.0000 18.7038
#
#
#
# Elastic Compliance Matrix: (Units=1/GPa)
#
#
# Indices 1 2 3 4 5 6 
#
# 1 0.013713 0.000342 -0.002786 0.000000 -0.005155 0.000000
# 2 0.000342 0.006637 -0.001600 0.000000 0.000218 0.000000
# 3 -0.002786 -0.001600 0.008998 0.000000 -0.000950 0.000000
# 4 0.000000 0.000000 0.000000 0.035069 0.000000 -0.005078
# 5 -0.005155 0.000218 -0.000950 0.000000 0.030595 0.000000
# 6 0.000000 0.000000 0.000000 -0.005078 0.000000 0.054200
#
#
# Mechanical properties :
#
#
# Convention : Reuss Voigt Hill
#
# Bulk Modulus (GPa) = 47.03507 53.83356 50.43432
# Shear Modulus (GPa) = 30.41636 37.21493 33.81564
#
# Velocity S-wave (km/s) = 3.78150 4.18282 3.98721
# Velocity P-wave (km/s) = 6.41709 6.97402 6.70135
#
# Compressibility (1/GPa) = 0.02126073
#
# Stress axis : x y z
#
# Youngs Moduli (GPa) = 72.92455 150.66096 111.14168
#
# Poissons Ratio (x) = -0.05160 0.30966
# Poissons Ratio (y) = -0.02498 0.17781
# Poissons Ratio (z) = 0.20318 0.24103
#
# Static dielectric constant tensor:
#      x y z
#    x 3.630320 0.000000 0.038940 
#    y 0.000000 5.849060 0.000000 
#    z 0.038940 0.000000 3.812300 
# 
# 
# High freq. dielectric constant tensor:
#      x y z
#    x 1.809750 0.000000 0.001990 
#    y 0.000000 1.875630 0.000000 
#    z 0.001990 0.000000 1.832950 
# 
# From -- ./inp_files/8215.got.cif
#   From: 2010.03.12/outbox.cif.g09.slc.cpg/sg3_5_cif.got.tgz:8215.got - 2010.03.31 09:20:49.
