data_PCOD8045695
_publ_section_title
;
Structure prediction by ZEFSAII (Michael W. Deem and Ramdas Pophale) SiO2 
 PCOD8045695
Probable space group: P 21
;
_chemical_formula_sum "Si O2"
_cell_formula_units_Z 14
_cell_length_a 14.177286
_cell_length_b 7.576452
_cell_length_c 8.589124
_cell_angle_alpha 90.000000
_cell_angle_beta 138.511118
_cell_angle_gamma 90.000000
_cell_volume 611.191280
_symmetry_space_group_name_H-M "P 21"
_symmetry_group_IT_number 4
_symmetry_cell_setting 'monoclinic'
loop_
_space_group_symop_operation_xyz
x,y,z
-x,1/2+y,-z
loop_
_atom_site_type_symbol
_atom_site_label
_atom_site_fract_x
_atom_site_fract_y
_atom_site_fract_z
Si Si1 0.245318 0.949360 0.104584
Si Si2 0.303467 0.348602 0.093126
Si Si3 0.328153 0.613338 0.386661
Si Si4 0.005553 0.927197 0.257897
Si Si5 0.714778 0.383928 0.195315
Si Si6 0.987070 0.098639 0.943370
Si Si7 0.491345 0.183914 0.104664
O O1 0.326775 0.818230 0.325415
O O2 0.307468 0.148557 0.170239
O O3 0.249648 0.855562 0.941163
O O4 0.082698 0.960652 0.962962
O O5 0.370853 0.481301 0.301126
O O6 0.404052 0.353084 0.063942
O O7 0.146392 0.414686 0.841328
O O8 0.179009 0.550582 0.275559
O O9 0.442580 0.585601 0.663579
O O10 0.134235 0.889885 0.531451
O O11 0.987726 0.790563 0.093930
O O12 0.026776 0.103811 0.179771
O O13 0.616514 0.227036 0.138496
O O14 0.626294 0.560748 0.121509
#
# Coordination Sequence:
#
# PCOD8045695 Si02
#       7
#     2   2   2   2   2   2   2
#     4  10  22  43  69 101 139 180 230 289 342 409
#     4   9  24  42  69 103 127 179 244 274 346 416
#     4  11  22  44  74  99 135 184 234 292 339 426
#     4  10  20  44  67  95 135 172 230 288 335 410
#     4  11  25  47  64 102 145 179 227 297 352 413
#     4  10  18  41  67 101 121 178 229 278 339 406
#     4  11  25  47  64 103 140 188 228 284 363 414
#
# _framework density 22.906086999999999
#
# number of rings (size 3 to 8) (size 9 to 14) (size 15 to 20)
#    0.000    1.714    2.857    0.000    6.000    0.000 
#   28.286    0.000    0.000    0.000    0.000    0.000 
#    0.000    0.000    0.000    0.000    0.000    0.000 
#
# Total GULP energy -173458.175998 kJ/mol
# GULP energy per Si atom -12389.869714 kJ/mol
# Density = 2.285395 g / cm^3
# Si number density = 22.906087 Si / 1000 Ang^3
#
#
#
# Elastic Constant Matrix: (Units=GPa)
#
#
# Indices 1 2 3 4 5 6 
#
# 1 90.9099 1.2023 27.8437 0.0000 7.9899 0.0000
# 2 1.2023 72.8828 19.3536 0.0000 -4.8778 0.0000
# 3 27.8437 19.3536 45.6985 0.0000 6.4564 0.0000
# 4 0.0000 0.0000 0.0000 28.1526 0.0000 -2.6655
# 5 7.9899 -4.8778 6.4564 0.0000 25.0128 0.0000
# 6 0.0000 0.0000 0.0000 -2.6655 0.0000 31.5556
#
#
#
# Elastic Compliance Matrix: (Units=1/GPa)
#
#
# Indices 1 2 3 4 5 6 
#
# 1 0.013914 0.002080 -0.009120 0.000000 -0.001685 0.000000
# 2 0.002080 0.016367 -0.008879 0.000000 0.004819 0.000000
# 3 -0.009120 -0.008879 0.032207 0.000000 -0.007132 0.000000
# 4 0.000000 0.000000 0.000000 0.035807 0.000000 0.003025
# 5 -0.001685 0.004819 -0.007132 0.000000 0.043298 0.000000
# 6 0.000000 0.000000 0.000000 0.003025 0.000000 0.031946
#
#
# Mechanical properties :
#
#
# Convention : Reuss Voigt Hill
#
# Bulk Modulus (GPa) = 32.62860 34.03226 33.33043
# Shear Modulus (GPa) = 23.19161 27.68365 25.43763
#
# Velocity S-wave (km/s) = 3.18538 3.48022 3.33606
# Velocity P-wave (km/s) = 5.27298 5.57125 5.42416
#
# Compressibility (1/GPa) = 0.03064796
#
# Stress axis : x y z
#
# Youngs Moduli (GPa) = 71.87104 61.09941 31.04870
#
# Poissons Ratio (x) = -0.12706 0.28317
# Poissons Ratio (y) = -0.14946 0.27569
# Poissons Ratio (z) = 0.65548 0.54252
#
# Static dielectric constant tensor:
#      x y z
#    x 4.654070 0.000000 0.203660 
#    y 0.000000 4.121790 0.000000 
#    z 0.203660 0.000000 3.820510 
# 
# 
# High freq. dielectric constant tensor:
#      x y z
#    x 1.928990 0.000000 0.018930 
#    y 0.000000 1.894370 0.000000 
#    z 0.018930 0.000000 1.881540 
# 
# From -- ./inp_files/9193.got.cif
#   From: 2010.03.12/outbox.cif.g09.slc.cpg/sg4_5_cif.got.tgz:9193.got - 2010.03.31 09:31:35.
