data_PCOD8045735
_publ_section_title
;
Structure prediction by ZEFSAII (Michael W. Deem and Ramdas Pophale) SiO2 
 PCOD8045735
Probable space group: P 21
;
_chemical_formula_sum "Si O2"
_cell_formula_units_Z 16
_cell_length_a 15.461159
_cell_length_b 5.046224
_cell_length_c 12.669790
_cell_angle_alpha 90.000000
_cell_angle_beta 45.321053
_cell_angle_gamma 90.000000
_cell_volume 702.882845
_symmetry_space_group_name_H-M "P 21"
_symmetry_group_IT_number 4
_symmetry_cell_setting 'monoclinic'
loop_
_space_group_symop_operation_xyz
x,y,z
-x,1/2+y,-z
loop_
_atom_site_type_symbol
_atom_site_label
_atom_site_fract_x
_atom_site_fract_y
_atom_site_fract_z
Si Si1 0.475571 0.418520 0.778774
Si Si2 0.966833 0.995317 0.661450
Si Si3 0.993142 0.903304 0.869070
Si Si4 0.570588 0.838415 0.956515
Si Si5 0.579711 0.954408 0.402106
Si Si6 0.111238 0.494411 0.493005
Si Si7 0.858436 0.903469 0.198899
Si Si8 0.365365 0.424681 0.319576
O O1 0.392748 0.424215 0.746379
O O2 0.559738 0.674854 0.707806
O O3 0.567301 0.174975 0.690510
O O4 0.388083 0.391511 0.957513
O O5 0.920772 0.936090 0.819907
O O6 0.080445 0.800878 0.540130
O O7 0.868500 0.946715 0.652044
O O8 0.004790 0.302321 0.623641
O O9 0.066105 0.628024 0.805133
O O10 0.097697 0.123697 0.793581
O O11 0.890221 0.921053 0.047040
O O12 0.654566 0.946972 0.790960
O O13 0.550253 0.524899 0.954881
O O14 0.484775 0.734676 0.522895
O O15 0.712348 0.934124 0.343300
O O16 0.224619 0.421423 0.472591
#
# Coordination Sequence:
#
# PCOD8045735 Si02
#       8
#     2   2   2   2   2   2   2   2
#     4  10  21  36  54  78 109 147 188 226 275 337
#     4  10  21  36  54  81 113 142 177 232 291 335
#     4  10  21  41  66  86 112 153 200 250 297 338
#     4   8  16  31  50  73 100 130 171 217 254 307
#     4  12  26  41  58  86 123 157 195 244 295 350
#     4  10  21  34  52  83 115 141 180 225 276 351
#     4  10  23  41  62  89 114 148 204 252 290 347
#     4  10  19  34  56  80 108 146 185 222 274 343
#
# _framework density 22.763394999999999
#
# number of rings (size 3 to 8) (size 9 to 14) (size 15 to 20)
#    0.000    2.000    0.000    3.000    0.000    7.000 
#    0.000    0.000    0.000   15.000    0.000    0.000 
#    0.000    0.000    0.000    0.000    0.000    0.000 
#
# Total GULP energy -198212.588957 kJ/mol
# GULP energy per Si atom -12388.286810 kJ/mol
# Density = 2.271158 g / cm^3
# Si number density = 22.763395 Si / 1000 Ang^3
#
#
#
# Elastic Constant Matrix: (Units=GPa)
#
#
# Indices 1 2 3 4 5 6 
#
# 1 71.9809 6.8779 11.9611 0.0000 9.0999 0.0000
# 2 6.8779 114.6776 -3.8194 0.0000 -5.7257 0.0000
# 3 11.9611 -3.8194 25.6780 0.0000 16.0102 0.0000
# 4 0.0000 0.0000 0.0000 30.4030 0.0000 4.0726
# 5 9.0999 -5.7257 16.0102 0.0000 52.6270 0.0000
# 6 0.0000 0.0000 0.0000 4.0726 0.0000 22.1556
#
#
#
# Elastic Compliance Matrix: (Units=1/GPa)
#
#
# Indices 1 2 3 4 5 6 
#
# 1 0.015228 -0.001175 -0.006845 0.000000 -0.000679 0.000000
# 2 -0.001175 0.008874 0.001405 0.000000 0.000741 0.000000
# 3 -0.006845 0.001405 0.051224 0.000000 -0.014247 0.000000
# 4 0.000000 0.000000 0.000000 0.033722 0.000000 -0.006199
# 5 -0.000679 0.000741 -0.014247 0.000000 0.023534 0.000000
# 6 0.000000 0.000000 0.000000 -0.006199 0.000000 0.046275
#
#
# Mechanical properties :
#
#
# Convention : Reuss Voigt Hill
#
# Bulk Modulus (GPa) = 16.10391 26.93064 21.51727
# Shear Modulus (GPa) = 23.49776 34.19159 28.84467
#
# Velocity S-wave (km/s) = 3.21637 3.87982 3.56357
# Velocity P-wave (km/s) = 4.56981 5.65040 5.13859
#
# Compressibility (1/GPa) = 0.06209674
#
# Stress axis : x y z
#
# Youngs Moduli (GPa) = 65.66803 112.68376 19.52198
#
# Poissons Ratio (x) = 0.13242 0.13363
# Poissons Ratio (y) = 0.07717 -0.02743
# Poissons Ratio (z) = 0.44951 -0.15835
#
# Static dielectric constant tensor:
#      x y z
#    x 3.992480 0.000000 0.526390 
#    y 0.000000 4.094120 0.000000 
#    z 0.526390 0.000000 4.082890 
# 
# 
# High freq. dielectric constant tensor:
#      x y z
#    x 1.885510 0.000000 0.036050 
#    y 0.000000 1.911580 0.000000 
#    z 0.036050 0.000000 1.886330 
# 
# From -- ./inp_files/12430.got.cif
#   From: 2010.03.12/outbox.cif.g09.slc.cpg/sg4_7_cif.got.tgz:12430.got - 2010.03.31 09:31:35.
