data_PCOD8045219
_publ_section_title
;
Structure prediction by ZEFSAII (Michael W. Deem and Ramdas Pophale) SiO2 
 PCOD8045219
Probable space group: P 2
;
_chemical_formula_sum "Si O2"
_cell_formula_units_Z 12
_cell_length_a 23.272686
_cell_length_b 5.487107
_cell_length_c 12.937502
_cell_angle_alpha 90.000000
_cell_angle_beta 160.080585
_cell_angle_gamma 90.000000
_cell_volume 562.872651
_symmetry_space_group_name_H-M "P 2"
_symmetry_group_IT_number 3
_symmetry_cell_setting 'monoclinic'
loop_
_space_group_symop_operation_xyz
x,y,z
-x,y,-z
loop_
_atom_site_type_symbol
_atom_site_label
_atom_site_fract_x
_atom_site_fract_y
_atom_site_fract_z
Si Si1 0.957732 0.107510 0.126641
Si Si2 0.500000 0.139192 0.000000
Si Si3 0.789264 0.471165 0.519084
Si Si4 0.000000 0.804563 0.000000
Si Si5 0.801406 0.716546 0.145426
Si Si6 0.302482 0.211745 0.145512
Si Si7 0.734325 0.834749 0.258019
O O1 0.034182 0.351532 0.210104
O O2 0.789814 0.195877 0.900118
O O3 0.922301 0.947895 0.965392
O O4 0.086157 0.971585 0.422590
O O5 0.643818 0.285017 0.306175
O O6 0.580791 0.994160 0.041496
O O7 0.721838 0.589123 0.300826
O O8 0.831974 0.659143 0.682020
O O9 0.706538 0.751479 0.093816
O O10 0.000000 0.702662 0.500000
O O11 0.747303 0.461221 0.999469
O O12 0.751104 0.960300 0.999618
O O13 0.500000 0.217114 0.500000
#
# Coordination Sequence:
#
# PCOD8045219 Si02
#       7
#     2   1   2   1   2   2   2
#     4  10  22  44  69  98 140 183 238 293 353 438
#     4  10  22  40  66 102 144 170 230 310 350 400
#     4  10  21  42  66  98 141 179 229 292 357 422
#     4  10  22  42  70 102 132 194 232 272 374 436
#     4  12  25  48  80 104 138 203 251 288 371 438
#     4  12  28  50  70 110 151 187 243 315 362 423
#     4  10  22  42  69 103 133 181 244 297 346 432
#
# _framework density 21.319212
#
# number of rings (size 3 to 8) (size 9 to 14) (size 15 to 20)
#    0.000    1.333    1.667    3.000    7.000    0.000 
#   15.000    0.000    0.000    0.000    0.000    0.000 
#    0.000    0.000    0.000    0.000    0.000    0.000 
#
# Total GULP energy -148700.996806 kJ/mol
# GULP energy per Si atom -12391.749734 kJ/mol
# Density = 2.127069 g / cm^3
# Si number density = 21.319212 Si / 1000 Ang^3
#
#
#
# Elastic Constant Matrix: (Units=GPa)
#
#
# Indices 1 2 3 4 5 6 
#
# 1 167.9658 74.2936 78.3090 0.0000 9.1200 0.0000
# 2 74.2936 164.8889 70.9549 0.0000 -1.4177 0.0000
# 3 78.3090 70.9549 140.5086 0.0000 20.8276 0.0000
# 4 0.0000 0.0000 0.0000 37.1913 0.0000 -9.1655
# 5 9.1200 -1.4177 20.8276 0.0000 36.9594 0.0000
# 6 0.0000 0.0000 0.0000 -9.1655 0.0000 -7.6430
#
#
#
# Elastic Compliance Matrix: (Units=1/GPa)
#
#
# Indices 1 2 3 4 5 6 
#
# 1 0.008699 -0.002360 -0.003628 0.000000 -0.000193 0.000000
# 2 -0.002360 0.008650 -0.003479 0.000000 0.002875 0.000000
# 3 -0.003628 -0.003479 0.011766 0.000000 -0.005868 0.000000
# 4 0.000000 0.000000 0.000000 0.020754 0.000000 -0.024889
# 5 -0.000193 0.002875 -0.005868 0.000000 0.030522 0.000000
# 6 0.000000 0.000000 0.000000 -0.024889 0.000000 -0.100993
#
#
# Mechanical properties :
#
#
# Convention : Reuss Voigt Hill
#
# Bulk Modulus (GPa) = 98.22222 102.27538 100.24880
# Shear Modulus (GPa) = 2897.60174 29.95526 1463.77850
#
# Velocity S-wave (km/s) = 36.90665 3.75251 26.23149
# Velocity P-wave (km/s) = 43.15446 8.17634 31.05768
#
# Compressibility (1/GPa) = 0.01018100
#
# Stress axis : x y z
#
# Youngs Moduli (GPa) = 114.95012 115.60991 84.99363
#
# Poissons Ratio (x) = 0.27285 0.30836
# Poissons Ratio (y) = 0.27130 0.29567
# Poissons Ratio (z) = 0.41704 0.40218
#
# Static dielectric constant tensor:
#      x y z
#    x 3.916810 0.000000 -0.004100 
#    y 0.000000 4.272380 0.000000 
#    z -0.004100 0.000000 3.912660 
# 
# 
# High freq. dielectric constant tensor:
#      x y z
#    x 1.837530 0.000000 0.003100 
#    y 0.000000 1.859970 0.000000 
#    z 0.003100 0.000000 1.830330 
# 
# From -- ./inp_files/6506.got.cif
#   From: 2010.03.12/outbox.cif.g09.slc.cpg/sg3_4_cif.got.tgz:6506.got - 2010.03.31 09:20:49.
