data_PCOD8045326
_publ_section_title
;
Structure prediction by ZEFSAII (Michael W. Deem and Ramdas Pophale) SiO2 
 PCOD8045326
Probable space group: P 2
;
_chemical_formula_sum "Si O2"
_cell_formula_units_Z 12
_cell_length_a 13.933499
_cell_length_b 7.379486
_cell_length_c 8.051858
_cell_angle_alpha 90.000000
_cell_angle_beta 137.563475
_cell_angle_gamma 90.000000
_cell_volume 558.650394
_symmetry_space_group_name_H-M "P 2"
_symmetry_group_IT_number 3
_symmetry_cell_setting 'monoclinic'
loop_
_space_group_symop_operation_xyz
x,y,z
-x,y,-z
loop_
_atom_site_type_symbol
_atom_site_label
_atom_site_fract_x
_atom_site_fract_y
_atom_site_fract_z
Si Si1 0.500000 0.466570 0.500000
Si Si2 0.244848 0.308565 0.616443
Si Si3 0.680973 0.198506 0.925692
Si Si4 0.000000 0.792041 0.000000
Si Si5 0.014480 0.052214 0.708757
Si Si6 0.716522 0.649974 0.546274
Si Si7 0.434133 0.003453 0.742077
O O1 0.630620 0.349197 0.734002
O O2 0.574139 0.589996 0.457609
O O3 0.248476 0.516649 0.562798
O O4 0.350382 0.194263 0.634506
O O5 0.302624 0.296359 0.876565
O O6 0.086223 0.227621 0.402715
O O7 0.565126 0.034625 0.782620
O O8 0.826546 0.114249 0.046871
O O9 0.859746 0.665828 0.840580
O O10 0.976834 0.904296 0.799878
O O11 0.000000 0.974352 0.500000
O O12 0.680769 0.852147 0.443993
O O13 0.500000 0.946999 0.000000
#
# Coordination Sequence:
#
# PCOD8045326 Si02
#       7
#     1   2   2   1   2   2   2
#     4  12  28  40  66 106 140 174 228 286 348 412
#     4  10  22  49  71  95 135 182 234 277 344 412
#     4  10  24  44  72 100 134 182 225 286 347 408
#     4  12  28  46  72 104 140 186 232 292 344 410
#     4  10  24  48  74 101 137 187 235 280 345 416
#     4  12  28  44  68 106 135 178 234 282 351 409
#     4  10  22  43  73  97 129 179 225 284 343 409
#
# _framework density 21.480340000000002
#
# number of rings (size 3 to 8) (size 9 to 14) (size 15 to 20)
#    0.000    1.333    3.333    0.000   11.667    0.000 
#    3.000    0.000    0.000    0.000    0.000    0.000 
#    0.000    0.000    0.000    0.000    0.000    0.000 
#
# Total GULP energy -148786.123255 kJ/mol
# GULP energy per Si atom -12398.843605 kJ/mol
# Density = 2.143145 g / cm^3
# Si number density = 21.480340 Si / 1000 Ang^3
#
#
#
# Elastic Constant Matrix: (Units=GPa)
#
#
# Indices 1 2 3 4 5 6 
#
# 1 81.8172 9.6767 28.9685 0.0000 13.3584 0.0000
# 2 9.6767 75.6575 36.4624 0.0000 -1.7486 0.0000
# 3 28.9685 36.4624 101.4833 0.0000 19.5546 0.0000
# 4 0.0000 0.0000 0.0000 25.2597 0.0000 1.1897
# 5 13.3584 -1.7486 19.5546 0.0000 43.9972 0.0000
# 6 0.0000 0.0000 0.0000 1.1897 0.0000 12.0176
#
#
#
# Elastic Compliance Matrix: (Units=1/GPa)
#
#
# Indices 1 2 3 4 5 6 
#
# 1 0.013883 -0.000221 -0.003357 0.000000 -0.002732 0.000000
# 2 -0.000221 0.016493 -0.006564 0.000000 0.003640 0.000000
# 3 -0.003357 -0.006564 0.014244 0.000000 -0.005573 0.000000
# 4 0.000000 0.000000 0.000000 0.039774 0.000000 -0.003938
# 5 -0.002732 0.003640 -0.005573 0.000000 0.026180 0.000000
# 6 0.000000 0.000000 0.000000 -0.003938 0.000000 0.083601
#
#
# Mechanical properties :
#
#
# Convention : Reuss Voigt Hill
#
# Bulk Modulus (GPa) = 41.09098 45.46369 43.27733
# Shear Modulus (GPa) = 22.46452 28.51159 25.48805
#
# Velocity S-wave (km/s) = 3.23742 3.64721 3.44841
# Velocity P-wave (km/s) = 5.75722 6.24079 6.00387
#
# Compressibility (1/GPa) = 0.02433624
#
# Stress axis : x y z
#
# Youngs Moduli (GPa) = 72.02954 60.62999 70.20273
#
# Poissons Ratio (x) = 0.01339 0.23569
# Poissons Ratio (y) = 0.01591 0.46084
# Poissons Ratio (z) = 0.24182 0.39800
#
# Static dielectric constant tensor:
#      x y z
#    x 3.963880 0.000000 0.195590 
#    y 0.000000 3.613930 0.000000 
#    z 0.195590 0.000000 4.029350 
# 
# 
# High freq. dielectric constant tensor:
#      x y z
#    x 1.850930 0.000000 0.017890 
#    y 0.000000 1.825070 0.000000 
#    z 0.017890 0.000000 1.858840 
# 
# From -- ./inp_files/7923.got.cif
#   From: 2010.03.12/outbox.cif.g09.slc.cpg/sg3_4_cif.got.tgz:7923.got - 2010.03.31 09:20:49.
