data_PCOD8045210
_publ_section_title
;
Structure prediction by ZEFSAII (Michael W. Deem and Ramdas Pophale) SiO2 
 PCOD8045210
Probable space group: P 2
;
_chemical_formula_sum "Si O2"
_cell_formula_units_Z 12
_cell_length_a 14.162506
_cell_length_b 6.521615
_cell_length_c 9.052535
_cell_angle_alpha 90.000000
_cell_angle_beta 138.237622
_cell_angle_gamma 90.000000
_cell_volume 556.887707
_symmetry_space_group_name_H-M "P 2"
_symmetry_group_IT_number 3
_symmetry_cell_setting 'monoclinic'
loop_
_space_group_symop_operation_xyz
x,y,z
-x,y,-z
loop_
_atom_site_type_symbol
_atom_site_label
_atom_site_fract_x
_atom_site_fract_y
_atom_site_fract_z
Si Si1 0.250182 0.464250 0.528862
Si Si2 0.152725 0.693522 0.147581
Si Si3 0.933143 0.363946 0.182892
Si Si4 0.262489 0.986952 0.039021
Si Si5 0.272319 0.599534 0.876864
Si Si6 0.483147 0.331517 0.310712
O O1 0.230811 0.652603 0.393110
O O2 0.308515 0.558721 0.749026
O O3 0.365543 0.308865 0.594528
O O4 0.102694 0.345008 0.380653
O O5 0.251254 0.845423 0.170407
O O6 0.126281 0.476099 0.033410
O O7 0.000000 0.798069 0.000000
O O8 0.879368 0.496895 0.260222
O O9 0.872952 0.135254 0.124734
O O10 0.408347 0.111321 0.215584
O O11 0.263684 0.843807 0.894813
O O12 0.392471 0.504209 0.122205
O O13 0.500000 0.402081 0.500000
#
# Coordination Sequence:
#
# PCOD8045210 Si02
#       6
#     2   2   2   2   2   2
#     4  11  21  41  67  91 127 164 199 256 315 361
#     4   9  20  38  63  93 123 161 208 253 301 362
#     4   9  20  41  67  92 123 161 205 253 303 365
#     4  10  21  41  65  91 123 162 210 255 302 365
#     4  10  22  43  64  91 128 162 201 254 312 370
#     4  11  24  42  63  88 125 168 210 255 304 363
#
# _framework density 21.54833
#
# number of rings (size 3 to 8) (size 9 to 14) (size 15 to 20)
#    0.000    2.000    0.000    4.000    0.000    5.333 
#    0.000   38.333    0.000    0.000    0.000    0.000 
#    0.000    0.000    0.000    0.000    0.000    0.000 
#
# Total GULP energy -148810.387238 kJ/mol
# GULP energy per Si atom -12400.865603 kJ/mol
# Density = 2.149928 g / cm^3
# Si number density = 21.548330 Si / 1000 Ang^3
#
#
#
# Elastic Constant Matrix: (Units=GPa)
#
#
# Indices 1 2 3 4 5 6 
#
# 1 164.8745 59.9901 77.7526 0.0000 5.9898 0.0000
# 2 59.9901 125.4147 63.7662 0.0000 3.4619 0.0000
# 3 77.7526 63.7662 127.8597 0.0000 -7.9704 0.0000
# 4 0.0000 0.0000 0.0000 9.3891 0.0000 3.0505
# 5 5.9898 3.4619 -7.9704 0.0000 54.7828 0.0000
# 6 0.0000 0.0000 0.0000 3.0505 0.0000 28.3269
#
#
#
# Elastic Compliance Matrix: (Units=1/GPa)
#
#
# Indices 1 2 3 4 5 6 
#
# 1 0.008991 -0.001916 -0.004608 0.000000 -0.001532 0.000000
# 2 -0.001916 0.011208 -0.004497 0.000000 -0.001153 0.000000
# 3 -0.004608 -0.004497 0.013033 0.000000 0.002684 0.000000
# 4 0.000000 0.000000 0.000000 0.110368 0.000000 -0.011886
# 5 -0.001532 -0.001153 0.002684 0.000000 0.018885 0.000000
# 6 0.000000 0.000000 0.000000 -0.011886 0.000000 0.036582
#
#
# Mechanical properties :
#
#
# Convention : Reuss Voigt Hill
#
# Bulk Modulus (GPa) = 89.34932 91.24075 90.29504
# Shear Modulus (GPa) = 22.23839 32.94242 27.59041
#
# Velocity S-wave (km/s) = 3.21600 3.91419 3.58214
# Velocity P-wave (km/s) = 7.43941 7.92856 7.68788
#
# Compressibility (1/GPa) = 0.01119203
#
# Stress axis : x y z
#
# Youngs Moduli (GPa) = 111.22566 89.22242 76.72950
#
# Poissons Ratio (x) = 0.17092 0.35353
# Poissons Ratio (y) = 0.21307 0.34502
# Poissons Ratio (z) = 0.51247 0.40120
#
# Static dielectric constant tensor:
#      x y z
#    x 4.343240 0.000000 0.029490 
#    y 0.000000 3.597830 0.000000 
#    z 0.029490 0.000000 3.775640 
# 
# 
# High freq. dielectric constant tensor:
#      x y z
#    x 1.866720 0.000000 0.002190 
#    y 0.000000 1.821150 0.000000 
#    z 0.002190 0.000000 1.840930 
# 
# From -- ./inp_files/8354.got.cif
#   From: 2010.03.12/outbox.cif.g09.slc.cpg/sg3_5_cif.got.tgz:8354.got - 2010.03.31 09:20:49.
