data_PCOD8045097
_publ_section_title
;
Structure prediction by ZEFSAII (Michael W. Deem and Ramdas Pophale) SiO2 
 PCOD8045097
Probable space group: P 2
;
_chemical_formula_sum "Si O2"
_cell_formula_units_Z 12
_cell_length_a 17.008094
_cell_length_b 7.685112
_cell_length_c 8.781306
_cell_angle_alpha 90.000000
_cell_angle_beta 32.059281
_cell_angle_gamma 90.000000
_cell_volume 609.246353
_symmetry_space_group_name_H-M "P 2"
_symmetry_group_IT_number 3
_symmetry_cell_setting 'monoclinic'
loop_
_space_group_symop_operation_xyz
x,y,z
-x,y,-z
loop_
_atom_site_type_symbol
_atom_site_label
_atom_site_fract_x
_atom_site_fract_y
_atom_site_fract_z
Si Si1 0.605071 0.835990 0.191684
Si Si2 0.958003 0.184700 0.243109
Si Si3 0.079055 0.873741 0.213983
Si Si4 0.941169 0.537257 0.424058
Si Si5 0.373881 0.135516 0.090023
Si Si6 0.595410 0.526747 0.993139
O O1 0.500000 0.895536 0.500000
O O2 0.759429 0.800342 0.018807
O O3 0.544192 0.658975 0.210973
O O4 0.628920 0.994048 0.036791
O O5 0.003874 0.369437 0.237141
O O6 0.785556 0.142506 0.562779
O O7 0.071770 0.044167 0.123123
O O8 0.000000 0.193997 0.000000
O O9 0.000000 0.924687 0.500000
O O10 0.001558 0.714983 0.250894
O O11 0.767436 0.559351 0.684753
O O12 0.000000 0.529379 0.500000
O O13 0.420835 0.321926 0.939310
O O14 0.500000 0.076203 0.000000
O O15 0.500000 0.571072 0.000000
#
# Coordination Sequence:
#
# PCOD8045097 Si02
#       6
#     2   2   2   2   2   2
#     4  12  25  40  63  95 123 167 213 256 308 373
#     4  11  24  39  65  96 123 162 208 259 312 371
#     4  11  21  42  65  89 123 165 211 258 313 365
#     4  10  20  41  68  90 121 167 208 254 314 368
#     4  10  23  43  63  88 128 166 201 255 317 369
#     4  10  21  42  65  89 124 168 207 252 316 372
#
# _framework density 19.696463999999999
#
# number of rings (size 3 to 8) (size 9 to 14) (size 15 to 20)
#    0.000    1.333    5.000    1.000    4.667    1.333 
#    9.000    0.000    0.000    0.000    0.000    0.000 
#    0.000    0.000    0.000    0.000    0.000    0.000 
#
# Total GULP energy -148736.685849 kJ/mol
# GULP energy per Si atom -12394.723821 kJ/mol
# Density = 1.965163 g / cm^3
# Si number density = 19.696464 Si / 1000 Ang^3
#
#
#
# Elastic Constant Matrix: (Units=GPa)
#
#
# Indices 1 2 3 4 5 6 
#
# 1 109.7024 53.3801 41.9052 0.0000 -13.3174 0.0000
# 2 53.3801 141.7448 33.9672 0.0000 16.3903 0.0000
# 3 41.9052 33.9672 88.0663 0.0000 11.6314 0.0000
# 4 0.0000 0.0000 0.0000 -60.2277 0.0000 -66.4832
# 5 -13.3174 16.3903 11.6314 0.0000 31.8269 0.0000
# 6 0.0000 0.0000 0.0000 -66.4832 0.0000 2.7781
#
#
#
# Elastic Compliance Matrix: (Units=1/GPa)
#
#
# Indices 1 2 3 4 5 6 
#
# 1 0.016138 -0.005810 -0.007067 0.000000 0.012327 0.000000
# 2 -0.005810 0.010158 -0.000149 0.000000 -0.007608 0.000000
# 3 -0.007067 -0.000149 0.015924 0.000000 -0.008700 0.000000
# 4 0.000000 0.000000 0.000000 -0.000606 0.000000 -0.014493
# 5 0.012327 -0.007608 -0.008700 0.000000 0.043675 0.000000
# 6 0.000000 0.000000 0.000000 -0.014493 0.000000 0.013129
#
#
# Mechanical properties :
#
#
# Convention : Reuss Voigt Hill
#
# Bulk Modulus (GPa) = 61.84048 66.44649 64.14348
# Shear Modulus (GPa) = 38.50326 8.89287 23.69806
#
# Velocity S-wave (km/s) = 4.42614 2.12715 3.47243
# Velocity P-wave (km/s) = 7.58854 6.31201 6.97952
#
# Compressibility (1/GPa) = 0.01617064
#
# Stress axis : x y z
#
# Youngs Moduli (GPa) = 61.96463 98.44323 62.79821
#
# Poissons Ratio (x) = 0.57191 0.44377
# Poissons Ratio (y) = 0.35999 0.00934
# Poissons Ratio (z) = 0.43787 0.01465
#
# Static dielectric constant tensor:
#      x y z
#    x 3.768530 0.000000 -0.027950 
#    y 0.000000 4.083440 0.000000 
#    z -0.027950 0.000000 3.330450 
# 
# 
# High freq. dielectric constant tensor:
#      x y z
#    x 1.774330 0.000000 -0.020010 
#    y 0.000000 1.792030 0.000000 
#    z -0.020010 0.000000 1.744360 
# 
# From -- ./inp_files/9075.got.cif
#   From: 2010.03.12/outbox.cif.g09.slc.cpg/sg3_5_cif.got.tgz:9075.got - 2010.03.31 09:20:49.
