data_PCOD8045536
_publ_section_title
;
Structure prediction by ZEFSAII (Michael W. Deem and Ramdas Pophale) SiO2 
 PCOD8045536
Probable space group: P 2
;
_chemical_formula_sum "Si O2"
_cell_formula_units_Z 13
_cell_length_a 11.304877
_cell_length_b 5.168032
_cell_length_c 11.004479
_cell_angle_alpha 90.000000
_cell_angle_beta 112.057742
_cell_angle_gamma 90.000000
_cell_volume 595.866943
_symmetry_space_group_name_H-M "P 2"
_symmetry_group_IT_number 3
_symmetry_cell_setting 'monoclinic'
loop_
_space_group_symop_operation_xyz
x,y,z
-x,y,-z
loop_
_atom_site_type_symbol
_atom_site_label
_atom_site_fract_x
_atom_site_fract_y
_atom_site_fract_z
Si Si1 0.643570 0.070350 0.523989
Si Si2 0.500000 0.388807 0.000000
Si Si3 0.971827 0.482330 0.128092
Si Si4 0.752297 0.574404 0.686024
Si Si5 0.374113 0.751644 0.120511
Si Si6 0.626068 0.025069 0.243724
Si Si7 0.187997 0.986543 0.885982
O O1 0.500000 0.987029 0.500000
O O2 0.672845 0.332479 0.606516
O O3 0.665636 0.131344 0.390528
O O4 0.733282 0.831707 0.598104
O O5 0.384909 0.558423 0.010645
O O6 0.563621 0.238534 0.134500
O O7 0.906146 0.759748 0.110929
O O8 0.099942 0.496501 0.257253
O O9 0.884411 0.257851 0.150214
O O10 0.000000 0.411199 0.000000
O O11 0.708932 0.626496 0.806366
O O12 0.516369 0.810701 0.223681
O O13 0.300212 0.000100 0.033253
O O14 0.751805 0.921227 0.223384
#
# Coordination Sequence:
#
# PCOD8045536 Si02
#       7
#     2   1   2   2   2   2   2
#     4  12  27  47  73 106 148 192 236 291 368 442
#     4  12  22  42  68 108 152 174 232 300 388 414
#     4  12  27  45  74 102 145 191 248 296 354 425
#     4  12  28  48  70 107 144 191 247 292 352 441
#     4  12  24  41  74 107 148 179 234 317 370 430
#     4  12  26  43  73 111 147 189 236 308 373 431
#     4  12  25  45  71 112 138 190 237 307 368 422
#
# _framework density 21.816949000000001
#
# number of rings (size 3 to 8) (size 9 to 14) (size 15 to 20)
#    0.000    0.000    6.154    3.692    4.308    0.000 
#    0.000    4.615    0.000    0.000    0.000    0.000 
#    0.000    0.000    0.000    0.000    0.000    0.000 
#
# Total GULP energy -161237.907941 kJ/mol
# GULP energy per Si atom -12402.915995 kJ/mol
# Density = 2.176729 g / cm^3
# Si number density = 21.816949 Si / 1000 Ang^3
#
#
#
# Elastic Constant Matrix: (Units=GPa)
#
#
# Indices 1 2 3 4 5 6 
#
# 1 106.8353 23.1828 46.8496 0.0000 -4.1476 0.0000
# 2 23.1828 106.7306 37.6696 0.0000 4.6776 0.0000
# 3 46.8496 37.6696 136.2700 0.0000 -11.6986 0.0000
# 4 0.0000 0.0000 0.0000 28.7837 0.0000 10.0012
# 5 -4.1476 4.6776 -11.6986 0.0000 28.9210 0.0000
# 6 0.0000 0.0000 0.0000 10.0012 0.0000 27.4890
#
#
#
# Elastic Compliance Matrix: (Units=1/GPa)
#
#
# Indices 1 2 3 4 5 6 
#
# 1 0.011160 -0.001218 -0.003466 0.000000 0.000395 0.000000
# 2 -0.001218 0.010763 -0.002819 0.000000 -0.003056 0.000000
# 3 -0.003466 -0.002819 0.009640 0.000000 0.003858 0.000000
# 4 0.000000 0.000000 0.000000 0.039769 0.000000 -0.014469
# 5 0.000395 -0.003056 0.003858 0.000000 0.036689 0.000000
# 6 0.000000 0.000000 0.000000 -0.014469 0.000000 0.041642
#
#
# Mechanical properties :
#
#
# Convention : Reuss Voigt Hill
#
# Bulk Modulus (GPa) = 60.39640 62.80444 61.60042
# Shear Modulus (GPa) = 29.37926 33.18099 31.28012
#
# Velocity S-wave (km/s) = 3.67362 3.90408 3.79060
# Velocity P-wave (km/s) = 6.76294 7.01227 6.88873
#
# Compressibility (1/GPa) = 0.01655728
#
# Stress axis : x y z
#
# Youngs Moduli (GPa) = 89.60724 92.91337 103.72966
#
# Poissons Ratio (x) = 0.11317 0.35954
# Poissons Ratio (y) = 0.10914 0.29239
# Poissons Ratio (z) = 0.31059 0.26190
#
# Static dielectric constant tensor:
#      x y z
#    x 4.419120 0.000000 -0.041620 
#    y 0.000000 3.928940 0.000000 
#    z -0.041620 0.000000 4.004150 
# 
# 
# High freq. dielectric constant tensor:
#      x y z
#    x 1.868260 0.000000 -0.002610 
#    y 0.000000 1.864330 0.000000 
#    z -0.002610 0.000000 1.851590 
# 
# From -- ./inp_files/11154.got.cif
#   From: 2010.03.12/outbox.cif.g09.slc.cpg/sg3_6_cif.got.tgz:11154.got - 2010.03.31 09:20:49.
