data_PCOD8045382
_publ_section_title
;
Structure prediction by ZEFSAII (Michael W. Deem and Ramdas Pophale) SiO2 
 PCOD8045382
Probable space group: P 2
;
_chemical_formula_sum "Si O2"
_cell_formula_units_Z 12
_cell_length_a 7.744152
_cell_length_b 8.538512
_cell_length_c 8.742706
_cell_angle_alpha 90.000000
_cell_angle_beta 69.898538
_cell_angle_gamma 90.000000
_cell_volume 542.884026
_symmetry_space_group_name_H-M "P 2"
_symmetry_group_IT_number 3
_symmetry_cell_setting 'monoclinic'
loop_
_space_group_symop_operation_xyz
x,y,z
-x,y,-z
loop_
_atom_site_type_symbol
_atom_site_label
_atom_site_fract_x
_atom_site_fract_y
_atom_site_fract_z
Si Si1 0.500000 0.078411 0.000000
Si Si2 0.210628 0.276539 0.238760
Si Si3 0.523630 0.482936 0.165662
Si Si4 0.798367 0.800260 0.398588
Si Si5 0.092694 0.496869 0.814733
Si Si6 0.000000 0.047261 0.500000
Si Si7 0.515997 0.824804 0.737527
O O1 0.683102 0.186095 0.932033
O O2 0.507996 0.974183 0.846796
O O3 0.031470 0.361242 0.222150
O O4 0.161633 0.156131 0.387823
O O5 0.342356 0.400271 0.291838
O O6 0.706392 0.427164 0.201197
O O7 0.527451 0.669222 0.155486
O O8 0.500000 0.422319 0.000000
O O9 0.890455 0.638899 0.312315
O O10 0.709779 0.787813 0.595669
O O11 0.642725 0.858691 0.333863
O O12 0.945524 0.939089 0.370839
O O13 0.000000 0.560457 0.000000
#
# Coordination Sequence:
#
# PCOD8045382 Si02
#       7
#     1   2   2   2   2   1   2
#     4  12  22  46  78  98 152 192 236 302 362 438
#     4  12  27  43  68 108 146 191 232 299 366 431
#     4  11  22  44  71  99 135 183 241 295 350 421
#     4  10  25  45  69 102 140 184 245 298 353 427
#     4  11  24  44  73 107 137 187 251 300 352 430
#     4  12  28  44  66 106 148 196 232 298 374 426
#     4  10  23  45  73 102 132 192 246 294 355 426
#
# _framework density 22.104168000000001
#
# number of rings (size 3 to 8) (size 9 to 14) (size 15 to 20)
#    0.000    1.000    5.000    0.000    4.667    5.333 
#    0.000    0.000    0.000    0.000    0.000    0.000 
#    0.000    0.000    0.000    0.000    0.000    0.000 
#
# Total GULP energy -148674.558975 kJ/mol
# GULP energy per Si atom -12389.546581 kJ/mol
# Density = 2.205386 g / cm^3
# Si number density = 22.104168 Si / 1000 Ang^3
#
#
#
# Elastic Constant Matrix: (Units=GPa)
#
#
# Indices 1 2 3 4 5 6 
#
# 1 155.0450 79.8969 35.3835 0.0000 -0.0918 0.0000
# 2 79.8969 140.8451 53.1400 0.0000 4.3625 0.0000
# 3 35.3835 53.1400 100.8478 0.0000 -3.6379 0.0000
# 4 0.0000 0.0000 0.0000 39.3204 0.0000 -14.6965
# 5 -0.0918 4.3625 -3.6379 0.0000 24.3705 0.0000
# 6 0.0000 0.0000 0.0000 -14.6965 0.0000 28.3242
#
#
#
# Elastic Compliance Matrix: (Units=1/GPa)
#
#
# Indices 1 2 3 4 5 6 
#
# 1 0.009160 -0.005019 -0.000538 0.000000 0.000853 0.000000
# 2 -0.005019 0.011742 -0.004527 0.000000 -0.002797 0.000000
# 3 -0.000538 -0.004527 0.012587 0.000000 0.002687 0.000000
# 4 0.000000 0.000000 0.000000 0.031551 0.000000 0.016371
# 5 0.000853 -0.002797 0.002687 0.000000 0.041938 0.000000
# 6 0.000000 0.000000 0.000000 0.016371 0.000000 0.043800
#
#
# Mechanical properties :
#
#
# Convention : Reuss Voigt Hill
#
# Bulk Modulus (GPa) = 75.07675 81.50875 78.29275
# Shear Modulus (GPa) = 28.50854 33.62419 31.06637
#
# Velocity S-wave (km/s) = 3.59519 3.90445 3.75300
# Velocity P-wave (km/s) = 7.16048 7.56843 7.36728
#
# Compressibility (1/GPa) = 0.01331970
#
# Stress axis : x y z
#
# Youngs Moduli (GPa) = 109.17532 85.16485 79.44634
#
# Poissons Ratio (x) = 0.42747 0.04275
# Poissons Ratio (y) = 0.54799 0.35965
# Poissons Ratio (z) = 0.05875 0.38554
#
# Static dielectric constant tensor:
#      x y z
#    x 4.197700 0.000000 -0.215730 
#    y 0.000000 4.017190 0.000000 
#    z -0.215730 0.000000 4.082490 
# 
# 
# High freq. dielectric constant tensor:
#      x y z
#    x 1.876160 0.000000 -0.011350 
#    y 0.000000 1.880480 0.000000 
#    z -0.011350 0.000000 1.861890 
# 
# From -- ./inp_files/5114.got.cif
#   From: 2010.03.12/outbox.cif.g09.slc.cpg/sg3_3_cif.got.tgz:5114.got - 2010.03.31 09:20:49.
