data_PCOD8045610
_publ_section_title
;
Structure prediction by ZEFSAII (Michael W. Deem and Ramdas Pophale) SiO2 
 PCOD8045610
Probable space group: P 21
;
_chemical_formula_sum "Si O2"
_cell_formula_units_Z 14
_cell_length_a 10.526843
_cell_length_b 5.309913
_cell_length_c 13.418585
_cell_angle_alpha 90.000000
_cell_angle_beta 122.304607
_cell_angle_gamma 90.000000
_cell_volume 633.959413
_symmetry_space_group_name_H-M "P 21"
_symmetry_group_IT_number 4
_symmetry_cell_setting 'monoclinic'
loop_
_space_group_symop_operation_xyz
x,y,z
-x,1/2+y,-z
loop_
_atom_site_type_symbol
_atom_site_label
_atom_site_fract_x
_atom_site_fract_y
_atom_site_fract_z
Si Si1 0.114174 0.604570 0.279565
Si Si2 0.346833 0.106656 0.100758
Si Si3 0.424534 0.606360 0.338854
Si Si4 0.254776 0.606450 0.055686
Si Si5 0.930376 0.130652 0.514408
Si Si6 0.072195 0.104846 0.139673
Si Si7 0.580798 0.106341 0.357791
O O1 0.296658 0.604994 0.370991
O O2 0.038446 0.607348 0.355488
O O3 0.061322 0.350146 0.203892
O O4 0.061358 0.854769 0.200947
O O5 0.314972 0.358033 0.022469
O O6 0.511822 0.106750 0.216984
O O7 0.224133 0.107182 0.139962
O O8 0.315149 0.854971 0.022746
O O9 0.330197 0.605466 0.196323
O O10 0.527955 0.358890 0.393221
O O11 0.525299 0.856307 0.392591
O O12 0.074982 0.607095 0.993778
O O13 0.756587 0.099014 0.415294
O O14 0.980114 0.407924 0.501746
#
# Coordination Sequence:
#
# PCOD8045610 Si02
#       7
#     2   2   2   2   2   2   2
#     4  12  23  37  59  87 126 149 202 243 289 356
#     4  10  17  31  50  89 122 158 188 208 285 357
#     4  10  19  35  57 102 121 151 181 225 309 358
#     4  10  18  28  52  86 143 159 174 206 279 393
#     4  12  28  48  63  82 105 159 217 253 298 338
#     4  12  19  33  53  93 134 159 179 224 290 363
#     4  10  20  38  62  83 121 147 191 249 294 353
#
# _framework density 22.083434
#
# number of rings (size 3 to 8) (size 9 to 14) (size 15 to 20)
#    0.000    1.143    5.714    3.429    0.000    1.143 
#    0.000    0.000    0.000    0.000    0.000   80.000 
#    0.000    0.000    0.000    0.000    0.000    0.000 
#
# Total GULP energy -173524.710716 kJ/mol
# GULP energy per Si atom -12394.622194 kJ/mol
# Density = 2.203317 g / cm^3
# Si number density = 22.083434 Si / 1000 Ang^3
#
#
#
# Elastic Constant Matrix: (Units=GPa)
#
#
# Indices 1 2 3 4 5 6 
#
# 1 56.9379 19.4220 26.8741 0.0000 8.2526 0.0000
# 2 19.4220 218.3671 22.8511 0.0000 1.9998 0.0000
# 3 26.8741 22.8511 65.6480 0.0000 18.1981 0.0000
# 4 0.0000 0.0000 0.0000 16.7055 0.0000 9.6328
# 5 8.2526 1.9998 18.1981 0.0000 23.4128 0.0000
# 6 0.0000 0.0000 0.0000 9.6328 0.0000 25.0329
#
#
#
# Elastic Compliance Matrix: (Units=1/GPa)
#
#
# Indices 1 2 3 4 5 6 
#
# 1 0.022027 -0.001079 -0.008304 0.000000 -0.001217 0.000000
# 2 -0.001079 0.004829 -0.001568 0.000000 0.001187 0.000000
# 3 -0.008304 -0.001568 0.023363 0.000000 -0.015099 0.000000
# 4 0.000000 0.000000 0.000000 0.076930 0.000000 -0.029603
# 5 -0.001217 0.001187 -0.015099 0.000000 0.054775 0.000000
# 6 0.000000 0.000000 0.000000 -0.029603 0.000000 0.051339
#
#
# Mechanical properties :
#
#
# Convention : Reuss Voigt Hill
#
# Bulk Modulus (GPa) = 35.31460 53.24971 44.28215
# Shear Modulus (GPa) = 18.89614 31.15065 25.02339
#
# Velocity S-wave (km/s) = 2.92836 3.75986 3.36985
# Velocity P-wave (km/s) = 5.24022 6.55851 5.93607
#
# Compressibility (1/GPa) = 0.02831690
#
# Stress axis : x y z
#
# Youngs Moduli (GPa) = 45.39904 207.09805 42.80197
#
# Poissons Ratio (x) = 0.22346 0.35543
# Poissons Ratio (y) = 0.04899 0.06711
# Poissons Ratio (z) = 0.37699 0.32473
#
# Static dielectric constant tensor:
#      x y z
#    x 3.456450 0.000000 0.304270 
#    y 0.000000 6.101130 0.000000 
#    z 0.304270 0.000000 3.821460 
# 
# 
# High freq. dielectric constant tensor:
#      x y z
#    x 1.805810 0.000000 0.032380 
#    y 0.000000 1.918070 0.000000 
#    z 0.032380 0.000000 1.864900 
# 
# From -- ./inp_files/13494.got.cif
#   From: 2010.03.12/outbox.cif.g09.slc.cpg/sg4_7_cif.got.tgz:13494.got - 2010.03.31 09:31:35.
