data_PCOD8045676
_publ_section_title
;
Structure prediction by ZEFSAII (Michael W. Deem and Ramdas Pophale) SiO2 
 PCOD8045676
Probable space group: P 21
;
_chemical_formula_sum "Si O2"
_cell_formula_units_Z 16
_cell_length_a 8.668417
_cell_length_b 7.911933
_cell_length_c 10.915319
_cell_angle_alpha 90.000000
_cell_angle_beta 95.711946
_cell_angle_gamma 90.000000
_cell_volume 744.898528
_symmetry_space_group_name_H-M "P 21"
_symmetry_group_IT_number 4
_symmetry_cell_setting 'monoclinic'
loop_
_space_group_symop_operation_xyz
x,y,z
-x,1/2+y,-z
loop_
_atom_site_type_symbol
_atom_site_label
_atom_site_fract_x
_atom_site_fract_y
_atom_site_fract_z
Si Si1 0.701546 0.292590 0.333385
Si Si2 0.897431 0.619549 0.857547
Si Si3 0.466670 0.030366 0.535105
Si Si4 0.337293 0.270532 0.720091
Si Si5 0.804693 0.989729 0.478963
Si Si6 0.439164 0.077249 0.259212
Si Si7 0.004878 0.940264 0.720106
Si Si8 0.937135 0.754997 0.129407
O O1 0.620119 0.351163 0.454431
O O2 0.820719 0.147671 0.387887
O O3 0.565892 0.221305 0.232412
O O4 0.806603 0.428871 0.269431
O O5 0.713745 0.584728 0.834713
O O6 0.936986 0.763261 0.761992
O O7 0.988696 0.442029 0.844584
O O8 0.940528 0.705276 0.988459
O O9 0.421892 0.113612 0.662346
O O10 0.649992 0.003833 0.548669
O O11 0.402340 0.104181 0.401746
O O12 0.209196 0.328211 0.610194
O O13 0.476572 0.399897 0.756126
O O14 0.241016 0.244705 0.837656
O O15 0.951465 0.971201 0.577049
O O16 0.962465 0.107166 0.795527
#
# Coordination Sequence:
#
# PCOD8045676 Si02
#       8
#     2   2   2   2   2   2   2   2
#     4  10  21  39  63 101 142 165 223 275 339 411
#     4  12  26  50  70  94 133 186 236 286 340 398
#     4  10  18  36  63  97 138 171 218 266 335 414
#     4  10  21  42  63  99 137 170 223 278 336 404
#     4  10  22  37  64 104 133 178 208 272 348 413
#     4  10  22  42  67  96 130 181 217 284 332 408
#     4  12  25  43  70 100 139 179 222 282 347 404
#     4  12  27  47  68  97 134 180 235 289 337 402
#
# _framework density 21.479437000000001
#
# number of rings (size 3 to 8) (size 9 to 14) (size 15 to 20)
#    0.000    1.500    2.500    6.000    5.250    1.000 
#    2.250    0.000    0.000    0.000    0.000    0.000 
#    0.000    0.000    0.000    0.000    0.000    0.000 
#
# Total GULP energy -198222.252045 kJ/mol
# GULP energy per Si atom -12388.890753 kJ/mol
# Density = 2.143055 g / cm^3
# Si number density = 21.479437 Si / 1000 Ang^3
#
#
#
# Elastic Constant Matrix: (Units=GPa)
#
#
# Indices 1 2 3 4 5 6 
#
# 1 78.9185 19.8636 15.8646 0.0000 5.5201 0.0000
# 2 19.8636 91.9070 13.5741 0.0000 1.4277 0.0000
# 3 15.8646 13.5741 41.1753 0.0000 2.4174 0.0000
# 4 0.0000 0.0000 0.0000 25.9460 0.0000 -11.2456
# 5 5.5201 1.4277 2.4174 0.0000 32.9707 0.0000
# 6 0.0000 0.0000 0.0000 -11.2456 0.0000 31.1680
#
#
#
# Elastic Compliance Matrix: (Units=1/GPa)
#
#
# Indices 1 2 3 4 5 6 
#
# 1 0.014338 -0.002386 -0.004623 0.000000 -0.001958 0.000000
# 2 -0.002386 0.011836 -0.002989 0.000000 0.000106 0.000000
# 3 -0.004623 -0.002989 0.027117 0.000000 -0.001085 0.000000
# 4 0.000000 0.000000 0.000000 0.045686 0.000000 0.016484
# 5 -0.001958 0.000106 -0.001085 0.000000 0.030733 0.000000
# 6 0.000000 0.000000 0.000000 0.016484 0.000000 0.038032
#
#
# Mechanical properties :
#
#
# Convention : Reuss Voigt Hill
#
# Bulk Modulus (GPa) = 30.03403 34.51173 32.27288
# Shear Modulus (GPa) = 25.14650 28.86350 27.00500
#
# Velocity S-wave (km/s) = 3.42530 3.66973 3.54962
# Velocity P-wave (km/s) = 5.44579 5.83593 5.64423
#
# Compressibility (1/GPa) = 0.03329557
#
# Stress axis : x y z
#
# Youngs Moduli (GPa) = 69.74449 84.48815 36.87774
#
# Poissons Ratio (x) = 0.20156 0.17048
# Poissons Ratio (y) = 0.16639 0.11023
# Poissons Ratio (z) = 0.32242 0.25253
#
# Static dielectric constant tensor:
#      x y z
#    x 3.797470 0.000000 -0.197590 
#    y 0.000000 4.248190 0.000000 
#    z -0.197590 0.000000 3.575200 
# 
# 
# High freq. dielectric constant tensor:
#      x y z
#    x 1.837290 0.000000 -0.017750 
#    y 0.000000 1.871310 0.000000 
#    z -0.017750 0.000000 1.809260 
# 
# From -- ./inp_files/5823.got.cif
#   From: 2010.03.12/outbox.cif.g09.slc.cpg/sg4_3_cif.got.tgz:5823.got - 2010.03.31 09:31:35.
