data_PCOD8045614
_publ_section_title
;
Structure prediction by ZEFSAII (Michael W. Deem and Ramdas Pophale) SiO2 
 PCOD8045614
Probable space group: P 21
;
_chemical_formula_sum "Si O2"
_cell_formula_units_Z 16
_cell_length_a 13.905943
_cell_length_b 9.473741
_cell_length_c 8.156928
_cell_angle_alpha 90.000000
_cell_angle_beta 137.228315
_cell_angle_gamma 90.000000
_cell_volume 729.740817
_symmetry_space_group_name_H-M "P 21"
_symmetry_group_IT_number 4
_symmetry_cell_setting 'monoclinic'
loop_
_space_group_symop_operation_xyz
x,y,z
-x,1/2+y,-z
loop_
_atom_site_type_symbol
_atom_site_label
_atom_site_fract_x
_atom_site_fract_y
_atom_site_fract_z
Si Si1 0.756295 0.340460 0.243199
Si Si2 0.295157 0.983421 0.330462
Si Si3 0.553075 0.268132 0.263764
Si Si4 0.231907 0.548166 0.357220
Si Si5 0.145187 0.249091 0.267108
Si Si6 0.718631 0.621097 0.020253
Si Si7 0.991876 0.222805 0.747477
Si Si8 0.141011 0.735047 0.965733
O O1 0.616684 0.286018 0.161796
O O2 0.724247 0.501017 0.162593
O O3 0.894581 0.337348 0.533060
O O4 0.782883 0.244941 0.114951
O O5 0.226098 0.100525 0.362707
O O6 0.418810 0.905147 0.586263
O O7 0.181098 0.866859 0.133404
O O8 0.348739 0.063778 0.234879
O O9 0.620658 0.125895 0.423035
O O10 0.383907 0.245700 0.043180
O O11 0.254438 0.380429 0.413667
O O12 0.186056 0.590105 0.113505
O O13 0.109366 0.591385 0.333159
O O14 0.054204 0.285988 0.991330
O O15 0.030127 0.241220 0.270734
O O16 0.878712 0.674479 0.203895
#
# Coordination Sequence:
#
# PCOD8045614 Si02
#       8
#     2   2   2   2   2   2   2   2
#     4  10  21  38  58  84 121 158 194 237 289 351
#     4   9  20  37  60  87 115 151 198 248 292 340
#     4  10  22  41  59  83 121 157 192 241 293 347
#     4   9  18  34  59  87 115 148 193 244 292 343
#     4  10  17  32  58  90 117 149 196 246 291 340
#     4  10  21  40  61  84 117 156 197 243 291 345
#     4   9  20  35  57  87 117 151 195 245 291 342
#     4   9  17  33  58  86 117 152 193 242 293 346
#
# _framework density 21.925594
#
# number of rings (size 3 to 8) (size 9 to 14) (size 15 to 20)
#    0.000    2.500    0.000    3.750    0.000    4.000 
#    0.000   11.250    0.000    0.000    0.000    0.000 
#    0.000    0.000    0.000    0.000    0.000    0.000 
#
# Total GULP energy -198315.344019 kJ/mol
# GULP energy per Si atom -12394.709001 kJ/mol
# Density = 2.187569 g / cm^3
# Si number density = 21.925594 Si / 1000 Ang^3
#
#
#
# Elastic Constant Matrix: (Units=GPa)
#
#
# Indices 1 2 3 4 5 6 
#
# 1 117.1927 35.7140 34.9474 0.0000 5.6395 0.0000
# 2 35.7140 86.0263 24.1026 0.0000 5.2271 0.0000
# 3 34.9474 24.1026 52.3309 0.0000 1.6476 0.0000
# 4 0.0000 0.0000 0.0000 29.5555 0.0000 1.9702
# 5 5.6395 5.2271 1.6476 0.0000 28.7452 0.0000
# 6 0.0000 0.0000 0.0000 1.9702 0.0000 27.6760
#
#
#
# Elastic Compliance Matrix: (Units=1/GPa)
#
#
# Indices 1 2 3 4 5 6 
#
# 1 0.011323 -0.002885 -0.006191 0.000000 -0.001342 0.000000
# 2 -0.002885 0.014207 -0.004562 0.000000 -0.001756 0.000000
# 3 -0.006191 -0.004562 0.025326 0.000000 0.000592 0.000000
# 4 0.000000 0.000000 0.000000 0.033996 0.000000 -0.002420
# 5 -0.001342 -0.001756 0.000592 0.000000 0.035337 0.000000
# 6 0.000000 0.000000 0.000000 -0.002420 0.000000 0.036305
#
#
# Mechanical properties :
#
#
# Convention : Reuss Voigt Hill
#
# Bulk Modulus (GPa) = 42.40645 49.45310 45.92977
# Shear Modulus (GPa) = 26.09237 27.91442 27.00339
#
# Velocity S-wave (km/s) = 3.45344 3.57198 3.51321
# Velocity P-wave (km/s) = 5.94010 6.29413 6.11967
#
# Compressibility (1/GPa) = 0.02358132
#
# Stress axis : x y z
#
# Youngs Moduli (GPa) = 88.31833 70.38945 39.48553
#
# Poissons Ratio (x) = 0.20305 0.24444
# Poissons Ratio (y) = 0.25476 0.18012
# Poissons Ratio (z) = 0.54675 0.32109
#
# Static dielectric constant tensor:
#      x y z
#    x 4.036790 0.000000 -0.128520 
#    y 0.000000 3.817350 0.000000 
#    z -0.128520 0.000000 3.690820 
# 
# 
# High freq. dielectric constant tensor:
#      x y z
#    x 1.866210 0.000000 -0.004350 
#    y 0.000000 1.851870 0.000000 
#    z -0.004350 0.000000 1.830870 
# 
# From -- ./inp_files/9179.got.cif
#   From: 2010.03.12/outbox.cif.g09.slc.cpg/sg4_5_cif.got.tgz:9179.got - 2010.03.31 09:31:35.
