data_PCOD8045381
_publ_section_title
;
Structure prediction by ZEFSAII (Michael W. Deem and Ramdas Pophale) SiO2 
 PCOD8045381
Probable space group: P 2
;
_chemical_formula_sum "Si O2"
_cell_formula_units_Z 11
_cell_length_a 8.361607
_cell_length_b 6.860990
_cell_length_c 14.496115
_cell_angle_alpha 90.000000
_cell_angle_beta 35.293818
_cell_angle_gamma 90.000000
_cell_volume 480.488307
_symmetry_space_group_name_H-M "P 2"
_symmetry_group_IT_number 3
_symmetry_cell_setting 'monoclinic'
loop_
_space_group_symop_operation_xyz
x,y,z
-x,y,-z
loop_
_atom_site_type_symbol
_atom_site_label
_atom_site_fract_x
_atom_site_fract_y
_atom_site_fract_z
Si Si1 0.334188 0.193600 0.484930
Si Si2 0.076290 0.515105 0.361472
Si Si3 0.768555 0.999391 0.989197
Si Si4 0.387590 0.328286 0.822654
Si Si5 0.000000 0.674810 0.000000
Si Si6 0.154848 0.927907 0.256170
O O1 0.500000 0.147855 0.500000
O O2 0.546043 0.201140 0.299707
O O3 0.176458 0.399042 0.565756
O O4 0.109200 0.024316 0.569661
O O5 0.339441 0.371273 0.244273
O O6 0.125755 0.694785 0.269807
O O7 0.000000 0.589983 0.500000
O O8 0.445611 0.970792 0.168811
O O9 0.833348 0.204789 0.010659
O O10 0.829274 0.018100 0.853363
O O11 0.946598 0.815176 0.938488
O O12 0.261509 0.537720 0.854458
#
# Coordination Sequence:
#
# PCOD8045381 Si02
#       6
#     2   2   2   2   1   2
#     4  11  27  44  71 101 137 184 233 292 337 409
#     4  10  23  45  72  97 136 188 232 283 343 412
#     4  11  26  45  72 103 135 189 228 289 350 410
#     4  11  25  47  72 102 140 186 232 283 351 410
#     4  12  26  44  74 102 142 178 238 282 348 418
#     4  11  25  46  70 100 141 181 235 284 348 412
#
# _framework density 22.893377999999998
#
# number of rings (size 3 to 8) (size 9 to 14) (size 15 to 20)
#    0.000    1.091    3.636    0.545   10.182    0.727 
#    0.000    0.000    0.000    0.000    0.000    0.000 
#    0.000    0.000    0.000    0.000    0.000    0.000 
#
# Total GULP energy -136427.469006 kJ/mol
# GULP energy per Si atom -12402.497182 kJ/mol
# Density = 2.284127 g / cm^3
# Si number density = 22.893378 Si / 1000 Ang^3
#
#
#
# Elastic Constant Matrix: (Units=GPa)
#
#
# Indices 1 2 3 4 5 6 
#
# 1 78.5150 16.2904 5.7552 0.0000 1.9726 0.0000
# 2 16.2904 112.0472 23.4841 0.0000 13.1595 0.0000
# 3 5.7552 23.4841 72.4416 0.0000 6.3327 0.0000
# 4 0.0000 0.0000 0.0000 42.5165 0.0000 -3.6105
# 5 1.9726 13.1595 6.3327 0.0000 30.3434 0.0000
# 6 0.0000 0.0000 0.0000 -3.6105 0.0000 37.8216
#
#
#
# Elastic Compliance Matrix: (Units=1/GPa)
#
#
# Indices 1 2 3 4 5 6 
#
# 1 0.013147 -0.001819 -0.000457 0.000000 0.000030 0.000000
# 2 -0.001819 0.010222 -0.002844 0.000000 -0.003722 0.000000
# 3 -0.000457 -0.002844 0.014924 0.000000 -0.001852 0.000000
# 4 0.000000 0.000000 0.000000 0.023712 0.000000 0.002264
# 5 0.000030 -0.003722 -0.001852 0.000000 0.034955 0.000000
# 6 0.000000 0.000000 0.000000 0.002264 0.000000 0.026656
#
#
# Mechanical properties :
#
#
# Convention : Reuss Voigt Hill
#
# Bulk Modulus (GPa) = 35.64731 39.34036 37.49384
# Shear Modulus (GPa) = 34.91420 36.63459 35.77440
#
# Velocity S-wave (km/s) = 3.90946 4.00462 3.95733
# Velocity P-wave (km/s) = 5.99861 6.21322 6.10686
#
# Compressibility (1/GPa) = 0.02805261
#
# Stress axis : x y z
#
# Youngs Moduli (GPa) = 76.06530 97.82399 67.00430
#
# Poissons Ratio (x) = 0.17794 0.03065
# Poissons Ratio (y) = 0.13836 0.19056
# Poissons Ratio (z) = 0.03479 0.27822
#
# Static dielectric constant tensor:
#      x y z
#    x 4.125070 0.000000 -0.304470 
#    y 0.000000 4.030410 0.000000 
#    z -0.304470 0.000000 3.983880 
# 
# 
# High freq. dielectric constant tensor:
#      x y z
#    x 1.909460 0.000000 -0.017950 
#    y 0.000000 1.909160 0.000000 
#    z -0.017950 0.000000 1.895680 
# 
# From -- ./inp_files/4849.got.cif
#   From: 2010.03.12/outbox.cif.g09.slc.cpg/sg3_3_cif.got.tgz:4849.got - 2010.03.31 09:20:49.
