data_PCOD8045044
_publ_section_title
;
Structure prediction by ZEFSAII (Michael W. Deem and Ramdas Pophale) SiO2 
 PCOD8045044
Probable space group: P 2
;
_chemical_formula_sum "Si O2"
_cell_formula_units_Z 16
_cell_length_a 7.733818
_cell_length_b 18.874286
_cell_length_c 9.089626
_cell_angle_alpha 90.000000
_cell_angle_beta 146.335742
_cell_angle_gamma 90.000000
_cell_volume 735.487372
_symmetry_space_group_name_H-M "P 2"
_symmetry_group_IT_number 3
_symmetry_cell_setting 'monoclinic'
loop_
_space_group_symop_operation_xyz
x,y,z
-x,y,-z
loop_
_atom_site_type_symbol
_atom_site_label
_atom_site_fract_x
_atom_site_fract_y
_atom_site_fract_z
Si Si1 0.368596 0.864860 0.750792
Si Si2 0.728379 0.237681 0.023612
Si Si3 0.349633 0.621642 0.737272
Si Si4 0.777591 0.397745 0.080431
Si Si5 0.359788 0.020779 0.745430
Si Si6 0.766703 0.159836 0.472433
Si Si7 0.635971 0.742705 0.753680
Si Si8 0.607951 0.479915 0.414481
O O1 0.480265 0.814847 0.699109
O O2 0.000000 0.861958 0.500000
O O3 0.508640 0.943946 0.813841
O O4 0.500000 0.837844 0.000000
O O5 0.516035 0.216239 0.734303
O O6 0.500000 0.231587 0.000000
O O7 0.860198 0.316677 0.099965
O O8 0.020702 0.182377 0.238496
O O9 0.572803 0.678816 0.820650
O O10 0.323796 0.551045 0.624263
O O11 0.000000 0.653645 0.500000
O O12 0.500000 0.601936 0.000000
O O13 0.080922 0.432868 0.366334
O O14 0.500000 0.402786 0.000000
O O15 0.675358 0.436753 0.859140
O O16 0.393231 0.081136 0.641499
O O17 0.000000 0.002884 0.500000
O O18 0.500000 0.050110 0.000000
O O19 0.000000 0.163167 0.500000
O O20 0.500000 0.721817 0.500000
O O21 0.000000 0.755397 0.000000
O O22 0.500000 0.501057 0.500000
#
# Coordination Sequence:
#
# PCOD8045044 Si02
#       8
#     2   2   2   2   2   2   2   2
#     4  10  20  37  59  87 121 160 201 242 289 347
#     4   9  17  27  46  74 109 145 185 238 293 341
#     4  12  25  44  68  91 118 155 194 239 291 349
#     4  11  22  39  60  86 118 156 200 245 295 352
#     4   9  16  26  46  75 112 150 189 238 291 341
#     4   9  14  24  41  72 111 145 181 236 299 338
#     4  12  25  42  64  93 125 157 194 240 289 346
#     4  12  25  41  61  88 120 154 194 242 293 350
#
# _framework density 21.754283000000001
#
# number of rings (size 3 to 8) (size 9 to 14) (size 15 to 20)
#    0.000    1.500    0.000    7.875    0.000    3.000 
#    0.000    0.000    0.000    0.000    0.000    8.750 
#    0.000    0.000    0.000    0.000    0.000    0.000 
#
# Total GULP energy -198350.397180 kJ/mol
# GULP energy per Si atom -12396.899824 kJ/mol
# Density = 2.170477 g / cm^3
# Si number density = 21.754283 Si / 1000 Ang^3
#
#
#
# Elastic Constant Matrix: (Units=GPa)
#
#
# Indices 1 2 3 4 5 6 
#
# 1 63.8340 32.5973 20.6511 0.0000 -0.4623 0.0000
# 2 32.5973 146.3299 29.1800 0.0000 5.1647 0.0000
# 3 20.6511 29.1800 120.3960 0.0000 7.7423 0.0000
# 4 0.0000 0.0000 0.0000 39.3669 0.0000 5.7798
# 5 -0.4623 5.1647 7.7423 0.0000 30.7722 0.0000
# 6 0.0000 0.0000 0.0000 5.7798 0.0000 -2.2615
#
#
#
# Elastic Compliance Matrix: (Units=1/GPa)
#
#
# Indices 1 2 3 4 5 6 
#
# 1 0.018306 -0.003662 -0.002348 0.000000 0.001480 0.000000
# 2 -0.003662 0.007932 -0.001225 0.000000 -0.001078 0.000000
# 3 -0.002348 -0.001225 0.009142 0.000000 -0.002130 0.000000
# 4 0.000000 0.000000 0.000000 0.018471 0.000000 0.047207
# 5 0.001480 -0.001078 -0.002130 0.000000 0.033236 0.000000
# 6 0.000000 0.000000 0.000000 0.047207 0.000000 -0.321529
#
#
# Mechanical properties :
#
#
# Convention : Reuss Voigt Hill
#
# Bulk Modulus (GPa) = 47.82147 55.04631 51.43389
# Shear Modulus (GPa) = -23.47393 30.11761 3.32184
#
# Velocity S-wave (km/s) = -3.28845 3.72485 1.23705
# Velocity P-wave (km/s) = 2.75894 6.62253 5.07295
#
# Compressibility (1/GPa) = 0.02091111
#
# Stress axis : x y z
#
# Youngs Moduli (GPa) = 54.62731 126.07192 109.37977
#
# Poissons Ratio (x) = 0.46168 0.25678
# Poissons Ratio (y) = 0.20005 0.13399
# Poissons Ratio (z) = 0.12824 0.15444
#
# Static dielectric constant tensor:
#      x y z
#    x 3.499940 0.000000 0.132680 
#    y 0.000000 4.254030 0.000000 
#    z 0.132680 0.000000 4.140310 
# 
# 
# High freq. dielectric constant tensor:
#      x y z
#    x 1.808850 0.000000 0.010620 
#    y 0.000000 1.870660 0.000000 
#    z 0.010620 0.000000 1.878120 
# 
# From -- ./inp_files/6329.got.cif
#   From: 2010.03.12/outbox.cif.g09.slc.cpg/sg3_4_cif.got.tgz:6329.got - 2010.03.31 09:20:49.
