data_PCOD8045830
_publ_section_title
;
Structure prediction by ZEFSAII (Michael W. Deem and Ramdas Pophale) SiO2 
 PCOD8045830
Probable space group: P 21
;
_chemical_formula_sum "Si O2"
_cell_formula_units_Z 16
_cell_length_a 15.191831
_cell_length_b 6.478354
_cell_length_c 15.891957
_cell_angle_alpha 90.000000
_cell_angle_beta 151.124570
_cell_angle_gamma 90.000000
_cell_volume 755.293248
_symmetry_space_group_name_H-M "P 21"
_symmetry_group_IT_number 4
_symmetry_cell_setting 'monoclinic'
loop_
_space_group_symop_operation_xyz
x,y,z
-x,1/2+y,-z
loop_
_atom_site_type_symbol
_atom_site_label
_atom_site_fract_x
_atom_site_fract_y
_atom_site_fract_z
Si Si1 0.444882 0.475680 0.330199
Si Si2 0.388090 0.252194 0.807005
Si Si3 0.347250 0.472785 0.064551
Si Si4 0.303667 0.307540 0.378999
Si Si5 0.694987 0.581408 0.082852
Si Si6 0.967878 0.578475 0.747722
Si Si7 0.906623 0.888548 0.559938
Si Si8 0.232454 0.689549 0.430972
O O1 0.324608 0.498352 0.146681
O O2 0.337133 0.337973 0.308064
O O3 0.521048 0.690226 0.433432
O O4 0.609582 0.352034 0.427463
O O5 0.368468 0.201290 0.887647
O O6 0.187161 0.329044 0.607437
O O7 0.463709 0.056604 0.816554
O O8 0.538965 0.426801 0.923162
O O9 0.296029 0.245955 0.985890
O O10 0.178522 0.625908 0.902954
O O11 0.117697 0.177354 0.238294
O O12 0.274735 0.535164 0.390940
O O13 0.882923 0.462087 0.264874
O O14 0.867029 0.690924 0.585801
O O15 0.946197 0.330110 0.734943
O O16 0.787324 0.075165 0.497082
#
# Coordination Sequence:
#
# PCOD8045830 Si02
#       8
#     2   2   2   2   2   2   2   2
#     4  11  22  40  67  94 134 179 234 283 347 415
#     4  12  26  46  70 102 138 181 236 287 353 417
#     4  12  24  45  68  98 138 186 227 294 351 412
#     4  10  21  40  62  96 131 179 231 286 335 412
#     4  12  26  46  70 101 142 178 234 294 348 426
#     4  10  22  41  65  93 137 173 229 282 340 421
#     4  11  24  44  71  98 133 185 226 283 352 413
#     4  10  19  40  65  92 127 175 223 273 338 406
#
# _framework density 21.183826
#
# number of rings (size 3 to 8) (size 9 to 14) (size 15 to 20)
#    0.000    1.000    5.000    3.000    0.000    2.000 
#    4.500    0.000    0.000    0.000    0.000    0.000 
#    0.000    0.000    0.000    0.000    0.000    0.000 
#
# Total GULP energy -198212.693000 kJ/mol
# GULP energy per Si atom -12388.293312 kJ/mol
# Density = 2.113561 g / cm^3
# Si number density = 21.183826 Si / 1000 Ang^3
#
#
#
# Elastic Constant Matrix: (Units=GPa)
#
#
# Indices 1 2 3 4 5 6 
#
# 1 85.4054 29.3887 20.0618 0.0000 -6.7006 0.0000
# 2 29.3887 106.3773 37.7671 0.0000 -3.3995 0.0000
# 3 20.0618 37.7671 83.8127 0.0000 6.6947 0.0000
# 4 0.0000 0.0000 0.0000 25.3313 0.0000 2.4742
# 5 -6.7006 -3.3995 6.6947 0.0000 33.1845 0.0000
# 6 0.0000 0.0000 0.0000 2.4742 0.0000 37.7383
#
#
#
# Elastic Compliance Matrix: (Units=1/GPa)
#
#
# Indices 1 2 3 4 5 6 
#
# 1 0.013420 -0.002851 -0.002155 0.000000 0.002853 0.000000
# 2 -0.002851 0.011957 -0.004835 0.000000 0.001625 0.000000
# 3 -0.002155 -0.004835 0.014941 0.000000 -0.003945 0.000000
# 4 0.000000 0.000000 0.000000 0.039731 0.000000 -0.002605
# 5 0.002853 0.001625 -0.003945 0.000000 0.031673 0.000000
# 6 0.000000 0.000000 0.000000 -0.002605 0.000000 0.026669
#
#
# Mechanical properties :
#
#
# Convention : Reuss Voigt Hill
#
# Bulk Modulus (GPa) = 48.46232 50.00338 49.23285
# Shear Modulus (GPa) = 30.31174 31.80935 31.06054
#
# Velocity S-wave (km/s) = 3.78682 3.87924 3.83330
# Velocity P-wave (km/s) = 6.48434 6.61214 6.54855
#
# Compressibility (1/GPa) = 0.02063459
#
# Stress axis : x y z
#
# Youngs Moduli (GPa) = 74.51526 83.63492 66.92920
#
# Poissons Ratio (x) = 0.23846 0.14426
# Poissons Ratio (y) = 0.21246 0.32361
# Poissons Ratio (z) = 0.16061 0.40439
#
# Static dielectric constant tensor:
#      x y z
#    x 3.847310 0.000000 0.199370 
#    y 0.000000 4.041500 0.000000 
#    z 0.199370 0.000000 3.988150 
# 
# 
# High freq. dielectric constant tensor:
#      x y z
#    x 1.837500 0.000000 0.013840 
#    y 0.000000 1.841280 0.000000 
#    z 0.013840 0.000000 1.814070 
# 
# From -- ./inp_files/14108.got.cif
#   From: 2010.03.12/outbox.cif.g09.slc.cpg/sg4_8_cif.got.tgz:14108.got - 2010.03.31 09:31:35.
