data_PCOD8045941
_publ_section_title
;
Structure prediction by ZEFSAII (Michael W. Deem and Ramdas Pophale) SiO2 
 PCOD8045941
Probable space group: P 21
;
_chemical_formula_sum "Si O2"
_cell_formula_units_Z 16
_cell_length_a 9.245758
_cell_length_b 8.775325
_cell_length_c 11.526231
_cell_angle_alpha 90.000000
_cell_angle_beta 127.572580
_cell_angle_gamma 90.000000
_cell_volume 741.202728
_symmetry_space_group_name_H-M "P 21"
_symmetry_group_IT_number 4
_symmetry_cell_setting 'monoclinic'
loop_
_space_group_symop_operation_xyz
x,y,z
-x,1/2+y,-z
loop_
_atom_site_type_symbol
_atom_site_label
_atom_site_fract_x
_atom_site_fract_y
_atom_site_fract_z
Si Si1 0.980005 0.767430 0.226988
Si Si2 0.510332 0.469210 0.655057
Si Si3 0.807040 0.169726 0.468400
Si Si4 0.001051 0.603738 0.670685
Si Si5 0.202210 0.100315 0.045352
Si Si6 0.370292 0.980661 0.543905
Si Si7 0.681336 0.172828 0.773953
Si Si8 0.941351 0.270636 0.077682
O O1 0.008934 0.687240 0.365896
O O2 0.156823 0.723943 0.234435
O O3 0.958049 0.947935 0.237188
O O4 0.799701 0.697342 0.076435
O O5 0.303544 0.523511 0.539354
O O6 0.599159 0.558349 0.809088
O O7 0.622504 0.489407 0.591676
O O8 0.513715 0.291404 0.685350
O O9 0.853766 0.138877 0.358354
O O10 0.678128 0.316378 0.426742
O O11 0.029611 0.745402 0.771553
O O12 0.799919 0.594552 0.513603
O O13 0.120289 0.209030 0.103006
O O14 0.080350 0.948855 0.963770
O O15 0.572075 0.017683 0.693618
O O16 0.765911 0.174690 0.944467
#
# Coordination Sequence:
#
# PCOD8045941 Si02
#       8
#     2   2   2   2   2   2   2   2
#     4  10  21  41  61  94 125 163 214 266 312 378
#     4  11  19  40  61  95 119 163 217 266 310 366
#     4  11  25  39  63  93 133 170 206 259 328 383
#     4  11  23  43  60  90 137 170 204 259 327 397
#     4  10  21  35  66  92 123 159 224 266 315 369
#     4  11  21  41  64  92 125 164 218 264 305 378
#     4  10  20  37  64  92 123 157 215 276 305 357
#     4  10  20  38  59  92 123 166 208 270 322 372
#
# _framework density 21.586538000000001
#
# number of rings (size 3 to 8) (size 9 to 14) (size 15 to 20)
#    0.000    1.500    5.000    1.500    0.000    8.000 
#    0.000    6.250    0.000    0.000    0.000    0.000 
#    0.000    0.000    0.000    0.000    0.000    0.000 
#
# Total GULP energy -198219.075280 kJ/mol
# GULP energy per Si atom -12388.692205 kJ/mol
# Density = 2.153741 g / cm^3
# Si number density = 21.586538 Si / 1000 Ang^3
#
#
#
# Elastic Constant Matrix: (Units=GPa)
#
#
# Indices 1 2 3 4 5 6 
#
# 1 65.3290 18.2264 13.0627 0.0000 -23.1258 0.0000
# 2 18.2264 40.3518 17.0950 0.0000 -15.5822 0.0000
# 3 13.0627 17.0950 54.0641 0.0000 -11.6479 0.0000
# 4 0.0000 0.0000 0.0000 44.0024 0.0000 1.8113
# 5 -23.1258 -15.5822 -11.6479 0.0000 23.9484 0.0000
# 6 0.0000 0.0000 0.0000 1.8113 0.0000 22.3940
#
#
#
# Elastic Compliance Matrix: (Units=1/GPa)
#
#
# Indices 1 2 3 4 5 6 
#
# 1 0.023448 -0.002335 -0.000420 0.000000 0.020918 0.000000
# 2 -0.002335 0.035516 -0.006896 0.000000 0.017500 0.000000
# 3 -0.000420 -0.006896 0.022033 0.000000 0.005824 0.000000
# 4 0.000000 0.000000 0.000000 0.022802 0.000000 -0.001844
# 5 0.020918 0.017500 0.005824 0.000000 0.076176 0.000000
# 6 0.000000 0.000000 0.000000 -0.001844 0.000000 0.044804
#
#
# Mechanical properties :
#
#
# Convention : Reuss Voigt Hill
#
# Bulk Modulus (GPa) = 16.20876 28.50146 22.35511
# Shear Modulus (GPa) = 18.89325 25.49301 22.19313
#
# Velocity S-wave (km/s) = 2.96164 3.44025 3.20988
# Velocity P-wave (km/s) = 4.38408 5.38632 4.91083
#
# Compressibility (1/GPa) = 0.06169504
#
# Stress axis : x y z
#
# Youngs Moduli (GPa) = 42.64839 28.15647 45.38600
#
# Poissons Ratio (x) = 0.06575 0.01907
# Poissons Ratio (y) = 0.09959 0.31296
# Poissons Ratio (z) = 0.01792 0.19415
#
# Static dielectric constant tensor:
#      x y z
#    x 3.418590 0.000000 -0.049370 
#    y 0.000000 3.973560 0.000000 
#    z -0.049370 0.000000 4.218950 
# 
# 
# High freq. dielectric constant tensor:
#      x y z
#    x 1.799770 0.000000 0.000820 
#    y 0.000000 1.851220 0.000000 
#    z 0.000820 0.000000 1.859900 
# 
# From -- ./inp_files/10930.got.cif
#   From: 2010.03.12/outbox.cif.g09.slc.cpg/sg4_6_cif.got.tgz:10930.got - 2010.03.31 09:31:35.
