data_PCOD8045104
_publ_section_title
;
Structure prediction by ZEFSAII (Michael W. Deem and Ramdas Pophale) SiO2 
 PCOD8045104
Probable space group: P 2
;
_chemical_formula_sum "Si O2"
_cell_formula_units_Z 12
_cell_length_a 13.579552
_cell_length_b 4.941643
_cell_length_c 19.518655
_cell_angle_alpha 90.000000
_cell_angle_beta 162.350112
_cell_angle_gamma 90.000000
_cell_volume 397.132570
_symmetry_space_group_name_H-M "P 2"
_symmetry_group_IT_number 3
_symmetry_cell_setting 'monoclinic'
loop_
_space_group_symop_operation_xyz
x,y,z
-x,y,-z
loop_
_atom_site_type_symbol
_atom_site_label
_atom_site_fract_x
_atom_site_fract_y
_atom_site_fract_z
Si Si1 0.484119 0.729480 0.067592
Si Si2 0.244180 0.858583 0.514861
Si Si3 0.500000 0.497425 0.500000
Si Si4 0.043570 0.328990 0.307851
Si Si5 0.000000 0.517033 0.500000
Si Si6 0.840231 0.888924 0.826976
Si Si7 0.428728 0.105952 0.148303
O O1 0.862768 0.694428 0.344134
O O2 0.334886 0.979913 0.011713
O O3 0.500000 0.808065 0.000000
O O4 0.284342 0.450163 0.945524
O O5 0.958129 0.066598 0.299220
O O6 0.510466 0.005903 0.640969
O O7 0.363328 0.874942 0.672904
O O8 0.178989 0.553711 0.450279
O O9 0.300532 0.294569 0.416489
O O10 0.762288 0.679359 0.714749
O O11 0.675633 0.358571 0.309488
O O12 0.000000 0.740501 0.000000
O O13 0.081657 0.131004 0.958224
#
# Coordination Sequence:
#
# PCOD8045104 Si02
#       7
#     2   2   1   2   1   2   2
#     4  12  29  49  74 109 153 205 267 320 381 450
#     4  10  25  46  79 118 154 195 251 316 387 465
#     4  10  20  42  74 112 154 198 244 308 390 460
#     4  11  25  46  78 113 158 198 254 314 385 459
#     4  12  30  46  74 108 148 210 262 324 378 452
#     4   9  20  44  71 113 148 196 247 313 382 465
#     4  11  25  50  76 104 154 203 257 317 385 454
#
# _framework density 30.216611
#
# number of rings (size 3 to 8) (size 9 to 14) (size 15 to 20)
#    0.000    1.333    1.667    1.500    9.333    4.667 
#    0.000    6.667    0.000    0.000    0.000    0.000 
#    0.000    0.000    0.000    0.000    0.000    0.000 
#
# Total GULP energy -148673.203212 kJ/mol
# GULP energy per Si atom -12389.433601 kJ/mol
# Density = 3.014784 g / cm^3
# Si number density = 30.216611 Si / 1000 Ang^3
#
#
#
# Elastic Constant Matrix: (Units=GPa)
#
#
# Indices 1 2 3 4 5 6 
#
# 1 149.4697 23.4915 46.4229 0.0000 -27.3212 0.0000
# 2 23.4915 76.3293 -8.4320 0.0000 -21.0519 0.0000
# 3 46.4229 -8.4320 125.1879 0.0000 -18.8826 0.0000
# 4 0.0000 0.0000 0.0000 37.9121 0.0000 -9.8228
# 5 -27.3212 -21.0519 -18.8826 0.0000 86.6068 0.0000
# 6 0.0000 0.0000 0.0000 -9.8228 0.0000 2.5658
#
#
#
# Elastic Compliance Matrix: (Units=1/GPa)
#
#
# Indices 1 2 3 4 5 6 
#
# 1 0.008272 -0.002512 -0.003035 0.000000 0.001337 0.000000
# 2 -0.002512 0.015087 0.002462 0.000000 0.003412 0.000000
# 3 -0.003035 0.002462 0.009539 0.000000 0.001721 0.000000
# 4 0.000000 0.000000 0.000000 3.252606 0.000000 12.451952
# 5 0.001337 0.003412 0.001721 0.000000 0.013173 0.000000
# 6 0.000000 0.000000 0.000000 12.451952 0.000000 48.059546
#
#
# Mechanical properties :
#
#
# Convention : Reuss Voigt Hill
#
# Bulk Modulus (GPa) = 37.41341 52.66132 45.03737
# Shear Modulus (GPa) = 0.09733 44.71725 22.40729
#
# Velocity S-wave (km/s) = 0.17967 3.85111 2.72611
# Velocity P-wave (km/s) = 3.52869 6.10250 4.98458
#
# Compressibility (1/GPa) = 0.02672839
#
# Stress axis : x y z
#
# Youngs Moduli (GPa) = 120.88614 66.28080 104.83392
#
# Poissons Ratio (x) = 0.16652 0.31818
# Poissons Ratio (y) = 0.30371 -0.25815
# Poissons Ratio (z) = 0.36690 -0.16321
#
# Static dielectric constant tensor:
#      x y z
#    x 6.309410 0.000000 0.198220 
#    y 0.000000 4.747820 0.000000 
#    z 0.198220 0.000000 7.310700 
# 
# 
# High freq. dielectric constant tensor:
#      x y z
#    x 2.265370 0.000000 -0.008120 
#    y 0.000000 2.206200 0.000000 
#    z -0.008120 0.000000 2.287530 
# 
# From -- ./inp_files/15995.got.cif
#   From: 2010.03.12/outbox.cif.g09.slc.cpg/sg3_8_cif.got.tgz:15995.got - 2010.03.31 09:20:49.
