data_PCOD8045453
_publ_section_title
;
Structure prediction by ZEFSAII (Michael W. Deem and Ramdas Pophale) SiO2 
 PCOD8045453
Probable space group: P 2
;
_chemical_formula_sum "Si O2"
_cell_formula_units_Z 13
_cell_length_a 21.367432
_cell_length_b 6.563920
_cell_length_c 17.586784
_cell_angle_alpha 90.000000
_cell_angle_beta 162.498438
_cell_angle_gamma 90.000000
_cell_volume 741.790715
_symmetry_space_group_name_H-M "P 2"
_symmetry_group_IT_number 3
_symmetry_cell_setting 'monoclinic'
loop_
_space_group_symop_operation_xyz
x,y,z
-x,y,-z
loop_
_atom_site_type_symbol
_atom_site_label
_atom_site_fract_x
_atom_site_fract_y
_atom_site_fract_z
Si Si1 0.310393 0.643580 0.904365
Si Si2 0.307016 0.385070 0.614063
Si Si3 0.270009 0.157198 0.270001
Si Si4 0.000000 0.782080 0.000000
Si Si5 0.888246 0.399883 0.776540
Si Si6 0.408333 0.997687 0.816784
Si Si7 0.122303 0.643688 0.528325
O O1 0.237829 0.560445 0.737813
O O2 0.121364 0.669471 0.742650
O O3 0.466629 0.485067 0.122880
O O4 0.413157 0.863129 0.014694
O O5 0.209458 0.405543 0.418945
O O6 0.154064 0.485340 0.497764
O O7 0.332627 0.151335 0.665347
O O8 0.500000 0.153707 0.500000
O O9 0.268738 0.279281 0.348720
O O10 0.189013 0.925395 0.188988
O O11 0.108777 0.279438 0.028831
O O12 0.080337 0.634172 0.160607
O O13 0.209789 0.863319 0.608302
O O14 0.500000 0.102191 0.000000
#
# Coordination Sequence:
#
# PCOD8045453 Si02
#       7
#     2   2   2   1   2   2   2
#     4   9  19  34  50  72 103 140 182 218 248 292
#     4  11  20  33  53  78 107 136 166 210 263 304
#     4   9  19  37  58  76  98 133 171 203 246 310
#     4   8  18  38  56  72  98 134 164 202 254 308
#     4   9  21  36  52  81 111 128 160 212 257 305
#     4   9  18  33  51  70  99 140 178 214 255 296
#     4   9  19  34  50  72 103 140 182 218 248 292
#
# _framework density 17.525158999999999
#
# number of rings (size 3 to 8) (size 9 to 14) (size 15 to 20)
#    0.000    3.077    0.000    2.308    0.000    9.846 
#    0.000    6.154    0.000    0.000    0.000    0.000 
#    0.000    0.000    0.000    0.000    0.000    0.000 
#
# Total GULP energy -161146.661760 kJ/mol
# GULP energy per Si atom -12395.897058 kJ/mol
# Density = 1.748527 g / cm^3
# Si number density = 17.525159 Si / 1000 Ang^3
#
#
#
# Elastic Constant Matrix: (Units=GPa)
#
#
# Indices 1 2 3 4 5 6 
#
# 1 127.7694 61.7805 96.2652 0.0000 -1.5362 0.0000
# 2 61.7805 114.9346 60.5776 0.0000 -2.4000 0.0000
# 3 96.2652 60.5776 132.8707 0.0000 14.0091 0.0000
# 4 0.0000 0.0000 0.0000 22.2979 0.0000 -19.5136
# 5 -1.5362 -2.4000 14.0091 0.0000 50.6359 0.0000
# 6 0.0000 0.0000 0.0000 -19.5136 0.0000 30.7917
#
#
#
# Elastic Compliance Matrix: (Units=1/GPa)
#
#
# Indices 1 2 3 4 5 6 
#
# 1 0.019108 -0.003522 -0.012651 0.000000 0.003913 0.000000
# 2 -0.003522 0.012311 -0.003205 0.000000 0.001363 0.000000
# 3 -0.012651 -0.003205 0.018757 0.000000 -0.005725 0.000000
# 4 0.000000 0.000000 0.000000 0.100689 0.000000 0.063810
# 5 0.003913 0.001363 -0.005725 0.000000 0.021516 0.000000
# 6 0.000000 0.000000 0.000000 0.063810 0.000000 0.072914
#
#
# Mechanical properties :
#
#
# Convention : Reuss Voigt Hill
#
# Bulk Modulus (GPa) = 87.56091 90.31350 88.93721
# Shear Modulus (GPa) = 17.36970 31.20853 24.28912
#
# Velocity S-wave (km/s) = 3.15164 4.22451 3.72688
# Velocity P-wave (km/s) = 7.95708 8.68567 8.32935
#
# Compressibility (1/GPa) = 0.01142062
#
# Stress axis : x y z
#
# Youngs Moduli (GPa) = 52.33445 81.22542 53.31476
#
# Poissons Ratio (x) = 0.28604 0.67447
# Poissons Ratio (y) = 0.18430 0.17089
# Poissons Ratio (z) = 0.66207 0.26035
#
# Static dielectric constant tensor:
#      x y z
#    x 3.161540 0.000000 0.150280 
#    y 0.000000 3.232860 0.000000 
#    z 0.150280 0.000000 3.226480 
# 
# 
# High freq. dielectric constant tensor:
#      x y z
#    x 1.669350 0.000000 0.006230 
#    y 0.000000 1.681040 0.000000 
#    z 0.006230 0.000000 1.672020 
# 
# From -- ./inp_files/15475.got.cif
#   From: 2010.03.12/outbox.cif.g09.slc.cpg/sg3_8_cif.got.tgz:15475.got - 2010.03.31 09:20:49.
