data_PCOD8045497
_publ_section_title
;
Structure prediction by ZEFSAII (Michael W. Deem and Ramdas Pophale) SiO2 
 PCOD8045497
Probable space group: P 2
;
_chemical_formula_sum "Si O2"
_cell_formula_units_Z 16
_cell_length_a 6.563810
_cell_length_b 6.751448
_cell_length_c 21.664993
_cell_angle_alpha 90.000000
_cell_angle_beta 52.703546
_cell_angle_gamma 90.000000
_cell_volume 763.761323
_symmetry_space_group_name_H-M "P 2"
_symmetry_group_IT_number 3
_symmetry_cell_setting 'monoclinic'
loop_
_space_group_symop_operation_xyz
x,y,z
-x,y,-z
loop_
_atom_site_type_symbol
_atom_site_label
_atom_site_fract_x
_atom_site_fract_y
_atom_site_fract_z
Si Si1 0.904446 0.996940 0.585673
Si Si2 0.946720 0.307439 0.341605
Si Si3 0.434517 0.483859 0.190309
Si Si4 0.304247 0.983858 0.690309
Si Si5 0.750517 0.709933 0.415300
Si Si6 0.813139 0.807439 0.158395
Si Si7 0.911715 0.209934 0.084700
Si Si8 0.747138 0.496941 0.914327
O O1 0.602678 0.015168 0.646072
O O2 0.000000 0.042881 0.500000
O O3 0.003066 0.781001 0.590143
O O4 0.032465 0.158514 0.605792
O O5 0.216756 0.407926 0.276338
O O6 0.755646 0.477543 0.400120
O O7 0.825895 0.192905 0.304907
O O8 0.545523 0.692905 0.195093
O O9 0.313033 0.515169 0.146072
O O10 0.649360 0.317785 0.149305
O O11 0.253418 0.817784 0.649305
O O12 0.177892 0.907926 0.776338
O O13 0.500000 0.765609 0.500000
O O14 0.044367 0.658514 0.105792
O O15 0.856125 0.977543 0.099880
O O16 0.136360 0.281002 0.090143
O O17 0.000000 0.265610 0.000000
O O18 0.500000 0.542879 0.000000
#
# Coordination Sequence:
#
# PCOD8045497 Si02
#       8
#     2   2   2   2   2   2   2   2
#     4  11  24  43  67  98 136 174 221 276 326 387
#     4  11  26  41  70  97 132 176 222 270 329 394
#     4  11  24  46  65  96 136 171 221 272 327 394
#     4  11  24  46  65  96 136 171 221 272 327 394
#     4  11  24  42  67  98 135 175 220 274 327 388
#     4  11  26  41  70  97 132 176 222 270 329 394
#     4  11  24  42  67  98 135 175 220 274 327 388
#     4  11  24  43  67  98 136 174 221 276 326 387
#
# _framework density 20.948951000000001
#
# number of rings (size 3 to 8) (size 9 to 14) (size 15 to 20)
#    0.000    1.000    2.500    3.000    3.500    9.000 
#    0.000    0.000    0.000    0.000    0.000    0.000 
#    0.000    0.000    0.000    0.000    0.000    0.000 
#
# Total GULP energy -198488.583564 kJ/mol
# GULP energy per Si atom -12405.536473 kJ/mol
# Density = 2.090127 g / cm^3
# Si number density = 20.948951 Si / 1000 Ang^3
#
#
#
# Elastic Constant Matrix: (Units=GPa)
#
#
# Indices 1 2 3 4 5 6 
#
# 1 108.5260 49.4787 19.8638 0.0000 0.0002 0.0000
# 2 49.4787 127.2210 24.1541 0.0000 0.0001 0.0000
# 3 19.8638 24.1541 85.6716 0.0000 -0.0001 0.0000
# 4 0.0000 0.0000 0.0000 33.1087 0.0000 0.0001
# 5 0.0002 0.0001 -0.0001 0.0000 40.0375 0.0000
# 6 0.0000 0.0000 0.0000 0.0001 0.0000 38.2226
#
#
#
# Elastic Compliance Matrix: (Units=1/GPa)
#
#
# Indices 1 2 3 4 5 6 
#
# 1 0.011373 -0.004144 -0.001468 0.000000 0.000000 0.000000
# 2 -0.004144 0.009815 -0.001806 0.000000 0.000000 0.000000
# 3 -0.001468 -0.001806 0.012522 0.000000 0.000000 0.000000
# 4 0.000000 0.000000 0.000000 0.030204 0.000000 0.000000
# 5 0.000000 0.000000 0.000000 0.000000 0.024977 0.000000
# 6 0.000000 0.000000 0.000000 0.000000 0.000000 0.026163
#
#
# Mechanical properties :
#
#
# Convention : Reuss Voigt Hill
#
# Bulk Modulus (GPa) = 52.98899 56.49018 54.73959
# Shear Modulus (GPa) = 36.71581 37.46857 37.09219
#
# Velocity S-wave (km/s) = 4.19099 4.23373 4.21241
# Velocity P-wave (km/s) = 6.98344 7.13607 7.06017
#
# Compressibility (1/GPa) = 0.01887185
#
# Stress axis : x y z
#
# Youngs Moduli (GPa) = 87.93093 101.88426 79.85802
#
# Poissons Ratio (x) = 0.42223 0.11727
# Poissons Ratio (y) = 0.36440 0.14425
# Poissons Ratio (z) = 0.12912 0.18404
#
# Static dielectric constant tensor:
#      x y z
#    x 3.927240 0.000000 0.000010 
#    y 0.000000 3.882330 0.000000 
#    z 0.000010 0.000000 3.810040 
# 
# 
# High freq. dielectric constant tensor:
#      x y z
#    x 1.830810 0.000000 0.000000 
#    y 0.000000 1.825680 0.000000 
#    z 0.000000 0.000000 1.833770 
# 
# From -- ./inp_files/16179.got.cif
#   From: 2010.03.12/outbox.cif.g09.slc.cpg/sg3_9_cif.got.tgz:16179.got - 2010.03.31 09:20:49.
