data_PCOD8045070
_publ_section_title
;
Structure prediction by ZEFSAII (Michael W. Deem and Ramdas Pophale) SiO2 
 PCOD8045070
Probable space group: P 2
;
_chemical_formula_sum "Si O2"
_cell_formula_units_Z 9
_cell_length_a 11.936267
_cell_length_b 7.469125
_cell_length_c 5.307645
_cell_angle_alpha 90.000000
_cell_angle_beta 82.587996
_cell_angle_gamma 90.000000
_cell_volume 469.241028
_symmetry_space_group_name_H-M "P 2"
_symmetry_group_IT_number 3
_symmetry_cell_setting 'monoclinic'
loop_
_space_group_symop_operation_xyz
x,y,z
-x,y,-z
loop_
_atom_site_type_symbol
_atom_site_label
_atom_site_fract_x
_atom_site_fract_y
_atom_site_fract_z
Si Si1 0.314669 0.011380 0.706957
Si Si2 0.381176 0.678110 0.411280
Si Si3 0.233173 0.333669 0.459082
Si Si4 0.870575 0.225420 0.021599
Si Si5 0.500000 0.913367 0.000000
O O1 0.310711 0.155414 0.477495
O O2 0.307598 0.808207 0.611625
O O3 0.208232 0.048667 0.923360
O O4 0.435047 0.037166 0.815597
O O5 0.500000 0.624018 0.500000
O O6 0.311972 0.500753 0.376400
O O7 0.404512 0.785708 0.148362
O O8 0.151826 0.313907 0.242359
O O9 0.159347 0.361506 0.737412
O O10 0.000000 0.165518 0.000000
#
# Coordination Sequence:
#
# PCOD8045070 Si02
#       5
#     2   2   2   2   1
#     4   9  22  38  64  92 128 161 202 252 304 367
#     4  10  22  38  59  95 126 165 197 255 301 376
#     4  10  23  40  66  89 125 161 208 248 311 355
#     4  10  22  43  68  87 122 164 208 256 304 361
#     4  10  20  38  64  90 136 154 208 244 312 366
#
# _framework density 19.17991
#
# number of rings (size 3 to 8) (size 9 to 14) (size 15 to 20)
#    1.333    0.889    0.000    2.000    6.222    4.444 
#    0.000    2.222    9.778    0.000    0.000    0.000 
#    0.000    0.000    0.000    0.000    0.000    0.000 
#
# Total GULP energy -111514.289821 kJ/mol
# GULP energy per Si atom -12390.476647 kJ/mol
# Density = 1.913626 g / cm^3
# Si number density = 19.179910 Si / 1000 Ang^3
#
#
#
# Elastic Constant Matrix: (Units=GPa)
#
#
# Indices 1 2 3 4 5 6 
#
# 1 122.8279 66.9575 48.0916 0.0000 7.1115 0.0000
# 2 66.9575 82.4615 21.7612 0.0000 9.1577 0.0000
# 3 48.0916 21.7612 115.9981 0.0000 17.0166 0.0000
# 4 0.0000 0.0000 0.0000 21.3319 0.0000 -11.5517
# 5 7.1115 9.1577 17.0166 0.0000 33.9982 0.0000
# 6 0.0000 0.0000 0.0000 -11.5517 0.0000 16.6900
#
#
#
# Elastic Compliance Matrix: (Units=1/GPa)
#
#
# Indices 1 2 3 4 5 6 
#
# 1 0.016819 -0.012612 -0.004953 0.000000 0.002358 0.000000
# 2 -0.012612 0.022402 0.001645 0.000000 -0.004219 0.000000
# 3 -0.004953 0.001645 0.011093 0.000000 -0.004959 0.000000
# 4 0.000000 0.000000 0.000000 0.074982 0.000000 0.051897
# 5 0.002358 -0.004219 -0.004959 0.000000 0.032539 0.000000
# 6 0.000000 0.000000 0.000000 0.051897 0.000000 0.095836
#
#
# Mechanical properties :
#
#
# Convention : Reuss Voigt Hill
#
# Bulk Modulus (GPa) = 54.12731 66.10089 60.11410
# Shear Modulus (GPa) = 17.14270 26.70250 21.92260
#
# Velocity S-wave (km/s) = 2.99287 3.73528 3.38449
# Velocity P-wave (km/s) = 6.34233 7.28983 6.83252
#
# Compressibility (1/GPa) = 0.01847496
#
# Stress axis : x y z
#
# Youngs Moduli (GPa) = 59.45508 44.63894 90.14502
#
# Poissons Ratio (x) = 0.56298 0.44650
# Poissons Ratio (y) = 0.74984 -0.14830
# Poissons Ratio (z) = 0.29449 -0.07344
#
# Static dielectric constant tensor:
#      x y z
#    x 3.372120 0.000000 0.070320 
#    y 0.000000 3.135980 0.000000 
#    z 0.070320 0.000000 3.643320 
# 
# 
# High freq. dielectric constant tensor:
#      x y z
#    x 1.733690 0.000000 0.008490 
#    y 0.000000 1.715380 0.000000 
#    z 0.008490 0.000000 1.760380 
# 
# From -- ./inp_files/1801.got.cif
#   From: 2010.03.12/outbox.cif.g09.slc.cpg/sg3_1_cif.got.tgz:1801.got - 2010.03.31 09:20:49.
