data_PCOD8045959
_publ_section_title
;
Structure prediction by ZEFSAII (Michael W. Deem and Ramdas Pophale) SiO2 
 PCOD8045959
Probable space group: P 21
;
_chemical_formula_sum "Si O2"
_cell_formula_units_Z 12
_cell_length_a 14.325038
_cell_length_b 8.319071
_cell_length_c 5.469283
_cell_angle_alpha 90.000000
_cell_angle_beta 56.720184
_cell_angle_gamma 90.000000
_cell_volume 544.888522
_symmetry_space_group_name_H-M "P 21"
_symmetry_group_IT_number 4
_symmetry_cell_setting 'monoclinic'
loop_
_space_group_symop_operation_xyz
x,y,z
-x,1/2+y,-z
loop_
_atom_site_type_symbol
_atom_site_label
_atom_site_fract_x
_atom_site_fract_y
_atom_site_fract_z
Si Si1 0.573698 0.226480 0.679214
Si Si2 0.980514 0.697276 0.188363
Si Si3 0.815240 0.148371 0.406156
Si Si4 0.088361 0.446139 0.346787
Si Si5 0.776258 0.806823 0.226653
Si Si6 0.530270 0.851885 0.664172
O O1 0.704912 0.257435 0.543254
O O2 0.544695 0.322335 0.470507
O O3 0.545064 0.041139 0.675097
O O4 0.512628 0.283940 0.015023
O O5 0.854823 0.684453 0.262752
O O6 0.003553 0.524511 0.275398
O O7 0.988568 0.853009 0.350465
O O8 0.073658 0.737494 0.849679
O O9 0.838813 0.094057 0.649886
O O10 0.794291 0.989284 0.281120
O O11 0.176761 0.313235 0.118091
O O12 0.647104 0.760069 0.437574
#
# Coordination Sequence:
#
# PCOD8045959 Si02
#       6
#     2   2   2   2   2   2
#     4  11  25  45  70  99 134 179 226 278 333 396
#     4  10  20  38  60 100 116 172 206 266 318 398
#     4   9  21  38  64  89 125 171 214 258 330 393
#     4  10  20  38  66  88 130 164 212 260 328 396
#     4   9  21  38  64  89 125 171 214 258 330 393
#     4  11  25  45  70  99 134 179 226 278 333 396
#
# _framework density 22.022855
#
# number of rings (size 3 to 8) (size 9 to 14) (size 15 to 20)
#    0.000    2.000    0.000    2.000   14.000    0.000 
#    3.000   10.000    0.000    0.000    0.000    0.000 
#    0.000    0.000    0.000    0.000    0.000    0.000 
#
# Total GULP energy -148688.186148 kJ/mol
# GULP energy per Si atom -12390.682179 kJ/mol
# Density = 2.197273 g / cm^3
# Si number density = 22.022855 Si / 1000 Ang^3
#
#
#
# Elastic Constant Matrix: (Units=GPa)
#
#
# Indices 1 2 3 4 5 6 
#
# 1 30.5791 -2.6180 19.8262 0.0000 11.8416 0.0000
# 2 -2.6180 34.5306 15.5070 0.0000 5.7328 0.0000
# 3 19.8262 15.5070 102.4614 0.0000 14.4452 0.0000
# 4 0.0000 0.0000 0.0000 38.2335 0.0000 2.6034
# 5 11.8416 5.7328 14.4452 0.0000 40.9737 0.0000
# 6 0.0000 0.0000 0.0000 2.6034 0.0000 31.9054
#
#
#
# Elastic Compliance Matrix: (Units=1/GPa)
#
#
# Indices 1 2 3 4 5 6 
#
# 1 0.042848 0.008664 -0.008088 0.000000 -0.010744 0.000000
# 2 0.008664 0.033139 -0.005983 0.000000 -0.005032 0.000000
# 3 -0.008088 -0.005983 0.012399 0.000000 -0.001197 0.000000
# 4 0.000000 0.000000 0.000000 0.026301 0.000000 -0.002146
# 5 -0.010744 -0.005032 -0.001197 0.000000 0.028637 0.000000
# 6 0.000000 0.000000 0.000000 -0.002146 0.000000 0.031518
#
#
# Mechanical properties :
#
#
# Convention : Reuss Voigt Hill
#
# Bulk Modulus (GPa) = 12.89085 25.88904 19.38995
# Shear Modulus (GPa) = 23.63937 31.21292 27.42614
#
# Velocity S-wave (km/s) = 3.27984 3.76878 3.53278
# Velocity P-wave (km/s) = 4.49546 5.54251 5.04621
#
# Compressibility (1/GPa) = 0.07757439
#
# Stress axis : x y z
#
# Youngs Moduli (GPa) = 23.33813 30.17618 80.65238
#
# Poissons Ratio (x) = -0.26146 0.65229
# Poissons Ratio (y) = -0.20221 0.48251
# Poissons Ratio (z) = 0.18875 0.18053
#
# Static dielectric constant tensor:
#      x y z
#    x 4.239730 0.000000 -0.058160 
#    y 0.000000 3.633880 0.000000 
#    z -0.058160 0.000000 4.453100 
# 
# 
# High freq. dielectric constant tensor:
#      x y z
#    x 1.870330 0.000000 0.006480 
#    y 0.000000 1.841560 0.000000 
#    z 0.006480 0.000000 1.880150 
# 
# From -- ./inp_files/2348.got.cif
#   From: 2010.03.12/outbox.cif.g09.slc.cpg/sg4_2_cif.got.tgz:2348.got - 2010.03.31 09:31:35.
