data_PCOD8045042
_publ_section_title
;
Structure prediction by ZEFSAII (Michael W. Deem and Ramdas Pophale) SiO2 
 PCOD8045042
Probable space group: P 2
;
_chemical_formula_sum "Si O2"
_cell_formula_units_Z 14
_cell_length_a 8.322061
_cell_length_b 15.663817
_cell_length_c 9.598712
_cell_angle_alpha 90.000000
_cell_angle_beta 31.547673
_cell_angle_gamma 90.000000
_cell_volume 654.659819
_symmetry_space_group_name_H-M "P 2"
_symmetry_group_IT_number 3
_symmetry_cell_setting 'monoclinic'
loop_
_space_group_symop_operation_xyz
x,y,z
-x,y,-z
loop_
_atom_site_type_symbol
_atom_site_label
_atom_site_fract_x
_atom_site_fract_y
_atom_site_fract_z
Si Si1 0.857451 0.013220 0.453757
Si Si2 0.680104 0.308937 0.009650
Si Si3 0.229851 0.922590 0.957588
Si Si4 0.813179 0.203362 0.496932
Si Si5 0.351160 0.461746 0.753280
Si Si6 0.657271 0.634482 0.530875
Si Si7 0.168795 0.730355 0.023151
O O1 0.767577 0.108671 0.469232
O O2 0.000000 0.013239 0.500000
O O3 0.570097 0.948515 0.654645
O O4 0.131933 0.986408 0.150440
O O5 0.522575 0.237344 0.220442
O O6 0.684717 0.394283 0.096851
O O7 0.500000 0.328762 0.000000
O O8 0.018483 0.271090 0.729912
O O9 0.210219 0.828135 0.039036
O O10 0.000000 0.930988 0.000000
O O11 0.000000 0.196228 0.500000
O O12 0.500000 0.423104 0.500000
O O13 0.596116 0.535385 0.616494
O O14 0.000000 0.499551 0.000000
O O15 0.500000 0.651615 0.500000
O O16 0.004639 0.668871 0.258842
O O17 0.509297 0.692948 0.758776
O O18 0.000000 0.726931 0.000000
#
# Coordination Sequence:
#
# PCOD8045042 Si02
#       7
#     2   2   2   2   2   2   2
#     4  11  22  39  61  84 113 154 198 236 284 347
#     4  10  20  37  58  79 107 146 190 231 276 335
#     4  11  22  37  58  88 119 146 188 245 294 337
#     4   9  19  36  58  79 104 147 197 231 264 337
#     4  11  21  34  54  84 115 141 181 236 287 332
#     4   9  16  29  49  75 105 141 180 220 266 328
#     4   9  17  30  51  77 106 141 182 223 269 328
#
# _framework density 21.385151
#
# number of rings (size 3 to 8) (size 9 to 14) (size 15 to 20)
#    0.000    2.000    0.000    5.571    0.000    4.571 
#    0.000    7.143    0.000    3.429    0.000    7.000 
#    0.000    0.000    0.000    0.000    0.000    0.000 
#
# Total GULP energy -173479.137659 kJ/mol
# GULP energy per Si atom -12391.366976 kJ/mol
# Density = 2.133648 g / cm^3
# Si number density = 21.385151 Si / 1000 Ang^3
#
#
#
# Elastic Constant Matrix: (Units=GPa)
#
#
# Indices 1 2 3 4 5 6 
#
# 1 31.5518 21.2456 8.3964 0.0000 2.4771 0.0000
# 2 21.2456 154.2766 49.0575 0.0000 13.4423 0.0000
# 3 8.3964 49.0575 126.7976 0.0000 7.2145 0.0000
# 4 0.0000 0.0000 0.0000 46.6104 0.0000 -3.5034
# 5 2.4771 13.4423 7.2145 0.0000 23.5054 0.0000
# 6 0.0000 0.0000 0.0000 -3.5034 0.0000 15.3288
#
#
#
# Elastic Compliance Matrix: (Units=1/GPa)
#
#
# Indices 1 2 3 4 5 6 
#
# 1 0.034981 -0.004581 -0.000492 0.000000 -0.000916 0.000000
# 2 -0.004581 0.008270 -0.002702 0.000000 -0.003417 0.000000
# 3 -0.000492 -0.002702 0.009031 0.000000 -0.001175 0.000000
# 4 0.000000 0.000000 0.000000 0.021829 0.000000 0.004989
# 5 -0.000916 -0.003417 -0.001175 0.000000 0.044955 0.000000
# 6 0.000000 0.000000 0.000000 0.004989 0.000000 0.066377
#
#
# Mechanical properties :
#
#
# Convention : Reuss Voigt Hill
#
# Bulk Modulus (GPa) = 27.22359 52.22501 39.72430
# Shear Modulus (GPa) = 23.44806 32.68402 28.06604
#
# Velocity S-wave (km/s) = 3.31488 3.91365 3.62665
# Velocity P-wave (km/s) = 5.23536 6.70048 6.01271
#
# Compressibility (1/GPa) = 0.03673285
#
# Stress axis : x y z
#
# Youngs Moduli (GPa) = 28.58662 120.92523 110.72620
#
# Poissons Ratio (x) = 0.55397 0.05447
# Poissons Ratio (y) = 0.13096 0.29915
# Poissons Ratio (z) = 0.01406 0.32670
#
# Static dielectric constant tensor:
#      x y z
#    x 3.367280 0.000000 -0.117180 
#    y 0.000000 4.031810 0.000000 
#    z -0.117180 0.000000 4.306070 
# 
# 
# High freq. dielectric constant tensor:
#      x y z
#    x 1.781070 0.000000 -0.001200 
#    y 0.000000 1.849460 0.000000 
#    z -0.001200 0.000000 1.865240 
# 
# From -- ./inp_files/6182.got.cif
#   From: 2010.03.12/outbox.cif.g09.slc.cpg/sg3_4_cif.got.tgz:6182.got - 2010.03.31 09:20:49.
