data_PCOD8045413
_publ_section_title
;
Structure prediction by ZEFSAII (Michael W. Deem and Ramdas Pophale) SiO2 
 PCOD8045413
Probable space group: P 2
;
_chemical_formula_sum "Si O2"
_cell_formula_units_Z 13
_cell_length_a 5.117537
_cell_length_b 14.844775
_cell_length_c 9.677215
_cell_angle_alpha 90.000000
_cell_angle_beta 125.347594
_cell_angle_gamma 90.000000
_cell_volume 599.642943
_symmetry_space_group_name_H-M "P 2"
_symmetry_group_IT_number 3
_symmetry_cell_setting 'monoclinic'
loop_
_space_group_symop_operation_xyz
x,y,z
-x,y,-z
loop_
_atom_site_type_symbol
_atom_site_label
_atom_site_fract_x
_atom_site_fract_y
_atom_site_fract_z
Si Si1 0.846130 0.377180 0.588324
Si Si2 0.825640 0.968349 0.304479
Si Si3 0.293531 0.661773 0.306083
Si Si4 0.870593 0.490512 0.102921
Si Si5 0.781504 0.069304 0.807527
Si Si6 0.500000 0.203427 0.500000
Si Si7 0.307562 0.767006 0.799774
O O1 0.500000 0.424392 0.500000
O O2 0.804353 0.268688 0.560622
O O3 0.000000 0.419298 0.500000
O O4 0.081223 0.405720 0.782165
O O5 0.735622 0.863869 0.281512
O O6 0.000000 0.995589 0.500000
O O7 0.490756 0.018436 0.191686
O O8 0.038327 0.999133 0.238776
O O9 0.500000 0.631657 0.500000
O O10 0.516354 0.697562 0.249651
O O11 0.085786 0.577179 0.196665
O O12 0.054746 0.739473 0.280089
O O13 0.500000 0.519938 0.000000
O O14 0.000000 0.450597 0.000000
O O15 0.610349 0.146940 0.666157
O O16 0.000000 0.108545 0.000000
O O17 0.500000 0.773862 0.000000
#
# Coordination Sequence:
#
# PCOD8045413 Si02
#       7
#     2   2   2   2   2   1   2
#     4  10  24  45  71  96 136 173 225 272 355 407
#     4  12  24  45  69  99 142 187 228 284 344 409
#     4  12  25  43  67  97 135 185 229 277 338 406
#     4  12  25  44  70 102 137 176 228 282 345 408
#     4  12  25  44  71 103 138 185 233 285 350 412
#     4  10  26  46  74 102 140 178 232 292 354 418
#     4  12  25  43  66 100 139 178 233 285 333 399
#
# _framework density 21.679566999999999
#
# number of rings (size 3 to 8) (size 9 to 14) (size 15 to 20)
#    0.462    0.000    1.538    7.846    2.154    1.846 
#    0.000    0.000    0.000    0.000    0.000    0.000 
#    0.000    0.000    0.000    0.000    0.000    0.000 
#
# Total GULP energy -161160.862739 kJ/mol
# GULP energy per Si atom -12396.989441 kJ/mol
# Density = 2.163022 g / cm^3
# Si number density = 21.679567 Si / 1000 Ang^3
#
#
#
# Elastic Constant Matrix: (Units=GPa)
#
#
# Indices 1 2 3 4 5 6 
#
# 1 118.1682 15.3933 32.4148 0.0000 -8.0621 0.0000
# 2 15.3933 88.6211 45.4225 0.0000 0.3616 0.0000
# 3 32.4148 45.4225 150.3551 0.0000 -9.2814 0.0000
# 4 0.0000 0.0000 0.0000 -18.7791 0.0000 -3.2030
# 5 -8.0621 0.3616 -9.2814 0.0000 34.5989 0.0000
# 6 0.0000 0.0000 0.0000 -3.2030 0.0000 66.2932
#
#
#
# Elastic Compliance Matrix: (Units=1/GPa)
#
#
# Indices 1 2 3 4 5 6 
#
# 1 0.009125 -0.000754 -0.001635 0.000000 0.001696 0.000000
# 2 -0.000754 0.013466 -0.003991 0.000000 -0.001387 0.000000
# 3 -0.001635 -0.003991 0.008326 0.000000 0.001894 0.000000
# 4 0.000000 0.000000 0.000000 -0.052816 0.000000 -0.002552
# 5 0.001696 -0.001387 0.001894 0.000000 0.029820 0.000000
# 6 0.000000 0.000000 0.000000 -0.002552 0.000000 0.014961
#
#
# Mechanical properties :
#
#
# Convention : Reuss Voigt Hill
#
# Bulk Modulus (GPa) = 55.07458 60.40062 57.73760
# Shear Modulus (GPa) = 119.91624 34.01686 76.96655
#
# Velocity S-wave (km/s) = 7.44534 3.96545 5.96481
# Velocity P-wave (km/s) = 9.96844 6.99196 8.60980
#
# Compressibility (1/GPa) = 0.01815720
#
# Stress axis : x y z
#
# Youngs Moduli (GPa) = 109.59085 74.25920 120.10480
#
# Poissons Ratio (x) = 0.05599 0.19634
# Poissons Ratio (y) = 0.08263 0.47937
# Poissons Ratio (z) = 0.17915 0.29639
#
# Static dielectric constant tensor:
#      x y z
#    x 4.334460 0.000000 0.039440 
#    y 0.000000 3.770100 0.000000 
#    z 0.039440 0.000000 4.159040 
# 
# 
# High freq. dielectric constant tensor:
#      x y z
#    x 1.868420 0.000000 0.000630 
#    y 0.000000 1.844830 0.000000 
#    z 0.000630 0.000000 1.867770 
# 
# From -- ./inp_files/4529.got.cif
#   From: 2010.03.12/outbox.cif.g09.slc.cpg/sg3_3_cif.got.tgz:4529.got - 2010.03.31 09:20:49.
