data_PCOD8045625
_publ_section_title
;
Structure prediction by ZEFSAII (Michael W. Deem and Ramdas Pophale) SiO2 
 PCOD8045625
Probable space group: P 21
;
_chemical_formula_sum "Si O2"
_cell_formula_units_Z 12
_cell_length_a 13.206597
_cell_length_b 5.102943
_cell_length_c 10.832335
_cell_angle_alpha 90.000000
_cell_angle_beta 66.488915
_cell_angle_gamma 90.000000
_cell_volume 669.414272
_symmetry_space_group_name_H-M "P 21"
_symmetry_group_IT_number 4
_symmetry_cell_setting 'monoclinic'
loop_
_space_group_symop_operation_xyz
x,y,z
-x,1/2+y,-z
loop_
_atom_site_type_symbol
_atom_site_label
_atom_site_fract_x
_atom_site_fract_y
_atom_site_fract_z
Si Si1 0.525399 0.693780 0.147315
Si Si2 0.454246 0.323811 0.584156
Si Si3 0.143553 0.573827 0.024941
Si Si4 0.364456 0.692712 0.016256
Si Si5 0.797406 0.848145 0.248345
Si Si6 0.924405 0.337372 0.174145
O O1 0.506208 0.727354 0.301232
O O2 0.583200 0.415218 0.095723
O O3 0.603085 0.914087 0.054072
O O4 0.406230 0.713407 0.136983
O O5 0.514783 0.596613 0.526994
O O6 0.323928 0.376174 0.636975
O O7 0.230638 0.704387 0.077392
O O8 0.209584 0.385035 0.897061
O O9 0.082501 0.801291 0.973006
O O10 0.050946 0.409933 0.145477
O O11 0.843817 0.565357 0.259928
O O12 0.880300 0.072992 0.262696
#
# Coordination Sequence:
#
# PCOD8045625 Si02
#       6
#     2   2   2   2   2   2
#     4  10  20  37  47  81 102 146 174 211 265 314
#     4  12  23  35  55  74 105 148 187 215 249 303
#     4  10  18  29  50  79 102 142 154 211 270 324
#     4  10  20  31  58  71 115 136 166 214 275 324
#     4  10  19  32  46  71 107 132 166 218 252 301
#     4  10  18  28  48  74 111 126 165 207 265 332
#
# _framework density 17.926119
#
# number of rings (size 3 to 8) (size 9 to 14) (size 15 to 20)
#    1.000    0.667    3.333    3.000    0.000    0.000 
#    0.000    0.000    0.000    0.000    0.000    4.667 
#    0.000    2.667    0.000    0.000    0.000    0.000 
#
# Total GULP energy -148725.624409 kJ/mol
# GULP energy per Si atom -12393.802034 kJ/mol
# Density = 1.788532 g / cm^3
# Si number density = 17.926119 Si / 1000 Ang^3
#
#
#
# Elastic Constant Matrix: (Units=GPa)
#
#
# Indices 1 2 3 4 5 6 
#
# 1 117.2617 25.7871 31.1106 0.0000 -16.2965 0.0000
# 2 25.7871 76.6463 9.2133 0.0000 -16.3195 0.0000
# 3 31.1106 9.2133 51.7935 0.0000 -17.5159 0.0000
# 4 0.0000 0.0000 0.0000 25.6459 0.0000 -6.6768
# 5 -16.2965 -16.3195 -17.5159 0.0000 29.6600 0.0000
# 6 0.0000 0.0000 0.0000 -6.6768 0.0000 22.0825
#
#
#
# Elastic Compliance Matrix: (Units=1/GPa)
#
#
# Indices 1 2 3 4 5 6 
#
# 1 0.010767 -0.002712 -0.005609 0.000000 0.001111 0.000000
# 2 -0.002712 0.015462 0.001564 0.000000 0.007941 0.000000
# 3 -0.005609 0.001564 0.027049 0.000000 0.013753 0.000000
# 4 0.000000 0.000000 0.000000 0.042324 0.000000 0.012797
# 5 0.001111 0.007941 0.013753 0.000000 0.046817 0.000000
# 6 0.000000 0.000000 0.000000 0.012797 0.000000 0.049154
#
#
# Mechanical properties :
#
#
# Convention : Reuss Voigt Hill
#
# Bulk Modulus (GPa) = 25.14786 41.99150 33.56968
# Shear Modulus (GPa) = 22.89984 27.45038 25.17511
#
# Velocity S-wave (km/s) = 3.57803 3.91744 3.75157
# Velocity P-wave (km/s) = 5.57932 6.62853 6.12642
#
# Compressibility (1/GPa) = 0.03976482
#
# Stress axis : x y z
#
# Youngs Moduli (GPa) = 92.87799 64.67433 36.96934
#
# Poissons Ratio (x) = 0.17537 0.20736
# Poissons Ratio (y) = 0.25184 -0.05781
# Poissons Ratio (z) = 0.52096 -0.10114
#
# Static dielectric constant tensor:
#      x y z
#    x 3.570160 0.000000 0.002210 
#    y 0.000000 3.448370 0.000000 
#    z 0.002210 0.000000 2.874180 
# 
# 
# High freq. dielectric constant tensor:
#      x y z
#    x 1.690020 0.000000 -0.026310 
#    y 0.000000 1.714960 0.000000 
#    z -0.026310 0.000000 1.633130 
# 
# From -- ./inp_files/12385.got.cif
#   From: 2010.03.12/outbox.cif.g09.slc.cpg/sg4_7_cif.got.tgz:12385.got - 2010.03.31 09:31:35.
