data_PCOD8045991
_publ_section_title
;
Structure prediction by ZEFSAII (Michael W. Deem and Ramdas Pophale) SiO2 
 PCOD8045991
Probable space group: P 21
;
_chemical_formula_sum "Si O2"
_cell_formula_units_Z 16
_cell_length_a 10.802805
_cell_length_b 9.461846
_cell_length_c 7.714890
_cell_angle_alpha 90.000000
_cell_angle_beta 60.975992
_cell_angle_gamma 90.000000
_cell_volume 689.541624
_symmetry_space_group_name_H-M "P 21"
_symmetry_group_IT_number 4
_symmetry_cell_setting 'monoclinic'
loop_
_space_group_symop_operation_xyz
x,y,z
-x,1/2+y,-z
loop_
_atom_site_type_symbol
_atom_site_label
_atom_site_fract_x
_atom_site_fract_y
_atom_site_fract_z
Si Si1 0.760927 0.202920 0.004858
Si Si2 0.261792 0.440975 0.742502
Si Si3 0.574920 0.443787 0.998237
Si Si4 0.719057 0.577307 0.586018
Si Si5 0.293363 0.398972 0.345236
Si Si6 0.957615 0.429607 0.029048
Si Si7 0.038453 0.515587 0.332708
Si Si8 0.715353 0.623908 0.197449
O O1 0.629412 0.286524 0.010791
O O2 0.845062 0.306577 0.075682
O O3 0.700321 0.070340 0.156098
O O4 0.872170 0.155095 0.782204
O O5 0.333709 0.464635 0.506120
O O6 0.310392 0.291807 0.792396
O O7 0.093768 0.428131 0.812285
O O8 0.404133 0.454664 0.125157
O O9 0.628744 0.558436 0.099278
O O10 0.625624 0.473502 0.768356
O O11 0.683714 0.733586 0.665909
O O12 0.676021 0.556408 0.413375
O O13 0.885198 0.552114 0.513588
O O14 0.131732 0.433452 0.409491
O O15 0.881370 0.583094 0.059073
O O16 0.019345 0.413285 0.180774
#
# Coordination Sequence:
#
# PCOD8045991 Si02
#       8
#     2   2   2   2   2   2   2   2
#     4  10  22  41  67  99 133 175 231 282 346 405
#     4  10  20  38  66  95 135 169 228 293 323 416
#     4  11  26  45  68  96 144 187 219 281 346 422
#     4  10  24  45  71  96 141 179 231 292 332 413
#     4  11  26  43  64 107 133 181 233 270 362 407
#     4   9  18  38  65  96 129 171 219 282 345 401
#     4  10  23  41  68 100 132 169 231 287 339 404
#     4   9  21  43  67  97 131 181 230 271 353 406
#
# _framework density 23.203821000000001
#
# number of rings (size 3 to 8) (size 9 to 14) (size 15 to 20)
#    0.000    2.000    0.000    3.000   10.500    3.000 
#    6.750    0.000    0.000    0.000    0.000    0.000 
#    0.000    0.000    0.000    0.000    0.000    0.000 
#
# Total GULP energy -198352.394932 kJ/mol
# GULP energy per Si atom -12397.024683 kJ/mol
# Density = 2.315101 g / cm^3
# Si number density = 23.203821 Si / 1000 Ang^3
#
#
#
# Elastic Constant Matrix: (Units=GPa)
#
#
# Indices 1 2 3 4 5 6 
#
# 1 30.2359 -8.6391 9.7048 0.0000 -0.0460 0.0000
# 2 -8.6391 81.2236 29.4277 0.0000 12.0999 0.0000
# 3 9.7048 29.4277 115.0316 0.0000 -18.5744 0.0000
# 4 0.0000 0.0000 0.0000 30.9608 0.0000 1.2083
# 5 -0.0460 12.0999 -18.5744 0.0000 30.1400 0.0000
# 6 0.0000 0.0000 0.0000 1.2083 0.0000 18.3759
#
#
#
# Elastic Compliance Matrix: (Units=1/GPa)
#
#
# Indices 1 2 3 4 5 6 
#
# 1 0.036997 0.007060 -0.005970 0.000000 -0.006457 0.000000
# 2 0.007060 0.017162 -0.006771 0.000000 -0.011051 0.000000
# 3 -0.005970 -0.006771 0.012622 0.000000 0.010488 0.000000
# 4 0.000000 0.000000 0.000000 0.032382 0.000000 -0.002129
# 5 -0.006457 -0.011051 0.010488 0.000000 0.044069 0.000000
# 6 0.000000 0.000000 0.000000 -0.002129 0.000000 0.054559
#
#
# Mechanical properties :
#
#
# Convention : Reuss Voigt Hill
#
# Bulk Modulus (GPa) = 18.04405 31.94199 24.99302
# Shear Modulus (GPa) = 21.96591 28.96187 25.46389
#
# Velocity S-wave (km/s) = 3.08011 3.53675 3.31630
# Velocity P-wave (km/s) = 4.52135 5.52031 5.04562
#
# Compressibility (1/GPa) = 0.05541992
#
# Stress axis : x y z
#
# Youngs Moduli (GPa) = 27.02940 58.26855 79.22380
#
# Poissons Ratio (x) = -0.41137 0.47296
# Poissons Ratio (y) = -0.19082 0.53639
# Poissons Ratio (z) = 0.16136 0.39451
#
# Static dielectric constant tensor:
#      x y z
#    x 4.026990 0.000000 -0.093530 
#    y 0.000000 4.130230 0.000000 
#    z -0.093530 0.000000 4.300220 
# 
# 
# High freq. dielectric constant tensor:
#      x y z
#    x 1.911420 0.000000 -0.003240 
#    y 0.000000 1.911920 0.000000 
#    z -0.003240 0.000000 1.916670 
# 
# From -- ./inp_files/7831.got.cif
#   From: 2010.03.12/outbox.cif.g09.slc.cpg/sg4_4_cif.got.tgz:7831.got - 2010.03.31 09:31:35.
