data_PCOD8045441
_publ_section_title
;
Structure prediction by ZEFSAII (Michael W. Deem and Ramdas Pophale) SiO2 
 PCOD8045441
Probable space group: P 2
;
_chemical_formula_sum "Si O2"
_cell_formula_units_Z 12
_cell_length_a 15.466693
_cell_length_b 5.819569
_cell_length_c 8.560829
_cell_angle_alpha 90.000000
_cell_angle_beta 39.289436
_cell_angle_gamma 90.000000
_cell_volume 487.945373
_symmetry_space_group_name_H-M "P 2"
_symmetry_group_IT_number 3
_symmetry_cell_setting 'monoclinic'
loop_
_space_group_symop_operation_xyz
x,y,z
-x,y,-z
loop_
_atom_site_type_symbol
_atom_site_label
_atom_site_fract_x
_atom_site_fract_y
_atom_site_fract_z
Si Si1 0.973798 0.117470 0.367906
Si Si2 0.500000 0.099550 0.000000
Si Si3 0.743629 0.451244 0.658299
Si Si4 0.604955 0.766032 0.102392
Si Si5 0.142950 0.792144 0.723624
Si Si6 0.256949 0.078390 0.838317
Si Si7 0.500000 0.432349 0.500000
O O1 0.885432 0.345709 0.519596
O O2 0.000000 0.003068 0.500000
O O3 0.887362 0.941107 0.386832
O O4 0.113252 0.192354 0.086598
O O5 0.631743 0.255402 0.791015
O O6 0.491006 0.941823 0.858147
O O7 0.770730 0.571412 0.452924
O O8 0.698667 0.632144 0.850402
O O9 0.511857 0.588672 0.329209
O O10 0.700821 0.904825 0.084855
O O11 0.238814 0.935204 0.705543
O O12 0.000000 0.712785 0.000000
O O13 0.367070 0.276886 0.661191
#
# Coordination Sequence:
#
# PCOD8045441 Si02
#       7
#     2   1   2   2   2   2   1
#     4  11  24  46  74 106 147 192 246 301 357 430
#     4  12  28  50  72 108 150 192 248 304 358 430
#     4  12  27  48  76 107 146 199 243 294 367 435
#     4  12  28  48  75 109 148 192 244 305 361 431
#     4  10  26  48  75 109 149 191 242 304 362 429
#     4  11  27  50  73 111 151 187 242 306 363 431
#     4  12  28  50  78 106 144 196 242 298 372 436
#
# _framework density 24.592917
#
# number of rings (size 3 to 8) (size 9 to 14) (size 15 to 20)
#    0.000    0.667    0.000    6.000    0.000   22.667 
#    0.000    3.333    0.000    0.000    0.000    0.000 
#    0.000    0.000    0.000    0.000    0.000    0.000 
#
# Total GULP energy -148880.182949 kJ/mol
# GULP energy per Si atom -12406.681912 kJ/mol
# Density = 2.453694 g / cm^3
# Si number density = 24.592917 Si / 1000 Ang^3
#
#
#
# Elastic Constant Matrix: (Units=GPa)
#
#
# Indices 1 2 3 4 5 6 
#
# 1 188.8614 85.8182 66.2804 0.0000 12.5405 0.0000
# 2 85.8182 157.0090 96.3242 0.0000 -0.6047 0.0000
# 3 66.2804 96.3242 165.1584 0.0000 -0.2628 0.0000
# 4 0.0000 0.0000 0.0000 94.0083 0.0000 8.5104
# 5 12.5405 -0.6047 -0.2628 0.0000 47.2995 0.0000
# 6 0.0000 0.0000 0.0000 8.5104 0.0000 31.3044
#
#
#
# Elastic Compliance Matrix: (Units=1/GPa)
#
#
# Indices 1 2 3 4 5 6 
#
# 1 0.007315 -0.003430 -0.000938 0.000000 -0.001988 0.000000
# 2 -0.003430 0.011527 -0.005344 0.000000 0.001027 0.000000
# 3 -0.000938 -0.005344 0.009549 0.000000 0.000233 0.000000
# 4 0.000000 0.000000 0.000000 0.010906 0.000000 -0.002965
# 5 -0.001988 0.001027 0.000233 0.000000 0.021684 0.000000
# 6 0.000000 0.000000 0.000000 -0.002965 0.000000 0.032750
#
#
# Mechanical properties :
#
#
# Convention : Reuss Voigt Hill
#
# Bulk Modulus (GPa) = 111.54964 111.98606 111.76785
# Shear Modulus (GPa) = 43.05016 52.02951 47.53983
#
# Velocity S-wave (km/s) = 4.18845 4.60459 4.40144
# Velocity P-wave (km/s) = 8.29745 8.59677 8.44843
#
# Compressibility (1/GPa) = 0.00896462
#
# Stress axis : x y z
#
# Youngs Moduli (GPa) = 136.70777 86.75502 104.72745
#
# Poissons Ratio (x) = 0.29760 0.09824
# Poissons Ratio (y) = 0.46895 0.55970
# Poissons Ratio (z) = 0.12824 0.46365
#
# Static dielectric constant tensor:
#      x y z
#    x 4.570380 0.000000 0.061060 
#    y 0.000000 4.536830 0.000000 
#    z 0.061060 0.000000 4.726280 
# 
# 
# High freq. dielectric constant tensor:
#      x y z
#    x 1.991870 0.000000 0.001120 
#    y 0.000000 1.978380 0.000000 
#    z 0.001120 0.000000 2.003520 
# 
# From -- ./inp_files/8161.got.cif
#   From: 2010.03.12/outbox.cif.g09.slc.cpg/sg3_5_cif.got.tgz:8161.got - 2010.03.31 09:20:49.
