data_PCOD8045688
_publ_section_title
;
Structure prediction by ZEFSAII (Michael W. Deem and Ramdas Pophale) SiO2 
 PCOD8045688
Probable space group: P 21
;
_chemical_formula_sum "Si O2"
_cell_formula_units_Z 16
_cell_length_a 10.002334
_cell_length_b 12.559641
_cell_length_c 9.675345
_cell_angle_alpha 90.000000
_cell_angle_beta 138.266888
_cell_angle_gamma 90.000000
_cell_volume 809.093349
_symmetry_space_group_name_H-M "P 21"
_symmetry_group_IT_number 4
_symmetry_cell_setting 'monoclinic'
loop_
_space_group_symop_operation_xyz
x,y,z
-x,1/2+y,-z
loop_
_atom_site_type_symbol
_atom_site_label
_atom_site_fract_x
_atom_site_fract_y
_atom_site_fract_z
Si Si1 0.473665 0.590450 0.171105
Si Si2 0.426174 0.890433 0.202572
Si Si3 0.854759 0.131654 0.392314
Si Si4 0.539489 0.624724 0.735096
Si Si5 0.319659 0.427948 0.866623
Si Si6 0.879957 0.233461 0.129374
Si Si7 0.749552 0.690416 0.160016
Si Si8 0.342026 0.208082 0.457673
O O1 0.556778 0.659444 0.104536
O O2 0.620149 0.603536 0.415887
O O3 0.439333 0.468370 0.097226
O O4 0.257430 0.640736 0.043257
O O5 0.516267 0.914901 0.123496
O O6 0.567026 0.810316 0.395870
O O7 0.422590 0.002119 0.281317
O O8 0.204598 0.844507 0.998367
O O9 0.673924 0.149363 0.359396
O O10 0.867850 0.226029 0.287921
O O11 0.058054 0.128154 0.636211
O O12 0.839522 0.018379 0.301473
O O13 0.551623 0.695606 0.607374
O O14 0.715274 0.655773 0.976523
O O15 0.208710 0.317069 0.808096
O O16 0.106307 0.221726 0.252408
#
# Coordination Sequence:
#
# PCOD8045688 Si02
#       8
#     2   2   2   2   2   2   2   2
#     4  10  20  38  62  91 122 153 209 255 291 363
#     4  10  20  39  62  86 122 163 205 248 314 368
#     4  10  21  38  64  93 122 159 210 253 303 368
#     4  11  25  41  57  93 131 153 201 264 307 365
#     4  10  19  39  64  96 120 159 212 258 302 359
#     4  10  18  38  66  87 114 161 207 249 297 369
#     4  12  20  39  62  92 122 158 207 259 298 359
#     4  11  23  40  63  88 125 164 203 248 316 373
#
# _framework density 19.775223
#
# number of rings (size 3 to 8) (size 9 to 14) (size 15 to 20)
#    0.000    1.500    7.500    0.000    0.000    6.000 
#    2.250    5.000    0.000    0.000    0.000    0.000 
#    0.000    0.000    0.000    0.000    0.000    0.000 
#
# Total GULP energy -198347.241101 kJ/mol
# GULP energy per Si atom -12396.702569 kJ/mol
# Density = 1.973021 g / cm^3
# Si number density = 19.775223 Si / 1000 Ang^3
#
#
#
# Elastic Constant Matrix: (Units=GPa)
#
#
# Indices 1 2 3 4 5 6 
#
# 1 75.9556 26.1229 24.9804 0.0000 0.8950 0.0000
# 2 26.1229 82.4098 19.6512 0.0000 12.2890 0.0000
# 3 24.9804 19.6512 81.6027 0.0000 16.5788 0.0000
# 4 0.0000 0.0000 0.0000 33.1443 0.0000 -1.5574
# 5 0.8950 12.2890 16.5788 0.0000 29.9245 0.0000
# 6 0.0000 0.0000 0.0000 -1.5574 0.0000 17.6772
#
#
#
# Elastic Compliance Matrix: (Units=1/GPa)
#
#
# Indices 1 2 3 4 5 6 
#
# 1 0.016249 -0.004634 -0.004672 0.000000 0.004005 0.000000
# 2 -0.004634 0.014640 -0.001030 0.000000 -0.005303 0.000000
# 3 -0.004672 -0.001030 0.015571 0.000000 -0.008064 0.000000
# 4 0.000000 0.000000 0.000000 0.030297 0.000000 0.002669
# 5 0.004005 -0.005303 -0.008064 0.000000 0.039943 0.000000
# 6 0.000000 0.000000 0.000000 0.002669 0.000000 0.056805
#
#
# Mechanical properties :
#
#
# Convention : Reuss Voigt Hill
#
# Bulk Modulus (GPa) = 38.77679 42.38635 40.58157
# Shear Modulus (GPa) = 24.65840 27.43011 26.04425
#
# Velocity S-wave (km/s) = 3.53503 3.72841 3.63301
# Velocity P-wave (km/s) = 6.02605 6.32577 6.17773
#
# Compressibility (1/GPa) = 0.02578862
#
# Stress axis : x y z
#
# Youngs Moduli (GPa) = 61.54383 68.30768 64.22221
#
# Poissons Ratio (x) = 0.31653 0.30004
# Poissons Ratio (y) = 0.28518 0.06612
# Poissons Ratio (z) = 0.28753 0.07033
#
# Static dielectric constant tensor:
#      x y z
#    x 3.293470 0.000000 -0.015270 
#    y 0.000000 3.942660 0.000000 
#    z -0.015270 0.000000 3.708000 
# 
# 
# High freq. dielectric constant tensor:
#      x y z
#    x 1.743470 0.000000 0.003780 
#    y 0.000000 1.763240 0.000000 
#    z 0.003780 0.000000 1.779270 
# 
# From -- ./inp_files/6788.got.cif
#   From: 2010.03.12/outbox.cif.g09.slc.cpg/sg4_4_cif.got.tgz:6788.got - 2010.03.31 09:31:35.
