data_PCOD8045385
_publ_section_title
;
Structure prediction by ZEFSAII (Michael W. Deem and Ramdas Pophale) SiO2 
 PCOD8045385
Probable space group: P 2
;
_chemical_formula_sum "Si O2"
_cell_formula_units_Z 11
_cell_length_a 14.265270
_cell_length_b 5.115062
_cell_length_c 7.395175
_cell_angle_alpha 90.000000
_cell_angle_beta 131.130361
_cell_angle_gamma 90.000000
_cell_volume 406.441721
_symmetry_space_group_name_H-M "P 2"
_symmetry_group_IT_number 3
_symmetry_cell_setting 'monoclinic'
loop_
_space_group_symop_operation_xyz
x,y,z
-x,y,-z
loop_
_atom_site_type_symbol
_atom_site_label
_atom_site_fract_x
_atom_site_fract_y
_atom_site_fract_z
Si Si1 0.080990 0.487340 0.272947
Si Si2 0.248447 0.984146 0.739362
Si Si3 0.395763 0.481440 0.012858
Si Si4 0.500000 0.701746 0.500000
Si Si5 0.749158 0.872653 0.656241
Si Si6 0.951533 0.994211 0.220846
O O1 0.217806 0.573260 0.369331
O O2 0.034525 0.733116 0.332625
O O3 0.059040 0.220569 0.353821
O O4 0.000000 0.439932 0.000000
O O5 0.249402 0.047106 0.524415
O O6 0.118602 0.030796 0.678948
O O7 0.348022 0.185513 0.947507
O O8 0.284903 0.685792 0.833246
O O9 0.450460 0.515145 0.280930
O O10 0.500000 0.543164 0.000000
O O11 0.613995 0.882894 0.576378
O O12 0.855134 0.986740 0.927546
#
# Coordination Sequence:
#
# PCOD8045385 Si02
#       6
#     2   2   2   1   2   2
#     4  10  23  46  75 108 150 199 258 312 382 458
#     4  12  27  47  77 116 154 199 265 324 390 465
#     4  12  27  48  73 112 160 206 260 322 387 466
#     4  12  26  52  82 116 160 216 258 318 408 462
#     4  11  26  48  81 116 155 207 262 320 395 465
#     4  11  24  48  77 106 154 202 250 325 382 456
#
# _framework density 27.064150999999999
#
# number of rings (size 3 to 8) (size 9 to 14) (size 15 to 20)
#    0.000    0.727    3.636    3.273    2.545    7.273 
#    0.000    5.455    0.000    0.000    0.000    0.000 
#    0.000    0.000    0.000    0.000    0.000    0.000 
#
# Total GULP energy -136332.159157 kJ/mol
# GULP energy per Si atom -12393.832651 kJ/mol
# Density = 2.700255 g / cm^3
# Si number density = 27.064151 Si / 1000 Ang^3
#
#
#
# Elastic Constant Matrix: (Units=GPa)
#
#
# Indices 1 2 3 4 5 6 
#
# 1 226.2519 54.7473 76.7730 0.0000 6.5701 0.0000
# 2 54.7473 137.5482 21.9554 0.0000 0.1575 0.0000
# 3 76.7730 21.9554 94.9619 0.0000 -19.5692 0.0000
# 4 0.0000 0.0000 0.0000 54.6554 0.0000 8.8978
# 5 6.5701 0.1575 -19.5692 0.0000 67.3794 0.0000
# 6 0.0000 0.0000 0.0000 8.8978 0.0000 28.2364
#
#
#
# Elastic Compliance Matrix: (Units=1/GPa)
#
#
# Indices 1 2 3 4 5 6 
#
# 1 0.006811 -0.001822 -0.005554 0.000000 -0.002273 0.000000
# 2 -0.001822 0.008056 -0.000380 0.000000 0.000049 0.000000
# 3 -0.005554 -0.000380 0.016189 0.000000 0.005244 0.000000
# 4 0.000000 0.000000 0.000000 0.019286 0.000000 -0.006077
# 5 -0.002273 0.000049 0.005244 0.000000 0.016586 0.000000
# 6 0.000000 0.000000 0.000000 -0.006077 0.000000 0.037330
#
#
# Mechanical properties :
#
#
# Convention : Reuss Voigt Hill
#
# Bulk Modulus (GPa) = 64.32692 85.07927 74.70309
# Shear Modulus (GPa) = 40.01575 50.40665 45.21120
#
# Velocity S-wave (km/s) = 3.84937 4.32034 4.09163
# Velocity P-wave (km/s) = 6.60127 7.50943 7.06994
#
# Compressibility (1/GPa) = 0.01554559
#
# Stress axis : x y z
#
# Youngs Moduli (GPa) = 146.81568 124.13290 61.77024
#
# Poissons Ratio (x) = 0.22616 0.34306
# Poissons Ratio (y) = 0.26749 0.02345
# Poissons Ratio (z) = 0.81538 0.04712
#
# Static dielectric constant tensor:
#      x y z
#    x 5.258760 0.000000 -0.080890 
#    y 0.000000 5.949560 0.000000 
#    z -0.080890 0.000000 5.353950 
# 
# 
# High freq. dielectric constant tensor:
#      x y z
#    x 2.107780 0.000000 -0.010590 
#    y 0.000000 2.081960 0.000000 
#    z -0.010590 0.000000 2.124450 
# 
# From -- ./inp_files/7873.got.cif
#   From: 2010.03.12/outbox.cif.g09.slc.cpg/sg3_4_cif.got.tgz:7873.got - 2010.03.31 09:20:49.
