data_PCOD8045074
_publ_section_title
;
Structure prediction by ZEFSAII (Michael W. Deem and Ramdas Pophale) SiO2 
 PCOD8045074
Probable space group: P 2
;
_chemical_formula_sum "Si O2"
_cell_formula_units_Z 16
_cell_length_a 10.756694
_cell_length_b 7.983462
_cell_length_c 9.512660
_cell_angle_alpha 90.000000
_cell_angle_beta 113.563853
_cell_angle_gamma 90.000000
_cell_volume 748.788332
_symmetry_space_group_name_H-M "P 2"
_symmetry_group_IT_number 3
_symmetry_cell_setting 'monoclinic'
loop_
_space_group_symop_operation_xyz
x,y,z
-x,y,-z
loop_
_atom_site_type_symbol
_atom_site_label
_atom_site_fract_x
_atom_site_fract_y
_atom_site_fract_z
Si Si1 0.377683 0.429920 0.541073
Si Si2 0.162455 0.523484 0.232406
Si Si3 0.626528 0.322819 0.146421
Si Si4 0.696726 0.878695 0.697335
Si Si5 0.596970 0.812252 0.366507
Si Si6 0.350674 0.934124 0.896080
Si Si7 0.138921 0.021952 0.011924
Si Si8 0.866372 0.396247 0.079535
O O1 0.500000 0.362472 0.500000
O O2 0.238874 0.415670 0.388502
O O3 0.381963 0.328388 0.688843
O O4 0.399667 0.621772 0.587557
O O5 0.204974 0.716974 0.257915
O O6 0.001380 0.497662 0.181632
O O7 0.201979 0.458258 0.095655
O O8 0.759408 0.424971 0.156605
O O9 0.641543 0.132649 0.108419
O O10 0.500000 0.398668 0.000000
O O11 0.659445 0.925054 0.520432
O O12 0.560655 0.854168 0.728157
O O13 0.771737 0.035884 0.804492
O O14 0.686642 0.849629 0.269579
O O15 0.226353 0.898280 0.947956
O O16 0.500000 0.861090 0.000000
O O17 0.100995 0.199056 0.925836
O O18 0.000000 0.932292 0.000000
#
# Coordination Sequence:
#
# PCOD8045074 Si02
#       8
#     2   2   2   2   2   2   2   2
#     4  11  21  39  62  90 125 157 204 257 315 369
#     4  10  20  39  62  88 119 165 204 253 308 375
#     4  10  23  38  59  93 125 157 210 260 310 372
#     4  10  21  37  64  88 126 156 209 248 315 368
#     4  10  20  41  60  93 124 158 199 267 304 370
#     4  10  21  40  61  90 124 159 206 257 307 363
#     4  11  22  40  63  91 124 166 205 255 305 372
#     4  10  22  41  61  86 125 164 209 258 308 365
#
# _framework density 21.367853
#
# number of rings (size 3 to 8) (size 9 to 14) (size 15 to 20)
#    0.000    1.750    5.000    0.750    1.750    3.000 
#    2.250    0.625    0.000    0.000    0.000    0.000 
#    0.000    0.000    0.000    0.000    0.000    0.000 
#
# Total GULP energy -198272.613517 kJ/mol
# GULP energy per Si atom -12392.038345 kJ/mol
# Density = 2.131922 g / cm^3
# Si number density = 21.367853 Si / 1000 Ang^3
#
#
#
# Elastic Constant Matrix: (Units=GPa)
#
#
# Indices 1 2 3 4 5 6 
#
# 1 174.6349 22.1893 72.4629 0.0000 -11.5114 0.0000
# 2 22.1893 10.2628 9.5019 0.0000 5.4122 0.0000
# 3 72.4629 9.5019 122.7249 0.0000 2.1692 0.0000
# 4 0.0000 0.0000 0.0000 24.5906 0.0000 -4.2940
# 5 -11.5114 5.4122 2.1692 0.0000 41.1018 0.0000
# 6 0.0000 0.0000 0.0000 -4.2940 0.0000 20.9400
#
#
#
# Elastic Compliance Matrix: (Units=1/GPa)
#
#
# Indices 1 2 3 4 5 6 
#
# 1 0.011060 -0.022742 -0.004882 0.000000 0.006350 0.000000
# 2 -0.022742 0.159663 0.001552 0.000000 -0.027475 0.000000
# 3 -0.004882 0.001552 0.010949 0.000000 -0.002149 0.000000
# 4 0.000000 0.000000 0.000000 0.042176 0.000000 0.008649
# 5 0.006350 -0.027475 -0.002149 0.000000 0.029840 0.000000
# 6 0.000000 0.000000 0.000000 0.008649 0.000000 0.049529
#
#
# Mechanical properties :
#
#
# Convention : Reuss Voigt Hill
#
# Bulk Modulus (GPa) = 7.72036 57.32566 32.52301
# Shear Modulus (GPa) = 12.54590 30.89104 21.71847
#
# Velocity S-wave (km/s) = 2.42572 3.80633 3.19158
# Velocity P-wave (km/s) = 3.38621 6.79734 5.36983
#
# Compressibility (1/GPa) = 0.12952760
#
# Stress axis : x y z
#
# Youngs Moduli (GPa) = 90.41499 6.26320 91.33533
#
# Poissons Ratio (x) = 0.14244 0.44589
# Poissons Ratio (y) = 2.05622 -0.14174
# Poissons Ratio (z) = 0.44140 -0.00972
#
# Static dielectric constant tensor:
#      x y z
#    x 4.492320 0.000000 -0.620410 
#    y 0.000000 3.463370 0.000000 
#    z -0.620410 0.000000 4.910030 
# 
# 
# High freq. dielectric constant tensor:
#      x y z
#    x 1.840020 0.000000 -0.001990 
#    y 0.000000 1.811840 0.000000 
#    z -0.001990 0.000000 1.845980 
# 
# From -- ./inp_files/7259.got.cif
#   From: 2010.03.12/outbox.cif.g09.slc.cpg/sg3_4_cif.got.tgz:7259.got - 2010.03.31 09:20:49.
