data_PCOD8045752
_publ_section_title
;
Structure prediction by ZEFSAII (Michael W. Deem and Ramdas Pophale) SiO2 
 PCOD8045752
Probable space group: P 21
;
_chemical_formula_sum "Si O2"
_cell_formula_units_Z 16
_cell_length_a 14.899038
_cell_length_b 9.176441
_cell_length_c 5.054600
_cell_angle_alpha 90.000000
_cell_angle_beta 99.465863
_cell_angle_gamma 90.000000
_cell_volume 681.655922
_symmetry_space_group_name_H-M "P 21"
_symmetry_group_IT_number 4
_symmetry_cell_setting 'monoclinic'
loop_
_space_group_symop_operation_xyz
x,y,z
-x,1/2+y,-z
loop_
_atom_site_type_symbol
_atom_site_label
_atom_site_fract_x
_atom_site_fract_y
_atom_site_fract_z
Si Si1 0.095014 0.508230 0.513721
Si Si2 0.448095 0.864184 0.477386
Si Si3 0.380582 0.185388 0.444999
Si Si4 0.728962 0.627211 0.114673
Si Si5 0.660117 0.307405 0.073025
Si Si6 0.977421 0.344567 0.120860
Si Si7 0.821864 0.123082 0.980076
Si Si8 0.935826 0.656036 0.249417
O O1 0.052279 0.349334 0.406895
O O2 0.155202 0.490366 0.806051
O O3 0.008167 0.619162 0.522781
O O4 0.159696 0.575378 0.310836
O O5 0.552006 0.819054 0.584015
O O6 0.380918 0.783616 0.654244
O O7 0.440076 0.038107 0.487940
O O8 0.423687 0.817593 0.168776
O O9 0.299787 0.183961 0.189139
O O10 0.336107 0.207253 0.708843
O O11 0.720552 0.452898 0.110457
O O12 0.829735 0.668169 0.261699
O O13 0.719608 0.173173 0.990747
O O14 0.886143 0.253696 0.116182
O O15 0.950756 0.514363 0.061501
O O16 0.032277 0.299717 0.888129
#
# Coordination Sequence:
#
# PCOD8045752 Si02
#       8
#     2   2   2   2   2   2   2   2
#     4   9  22  33  56  81 120 156 194 245 299 341
#     4  10  21  38  61  86 116 145 196 237 311 350
#     4  10  22  39  62  86 117 151 193 247 298 363
#     4  10  20  37  61  89 115 155 202 241 289 357
#     4  10  19  35  61  88 110 155 198 244 279 369
#     4   9  20  38  60  86 122 162 201 251 298 347
#     4  11  19  38  56  86 116 150 202 248 285 350
#     4   9  19  40  59  90 120 164 202 249 299 353
#
# _framework density 23.472251
#
# number of rings (size 3 to 8) (size 9 to 14) (size 15 to 20)
#    0.750    1.500    1.250    1.500    0.000    4.000 
#    0.000    3.750    0.000    0.000    0.000    0.000 
#    0.000    0.000    0.000    0.000    0.000    0.000 
#
# Total GULP energy -198274.615422 kJ/mol
# GULP energy per Si atom -12392.163464 kJ/mol
# Density = 2.341883 g / cm^3
# Si number density = 23.472251 Si / 1000 Ang^3
#
#
#
# Elastic Constant Matrix: (Units=GPa)
#
#
# Indices 1 2 3 4 5 6 
#
# 1 82.4072 -1.7675 18.2685 0.0000 1.6296 0.0000
# 2 -1.7675 20.1291 -3.0381 0.0000 -5.7925 0.0000
# 3 18.2685 -3.0381 82.9028 0.0000 -5.7700 0.0000
# 4 0.0000 0.0000 0.0000 17.1245 0.0000 1.7603
# 5 1.6296 -5.7925 -5.7700 0.0000 20.6442 0.0000
# 6 0.0000 0.0000 0.0000 1.7603 0.0000 31.4741
#
#
#
# Elastic Compliance Matrix: (Units=1/GPa)
#
#
# Indices 1 2 3 4 5 6 
#
# 1 0.012827 0.000167 -0.002945 0.000000 -0.001789 0.000000
# 2 0.000167 0.054836 0.003103 0.000000 0.016240 0.000000
# 3 -0.002945 0.003103 0.013158 0.000000 0.004781 0.000000
# 4 0.000000 0.000000 0.000000 0.058733 0.000000 -0.003285
# 5 -0.001789 0.016240 0.004781 0.000000 0.054474 0.000000
# 6 0.000000 0.000000 0.000000 -0.003285 0.000000 0.031956
#
#
# Mechanical properties :
#
#
# Convention : Reuss Voigt Hill
#
# Bulk Modulus (GPa) = 12.27438 23.59611 17.93524
# Shear Modulus (GPa) = 19.80280 25.31365 22.55823
#
# Velocity S-wave (km/s) = 2.90775 3.28754 3.10346
# Velocity P-wave (km/s) = 4.06374 4.94825 4.52765
#
# Compressibility (1/GPa) = 0.08147052
#
# Stress axis : x y z
#
# Youngs Moduli (GPa) = 77.96265 18.23632 76.00117
#
# Poissons Ratio (x) = -0.00305 0.22381
# Poissons Ratio (y) = -0.01303 -0.23583
# Poissons Ratio (z) = 0.22959 -0.05659
#
# Static dielectric constant tensor:
#      x y z
#    x 3.962070 0.000000 0.021420 
#    y 0.000000 4.187600 0.000000 
#    z 0.021420 0.000000 4.083650 
# 
# 
# High freq. dielectric constant tensor:
#      x y z
#    x 1.917690 0.000000 -0.002930 
#    y 0.000000 1.925210 0.000000 
#    z -0.002930 0.000000 1.932130 
# 
# From -- ./inp_files/3580.got.cif
#   From: 2010.03.12/outbox.cif.g09.slc.cpg/sg4_2_cif.got.tgz:3580.got - 2010.03.31 09:31:35.
