data_PCOD8045766
_publ_section_title
;
Structure prediction by ZEFSAII (Michael W. Deem and Ramdas Pophale) SiO2 
 PCOD8045766
Probable space group: P 21
;
_chemical_formula_sum "Si O2"
_cell_formula_units_Z 14
_cell_length_a 8.657759
_cell_length_b 4.988621
_cell_length_c 21.031696
_cell_angle_alpha 90.000000
_cell_angle_beta 130.133804
_cell_angle_gamma 90.000000
_cell_volume 694.482355
_symmetry_space_group_name_H-M "P 21"
_symmetry_group_IT_number 4
_symmetry_cell_setting 'monoclinic'
loop_
_space_group_symop_operation_xyz
x,y,z
-x,1/2+y,-z
loop_
_atom_site_type_symbol
_atom_site_label
_atom_site_fract_x
_atom_site_fract_y
_atom_site_fract_z
Si Si1 0.779811 0.131630 0.227711
Si Si2 0.510591 0.629425 0.167457
Si Si3 0.058924 0.142571 0.185229
Si Si4 0.097105 0.584527 0.995154
Si Si5 0.256583 0.057092 0.586322
Si Si6 0.327257 0.636149 0.255369
Si Si7 0.930000 0.057285 0.401559
O O1 0.692341 0.429929 0.198962
O O2 0.935563 0.112798 0.328003
O O3 0.899980 0.055839 0.196347
O O4 0.592603 0.931416 0.187996
O O5 0.420119 0.556322 0.212024
O O6 0.336728 0.599456 0.068730
O O7 0.148173 0.433458 0.225556
O O8 0.943201 0.158160 0.088099
O O9 0.243495 0.935686 0.231634
O O10 0.017106 0.286782 0.987791
O O11 0.495502 0.114878 0.644831
O O12 0.152424 0.258732 0.608763
O O13 0.156086 0.092003 0.489959
O O14 0.222597 0.758467 0.603415
#
# Coordination Sequence:
#
# PCOD8045766 Si02
#       7
#     2   2   2   2   2   2   2
#     4  12  24  41  60  93 124 156 192 249 309 346
#     4  12  23  39  68  85 118 161 205 241 287 363
#     4  12  26  40  61  89 128 154 192 253 308 344
#     4  12  23  40  62  90 117 153 205 249 288 344
#     4  10  20  33  63  88 114 150 208 238 282 346
#     4  12  21  41  63  92 113 164 203 239 289 363
#     4  10  19  36  57  91 118 150 191 255 285 342
#
# _framework density 20.158897
#
# number of rings (size 3 to 8) (size 9 to 14) (size 15 to 20)
#    0.000    0.571    5.714    3.429    0.000    1.143 
#    0.000    1.429    0.000    0.000    0.000    0.000 
#    0.000    0.000    0.000    0.000    0.000    0.000 
#
# Total GULP energy -173710.371611 kJ/mol
# GULP energy per Si atom -12407.883686 kJ/mol
# Density = 2.011301 g / cm^3
# Si number density = 20.158897 Si / 1000 Ang^3
#
#
#
# Elastic Constant Matrix: (Units=GPa)
#
#
# Indices 1 2 3 4 5 6 
#
# 1 70.1821 8.9872 44.5844 0.0000 -0.3287 0.0000
# 2 8.9872 77.8485 16.2380 0.0000 1.8890 0.0000
# 3 44.5844 16.2380 141.5023 0.0000 11.3958 0.0000
# 4 0.0000 0.0000 0.0000 28.3595 0.0000 8.0954
# 5 -0.3287 1.8890 11.3958 0.0000 24.9630 0.0000
# 6 0.0000 0.0000 0.0000 8.0954 0.0000 31.0859
#
#
#
# Elastic Compliance Matrix: (Units=1/GPa)
#
#
# Indices 1 2 3 4 5 6 
#
# 1 0.018087 -0.000944 -0.005830 0.000000 0.002971 0.000000
# 2 -0.000944 0.013212 -0.001181 0.000000 -0.000473 0.000000
# 3 -0.005830 -0.001181 0.009383 0.000000 -0.004271 0.000000
# 4 0.000000 0.000000 0.000000 0.038093 0.000000 -0.009920
# 5 0.002971 -0.000473 -0.004271 0.000000 0.042084 0.000000
# 6 0.000000 0.000000 0.000000 -0.009920 0.000000 0.034752
#
#
# Mechanical properties :
#
#
# Convention : Reuss Voigt Hill
#
# Bulk Modulus (GPa) = 40.36566 47.68357 44.02461
# Shear Modulus (GPa) = 27.81197 31.52990 29.67093
#
# Velocity S-wave (km/s) = 3.71838 3.95912 3.84064
# Velocity P-wave (km/s) = 6.20502 6.67868 6.44620
#
# Compressibility (1/GPa) = 0.02477353
#
# Stress axis : x y z
#
# Youngs Moduli (GPa) = 55.28871 75.68770 106.57262
#
# Poissons Ratio (x) = 0.07146 0.62129
# Poissons Ratio (y) = 0.05220 0.12582
# Poissons Ratio (z) = 0.32232 0.08935
#
# Static dielectric constant tensor:
#      x y z
#    x 3.238790 0.000000 0.195040 
#    y 0.000000 3.736180 0.000000 
#    z 0.195040 0.000000 3.980200 
# 
# 
# High freq. dielectric constant tensor:
#      x y z
#    x 1.749090 0.000000 0.016760 
#    y 0.000000 1.806580 0.000000 
#    z 0.016760 0.000000 1.803660 
# 
# From -- ./inp_files/14845.got.cif
#   From: 2010.03.12/outbox.cif.g09.slc.cpg/sg4_8_cif.got.tgz:14845.got - 2010.03.31 09:31:35.
