data_PCOD8045585
_publ_section_title
;
Structure prediction by ZEFSAII (Michael W. Deem and Ramdas Pophale) SiO2 
 PCOD8045585
Probable space group: P 21
;
_chemical_formula_sum "Si O2"
_cell_formula_units_Z 12
_cell_length_a 22.144416
_cell_length_b 5.136447
_cell_length_c 8.637870
_cell_angle_alpha 90.000000
_cell_angle_beta 35.900037
_cell_angle_gamma 90.000000
_cell_volume 576.112876
_symmetry_space_group_name_H-M "P 21"
_symmetry_group_IT_number 4
_symmetry_cell_setting 'monoclinic'
loop_
_space_group_symop_operation_xyz
x,y,z
-x,1/2+y,-z
loop_
_atom_site_type_symbol
_atom_site_label
_atom_site_fract_x
_atom_site_fract_y
_atom_site_fract_z
Si Si1 0.037322 0.391550 0.507461
Si Si2 0.263331 0.011107 0.636066
Si Si3 0.959429 0.465793 0.005818
Si Si4 0.258455 0.241093 0.963022
Si Si5 0.370128 0.503593 0.472858
Si Si6 0.461466 0.080992 0.664858
O O1 0.995559 0.358590 0.766183
O O2 0.019032 0.682200 0.484041
O O3 0.159102 0.338630 0.260168
O O4 0.339478 0.251402 0.434126
O O5 0.328870 0.753088 0.468075
O O6 0.227797 0.033573 0.890885
O O7 0.163154 0.011562 0.735975
O O8 0.014073 0.740759 0.926250
O O9 0.314993 0.480584 0.757011
O O10 0.337627 0.117845 0.924112
O O11 0.492723 0.518207 0.257956
O O12 0.515754 0.348737 0.500955
#
# Coordination Sequence:
#
# PCOD8045585 Si02
#       6
#     2   2   2   2   2   2
#     4  12  23  39  61  86 114 156 199 244 286 339
#     4  10  18  33  52  75 105 149 186 225 275 338
#     4  12  25  41  56  83 120 159 197 238 287 349
#     4   9  20  29  55  80 113 143 185 233 287 331
#     4   9  16  29  49  80 113 136 178 230 293 328
#     4  10  16  27  45  80 119 139 167 232 300 331
#
# _framework density 20.829249000000001
#
# number of rings (size 3 to 8) (size 9 to 14) (size 15 to 20)
#    1.000    0.667    3.333    3.000    0.000    0.000 
#    0.000    0.000    0.000    0.000    0.000    4.667 
#    0.000    5.333    0.000    0.000    0.000    0.000 
#
# Total GULP energy -148713.168722 kJ/mol
# GULP energy per Si atom -12392.764060 kJ/mol
# Density = 2.078184 g / cm^3
# Si number density = 20.829249 Si / 1000 Ang^3
#
#
#
# Elastic Constant Matrix: (Units=GPa)
#
#
# Indices 1 2 3 4 5 6 
#
# 1 121.5412 40.9169 18.9413 0.0000 -49.4316 0.0000
# 2 40.9169 125.1631 5.8909 0.0000 -21.6735 0.0000
# 3 18.9413 5.8909 33.7669 0.0000 -16.9373 0.0000
# 4 0.0000 0.0000 0.0000 16.9525 0.0000 -7.4513
# 5 -49.4316 -21.6735 -16.9373 0.0000 42.3106 0.0000
# 6 0.0000 0.0000 0.0000 -7.4513 0.0000 39.5667
#
#
#
# Elastic Compliance Matrix: (Units=1/GPa)
#
#
# Indices 1 2 3 4 5 6 
#
# 1 0.016221 -0.002211 0.000281 0.000000 0.017930 0.000000
# 2 -0.002211 0.009091 0.000869 0.000000 0.002421 0.000000
# 3 0.000281 0.000869 0.037154 0.000000 0.015646 0.000000
# 4 0.000000 0.000000 0.000000 0.064312 0.000000 0.012111
# 5 0.017930 0.002421 0.015646 0.000000 0.052086 0.000000
# 6 0.000000 0.000000 0.000000 0.012111 0.000000 0.027555
#
#
# Mechanical properties :
#
#
# Convention : Reuss Voigt Hill
#
# Bulk Modulus (GPa) = 16.57218 45.77437 31.17327
# Shear Modulus (GPa) = 21.86700 34.08077 27.97388
#
# Velocity S-wave (km/s) = 3.24361 4.04938 3.66869
# Velocity P-wave (km/s) = 4.69057 6.62473 5.73971
#
# Compressibility (1/GPa) = 0.06034210
#
# Stress axis : x y z
#
# Youngs Moduli (GPa) = 61.64975 110.00164 26.91521
#
# Poissons Ratio (x) = 0.24322 -0.00755
# Poissons Ratio (y) = 0.13631 -0.02339
# Poissons Ratio (z) = -0.01730 -0.09558
#
# Static dielectric constant tensor:
#      x y z
#    x 3.765370 0.000000 -0.440770 
#    y 0.000000 3.782350 0.000000 
#    z -0.440770 0.000000 3.217300 
# 
# 
# High freq. dielectric constant tensor:
#      x y z
#    x 1.814240 0.000000 -0.045340 
#    y 0.000000 1.828860 0.000000 
#    z -0.045340 0.000000 1.759850 
# 
# From -- ./inp_files/8848.got.cif
#   From: 2010.03.12/outbox.cif.g09.slc.cpg/sg4_5_cif.got.tgz:8848.got - 2010.03.31 09:31:35.
