data_PCOD8045043
_publ_section_title
;
Structure prediction by ZEFSAII (Michael W. Deem and Ramdas Pophale) SiO2 
 PCOD8045043
Probable space group: P 2
;
_chemical_formula_sum "Si O2"
_cell_formula_units_Z 16
_cell_length_a 20.622236
_cell_length_b 9.224812
_cell_length_c 8.963067
_cell_angle_alpha 90.000000
_cell_angle_beta 29.406194
_cell_angle_gamma 90.000000
_cell_volume 837.200703
_symmetry_space_group_name_H-M "P 2"
_symmetry_group_IT_number 3
_symmetry_cell_setting 'monoclinic'
loop_
_space_group_symop_operation_xyz
x,y,z
-x,y,-z
loop_
_atom_site_type_symbol
_atom_site_label
_atom_site_fract_x
_atom_site_fract_y
_atom_site_fract_z
Si Si1 0.506931 0.543200 0.810173
Si Si2 0.778315 0.213004 0.784894
Si Si3 0.489093 0.248135 0.347421
Si Si4 0.252691 0.047880 0.853100
Si Si5 0.010904 0.748137 0.652582
Si Si6 0.278322 0.713009 0.784886
Si Si7 0.247306 0.547881 0.146906
Si Si8 0.993061 0.043191 0.189844
O O1 0.558255 0.388472 0.648324
O O2 0.609575 0.668429 0.557196
O O3 0.500000 0.541602 0.000000
O O4 0.361320 0.572471 0.038970
O O5 0.791106 0.381361 0.802897
O O6 0.890420 0.168425 0.442810
O O7 0.632299 0.189543 0.006469
O O8 0.797945 0.115914 0.891716
O O9 0.500000 0.291068 0.500000
O O10 0.383722 0.123662 0.528532
O O11 0.291121 0.881365 0.802875
O O12 0.138670 0.072451 0.961061
O O13 0.116261 0.623646 0.471485
O O14 0.000000 0.791085 0.500000
O O15 0.058270 0.888461 0.648302
O O16 0.867695 0.689556 0.993540
O O17 0.297947 0.615914 0.891714
O O18 0.000000 0.041601 0.000000
#
# Coordination Sequence:
#
# PCOD8045043 Si02
#       8
#     2   2   2   2   2   2   2   2
#     4  11  23  37  54  81 118 151 179 219 273 332
#     4  10  20  37  58  85 110 140 187 229 274 322
#     4   9  20  39  61  83 105 140 188 235 275 316
#     4  10  21  37  61  85 107 141 186 233 274 320
#     4   9  20  39  61  83 105 140 188 235 275 316
#     4  10  20  37  58  85 110 140 187 229 274 322
#     4  10  21  37  61  85 107 141 186 233 274 320
#     4  11  23  37  54  81 118 151 179 219 273 332
#
# _framework density 19.111307
#
# number of rings (size 3 to 8) (size 9 to 14) (size 15 to 20)
#    0.000    2.000    0.000    5.250    0.000   12.000 
#    0.000    1.250    0.000    0.000    0.000    0.000 
#    0.000    0.000    0.000    0.000    0.000    0.000 
#
# Total GULP energy -198425.386614 kJ/mol
# GULP energy per Si atom -12401.586663 kJ/mol
# Density = 1.906781 g / cm^3
# Si number density = 19.111307 Si / 1000 Ang^3
#
#
#
# Elastic Constant Matrix: (Units=GPa)
#
#
# Indices 1 2 3 4 5 6 
#
# 1 93.5034 63.1274 66.4063 0.0000 6.3901 0.0000
# 2 63.1274 142.9383 89.9272 0.0000 -2.6779 0.0000
# 3 66.4063 89.9272 110.7858 0.0000 -6.5612 0.0000
# 4 0.0000 0.0000 0.0000 40.1287 0.0000 -7.9209
# 5 6.3901 -2.6779 -6.5612 0.0000 27.9168 0.0000
# 6 0.0000 0.0000 0.0000 -7.9209 0.0000 21.9598
#
#
#
# Elastic Compliance Matrix: (Units=1/GPa)
#
#
# Indices 1 2 3 4 5 6 
#
# 1 0.020469 -0.002418 -0.010747 0.000000 -0.007443 0.000000
# 2 -0.002418 0.014635 -0.010460 0.000000 -0.000501 0.000000
# 3 -0.010747 -0.010460 0.024385 0.000000 0.007188 0.000000
# 4 0.000000 0.000000 0.000000 0.026830 0.000000 0.009678
# 5 -0.007443 -0.000501 0.007188 0.000000 0.039166 0.000000
# 6 0.000000 0.000000 0.000000 0.009678 0.000000 0.049028
#
#
# Mechanical properties :
#
#
# Convention : Reuss Voigt Hill
#
# Bulk Modulus (GPa) = 81.71143 87.34992 84.53067
# Shear Modulus (GPa) = 22.13924 26.51884 24.32904
#
# Velocity S-wave (km/s) = 3.40727 3.72909 3.57181
# Velocity P-wave (km/s) = 7.63726 8.02163 7.83180
#
# Compressibility (1/GPa) = 0.01223819
#
# Stress axis : x y z
#
# Youngs Moduli (GPa) = 48.85548 68.32806 41.00859
#
# Poissons Ratio (x) = 0.16519 0.44074
# Poissons Ratio (y) = 0.11811 0.42896
# Poissons Ratio (z) = 0.52507 0.71473
#
# Static dielectric constant tensor:
#      x y z
#    x 3.305790 0.000000 -0.249180 
#    y 0.000000 3.552490 0.000000 
#    z -0.249180 0.000000 3.701520 
# 
# 
# High freq. dielectric constant tensor:
#      x y z
#    x 1.725770 0.000000 -0.018310 
#    y 0.000000 1.749840 0.000000 
#    z -0.018310 0.000000 1.751450 
# 
# From -- ./inp_files/9458.got.cif
#   From: 2010.03.12/outbox.cif.g09.slc.cpg/sg3_5_cif.got.tgz:9458.got - 2010.03.31 09:20:49.
