data_PCOD8045849
_publ_section_title
;
Structure prediction by ZEFSAII (Michael W. Deem and Ramdas Pophale) SiO2 
 PCOD8045849
Probable space group: P 21
;
_chemical_formula_sum "Si O2"
_cell_formula_units_Z 10
_cell_length_a 8.898873
_cell_length_b 7.042757
_cell_length_c 9.328820
_cell_angle_alpha 90.000000
_cell_angle_beta 37.771976
_cell_angle_gamma 90.000000
_cell_volume 358.117100
_symmetry_space_group_name_H-M "P 21"
_symmetry_group_IT_number 4
_symmetry_cell_setting 'monoclinic'
loop_
_space_group_symop_operation_xyz
x,y,z
-x,1/2+y,-z
loop_
_atom_site_type_symbol
_atom_site_label
_atom_site_fract_x
_atom_site_fract_y
_atom_site_fract_z
Si Si1 0.989942 0.615450 0.166898
Si Si2 0.299486 0.759390 0.674240
Si Si3 0.770625 0.448552 0.886325
Si Si4 0.728866 0.856163 0.832001
Si Si5 0.357353 0.449540 0.407826
O O1 0.977759 0.820663 0.269435
O O2 0.193981 0.504465 0.105623
O O3 0.757276 0.479127 0.327713
O O4 0.100725 0.664253 0.929204
O O5 0.281236 0.642802 0.542261
O O6 0.580430 0.772159 0.527011
O O7 0.850686 0.651500 0.766267
O O8 0.571969 0.342593 0.932529
O O9 0.639755 0.478175 0.138464
O O10 0.811315 0.914345 0.607791
#
# Coordination Sequence:
#
# PCOD8045849 Si02
#       5
#     2   2   2   2   2
#     4  11  25  42  72 107 145 191 237 298 351 438
#     4  11  25  44  69 109 150 185 237 296 366 415
#     4   9  18  40  73 105 132 189 240 283 350 422
#     4  10  19  42  76 100 138 192 243 284 357 427
#     4   9  23  44  68 107 143 191 235 295 352 432
#
# _framework density 27.923822999999999
#
# number of rings (size 3 to 8) (size 9 to 14) (size 15 to 20)
#    1.200    0.800    2.000    0.000    8.400    0.000 
#    3.600    4.000    0.000    0.000    0.000    0.000 
#    0.000    0.000    0.000    0.000    0.000    0.000 
#
# Total GULP energy -123894.631866 kJ/mol
# GULP energy per Si atom -12389.463187 kJ/mol
# Density = 2.786027 g / cm^3
# Si number density = 27.923823 Si / 1000 Ang^3
#
#
#
# Elastic Constant Matrix: (Units=GPa)
#
#
# Indices 1 2 3 4 5 6 
#
# 1 119.1246 60.7512 23.2568 0.0000 17.0196 0.0000
# 2 60.7512 208.7151 47.6695 0.0000 26.1310 0.0000
# 3 23.2568 47.6695 78.3006 0.0000 26.8643 0.0000
# 4 0.0000 0.0000 0.0000 47.6976 0.0000 14.9985
# 5 17.0196 26.1310 26.8643 0.0000 38.4434 0.0000
# 6 0.0000 0.0000 0.0000 14.9985 0.0000 57.5832
#
#
#
# Elastic Compliance Matrix: (Units=1/GPa)
#
#
# Indices 1 2 3 4 5 6 
#
# 1 0.010136 -0.002503 -0.000698 0.000000 -0.002298 0.000000
# 2 -0.002503 0.006286 -0.002628 0.000000 -0.001328 0.000000
# 3 -0.000698 -0.002628 0.018230 0.000000 -0.010644 0.000000
# 4 0.000000 0.000000 0.000000 0.022836 0.000000 -0.005948
# 5 -0.002298 -0.001328 -0.010644 0.000000 0.035371 0.000000
# 6 0.000000 0.000000 0.000000 -0.005948 0.000000 0.018915
#
#
# Mechanical properties :
#
#
# Convention : Reuss Voigt Hill
#
# Bulk Modulus (GPa) = 43.48936 74.38837 58.93886
# Shear Modulus (GPa) = 38.13959 47.04234 42.59097
#
# Velocity S-wave (km/s) = 3.69974 4.10892 3.90969
# Velocity P-wave (km/s) = 5.81884 7.01488 6.44467
#
# Compressibility (1/GPa) = 0.02299413
#
# Stress axis : x y z
#
# Youngs Moduli (GPa) = 98.66111 159.07593 54.85328
#
# Poissons Ratio (x) = 0.39817 0.03830
# Poissons Ratio (y) = 0.24695 0.14415
# Poissons Ratio (z) = 0.06889 0.41803
#
# Static dielectric constant tensor:
#      x y z
#    x 5.699830 0.000000 -0.201360 
#    y 0.000000 5.157300 0.000000 
#    z -0.201360 0.000000 5.108780 
# 
# 
# High freq. dielectric constant tensor:
#      x y z
#    x 2.171220 0.000000 -0.002010 
#    y 0.000000 2.136930 0.000000 
#    z -0.002010 0.000000 2.128750 
# 
# From -- ./inp_files/7016.got.cif
#   From: 2010.03.12/outbox.cif.g09.slc.cpg/sg4_4_cif.got.tgz:7016.got - 2010.03.31 09:31:35.
