data_PCOD8045589
_publ_section_title
;
Structure prediction by ZEFSAII (Michael W. Deem and Ramdas Pophale) SiO2 
 PCOD8045589
Probable space group: P 21
;
_chemical_formula_sum "Si O2"
_cell_formula_units_Z 14
_cell_length_a 17.018884
_cell_length_b 5.035400
_cell_length_c 13.018993
_cell_angle_alpha 90.000000
_cell_angle_beta 138.624943
_cell_angle_gamma 90.000000
_cell_volume 737.452778
_symmetry_space_group_name_H-M "P 21"
_symmetry_group_IT_number 4
_symmetry_cell_setting 'monoclinic'
loop_
_space_group_symop_operation_xyz
x,y,z
-x,1/2+y,-z
loop_
_atom_site_type_symbol
_atom_site_label
_atom_site_fract_x
_atom_site_fract_y
_atom_site_fract_z
Si Si1 0.821075 0.625000 0.346288
Si Si2 0.294494 0.959448 0.444485
Si Si3 0.918566 0.392864 0.634350
Si Si4 0.436504 0.854186 0.402163
Si Si5 0.569341 0.958688 0.345376
Si Si6 0.441134 0.313962 0.897541
Si Si7 0.979199 0.382130 0.347380
O O1 0.821263 0.433286 0.446687
O O2 0.695972 0.766064 0.209500
O O3 0.852988 0.455661 0.275020
O O4 0.924398 0.849219 0.464248
O O5 0.154879 0.920310 0.331907
O O6 0.311886 0.921256 0.337637
O O7 0.377079 0.751106 0.586979
O O8 0.331903 0.252523 0.517075
O O9 0.023321 0.613958 0.723853
O O10 0.978379 0.107758 0.689458
O O11 0.465359 0.543546 0.445810
O O12 0.445968 0.923385 0.289999
O O13 0.538397 0.915117 0.197238
O O14 0.486476 0.542057 0.018245
#
# Coordination Sequence:
#
# PCOD8045589 Si02
#       7
#     2   2   2   2   2   2   2
#     4  10  20  33  48  68  96 125 174 199 246 286
#     4  10  16  28  49  71  95 123 153 203 258 305
#     4  10  17  27  46  72  91 120 149 196 252 295
#     4   8  16  26  45  68  88 122 158 195 249 297
#     4  10  18  33  45  62  97 131 170 201 231 283
#     4  12  26  34  48  69 101 146 180 196 226 288
#     4  10  19  29  51  68  88 129 156 206 260 282
#
# _framework density 18.984266999999999
#
# number of rings (size 3 to 8) (size 9 to 14) (size 15 to 20)
#    0.857    1.143    2.857    2.571    2.000    0.000 
#    0.000    0.000    0.000    0.000    0.000    0.000 
#    0.000    4.571    0.000    1.286    0.000    0.429 
#
# Total GULP energy -173463.990641 kJ/mol
# GULP energy per Si atom -12390.285046 kJ/mol
# Density = 1.894106 g / cm^3
# Si number density = 18.984267 Si / 1000 Ang^3
#
#
#
# Elastic Constant Matrix: (Units=GPa)
#
#
# Indices 1 2 3 4 5 6 
#
# 1 146.3491 8.6118 12.7947 0.0000 11.3022 0.0000
# 2 8.6118 86.1905 4.2546 0.0000 3.4919 0.0000
# 3 12.7947 4.2546 30.5388 0.0000 4.6959 0.0000
# 4 0.0000 0.0000 0.0000 16.8988 0.0000 4.5506
# 5 11.3022 3.4919 4.6959 0.0000 10.6018 0.0000
# 6 0.0000 0.0000 0.0000 4.5506 0.0000 29.8814
#
#
#
# Elastic Compliance Matrix: (Units=1/GPa)
#
#
# Indices 1 2 3 4 5 6 
#
# 1 0.007578 -0.000371 -0.002039 0.000000 -0.007053 0.000000
# 2 -0.000371 0.011813 -0.001023 0.000000 -0.003043 0.000000
# 3 -0.002039 -0.001023 0.035794 0.000000 -0.013344 0.000000
# 4 0.000000 0.000000 0.000000 0.061706 0.000000 -0.009397
# 5 -0.007053 -0.003043 -0.013344 0.000000 0.108755 0.000000
# 6 0.000000 0.000000 0.000000 -0.009397 0.000000 0.034897
#
#
# Mechanical properties :
#
#
# Convention : Reuss Voigt Hill
#
# Bulk Modulus (GPa) = 20.69515 34.93341 27.81428
# Shear Modulus (GPa) = 17.63585 27.30423 22.47004
#
# Velocity S-wave (km/s) = 3.05121 3.79655 3.44410
# Velocity P-wave (km/s) = 4.83095 6.13674 5.52257
#
# Compressibility (1/GPa) = 0.04832050
#
# Stress axis : x y z
#
# Youngs Moduli (GPa) = 131.96570 84.65255 27.93793
#
# Poissons Ratio (x) = 0.03139 0.05695
# Poissons Ratio (y) = 0.04893 0.02857
# Poissons Ratio (z) = 0.26902 0.08656
#
# Static dielectric constant tensor:
#      x y z
#    x 3.834480 0.000000 0.081560 
#    y 0.000000 3.611980 0.000000 
#    z 0.081560 0.000000 2.642970 
# 
# 
# High freq. dielectric constant tensor:
#      x y z
#    x 1.762950 0.000000 0.019350 
#    y 0.000000 1.762090 0.000000 
#    z 0.019350 0.000000 1.628960 
# 
# From -- ./inp_files/14272.got.cif
#   From: 2010.03.12/outbox.cif.g09.slc.cpg/sg4_8_cif.got.tgz:14272.got - 2010.03.31 09:31:35.
