data_PCOD8045921
_publ_section_title
;
Structure prediction by ZEFSAII (Michael W. Deem and Ramdas Pophale) SiO2 
 PCOD8045921
Probable space group: P 21
;
_chemical_formula_sum "Si O2"
_cell_formula_units_Z 16
_cell_length_a 13.726040
_cell_length_b 9.134047
_cell_length_c 16.535769
_cell_angle_alpha 90.000000
_cell_angle_beta 24.242772
_cell_angle_gamma 90.000000
_cell_volume 851.247586
_symmetry_space_group_name_H-M "P 21"
_symmetry_group_IT_number 4
_symmetry_cell_setting 'monoclinic'
loop_
_space_group_symop_operation_xyz
x,y,z
-x,1/2+y,-z
loop_
_atom_site_type_symbol
_atom_site_label
_atom_site_fract_x
_atom_site_fract_y
_atom_site_fract_z
Si Si1 0.208930 0.236410 0.765069
Si Si2 0.520443 0.740672 0.596821
Si Si3 0.211795 0.188169 0.449928
Si Si4 0.314328 0.184721 0.188185
Si Si5 0.161384 0.524222 0.472343
Si Si6 0.082139 0.557210 0.908085
Si Si7 0.746944 0.021867 0.780612
Si Si8 0.425690 0.063619 0.722987
O O1 0.257209 0.252028 0.633289
O O2 0.143103 0.387579 0.858520
O O3 0.445514 0.176932 0.632753
O O4 0.996442 0.117472 0.942323
O O5 0.602682 0.661661 0.617735
O O6 0.313914 0.649499 0.708026
O O7 0.429510 0.900858 0.684863
O O8 0.334524 0.166050 0.269840
O O9 0.115491 0.354384 0.526749
O O10 0.000235 0.073173 0.623647
O O11 0.294916 0.351031 0.172948
O O12 0.085736 0.103816 0.325189
O O13 0.547104 0.115391 0.974943
O O14 0.258469 0.555356 0.310041
O O15 0.363152 0.595272 0.375644
O O16 0.841855 0.583843 0.035009
#
# Coordination Sequence:
#
# PCOD8045921 Si02
#       8
#     2   2   2   2   2   2   2   2
#     4  10  21  36  58  80 114 149 185 231 274 334
#     4  11  20  38  60  83 108 155 189 228 281 332
#     4   9  21  37  59  80 112 142 185 232 271 327
#     4  10  20  37  60  80 115 143 179 233 276 332
#     4   9  19  38  58  80 109 146 183 228 276 323
#     4  10  20  38  55  81 118 145 185 237 274 324
#     4  10  20  37  55  86 108 145 184 221 282 335
#     4   9  19  39  55  82 112 147 186 230 278 321
#
# _framework density 18.795940000000002
#
# number of rings (size 3 to 8) (size 9 to 14) (size 15 to 20)
#    0.750    1.500    1.250    1.500    0.000    3.000 
#    9.000    1.250    0.000    0.000    0.000    0.000 
#    0.000    0.000    0.000    0.000    0.000    0.000 
#
# Total GULP energy -198222.659799 kJ/mol
# GULP energy per Si atom -12388.916237 kJ/mol
# Density = 1.875316 g / cm^3
# Si number density = 18.795940 Si / 1000 Ang^3
#
#
#
# Elastic Constant Matrix: (Units=GPa)
#
#
# Indices 1 2 3 4 5 6 
#
# 1 61.4050 19.6061 21.3584 0.0000 -1.2612 0.0000
# 2 19.6061 60.5138 34.1739 0.0000 9.2881 0.0000
# 3 21.3584 34.1739 93.4579 0.0000 10.6046 0.0000
# 4 0.0000 0.0000 0.0000 36.1337 0.0000 -8.3280
# 5 -1.2612 9.2881 10.6046 0.0000 17.6290 0.0000
# 6 0.0000 0.0000 0.0000 -8.3280 0.0000 20.5117
#
#
#
# Elastic Compliance Matrix: (Units=1/GPa)
#
#
# Indices 1 2 3 4 5 6 
#
# 1 0.019217 -0.005407 -0.003106 0.000000 0.006092 0.000000
# 2 -0.005407 0.023150 -0.006226 0.000000 -0.008838 0.000000
# 3 -0.003106 -0.006226 0.014317 0.000000 -0.005554 0.000000
# 4 0.000000 0.000000 0.000000 0.030532 0.000000 0.012397
# 5 0.006092 -0.008838 -0.005554 0.000000 0.065158 0.000000
# 6 0.000000 0.000000 0.000000 0.012397 0.000000 0.053786
#
#
# Mechanical properties :
#
#
# Convention : Reuss Voigt Hill
#
# Bulk Modulus (GPa) = 36.75828 40.62818 38.69323
# Shear Modulus (GPa) = 20.43257 24.20409 22.31833
#
# Velocity S-wave (km/s) = 3.30066 3.59239 3.44961
# Velocity P-wave (km/s) = 5.84164 6.23453 6.04128
#
# Compressibility (1/GPa) = 0.02720476
#
# Stress axis : x y z
#
# Youngs Moduli (GPa) = 52.03657 43.19669 69.84836
#
# Poissons Ratio (x) = 0.23358 0.21693
# Poissons Ratio (y) = 0.28138 0.43490
# Poissons Ratio (z) = 0.16162 0.26896
#
# Static dielectric constant tensor:
#      x y z
#    x 3.363420 0.000000 -0.097440 
#    y 0.000000 3.508840 0.000000 
#    z -0.097440 0.000000 3.431250 
# 
# 
# High freq. dielectric constant tensor:
#      x y z
#    x 1.707990 0.000000 -0.006010 
#    y 0.000000 1.736390 0.000000 
#    z -0.006010 0.000000 1.732150 
# 
# From -- ./inp_files/15242.got.cif
#   From: 2010.03.12/outbox.cif.g09.slc.cpg/sg4_8_cif.got.tgz:15242.got - 2010.03.31 09:31:35.
