data_PCOD8045430
_publ_section_title
;
Structure prediction by ZEFSAII (Michael W. Deem and Ramdas Pophale) SiO2 
 PCOD8045430
Probable space group: P 2
;
_chemical_formula_sum "Si O2"
_cell_formula_units_Z 10
_cell_length_a 8.183877
_cell_length_b 5.048525
_cell_length_c 15.065327
_cell_angle_alpha 90.000000
_cell_angle_beta 138.712751
_cell_angle_gamma 90.000000
_cell_volume 410.711781
_symmetry_space_group_name_H-M "P 2"
_symmetry_group_IT_number 3
_symmetry_cell_setting 'monoclinic'
loop_
_space_group_symop_operation_xyz
x,y,z
-x,y,-z
loop_
_atom_site_type_symbol
_atom_site_label
_atom_site_fract_x
_atom_site_fract_y
_atom_site_fract_z
Si Si1 0.181373 0.727720 0.996506
Si Si2 0.039890 0.211738 0.637350
Si Si3 0.018152 0.239543 0.829689
Si Si4 0.523077 0.427552 0.409960
Si Si5 0.674040 0.721493 0.304141
O O1 0.157567 0.514400 0.908079
O O2 0.460105 0.741013 0.144065
O O3 0.104262 0.017329 0.932927
O O4 0.000000 0.630616 0.000000
O O5 0.135441 0.497135 0.647021
O O6 0.097358 0.153803 0.763515
O O7 0.745566 0.214642 0.499694
O O8 0.173754 0.994273 0.631441
O O9 0.723096 0.270820 0.718305
O O10 0.500000 0.552127 0.500000
O O11 0.564723 0.666436 0.357510
#
# Coordination Sequence:
#
# PCOD8045430 Si02
#       5
#     2   2   2   2   2
#     4  12  25  44  75 106 147 189 246 296 356 438
#     4  11  27  47  74 110 146 189 239 303 367 426
#     4  11  25  47  75 108 145 193 242 293 361 436
#     4  10  25  50  77 105 147 195 247 297 357 439
#     4  12  26  47  73 108 147 189 242 303 366 421
#
# _framework density 24.347975999999999
#
# number of rings (size 3 to 8) (size 9 to 14) (size 15 to 20)
#    0.000    0.800    2.000    3.600    2.800    9.600 
#    0.000    9.000    0.000    0.000    0.000    0.000 
#    0.000    0.000    0.000    0.000    0.000    0.000 
#
# Total GULP energy -124071.721927 kJ/mol
# GULP energy per Si atom -12407.172193 kJ/mol
# Density = 2.429256 g / cm^3
# Si number density = 24.347976 Si / 1000 Ang^3
#
#
#
# Elastic Constant Matrix: (Units=GPa)
#
#
# Indices 1 2 3 4 5 6 
#
# 1 121.5180 29.1840 57.9752 0.0000 -7.6692 0.0000
# 2 29.1840 111.8557 47.3521 0.0000 9.6445 0.0000
# 3 57.9752 47.3521 163.1600 0.0000 11.9587 0.0000
# 4 0.0000 0.0000 0.0000 -188.3131 0.0000 70.0327
# 5 -7.6692 9.6445 11.9587 0.0000 43.7528 0.0000
# 6 0.0000 0.0000 0.0000 70.0327 0.0000 11.8502
#
#
#
# Elastic Compliance Matrix: (Units=1/GPa)
#
#
# Indices 1 2 3 4 5 6 
#
# 1 0.010464 -0.001515 -0.003508 0.000000 0.003127 0.000000
# 2 -0.001515 0.010505 -0.002369 0.000000 -0.001934 0.000000
# 3 -0.003508 -0.002369 0.008235 0.000000 -0.002343 0.000000
# 4 0.000000 0.000000 0.000000 -0.001661 0.000000 0.009814
# 5 0.003127 -0.001934 -0.002343 0.000000 0.024470 0.000000
# 6 0.000000 0.000000 0.000000 0.009814 0.000000 0.026389
#
#
# Mechanical properties :
#
#
# Convention : Reuss Voigt Hill
#
# Bulk Modulus (GPa) = 69.34405 73.95069 71.64737
# Shear Modulus (GPa) = 51.02511 -9.07386 20.97563
#
# Velocity S-wave (km/s) = 4.58281 -1.93257 2.93831
# Velocity P-wave (km/s) = 7.51964 5.04565 6.40327
#
# Compressibility (1/GPa) = 0.01442085
#
# Stress axis : x y z
#
# Youngs Moduli (GPa) = 95.56734 95.19465 121.44008
#
# Poissons Ratio (x) = 0.14420 0.42597
# Poissons Ratio (y) = 0.14476 0.28766
# Poissons Ratio (z) = 0.33522 0.22549
#
# Static dielectric constant tensor:
#      x y z
#    x 4.785890 0.000000 -0.093570 
#    y 0.000000 4.027810 0.000000 
#    z -0.093570 0.000000 4.816180 
# 
# 
# High freq. dielectric constant tensor:
#      x y z
#    x 1.977610 0.000000 -0.003830 
#    y 0.000000 1.957620 0.000000 
#    z -0.003830 0.000000 1.995640 
# 
# From -- ./inp_files/13221.got.cif
#   From: 2010.03.12/outbox.cif.g09.slc.cpg/sg3_7_cif.got.tgz:13221.got - 2010.03.31 09:20:49.
