data_PCOD8045096
_publ_section_title
;
Structure prediction by ZEFSAII (Michael W. Deem and Ramdas Pophale) SiO2 
 PCOD8045096
Probable space group: P 2
;
_chemical_formula_sum "Si O2"
_cell_formula_units_Z 13
_cell_length_a 8.445914
_cell_length_b 9.502918
_cell_length_c 12.068563
_cell_angle_alpha 90.000000
_cell_angle_beta 36.740513
_cell_angle_gamma 90.000000
_cell_volume 579.428352
_symmetry_space_group_name_H-M "P 2"
_symmetry_group_IT_number 3
_symmetry_cell_setting 'monoclinic'
loop_
_space_group_symop_operation_xyz
x,y,z
-x,y,-z
loop_
_atom_site_type_symbol
_atom_site_label
_atom_site_fract_x
_atom_site_fract_y
_atom_site_fract_z
Si Si1 0.500000 0.594900 0.500000
Si Si2 0.137607 0.103960 0.704791
Si Si3 0.450987 0.011567 0.346092
Si Si4 0.581669 0.460392 0.782145
Si Si5 0.316615 0.719139 0.824733
Si Si6 0.100814 0.408190 0.616532
Si Si7 0.596751 0.170449 0.066475
O O1 0.441689 0.692431 0.635704
O O2 0.232983 0.504644 0.635827
O O3 0.191436 0.992806 0.571862
O O4 0.358975 0.096169 0.675113
O O5 0.094934 0.252797 0.668167
O O6 0.869230 0.082025 0.924740
O O7 0.394084 0.114504 0.274177
O O8 0.569371 0.874563 0.219858
O O9 0.428617 0.609295 0.853663
O O10 0.710845 0.413613 0.595184
O O11 0.370926 0.339629 0.935338
O O12 0.808101 0.467325 0.750227
O O13 0.000000 0.716955 0.000000
O O14 0.500000 0.132407 0.000000
#
# Coordination Sequence:
#
# PCOD8045096 Si02
#       7
#     1   2   2   2   2   2   2
#     4  10  22  40  66 100 136 178 232 280 356 416
#     4  11  22  40  73  96 136 176 229 302 335 417
#     4  11  25  45  65 102 136 181 238 284 354 417
#     4  10  23  42  66 100 146 178 235 289 346 430
#     4  11  25  44  68  98 144 189 233 291 348 437
#     4  10  20  41  68 103 134 180 229 293 353 403
#     4  12  24  40  67 101 135 178 231 293 348 409
#
# _framework density 22.435905000000002
#
# number of rings (size 3 to 8) (size 9 to 14) (size 15 to 20)
#    0.000    1.231    3.077    3.231    4.308    0.615 
#    0.000   10.000    0.000    0.000    0.000    0.000 
#    0.000    0.000    0.000    0.000    0.000    0.000 
#
# Total GULP energy -161055.018522 kJ/mol
# GULP energy per Si atom -12388.847579 kJ/mol
# Density = 2.238484 g / cm^3
# Si number density = 22.435905 Si / 1000 Ang^3
#
#
#
# Elastic Constant Matrix: (Units=GPa)
#
#
# Indices 1 2 3 4 5 6 
#
# 1 87.8353 51.3354 19.9386 0.0000 8.4898 0.0000
# 2 51.3354 106.8897 27.5084 0.0000 -4.2557 0.0000
# 3 19.9386 27.5084 80.1273 0.0000 -6.9276 0.0000
# 4 0.0000 0.0000 0.0000 27.4138 0.0000 7.1966
# 5 8.4898 -4.2557 -6.9276 0.0000 38.1182 0.0000
# 6 0.0000 0.0000 0.0000 7.1966 0.0000 20.4746
#
#
#
# Elastic Compliance Matrix: (Units=1/GPa)
#
#
# Indices 1 2 3 4 5 6 
#
# 1 0.016866 -0.007796 -0.001951 0.000000 -0.004981 0.000000
# 2 -0.007796 0.013876 -0.002580 0.000000 0.002817 0.000000
# 3 -0.001951 -0.002580 0.014085 0.000000 0.002706 0.000000
# 4 0.000000 0.000000 0.000000 0.040186 0.000000 -0.014125
# 5 -0.004981 0.002817 0.002706 0.000000 0.028150 0.000000
# 6 0.000000 0.000000 0.000000 -0.014125 0.000000 0.053806
#
#
# Mechanical properties :
#
#
# Convention : Reuss Voigt Hill
#
# Bulk Modulus (GPa) = 49.57318 52.49077 51.03198
# Shear Modulus (GPa) = 25.20824 28.93931 27.07378
#
# Velocity S-wave (km/s) = 3.35560 3.59537 3.47755
# Velocity P-wave (km/s) = 6.09564 6.37826 6.23855
#
# Compressibility (1/GPa) = 0.02017220
#
# Stress axis : x y z
#
# Youngs Moduli (GPa) = 59.29136 72.06746 70.99554
#
# Poissons Ratio (x) = 0.56186 0.13851
# Poissons Ratio (y) = 0.46225 0.18318
# Poissons Ratio (z) = 0.11568 0.18595
#
# Static dielectric constant tensor:
#      x y z
#    x 4.265510 0.000000 -0.211640 
#    y 0.000000 3.987200 0.000000 
#    z -0.211640 0.000000 4.743450 
# 
# 
# High freq. dielectric constant tensor:
#      x y z
#    x 1.877290 0.000000 0.012730 
#    y 0.000000 1.867170 0.000000 
#    z 0.012730 0.000000 1.904320 
# 
# From -- ./inp_files/7575.got.cif
#   From: 2010.03.12/outbox.cif.g09.slc.cpg/sg3_4_cif.got.tgz:7575.got - 2010.03.31 09:20:49.
