data_PCOD8045187
_publ_section_title
;
Structure prediction by ZEFSAII (Michael W. Deem and Ramdas Pophale) SiO2 
 PCOD8045187
Probable space group: P 2
;
_chemical_formula_sum "Si O2"
_cell_formula_units_Z 14
_cell_length_a 25.831713
_cell_length_b 5.349328
_cell_length_c 8.472069
_cell_angle_alpha 90.000000
_cell_angle_beta 147.488156
_cell_angle_gamma 90.000000
_cell_volume 629.215382
_symmetry_space_group_name_H-M "P 2"
_symmetry_group_IT_number 3
_symmetry_cell_setting 'monoclinic'
loop_
_space_group_symop_operation_xyz
x,y,z
-x,y,-z
loop_
_atom_site_type_symbol
_atom_site_label
_atom_site_fract_x
_atom_site_fract_y
_atom_site_fract_z
Si Si1 0.754917 0.151580 0.649848
Si Si2 0.792049 0.632646 0.344108
Si Si3 0.113495 0.127129 0.290920
Si Si4 0.537728 0.141928 0.437763
Si Si5 0.602420 0.782272 0.353295
Si Si6 0.714116 0.421515 0.839566
Si Si7 0.383773 0.495034 0.909441
O O1 0.851214 0.096503 0.798880
O O2 0.782724 0.311121 0.877977
O O3 0.676054 0.290215 0.340176
O O4 0.707929 0.892618 0.582984
O O5 0.854666 0.397375 0.563684
O O6 0.689914 0.651812 0.171132
O O7 0.845756 0.897171 0.500449
O O8 0.776089 0.589984 0.116571
O O9 0.000000 0.109814 0.000000
O O10 0.500000 0.000657 0.500000
O O11 0.650690 0.207769 0.764682
O O12 0.533312 0.981426 0.264642
O O13 0.465103 0.374840 0.227672
O O14 0.624023 0.563521 0.529955
O O15 0.561958 0.677986 0.078558
#
# Coordination Sequence:
#
# PCOD8045187 Si02
#       7
#     2   2   2   2   2   2   2
#     4   9  21  39  65  92 129 175 219 277 339 413
#     4  11  23  43  72 101 135 179 222 281 351 410
#     4  11  24  45  75 103 133 170 231 284 344 425
#     4  11  23  38  60  95 135 175 238 285 326 391
#     4  10  22  40  62  85 129 181 227 279 333 405
#     4  10  23  39  63  93 135 178 224 276 345 401
#     4  10  21  40  62  93 128 182 229 277 330 396
#
# _framework density 22.249932999999999
#
# number of rings (size 3 to 8) (size 9 to 14) (size 15 to 20)
#    0.000    1.714    2.857    0.429    4.000    8.000 
#    0.000    0.714    0.000    0.000    0.000    0.000 
#    0.000    0.000    0.000    0.000    0.000    0.000 
#
# Total GULP energy -173539.188061 kJ/mol
# GULP energy per Si atom -12395.656290 kJ/mol
# Density = 2.219929 g / cm^3
# Si number density = 22.249933 Si / 1000 Ang^3
#
#
#
# Elastic Constant Matrix: (Units=GPa)
#
#
# Indices 1 2 3 4 5 6 
#
# 1 149.2167 22.8685 59.3964 0.0000 1.5828 0.0000
# 2 22.8685 67.0323 13.9534 0.0000 2.9959 0.0000
# 3 59.3964 13.9534 76.7424 0.0000 5.2938 0.0000
# 4 0.0000 0.0000 0.0000 31.5387 0.0000 -2.3730
# 5 1.5828 2.9959 5.2938 0.0000 36.4951 0.0000
# 6 0.0000 0.0000 0.0000 -2.3730 0.0000 29.8610
#
#
#
# Elastic Compliance Matrix: (Units=1/GPa)
#
#
# Indices 1 2 3 4 5 6 
#
# 1 0.009925 -0.001882 -0.007394 0.000000 0.000797 0.000000
# 2 -0.001882 0.015890 -0.001361 0.000000 -0.001025 0.000000
# 3 -0.007394 -0.001361 0.019163 0.000000 -0.002347 0.000000
# 4 0.000000 0.000000 0.000000 0.031898 0.000000 0.002535
# 5 0.000797 -0.001025 -0.002347 0.000000 0.027791 0.000000
# 6 0.000000 0.000000 0.000000 0.002535 0.000000 0.033690
#
#
# Mechanical properties :
#
#
# Convention : Reuss Voigt Hill
#
# Bulk Modulus (GPa) = 42.19173 53.93644 48.06409
# Shear Modulus (GPa) = 29.84476 32.69716 31.27096
#
# Velocity S-wave (km/s) = 3.66641 3.83762 3.75299
# Velocity P-wave (km/s) = 6.07677 6.62799 6.35836
#
# Compressibility (1/GPa) = 0.02370133
#
# Stress axis : x y z
#
# Youngs Moduli (GPa) = 100.75473 62.93431 52.18348
#
# Poissons Ratio (x) = 0.11847 0.38587
# Poissons Ratio (y) = 0.18966 0.07104
# Poissons Ratio (z) = 0.74502 0.08568
#
# Static dielectric constant tensor:
#      x y z
#    x 4.357800 0.000000 -0.108860 
#    y 0.000000 4.101530 0.000000 
#    z -0.108860 0.000000 3.534100 
# 
# 
# High freq. dielectric constant tensor:
#      x y z
#    x 1.891720 0.000000 -0.012350 
#    y 0.000000 1.883490 0.000000 
#    z -0.012350 0.000000 1.839870 
# 
# From -- ./inp_files/7961.got.cif
#   From: 2010.03.12/outbox.cif.g09.slc.cpg/sg3_4_cif.got.tgz:7961.got - 2010.03.31 09:20:49.
