data_PCOD8045595
_publ_section_title
;
Structure prediction by ZEFSAII (Michael W. Deem and Ramdas Pophale) SiO2 
 PCOD8045595
Probable space group: P 21
;
_chemical_formula_sum "Si O2"
_cell_formula_units_Z 10
_cell_length_a 7.732090
_cell_length_b 5.143080
_cell_length_c 11.917642
_cell_angle_alpha 90.000000
_cell_angle_beta 78.793315
_cell_angle_gamma 90.000000
_cell_volume 464.889389
_symmetry_space_group_name_H-M "P 21"
_symmetry_group_IT_number 4
_symmetry_cell_setting 'monoclinic'
loop_
_space_group_symop_operation_xyz
x,y,z
-x,1/2+y,-z
loop_
_atom_site_type_symbol
_atom_site_label
_atom_site_fract_x
_atom_site_fract_y
_atom_site_fract_z
Si Si1 0.113093 0.494110 0.481075
Si Si2 0.614698 0.367715 0.970826
Si Si3 0.625780 0.196910 0.731859
Si Si4 0.279508 0.937802 0.813125
Si Si5 0.705634 0.930402 0.312956
O O1 0.209674 0.592769 0.357794
O O2 0.254206 0.438279 0.560635
O O3 0.981578 0.722789 0.536571
O O4 0.700757 0.327145 0.836880
O O5 0.477842 0.602690 0.976747
O O6 0.764098 0.428985 0.047456
O O7 0.507222 0.403856 0.674766
O O8 0.494422 0.960382 0.781112
O O9 0.215674 0.683947 0.756500
O O10 0.195429 0.187401 0.760615
#
# Coordination Sequence:
#
# PCOD8045595 Si02
#       5
#     2   2   2   2   2
#     4  12  28  41  57  87 134 170 203 249 310 367
#     4  10  16  32  57 102 121 139 193 272 312 342
#     4   9  23  35  67  88 122 158 206 252 298 364
#     4   9  18  33  63  95 114 145 203 269 294 353
#     4  10  21  37  62  86 121 156 213 248 300 350
#
# _framework density 21.510494999999999
#
# number of rings (size 3 to 8) (size 9 to 14) (size 15 to 20)
#    1.200    0.800    2.000    1.200    5.600    0.000 
#    0.000    0.000    0.000    4.800    0.000    0.000 
#    0.000    0.000    0.000    0.000    0.000    0.000 
#
# Total GULP energy -123895.845993 kJ/mol
# GULP energy per Si atom -12389.584599 kJ/mol
# Density = 2.146154 g / cm^3
# Si number density = 21.510495 Si / 1000 Ang^3
#
#
#
# Elastic Constant Matrix: (Units=GPa)
#
#
# Indices 1 2 3 4 5 6 
#
# 1 26.8659 6.1682 26.2157 0.0000 0.3584 0.0000
# 2 6.1682 125.2680 30.8765 0.0000 5.2796 0.0000
# 3 26.2157 30.8765 144.7525 0.0000 18.6543 0.0000
# 4 0.0000 0.0000 0.0000 37.2127 0.0000 8.2436
# 5 0.3584 5.2796 18.6543 0.0000 10.9246 0.0000
# 6 0.0000 0.0000 0.0000 8.2436 0.0000 23.6453
#
#
#
# Elastic Compliance Matrix: (Units=1/GPa)
#
#
# Indices 1 2 3 4 5 6 
#
# 1 0.047532 -0.000416 -0.010699 0.000000 0.016910 0.000000
# 2 -0.000416 0.008444 -0.001541 0.000000 -0.001436 0.000000
# 3 -0.010699 -0.001541 0.011582 0.000000 -0.018681 0.000000
# 4 0.000000 0.000000 0.000000 0.029122 0.000000 -0.010153
# 5 0.016910 -0.001436 -0.018681 0.000000 0.123575 0.000000
# 6 0.000000 0.000000 0.000000 -0.010153 0.000000 0.045831
#
#
# Mechanical properties :
#
#
# Convention : Reuss Voigt Hill
#
# Bulk Modulus (GPa) = 23.67067 47.04521 35.35794
# Shear Modulus (GPa) = 16.36776 29.93158 23.14967
#
# Velocity S-wave (km/s) = 2.76147 3.73431 3.28411
# Velocity P-wave (km/s) = 4.60388 6.36488 5.55461
#
# Compressibility (1/GPa) = 0.04224638
#
# Stress axis : x y z
#
# Youngs Moduli (GPa) = 21.03861 118.43223 86.34044
#
# Poissons Ratio (x) = 0.04928 0.92374
# Poissons Ratio (y) = 0.00875 0.13302
# Poissons Ratio (z) = 0.22509 0.18246
#
# Static dielectric constant tensor:
#      x y z
#    x 3.244800 0.000000 0.362360 
#    y 0.000000 4.018830 0.000000 
#    z 0.362360 0.000000 3.875660 
# 
# 
# High freq. dielectric constant tensor:
#      x y z
#    x 1.781520 0.000000 0.038510 
#    y 0.000000 1.859450 0.000000 
#    z 0.038510 0.000000 1.851560 
# 
# From -- ./inp_files/5147.got.cif
#   From: 2010.03.12/outbox.cif.g09.slc.cpg/sg4_3_cif.got.tgz:5147.got - 2010.03.31 09:31:35.
