data_PCOD8045911
_publ_section_title
;
Structure prediction by ZEFSAII (Michael W. Deem and Ramdas Pophale) SiO2 
 PCOD8045911
Probable space group: P 21
;
_chemical_formula_sum "Si O2"
_cell_formula_units_Z 14
_cell_length_a 15.711783
_cell_length_b 4.885202
_cell_length_c 27.339973
_cell_angle_alpha 90.000000
_cell_angle_beta 160.200837
_cell_angle_gamma 90.000000
_cell_volume 710.807946
_symmetry_space_group_name_H-M "P 21"
_symmetry_group_IT_number 4
_symmetry_cell_setting 'monoclinic'
loop_
_space_group_symop_operation_xyz
x,y,z
-x,1/2+y,-z
loop_
_atom_site_type_symbol
_atom_site_label
_atom_site_fract_x
_atom_site_fract_y
_atom_site_fract_z
Si Si1 0.721753 0.625000 0.482298
Si Si2 0.518521 0.370617 0.893303
Si Si3 0.334966 0.371951 0.086572
Si Si4 0.655353 0.417548 0.070933
Si Si5 0.773907 0.342578 0.809085
Si Si6 0.414486 0.379341 0.239879
Si Si7 0.019625 0.140644 0.671131
O O1 0.442915 0.736351 0.346373
O O2 0.684536 0.483661 0.408051
O O3 0.816340 0.383225 0.569480
O O4 0.911733 0.881062 0.583115
O O5 0.521044 0.678279 0.873994
O O6 0.243275 0.275402 0.760991
O O7 0.614351 0.182238 0.901297
O O8 0.709033 0.355002 0.042861
O O9 0.445296 0.309653 0.199835
O O10 0.035648 0.336073 0.922448
O O11 0.894575 0.539134 0.228762
O O12 0.572143 0.137960 0.052388
O O13 0.693623 0.632982 0.786629
O O14 0.786280 0.128640 0.861662
#
# Coordination Sequence:
#
# PCOD8045911 Si02
#       7
#     2   2   2   2   2   2   2
#     4  10  20  36  61  87 107 152 207 230 268 346
#     4  11  24  36  58  92 116 147 189 239 312 340
#     4  12  22  37  60  87 124 149 184 253 293 330
#     4  10  20  38  61  85 109 149 199 240 280 347
#     4  10  20  37  60  85 114 152 205 237 273 335
#     4  10  20  37  58  88 112 154 208 226 281 334
#     4  11  20  39  62  82 116 147 192 241 287 344
#
# _framework density 19.695898
#
# number of rings (size 3 to 8) (size 9 to 14) (size 15 to 20)
#    0.857    0.571    1.429    6.857    0.000    0.000 
#    0.000    2.857    0.000    3.429    0.000    0.000 
#    0.000    0.000    0.000    0.000    0.000    0.000 
#
# Total GULP energy -173465.096247 kJ/mol
# GULP energy per Si atom -12390.364018 kJ/mol
# Density = 1.965107 g / cm^3
# Si number density = 19.695898 Si / 1000 Ang^3
#
#
#
# Elastic Constant Matrix: (Units=GPa)
#
#
# Indices 1 2 3 4 5 6 
#
# 1 27.1629 17.6271 17.8034 0.0000 -8.9131 0.0000
# 2 17.6271 112.7759 29.6380 0.0000 -2.7500 0.0000
# 3 17.8034 29.6380 99.7764 0.0001 -18.6205 0.0000
# 4 0.0000 0.0000 0.0001 24.7011 0.0000 -6.7184
# 5 -8.9131 -2.7500 -18.6205 0.0000 12.8863 0.0000
# 6 0.0000 0.0000 0.0000 -6.7184 0.0000 29.2479
#
#
#
# Elastic Compliance Matrix: (Units=1/GPa)
#
#
# Indices 1 2 3 4 5 6 
#
# 1 0.053283 -0.007227 -0.001055 0.000000 0.033787 0.000000
# 2 -0.007227 0.010675 -0.003271 0.000000 -0.007448 0.000000
# 3 -0.001055 -0.003271 0.014946 0.000000 0.020169 0.000000
# 4 0.000000 0.000000 0.000000 0.043182 0.000000 0.009919
# 5 0.033787 -0.007448 0.020169 0.000000 0.128526 0.000000
# 6 0.000000 0.000000 0.000000 0.009919 0.000000 0.036469
#
#
# Mechanical properties :
#
#
# Convention : Reuss Voigt Hill
#
# Bulk Modulus (GPa) = 17.92201 41.09471 29.50836
# Shear Modulus (GPa) = 15.20738 25.01018 20.10878
#
# Velocity S-wave (km/s) = 2.78170 3.56731 3.19872
# Velocity P-wave (km/s) = 4.40866 6.15447 5.35321
#
# Compressibility (1/GPa) = 0.05579733
#
# Stress axis : x y z
#
# Youngs Moduli (GPa) = 18.76761 93.67815 66.90553
#
# Poissons Ratio (x) = 0.67702 0.07061
# Poissons Ratio (y) = 0.13564 0.21886
# Poissons Ratio (z) = 0.01981 0.30644
#
# Static dielectric constant tensor:
#      x y z
#    x 3.151640 0.000000 -0.201290 
#    y 0.000000 3.925960 0.000000 
#    z -0.201290 0.000000 3.650540 
# 
# 
# High freq. dielectric constant tensor:
#      x y z
#    x 1.718570 0.000000 -0.021190 
#    y 0.000000 1.802610 0.000000 
#    z -0.021190 0.000000 1.763520 
# 
# From -- ./inp_files/16402.got.cif
#   From: 2010.03.12/outbox.cif.g09.slc.cpg/sg4_9_cif.got.tgz:16402.got - 2010.03.31 09:31:35.
