data_PCOD8045581
_publ_section_title
;
Structure prediction by ZEFSAII (Michael W. Deem and Ramdas Pophale) SiO2 
 PCOD8045581
Probable space group: P 21
;
_chemical_formula_sum "Si O2"
_cell_formula_units_Z 14
_cell_length_a 28.391148
_cell_length_b 4.933727
_cell_length_c 13.312490
_cell_angle_alpha 90.000000
_cell_angle_beta 27.809453
_cell_angle_gamma 90.000000
_cell_volume 869.960108
_symmetry_space_group_name_H-M "P 21"
_symmetry_group_IT_number 4
_symmetry_cell_setting 'monoclinic'
loop_
_space_group_symop_operation_xyz
x,y,z
-x,1/2+y,-z
loop_
_atom_site_type_symbol
_atom_site_label
_atom_site_fract_x
_atom_site_fract_y
_atom_site_fract_z
Si Si1 0.942439 0.785410 0.140571
Si Si2 0.670701 0.783421 0.323503
Si Si3 0.275054 0.783275 0.906299
Si Si4 0.044628 0.793517 0.365087
Si Si5 0.835766 0.899676 0.156538
Si Si6 0.525731 0.400051 0.390778
Si Si7 0.957567 0.400000 0.858725
O O1 0.840901 0.857962 0.268664
O O2 0.942053 0.854493 0.260522
O O3 0.968043 0.469481 0.077315
O O4 0.696481 0.480449 0.239907
O O5 0.721789 0.841182 0.334959
O O6 0.548658 0.829687 0.562734
O O7 0.717631 0.979463 0.149650
O O8 0.355181 0.829717 0.847493
O O9 0.163651 0.839326 0.156987
O O10 0.010923 0.850539 0.314794
O O11 0.016051 0.486964 0.445418
O O12 0.915527 0.702732 0.950411
O O13 0.867744 0.201026 0.064208
O O14 0.513892 0.715471 0.440894
#
# Coordination Sequence:
#
# PCOD8045581 Si02
#       7
#     2   2   2   2   2   2   2
#     4   8  16  25  40  58  77 104 130 155 203 252
#     4  10  15  26  44  62  80 105 129 159 206 254
#     4  10  18  30  39  55  84 108 134 172 199 228
#     4  12  22  30  42  58  78 114 154 172 192 226
#     4  10  15  26  44  62  80 105 129 159 206 254
#     4   8  16  25  40  58  77 104 130 155 203 252
#     4  10  18  30  39  55  84 108 134 172 199 228
#
# _framework density 16.092690999999999
#
# number of rings (size 3 to 8) (size 9 to 14) (size 15 to 20)
#    0.000    2.286    2.857    1.714    0.000    0.000 
#    0.000    0.000    0.000    0.000    0.000    0.000 
#    0.000    2.286    0.000    0.000    0.000    9.714 
#
# Total GULP energy -173450.609070 kJ/mol
# GULP energy per Si atom -12389.329219 kJ/mol
# Density = 1.605606 g / cm^3
# Si number density = 16.092691 Si / 1000 Ang^3
#
#
#
# Elastic Constant Matrix: (Units=GPa)
#
#
# Indices 1 2 3 4 5 6 
#
# 1 144.6101 2.3703 42.4516 0.0000 -24.7390 0.0000
# 2 2.3703 58.9756 2.6112 0.0000 -0.1340 0.0000
# 3 42.4516 2.6112 43.0304 0.0000 -12.6832 0.0000
# 4 0.0000 0.0000 0.0000 16.4050 0.0000 -1.5602
# 5 -24.7390 -0.1340 -12.6832 0.0000 26.2792 0.0000
# 6 0.0000 0.0000 0.0000 -1.5602 0.0000 20.8921
#
#
#
# Elastic Compliance Matrix: (Units=1/GPa)
#
#
# Indices 1 2 3 4 5 6 
#
# 1 0.010406 -0.000025 -0.008601 0.000000 0.005645 0.000000
# 2 -0.000025 0.017007 -0.001153 0.000000 -0.000493 0.000000
# 3 -0.008601 -0.001153 0.034283 0.000000 0.008444 0.000000
# 4 0.000000 0.000000 0.000000 0.061393 0.000000 0.004585
# 5 0.005645 -0.000493 0.008444 0.000000 0.047440 0.000000
# 6 0.000000 0.000000 0.000000 0.004585 0.000000 0.048207
#
#
# Mechanical properties :
#
#
# Convention : Reuss Voigt Hill
#
# Bulk Modulus (GPa) = 23.73066 37.94246 30.83656
# Shear Modulus (GPa) = 19.81453 25.99411 22.90432
#
# Velocity S-wave (km/s) = 3.51276 4.02341 3.77672
# Velocity P-wave (km/s) = 5.58846 6.72402 6.18236
#
# Compressibility (1/GPa) = 0.04213958
#
# Stress axis : x y z
#
# Youngs Moduli (GPa) = 96.09733 58.79904 29.16881
#
# Poissons Ratio (x) = 0.00145 0.25087
# Poissons Ratio (y) = 0.00236 0.03363
# Poissons Ratio (z) = 0.82651 0.06780
#
# Static dielectric constant tensor:
#      x y z
#    x 3.584810 0.000000 -0.364540 
#    y 0.000000 3.242670 0.000000 
#    z -0.364540 0.000000 2.484160 
# 
# 
# High freq. dielectric constant tensor:
#      x y z
#    x 1.632110 0.000000 -0.034750 
#    y 0.000000 1.650050 0.000000 
#    z -0.034750 0.000000 1.526100 
# 
# From -- ./inp_files/11483.got.cif
#   From: 2010.03.12/outbox.cif.g09.slc.cpg/sg4_6_cif.got.tgz:11483.got - 2010.03.31 09:31:35.
