data_PCOD8045963
_publ_section_title
;
Structure prediction by ZEFSAII (Michael W. Deem and Ramdas Pophale) SiO2 
 PCOD8045963
Probable space group: P 21
;
_chemical_formula_sum "Si O2"
_cell_formula_units_Z 12
_cell_length_a 29.417649
_cell_length_b 4.808439
_cell_length_c 22.814253
_cell_angle_alpha 90.000000
_cell_angle_beta 10.145152
_cell_angle_gamma 90.000000
_cell_volume 568.437221
_symmetry_space_group_name_H-M "P 21"
_symmetry_group_IT_number 4
_symmetry_cell_setting 'monoclinic'
loop_
_space_group_symop_operation_xyz
x,y,z
-x,1/2+y,-z
loop_
_atom_site_type_symbol
_atom_site_label
_atom_site_fract_x
_atom_site_fract_y
_atom_site_fract_z
Si Si1 0.955074 0.375000 0.095955
Si Si2 0.100341 0.680939 0.210588
Si Si3 0.073327 0.368438 0.442922
Si Si4 0.575570 0.116542 0.439693
Si Si5 0.459791 0.135292 0.089801
Si Si6 0.587246 0.680594 0.223416
O O1 0.684217 0.253571 0.464028
O O2 0.892786 0.627985 0.130447
O O3 0.137869 0.487850 0.915655
O O4 0.064945 0.762427 0.323099
O O5 0.826714 0.714781 0.523414
O O6 0.187566 0.364345 0.090954
O O7 0.328481 0.864195 0.893700
O O8 0.895459 0.609489 0.640713
O O9 0.358517 0.496960 0.091947
O O10 0.394985 0.884049 0.639215
O O11 0.449818 0.218866 0.660053
O O12 0.407805 0.915613 0.102724
#
# Coordination Sequence:
#
# PCOD8045963 Si02
#       6
#     2   2   2   2   2   2
#     4  10  20  38  61  84 115 162 200 228 288 372
#     4  11  22  39  61  88 118 155 197 243 291 348
#     4  11  22  39  61  88 118 155 199 245 291 348
#     4  11  22  39  61  88 118 155 199 245 291 348
#     4  10  20  38  61  84 115 162 200 228 288 372
#     4  11  22  39  61  88 118 155 197 243 291 348
#
# _framework density 21.110512
#
# number of rings (size 3 to 8) (size 9 to 14) (size 15 to 20)
#    0.000    1.333    0.000   10.000    0.000    0.000 
#    0.000   10.000    0.000    0.000    0.000    0.000 
#    0.000    0.000    0.000    0.000    0.000    0.000 
#
# Total GULP energy -148791.963681 kJ/mol
# GULP energy per Si atom -12399.330307 kJ/mol
# Density = 2.106246 g / cm^3
# Si number density = 21.110512 Si / 1000 Ang^3
#
#
#
# Elastic Constant Matrix: (Units=GPa)
#
#
# Indices 1 2 3 4 5 6 
#
# 1 80.5762 21.3309 40.0256 0.0000 -5.9870 0.0000
# 2 21.3309 96.0926 16.7305 0.0000 4.6150 0.0000
# 3 40.0256 16.7305 110.4845 0.0000 -4.4793 0.0000
# 4 0.0000 0.0000 0.0000 40.9597 0.0000 0.6801
# 5 -5.9870 4.6150 -4.4793 0.0000 11.9337 0.0000
# 6 0.0000 0.0000 0.0000 0.6801 0.0000 52.4462
#
#
#
# Elastic Compliance Matrix: (Units=1/GPa)
#
#
# Indices 1 2 3 4 5 6 
#
# 1 0.016341 -0.003089 -0.005150 0.000000 0.007460 0.000000
# 2 -0.003089 0.011552 -0.000888 0.000000 -0.006350 0.000000
# 3 -0.005150 -0.000888 0.011130 0.000000 0.001937 0.000000
# 4 0.000000 0.000000 0.000000 0.024419 0.000000 -0.000317
# 5 0.007460 -0.006350 0.001937 0.000000 0.090722 0.000000
# 6 0.000000 0.000000 0.000000 -0.000317 0.000000 0.019071
#
#
# Mechanical properties :
#
#
# Convention : Reuss Voigt Hill
#
# Bulk Modulus (GPa) = 48.14746 49.25861 48.70303
# Shear Modulus (GPa) = 25.20032 35.00569 30.10300
#
# Velocity S-wave (km/s) = 3.45879 4.07653 3.78030
# Velocity P-wave (km/s) = 6.22959 6.74847 6.49422
#
# Compressibility (1/GPa) = 0.02076953
#
# Stress axis : x y z
#
# Youngs Moduli (GPa) = 61.19706 86.56607 89.85077
#
# Poissons Ratio (x) = 0.26740 0.46269
# Poissons Ratio (y) = 0.18904 0.07976
# Poissons Ratio (z) = 0.31514 0.07684
#
# Static dielectric constant tensor:
#      x y z
#    x 3.617150 0.000000 -0.231310 
#    y 0.000000 4.219110 0.000000 
#    z -0.231310 0.000000 3.652600 
# 
# 
# High freq. dielectric constant tensor:
#      x y z
#    x 1.796570 0.000000 -0.020860 
#    y 0.000000 1.860960 0.000000 
#    z -0.020860 0.000000 1.818540 
# 
# From -- ./inp_files/15953.got.cif
#   From: 2010.03.12/outbox.cif.g09.slc.cpg/sg4_8_cif.got.tgz:15953.got - 2010.03.31 09:31:35.
