data_PCOD8045690
_publ_section_title
;
Structure prediction by ZEFSAII (Michael W. Deem and Ramdas Pophale) SiO2 
 PCOD8045690
Probable space group: P 21
;
_chemical_formula_sum "Si O2"
_cell_formula_units_Z 16
_cell_length_a 8.866334
_cell_length_b 8.479529
_cell_length_c 23.880765
_cell_angle_alpha 90.000000
_cell_angle_beta 153.241970
_cell_angle_gamma 90.000000
_cell_volume 808.336699
_symmetry_space_group_name_H-M "P 21"
_symmetry_group_IT_number 4
_symmetry_cell_setting 'monoclinic'
loop_
_space_group_symop_operation_xyz
x,y,z
-x,1/2+y,-z
loop_
_atom_site_type_symbol
_atom_site_label
_atom_site_fract_x
_atom_site_fract_y
_atom_site_fract_z
Si Si1 0.703435 0.375000 0.772583
Si Si2 0.384582 0.654020 0.712098
Si Si3 0.660586 0.890153 0.729092
Si Si4 0.387172 0.761444 0.530129
Si Si5 0.785477 0.641705 0.078488
Si Si6 0.116206 0.047730 0.369940
Si Si7 0.820401 0.939048 0.159502
Si Si8 0.125408 0.149121 0.558757
O O1 0.585743 0.487959 0.783505
O O2 0.390415 0.290069 0.639570
O O3 0.980656 0.246635 0.886442
O O4 0.870036 0.482211 0.778762
O O5 0.657368 0.790385 0.787096
O O6 0.166939 0.664271 0.696579
O O7 0.139065 0.654673 0.578101
O O8 0.641070 0.788179 0.666012
O O9 0.315042 0.985174 0.618845
O O10 0.995084 0.991182 0.831243
O O11 0.581107 0.658733 0.548689
O O12 0.061269 0.665635 0.443288
O O13 0.265332 0.928032 0.464751
O O14 0.697814 0.759310 0.102255
O O15 0.455558 0.576045 0.939879
O O16 0.946025 0.944584 0.264625
#
# Coordination Sequence:
#
# PCOD8045690 Si02
#       8
#     2   2   2   2   2   2   2   2
#     4   9  20  37  64  85 117 165 215 245 292 378
#     4  11  20  36  60  88 130 161 206 246 312 374
#     4  10  21  39  65  89 117 172 213 246 300 388
#     4  11  25  36  61  91 141 158 203 245 332 375
#     4   9  23  39  70  86 117 163 225 255 304 363
#     4  12  26  38  59  99 134 162 195 267 330 365
#     4  10  23  42  65  89 124 160 218 261 312 358
#     4  10  18  39  58  89 120 175 203 239 292 401
#
# _framework density 19.793733
#
# number of rings (size 3 to 8) (size 9 to 14) (size 15 to 20)
#    0.750    1.000    2.500    2.250    8.750    0.000 
#    0.000    1.250    0.000    0.000    0.000    0.000 
#    0.000    0.000    0.000    0.000    0.000    0.000 
#
# Total GULP energy -198212.640020 kJ/mol
# GULP energy per Si atom -12388.290001 kJ/mol
# Density = 1.974868 g / cm^3
# Si number density = 19.793733 Si / 1000 Ang^3
#
#
#
# Elastic Constant Matrix: (Units=GPa)
#
#
# Indices 1 2 3 4 5 6 
#
# 1 103.4854 21.9243 23.8387 0.0000 11.9759 0.0000
# 2 21.9243 69.9020 21.2227 0.0000 8.2288 0.0000
# 3 23.8387 21.2227 54.8883 0.0000 12.0848 0.0000
# 4 0.0000 0.0000 0.0000 24.6352 0.0000 4.4131
# 5 11.9759 8.2288 12.0848 0.0000 20.4817 0.0000
# 6 0.0000 0.0000 0.0000 4.4131 0.0000 38.7849
#
#
#
# Elastic Compliance Matrix: (Units=1/GPa)
#
#
# Indices 1 2 3 4 5 6 
#
# 1 0.011303 -0.002106 -0.003248 0.000000 -0.003846 0.000000
# 2 -0.002106 0.016790 -0.005014 0.000000 -0.002555 0.000000
# 3 -0.003248 -0.005014 0.023798 0.000000 -0.010128 0.000000
# 4 0.000000 0.000000 0.000000 0.041437 0.000000 -0.004715
# 5 -0.003846 -0.002555 -0.010128 0.000000 0.058076 0.000000
# 6 0.000000 0.000000 0.000000 -0.004715 0.000000 0.026320
#
#
# Mechanical properties :
#
#
# Convention : Reuss Voigt Hill
#
# Bulk Modulus (GPa) = 32.09881 40.24966 36.17423
# Shear Modulus (GPa) = 23.94137 27.53304 25.73720
#
# Velocity S-wave (km/s) = 3.48162 3.73365 3.60984
# Velocity P-wave (km/s) = 5.69334 6.24224 5.97410
#
# Compressibility (1/GPa) = 0.03115381
#
# Stress axis : x y z
#
# Youngs Moduli (GPa) = 88.47467 59.56096 42.02031
#
# Poissons Ratio (x) = 0.12545 0.13647
# Poissons Ratio (y) = 0.18635 0.21070
# Poissons Ratio (z) = 0.28733 0.29866
#
# Static dielectric constant tensor:
#      x y z
#    x 3.636640 0.000000 0.338990 
#    y 0.000000 3.885750 0.000000 
#    z 0.338990 0.000000 3.308740 
# 
# 
# High freq. dielectric constant tensor:
#      x y z
#    x 1.759400 0.000000 0.033430 
#    y 0.000000 1.784650 0.000000 
#    z 0.033430 0.000000 1.744380 
# 
# From -- ./inp_files/9580.got.cif
#   From: 2010.03.12/outbox.cif.g09.slc.cpg/sg4_5_cif.got.tgz:9580.got - 2010.03.31 09:31:35.
