data_PCOD8045937
_publ_section_title
;
Structure prediction by ZEFSAII (Michael W. Deem and Ramdas Pophale) SiO2 
 PCOD8045937
Probable space group: P 21
;
_chemical_formula_sum "Si O2"
_cell_formula_units_Z 14
_cell_length_a 9.004543
_cell_length_b 12.521908
_cell_length_c 7.756991
_cell_angle_alpha 90.000000
_cell_angle_beta 129.905105
_cell_angle_gamma 90.000000
_cell_volume 670.937371
_symmetry_space_group_name_H-M "P 21"
_symmetry_group_IT_number 4
_symmetry_cell_setting 'monoclinic'
loop_
_space_group_symop_operation_xyz
x,y,z
-x,1/2+y,-z
loop_
_atom_site_type_symbol
_atom_site_label
_atom_site_fract_x
_atom_site_fract_y
_atom_site_fract_z
Si Si1 0.929681 0.046930 0.607413
Si Si2 0.925441 0.274531 0.482340
Si Si3 0.306921 0.733211 0.014447
Si Si4 0.326414 0.363458 0.708887
Si Si5 0.053364 0.575964 0.995603
Si Si6 0.403336 0.503322 0.087143
Si Si7 0.186171 0.986844 0.478386
O O1 0.850027 0.163431 0.501987
O O2 0.095634 0.021877 0.593757
O O3 0.756158 0.959719 0.471472
O O4 0.020917 0.053353 0.866987
O O5 0.877585 0.363754 0.590649
O O6 0.156126 0.276661 0.613303
O O7 0.807161 0.298760 0.217669
O O8 0.483062 0.803996 0.226799
O O9 0.394736 0.623088 0.997884
O O10 0.151334 0.694753 0.045800
O O11 0.400784 0.412122 0.943234
O O12 0.879818 0.561164 0.729348
O O13 0.215093 0.487159 0.068049
O O14 0.585038 0.494047 0.347277
#
# Coordination Sequence:
#
# PCOD8045937 Si02
#       7
#     2   2   2   2   2   2   2
#     4  11  22  44  65  91 133 164 211 263 317 375
#     4  11  19  38  65  92 122 168 209 256 316 371
#     4  10  20  37  62  90 129 160 207 261 310 367
#     4  11  21  39  69  92 123 172 211 255 318 379
#     4  10  23  44  57  93 133 160 208 275 305 378
#     4  10  20  40  63  90 127 161 208 265 308 373
#     4  11  21  42  67  88 125 173 206 259 320 379
#
# _framework density 20.866329
#
# number of rings (size 3 to 8) (size 9 to 14) (size 15 to 20)
#    0.857    0.571    7.143    0.857    0.000    0.000 
#   10.286    0.000    0.000    0.000    0.000    0.000 
#    0.000    0.000    0.000    0.000    0.000    0.000 
#
# Total GULP energy -173436.725638 kJ/mol
# GULP energy per Si atom -12388.337546 kJ/mol
# Density = 2.081884 g / cm^3
# Si number density = 20.866329 Si / 1000 Ang^3
#
#
#
# Elastic Constant Matrix: (Units=GPa)
#
#
# Indices 1 2 3 4 5 6 
#
# 1 29.7617 13.3196 47.8861 0.0000 -6.4218 0.0000
# 2 13.3196 91.2301 20.0622 0.0000 -1.2436 0.0000
# 3 47.8861 20.0622 134.3381 0.0000 7.6228 0.0000
# 4 0.0000 0.0000 0.0000 29.0254 0.0000 7.6734
# 5 -6.4218 -1.2436 7.6228 0.0000 39.4354 0.0000
# 6 0.0000 0.0000 0.0000 7.6734 0.0000 15.5256
#
#
#
# Elastic Compliance Matrix: (Units=1/GPa)
#
#
# Indices 1 2 3 4 5 6 
#
# 1 0.098102 -0.006248 -0.035319 0.000000 0.022605 0.000000
# 2 -0.006248 0.011750 0.000515 0.000000 -0.000746 0.000000
# 3 -0.035319 0.000515 0.020507 0.000000 -0.009699 0.000000
# 4 0.000000 0.000000 0.000000 0.039631 0.000000 -0.019587
# 5 0.022605 -0.000746 -0.009699 0.000000 0.030890 0.000000
# 6 0.000000 0.000000 0.000000 -0.019587 0.000000 0.074090
#
#
# Mechanical properties :
#
#
# Convention : Reuss Voigt Hill
#
# Bulk Modulus (GPa) = 20.72335 46.42953 33.57644
# Shear Modulus (GPa) = 13.39910 28.40142 20.90026
#
# Velocity S-wave (km/s) = 2.53680 3.69333 3.16828
# Velocity P-wave (km/s) = 4.30505 6.36292 5.43232
#
# Compressibility (1/GPa) = 0.04825475
#
# Stress axis : x y z
#
# Youngs Moduli (GPa) = 10.19352 85.10550 48.76337
#
# Poissons Ratio (x) = 0.53172 1.72227
# Poissons Ratio (y) = 0.06369 -0.02510
# Poissons Ratio (z) = 0.36002 -0.04380
#
# Static dielectric constant tensor:
#      x y z
#    x 3.366370 0.000000 0.203670 
#    y 0.000000 3.933410 0.000000 
#    z 0.203670 0.000000 3.647320 
# 
# 
# High freq. dielectric constant tensor:
#      x y z
#    x 1.773160 0.000000 0.019930 
#    y 0.000000 1.820610 0.000000 
#    z 0.019930 0.000000 1.816560 
# 
# From -- ./inp_files/8234.got.cif
#   From: 2010.03.12/outbox.cif.g09.slc.cpg/sg4_5_cif.got.tgz:8234.got - 2010.03.31 09:31:35.
