data_PCOD8045834
_publ_section_title
;
Structure prediction by ZEFSAII (Michael W. Deem and Ramdas Pophale) SiO2 
 PCOD8045834
Probable space group: P 21
;
_chemical_formula_sum "Si O2"
_cell_formula_units_Z 16
_cell_length_a 15.318153
_cell_length_b 9.501672
_cell_length_c 14.429029
_cell_angle_alpha 90.000000
_cell_angle_beta 160.200560
_cell_angle_gamma 90.000000
_cell_volume 711.370039
_symmetry_space_group_name_H-M "P 21"
_symmetry_group_IT_number 4
_symmetry_cell_setting 'monoclinic'
loop_
_space_group_symop_operation_xyz
x,y,z
-x,1/2+y,-z
loop_
_atom_site_type_symbol
_atom_site_label
_atom_site_fract_x
_atom_site_fract_y
_atom_site_fract_z
Si Si1 0.752071 0.567480 0.856117
Si Si2 0.745817 0.182343 0.737917
Si Si3 0.748741 0.794779 0.993254
Si Si4 0.251135 0.771230 0.064174
Si Si5 0.251002 0.912028 0.400976
Si Si6 0.751724 0.665684 0.497538
Si Si7 0.750527 0.850395 0.209128
Si Si8 0.250104 0.039349 0.699640
O O1 0.504587 0.604282 0.548911
O O2 0.754990 0.405619 0.878781
O O3 0.743791 0.636271 0.950031
O O4 0.005632 0.606017 0.053340
O O5 0.748355 0.158101 0.851185
O O6 0.742471 0.345631 0.695935
O O7 0.753894 0.796606 0.108190
O O8 0.998295 0.868478 0.203311
O O9 0.498091 0.871727 0.707134
O O10 0.499045 0.763701 0.244879
O O11 0.007721 0.760946 0.752250
O O12 0.248515 0.081818 0.403915
O O13 0.750223 0.555552 0.411717
O O14 0.749429 0.702549 0.264544
O O15 0.999168 0.948987 0.480622
O O16 0.500887 0.948817 0.981630
#
# Coordination Sequence:
#
# PCOD8045834 Si02
#       8
#     2   2   2   2   2   2   2   2
#     4  10  23  42  58  94 128 166 225 273 327 396
#     4  10  23  39  63  88 126 174 217 274 319 384
#     4  10  19  40  69  86 122 168 215 261 324 390
#     4  12  26  39  63  94 132 171 217 280 332 388
#     4  10  20  39  65  92 117 166 220 259 303 395
#     4  12  24  43  65  97 129 174 213 271 335 398
#     4  12  24  46  71 108 137 184 228 293 344 429
#     4  12  27  46  74 105 145 175 241 281 358 422
#
# _framework density 22.491810000000001
#
# number of rings (size 3 to 8) (size 9 to 14) (size 15 to 20)
#    0.000    1.000    2.500    3.750    3.500    2.000 
#    0.000    0.000    0.000    0.000    0.000    0.000 
#    0.000    0.000    0.000    0.000    0.000    0.000 
#
# Total GULP energy -198262.365767 kJ/mol
# GULP energy per Si atom -12391.397860 kJ/mol
# Density = 2.244062 g / cm^3
# Si number density = 22.491810 Si / 1000 Ang^3
#
#
#
# Elastic Constant Matrix: (Units=GPa)
#
#
# Indices 1 2 3 4 5 6 
#
# 1 60.4143 23.0081 39.2155 0.0000 -3.7560 0.0000
# 2 23.0081 88.8889 49.3198 0.0000 8.3591 0.0000
# 3 39.2155 49.3198 197.3010 0.0000 32.2599 0.0000
# 4 0.0000 0.0000 0.0000 36.4343 0.0000 5.3881
# 5 -3.7560 8.3591 32.2599 0.0000 17.6332 0.0000
# 6 0.0000 0.0000 0.0000 5.3881 0.0000 18.8188
#
#
#
# Elastic Compliance Matrix: (Units=1/GPa)
#
#
# Indices 1 2 3 4 5 6 
#
# 1 0.023871 -0.004193 -0.006924 0.000000 0.019740 0.000000
# 2 -0.004193 0.013799 -0.001998 0.000000 -0.003780 0.000000
# 3 -0.006924 -0.001998 0.010031 0.000000 -0.018879 0.000000
# 4 0.000000 0.000000 0.000000 0.028660 0.000000 -0.008206
# 5 0.019740 -0.003780 -0.018879 0.000000 0.097247 0.000000
# 6 0.000000 0.000000 0.000000 -0.008206 0.000000 0.055488
#
#
# Mechanical properties :
#
#
# Convention : Reuss Voigt Hill
#
# Bulk Modulus (GPa) = 46.57529 63.29902 54.93715
# Shear Modulus (GPa) = 19.04876 30.24798 24.64837
#
# Velocity S-wave (km/s) = 2.91335 3.67119 3.31400
# Velocity P-wave (km/s) = 5.66298 6.79518 6.25475
#
# Compressibility (1/GPa) = 0.02147061
#
# Stress axis : x y z
#
# Youngs Moduli (GPa) = 41.89179 72.46661 99.69175
#
# Poissons Ratio (x) = 0.30388 0.69026
# Poissons Ratio (y) = 0.17567 0.19919
# Poissons Ratio (z) = 0.29006 0.14479
#
# Static dielectric constant tensor:
#      x y z
#    x 4.029170 0.000000 0.068430 
#    y 0.000000 4.145580 0.000000 
#    z 0.068430 0.000000 4.364020 
# 
# 
# High freq. dielectric constant tensor:
#      x y z
#    x 1.881220 0.000000 0.008420 
#    y 0.000000 1.886810 0.000000 
#    z 0.008420 0.000000 1.911010 
# 
# From -- ./inp_files/14217.got.cif
#   From: 2010.03.12/outbox.cif.g09.slc.cpg/sg4_8_cif.got.tgz:14217.got - 2010.03.31 09:31:35.
