data_PCOD8045836
_publ_section_title
;
Structure prediction by ZEFSAII (Michael W. Deem and Ramdas Pophale) SiO2 
 PCOD8045836
Probable space group: P 21
;
_chemical_formula_sum "Si O2"
_cell_formula_units_Z 16
_cell_length_a 8.358049
_cell_length_b 10.759528
_cell_length_c 10.091565
_cell_angle_alpha 90.000000
_cell_angle_beta 137.306298
_cell_angle_gamma 90.000000
_cell_volume 615.370786
_symmetry_space_group_name_H-M "P 21"
_symmetry_group_IT_number 4
_symmetry_cell_setting 'monoclinic'
loop_
_space_group_symop_operation_xyz
x,y,z
-x,1/2+y,-z
loop_
_atom_site_type_symbol
_atom_site_label
_atom_site_fract_x
_atom_site_fract_y
_atom_site_fract_z
Si Si1 0.624950 0.772990 0.670978
Si Si2 0.376786 0.332056 0.783517
Si Si3 0.333017 0.885026 0.289785
Si Si4 0.374080 0.831886 0.782817
Si Si5 0.976254 0.099266 0.075046
Si Si6 0.790934 0.140956 0.689907
Si Si7 0.212267 0.082735 0.763364
Si Si8 0.712254 0.080664 0.186922
O O1 0.569346 0.884603 0.530173
O O2 0.554161 0.822973 0.771459
O O3 0.902607 0.736873 0.840779
O O4 0.472038 0.648423 0.534102
O O5 0.584514 0.332060 0.802348
O O6 0.224557 0.205546 0.676180
O O7 0.221219 0.460157 0.682074
O O8 0.484951 0.335496 0.995218
O O9 0.147374 0.787145 0.242115
O O10 0.206364 0.014545 0.199988
O O11 0.209553 0.706574 0.687929
O O12 0.220293 0.958199 0.677181
O O13 0.824134 0.069972 0.110365
O O14 0.809310 0.075451 0.845810
O O15 0.971727 0.080341 0.698688
O O16 0.428232 0.084907 0.998970
#
# Coordination Sequence:
#
# PCOD8045836 Si02
#       8
#     2   2   2   2   2   2   2   2
#     4  10  26  46  64 108 141 179 247 294 357 428
#     4  10  19  40  72  99 139 188 239 289 356 432
#     4  10  24  45  69 107 137 186 251 290 356 441
#     4  10  20  42  65 101 142 184 236 295 358 420
#     4  12  22  47  71  96 149 190 232 307 360 425
#     4  10  23  45  70 104 142 187 244 292 358 433
#     4  10  20  39  68 101 136 186 236 291 352 429
#     4  10  22  38  71 106 136 190 239 288 365 430
#
# _framework density 26.000585000000001
#
# number of rings (size 3 to 8) (size 9 to 14) (size 15 to 20)
#    0.750    1.000    0.000    6.000    0.000    2.000 
#   11.250    0.000    0.000    0.000    0.000    0.000 
#    0.000    0.000    0.000    0.000    0.000    0.000 
#
# Total GULP energy -198216.519897 kJ/mol
# GULP energy per Si atom -12388.532494 kJ/mol
# Density = 2.594141 g / cm^3
# Si number density = 26.000585 Si / 1000 Ang^3
#
#
#
# Elastic Constant Matrix: (Units=GPa)
#
#
# Indices 1 2 3 4 5 6 
#
# 1 100.1718 19.5972 7.3507 0.0000 -10.9439 0.0000
# 2 19.5972 160.1456 -18.8649 0.0000 -9.2853 0.0000
# 3 7.3507 -18.8649 73.7430 0.0000 -6.0225 0.0000
# 4 0.0000 0.0000 0.0000 2.6672 0.0000 -7.2053
# 5 -10.9439 -9.2853 -6.0225 0.0000 28.2902 0.0000
# 6 0.0000 0.0000 0.0000 -7.2053 0.0000 43.6045
#
#
#
# Elastic Compliance Matrix: (Units=1/GPa)
#
#
# Indices 1 2 3 4 5 6 
#
# 1 0.010687 -0.001234 -0.001095 0.000000 0.003496 0.000000
# 2 -0.001234 0.006760 0.002030 0.000000 0.002174 0.000000
# 3 -0.001095 0.002030 0.014460 0.000000 0.003321 0.000000
# 4 0.000000 0.000000 0.000000 0.677254 0.000000 0.111911
# 5 0.003496 0.002174 0.003321 0.000000 0.038121 0.000000
# 6 0.000000 0.000000 0.000000 0.111911 0.000000 0.041426
#
#
# Mechanical properties :
#
#
# Convention : Reuss Voigt Hill
#
# Bulk Modulus (GPa) = 31.94037 38.91406 35.42721
# Shear Modulus (GPa) = 6.25201 36.64419 21.44810
#
# Velocity S-wave (km/s) = 1.55235 3.75822 2.87524
# Velocity P-wave (km/s) = 3.94008 5.81647 4.96767
#
# Compressibility (1/GPa) = 0.03130834
#
# Stress axis : x y z
#
# Youngs Moduli (GPa) = 93.57525 147.91816 69.15471
#
# Poissons Ratio (x) = 0.18254 0.07576
# Poissons Ratio (y) = 0.11548 -0.14038
# Poissons Ratio (z) = 0.10251 -0.30027
#
# Static dielectric constant tensor:
#      x y z
#    x 4.268560 0.000000 -0.135350 
#    y 0.000000 6.639710 0.000000 
#    z -0.135350 0.000000 4.502350 
# 
# 
# High freq. dielectric constant tensor:
#      x y z
#    x 2.026970 0.000000 -0.011640 
#    y 0.000000 2.060470 0.000000 
#    z -0.011640 0.000000 2.024090 
# 
# From -- ./inp_files/11270.got.cif
#   From: 2010.03.12/outbox.cif.g09.slc.cpg/sg4_6_cif.got.tgz:11270.got - 2010.03.31 09:31:35.
