data_PCOD8045293
_publ_section_title
;
Structure prediction by ZEFSAII (Michael W. Deem and Ramdas Pophale) SiO2 
 PCOD8045293
Probable space group: P 2
;
_chemical_formula_sum "Si O2"
_cell_formula_units_Z 12
_cell_length_a 9.009188
_cell_length_b 5.426712
_cell_length_c 17.134401
_cell_angle_alpha 90.000000
_cell_angle_beta 37.930424
_cell_angle_gamma 90.000000
_cell_volume 514.940999
_symmetry_space_group_name_H-M "P 2"
_symmetry_group_IT_number 3
_symmetry_cell_setting 'monoclinic'
loop_
_space_group_symop_operation_xyz
x,y,z
-x,y,-z
loop_
_atom_site_type_symbol
_atom_site_label
_atom_site_fract_x
_atom_site_fract_y
_atom_site_fract_z
Si Si1 0.000000 0.828780 0.500000
Si Si2 0.722993 0.516481 0.849050
Si Si3 0.543015 0.657806 0.621397
Si Si4 0.693679 0.021661 0.760593
Si Si5 0.500000 0.002781 0.500000
Si Si6 0.224183 0.967337 0.856650
Si Si7 0.178432 0.298198 0.731330
O O1 0.208718 0.634966 0.435384
O O2 0.096595 0.005205 0.391173
O O3 0.727410 0.268165 0.796401
O O4 0.972727 0.499722 0.795656
O O5 0.705148 0.770874 0.808172
O O6 0.500000 0.507391 0.000000
O O7 0.597347 0.850450 0.531880
O O8 0.323267 0.734243 0.768988
O O9 0.453038 0.403229 0.624107
O O10 0.436135 0.063657 0.825238
O O11 0.241955 0.126202 0.631340
O O12 0.120968 0.167098 0.837394
O O13 0.000000 0.874608 0.000000
#
# Coordination Sequence:
#
# PCOD8045293 Si02
#       7
#     1   2   2   2   1   2   2
#     4  10  24  46  68 102 144 180 242 290 366 422
#     4  12  28  47  74 106 149 189 245 293 364 426
#     4  10  23  41  67  97 133 178 229 289 350 416
#     4  11  27  47  74 107 144 195 232 309 356 428
#     4  10  22  42  64 100 132 176 232 290 348 428
#     4  10  24  44  69  97 141 182 240 286 354 424
#     4  11  25  41  72  99 137 188 234 290 356 425
#
# _framework density 23.303642
#
# number of rings (size 3 to 8) (size 9 to 14) (size 15 to 20)
#    0.000    1.333    0.000    3.000   16.333    1.333 
#    0.000    0.000    0.000    0.000    0.000    0.000 
#    0.000    0.000    0.000    0.000    0.000    0.000 
#
# Total GULP energy -148688.566917 kJ/mol
# GULP energy per Si atom -12390.713910 kJ/mol
# Density = 2.325060 g / cm^3
# Si number density = 23.303642 Si / 1000 Ang^3
#
#
#
# Elastic Constant Matrix: (Units=GPa)
#
#
# Indices 1 2 3 4 5 6 
#
# 1 99.4903 27.4427 57.9601 0.0000 7.0970 0.0000
# 2 27.4427 94.7712 44.4337 0.0000 8.8073 0.0000
# 3 57.9601 44.4337 178.2154 0.0000 5.2686 0.0000
# 4 0.0000 0.0000 0.0000 108.1573 0.0000 25.4744
# 5 7.0970 8.8073 5.2686 0.0000 23.8139 0.0000
# 6 0.0000 0.0000 0.0000 25.4744 0.0000 36.9556
#
#
#
# Elastic Compliance Matrix: (Units=1/GPa)
#
#
# Indices 1 2 3 4 5 6 
#
# 1 0.012845 -0.001783 -0.003663 0.000000 -0.002358 0.000000
# 2 -0.001783 0.012545 -0.002442 0.000000 -0.003568 0.000000
# 3 -0.003663 -0.002442 0.007401 0.000000 0.000358 0.000000
# 4 0.000000 0.000000 0.000000 0.011038 0.000000 -0.007609
# 5 -0.002358 -0.003568 0.000358 0.000000 0.043936 0.000000
# 6 0.000000 0.000000 0.000000 -0.007609 0.000000 0.032304
#
#
# Mechanical properties :
#
#
# Convention : Reuss Voigt Hill
#
# Bulk Modulus (GPa) = 58.77602 70.23888 64.50745
# Shear Modulus (GPa) = 35.33134 49.96139 42.64637
#
# Velocity S-wave (km/s) = 3.89798 4.63528 4.28253
# Velocity P-wave (km/s) = 6.74800 7.67163 7.22459
#
# Compressibility (1/GPa) = 0.01701374
#
# Stress axis : x y z
#
# Youngs Moduli (GPa) = 77.84868 79.71510 135.11675
#
# Poissons Ratio (x) = 0.14212 0.49499
# Poissons Ratio (y) = 0.13879 0.33001
# Poissons Ratio (z) = 0.28519 0.19470
#
# Static dielectric constant tensor:
#      x y z
#    x 4.363520 0.000000 -0.001820 
#    y 0.000000 4.016380 0.000000 
#    z -0.001820 0.000000 4.246110 
# 
# 
# High freq. dielectric constant tensor:
#      x y z
#    x 1.941490 0.000000 0.004610 
#    y 0.000000 1.906440 0.000000 
#    z 0.004610 0.000000 1.938790 
# 
# From -- ./inp_files/6508.got.cif
#   From: 2010.03.12/outbox.cif.g09.slc.cpg/sg3_4_cif.got.tgz:6508.got - 2010.03.31 09:20:49.
