data_PCOD8045231
_publ_section_title
;
Structure prediction by ZEFSAII (Michael W. Deem and Ramdas Pophale) SiO2 
 PCOD8045231
Probable space group: P 2
;
_chemical_formula_sum "Si O2"
_cell_formula_units_Z 15
_cell_length_a 5.542192
_cell_length_b 8.426331
_cell_length_c 14.288893
_cell_angle_alpha 90.000000
_cell_angle_beta 71.288330
_cell_angle_gamma 90.000000
_cell_volume 632.026251
_symmetry_space_group_name_H-M "P 2"
_symmetry_group_IT_number 3
_symmetry_cell_setting 'monoclinic'
loop_
_space_group_symop_operation_xyz
x,y,z
-x,y,-z
loop_
_atom_site_type_symbol
_atom_site_label
_atom_site_fract_x
_atom_site_fract_y
_atom_site_fract_z
Si Si1 0.726686 0.614350 0.835611
Si Si2 0.836289 0.157859 0.717967
Si Si3 0.522309 0.711806 0.314045
Si Si4 0.434172 0.323177 0.876167
Si Si5 0.982060 0.903253 0.175769
Si Si6 0.820811 0.418043 0.275084
Si Si7 0.304691 0.999727 0.442959
Si Si8 0.000000 0.131858 0.000000
O O1 0.693416 0.649210 0.729212
O O2 0.491404 0.505809 0.902685
O O3 0.783844 0.782195 0.879707
O O4 0.972820 0.506135 0.814653
O O5 0.684543 0.215048 0.829916
O O6 0.049049 0.294038 0.668025
O O7 0.966672 0.992649 0.732456
O O8 0.662911 0.121099 0.648418
O O9 0.651675 0.555745 0.346646
O O10 0.395157 0.821400 0.408211
O O11 0.722056 0.808004 0.224201
O O12 0.332392 0.318455 0.782668
O O13 0.248184 0.246239 0.976814
O O14 0.953558 0.025523 0.095684
O O15 0.500000 0.060503 0.500000
O O16 0.000000 0.999047 0.500000
#
# Coordination Sequence:
#
# PCOD8045231 Si02
#       8
#     2   2   2   2   2   2   2   1
#     4   9  20  41  68  91 123 187 228 279 354 430
#     4  11  22  43  73  95 133 188 230 285 369 435
#     4  10  21  44  70  97 135 186 233 280 361 436
#     4  10  22  41  66  93 136 187 230 286 354 425
#     4  11  22  40  69  98 134 181 240 293 346 422
#     4   9  20  40  72  94 126 186 232 274 349 447
#     4  12  27  42  74 112 144 179 238 309 363 428
#     4  12  24  38  64 102 144 176 246 308 344 408
#
# _framework density 23.733191999999999
#
# number of rings (size 3 to 8) (size 9 to 14) (size 15 to 20)
#    0.000    1.600    2.667    1.600    3.733    0.533 
#    0.000    7.333    8.800    0.000    0.000    0.000 
#    0.000    0.000    0.000    0.000    0.000    0.000 
#
# Total GULP energy -185836.405377 kJ/mol
# GULP energy per Si atom -12389.093692 kJ/mol
# Density = 2.367917 g / cm^3
# Si number density = 23.733192 Si / 1000 Ang^3
#
#
#
# Elastic Constant Matrix: (Units=GPa)
#
#
# Indices 1 2 3 4 5 6 
#
# 1 79.3959 30.7308 15.7822 0.0000 -9.2474 0.0000
# 2 30.7308 131.5238 22.5754 0.0000 -9.1685 0.0000
# 3 15.7822 22.5754 61.0293 0.0000 -3.3678 0.0000
# 4 0.0000 0.0000 0.0000 25.5617 0.0000 -8.1589
# 5 -9.2474 -9.1685 -3.3678 0.0000 33.0422 0.0000
# 6 0.0000 0.0000 0.0000 -8.1589 0.0000 45.3941
#
#
#
# Elastic Compliance Matrix: (Units=1/GPa)
#
#
# Indices 1 2 3 4 5 6 
#
# 1 0.014521 -0.002739 -0.002574 0.000000 0.003042 0.000000
# 2 -0.002739 0.008763 -0.002455 0.000000 0.001415 0.000000
# 3 -0.002574 -0.002455 0.017983 0.000000 0.000431 0.000000
# 4 0.000000 0.000000 0.000000 0.041502 0.000000 0.007459
# 5 0.003042 0.001415 0.000431 0.000000 0.031552 0.000000
# 6 0.000000 0.000000 0.000000 0.007459 0.000000 0.023370
#
#
# Mechanical properties :
#
#
# Convention : Reuss Voigt Hill
#
# Bulk Modulus (GPa) = 38.86383 45.56956 42.21670
# Shear Modulus (GPa) = 30.90130 34.32364 32.61247
#
# Velocity S-wave (km/s) = 3.61228 3.80706 3.71095
# Velocity P-wave (km/s) = 5.81454 6.21026 6.01566
#
# Compressibility (1/GPa) = 0.02573087
#
# Stress axis : x y z
#
# Youngs Moduli (GPa) = 68.86475 114.11327 55.60731
#
# Poissons Ratio (x) = 0.31256 0.14314
# Poissons Ratio (y) = 0.18862 0.13653
# Poissons Ratio (z) = 0.17727 0.28017
#
# Static dielectric constant tensor:
#      x y z
#    x 4.561640 0.000000 -0.020170 
#    y 0.000000 4.651800 0.000000 
#    z -0.020170 0.000000 3.653790 
# 
# 
# High freq. dielectric constant tensor:
#      x y z
#    x 1.959460 0.000000 0.002890 
#    y 0.000000 1.962680 0.000000 
#    z 0.002890 0.000000 1.879870 
# 
# From -- ./inp_files/3681.got.cif
#   From: 2010.03.12/outbox.cif.g09.slc.cpg/sg3_2_cif.got.tgz:3681.got - 2010.03.31 09:20:49.
