data_PCOD8045476
_publ_section_title
;
Structure prediction by ZEFSAII (Michael W. Deem and Ramdas Pophale) SiO2 
 PCOD8045476
Probable space group: P 2
;
_chemical_formula_sum "Si O2"
_cell_formula_units_Z 16
_cell_length_a 9.059901
_cell_length_b 8.773852
_cell_length_c 19.382301
_cell_angle_alpha 90.000000
_cell_angle_beta 28.190573
_cell_angle_gamma 90.000000
_cell_volume 727.837236
_symmetry_space_group_name_H-M "P 2"
_symmetry_group_IT_number 3
_symmetry_cell_setting 'monoclinic'
loop_
_space_group_symop_operation_xyz
x,y,z
-x,y,-z
loop_
_atom_site_type_symbol
_atom_site_label
_atom_site_fract_x
_atom_site_fract_y
_atom_site_fract_z
Si Si1 0.591261 0.314080 0.116746
Si Si2 0.684721 0.634585 0.357932
Si Si3 0.360861 0.655642 0.864650
Si Si4 0.836649 0.328117 0.221425
Si Si5 0.356754 0.813083 0.375890
Si Si6 0.711939 0.815732 0.845356
Si Si7 0.630103 0.149177 0.660417
Si Si8 0.781491 0.148555 0.834090
O O1 0.549844 0.480691 0.163417
O O2 0.525050 0.184763 0.201316
O O3 0.318081 0.286452 0.174356
O O4 0.931570 0.306097 0.939970
O O5 0.500000 0.566963 0.500000
O O6 0.820767 0.501856 0.252905
O O7 0.448761 0.748629 0.413785
O O8 0.982732 0.718733 0.265941
O O9 0.504208 0.693297 0.733086
O O10 0.503198 0.755027 0.868046
O O11 0.000000 0.687039 0.000000
O O12 0.492993 0.276968 0.341358
O O13 0.922990 0.212001 0.246935
O O14 0.000000 0.822900 0.500000
O O15 0.496915 0.982862 0.309492
O O16 0.839324 0.985697 0.773034
O O17 0.500000 0.810241 0.000000
O O18 0.000000 0.160941 0.500000
O O19 0.500000 0.110252 0.000000
#
# Coordination Sequence:
#
# PCOD8045476 Si02
#       8
#     2   2   2   2   2   2   2   2
#     4  11  22  41  66  95 130 171 217 270 329 388
#     4  12  26  44  68  97 132 178 222 274 335 394
#     4  12  24  39  65  97 129 170 217 273 329 388
#     4  11  23  43  65  95 131 170 220 272 327 394
#     4  11  25  45  64  93 134 174 221 272 329 396
#     4  11  22  41  66  96 130 170 221 273 328 395
#     4  11  25  42  64  94 131 172 217 269 326 391
#     4   9  21  39  64  93 125 165 216 273 325 382
#
# _framework density 21.982935999999999
#
# number of rings (size 3 to 8) (size 9 to 14) (size 15 to 20)
#    0.000    1.000    0.000    7.125    0.000    9.000 
#    0.000    1.875    0.000    0.000    0.000    0.000 
#    0.000    0.000    0.000    0.000    0.000    0.000 
#
# Total GULP energy -198302.220422 kJ/mol
# GULP energy per Si atom -12393.888776 kJ/mol
# Density = 2.193290 g / cm^3
# Si number density = 21.982936 Si / 1000 Ang^3
#
#
#
# Elastic Constant Matrix: (Units=GPa)
#
#
# Indices 1 2 3 4 5 6 
#
# 1 129.9797 59.3516 44.5988 0.0000 -9.7552 0.0000
# 2 59.3516 142.9350 42.1898 0.0000 -4.8080 0.0000
# 3 44.5988 42.1898 92.6759 0.0000 4.8564 0.0000
# 4 0.0000 0.0000 0.0000 43.6126 0.0000 -21.8248
# 5 -9.7552 -4.8080 4.8564 0.0000 33.2364 0.0000
# 6 0.0000 0.0000 0.0000 -21.8248 0.0000 85.0002
#
#
#
# Elastic Compliance Matrix: (Units=1/GPa)
#
#
# Indices 1 2 3 4 5 6 
#
# 1 0.010730 -0.003202 -0.003876 0.000000 0.003252 0.000000
# 2 -0.003202 0.009136 -0.002659 0.000000 0.000770 0.000000
# 3 -0.003876 -0.002659 0.014053 0.000000 -0.003576 0.000000
# 4 0.000000 0.000000 0.000000 0.026310 0.000000 0.006755
# 5 0.003252 0.000770 -0.003576 0.000000 0.031676 0.000000
# 6 0.000000 0.000000 0.000000 0.006755 0.000000 0.013499
#
#
# Mechanical properties :
#
#
# Convention : Reuss Voigt Hill
#
# Bulk Modulus (GPa) = 69.22478 73.09677 71.16077
# Shear Modulus (GPa) = 38.55242 46.99988 42.77615
#
# Velocity S-wave (km/s) = 4.19231 4.62889 4.41600
# Velocity P-wave (km/s) = 7.41570 7.86718 7.64477
#
# Compressibility (1/GPa) = 0.01444569
#
# Stress axis : x y z
#
# Youngs Moduli (GPa) = 93.19963 109.45257 71.15668
#
# Poissons Ratio (x) = 0.35044 0.27583
# Poissons Ratio (y) = 0.29840 0.18919
# Poissons Ratio (z) = 0.36127 0.29102
#
# Static dielectric constant tensor:
#      x y z
#    x 4.082470 0.000000 -0.286630 
#    y 0.000000 4.191300 0.000000 
#    z -0.286630 0.000000 3.440430 
# 
# 
# High freq. dielectric constant tensor:
#      x y z
#    x 1.887640 0.000000 -0.001080 
#    y 0.000000 1.878060 0.000000 
#    z -0.001080 0.000000 1.852640 
# 
# From -- ./inp_files/15044.got.cif
#   From: 2010.03.12/outbox.cif.g09.slc.cpg/sg3_8_cif.got.tgz:15044.got - 2010.03.31 09:20:49.
