data_PCOD8045350
_publ_section_title
;
Structure prediction by ZEFSAII (Michael W. Deem and Ramdas Pophale) SiO2 
 PCOD8045350
Probable space group: P 2
;
_chemical_formula_sum "Si O2"
_cell_formula_units_Z 12
_cell_length_a 19.381701
_cell_length_b 5.301234
_cell_length_c 7.682766
_cell_angle_alpha 90.000000
_cell_angle_beta 37.451041
_cell_angle_gamma 90.000000
_cell_volume 480.009175
_symmetry_space_group_name_H-M "P 2"
_symmetry_group_IT_number 3
_symmetry_cell_setting 'monoclinic'
loop_
_space_group_symop_operation_xyz
x,y,z
-x,y,-z
loop_
_atom_site_type_symbol
_atom_site_label
_atom_site_fract_x
_atom_site_fract_y
_atom_site_fract_z
Si Si1 0.883712 0.735050 0.192353
Si Si2 0.494617 0.681539 0.310885
Si Si3 0.134895 0.070409 0.075425
Si Si4 0.627739 0.182878 0.559567
Si Si5 0.106557 0.135258 0.516193
Si Si6 0.298242 0.449597 0.273338
O O1 0.767313 0.587196 0.439238
O O2 0.882201 0.967090 0.333616
O O3 0.886865 0.813181 0.985521
O O4 0.000000 0.577509 0.000000
O O5 0.500000 0.759658 0.500000
O O6 0.440319 0.406123 0.397583
O O7 0.429690 0.908009 0.344109
O O8 0.622082 0.650705 0.982805
O O9 0.140699 0.995112 0.267151
O O10 0.022734 0.240538 0.251155
O O11 0.249151 0.196187 0.776416
O O12 0.632440 0.232108 0.760449
O O13 0.200449 0.356221 0.338300
#
# Coordination Sequence:
#
# PCOD8045350 Si02
#       6
#     2   2   2   2   2   2
#     4  10  23  42  71 107 150 197 248 313 384 453
#     4  12  30  52  78 110 151 205 264 318 381 458
#     4  10  22  46  72 107 153 197 256 309 386 452
#     4  12  27  47  78 111 154 200 257 317 387 455
#     4  10  23  45  72 109 148 201 252 314 381 461
#     4  12  27  45  77 107 152 198 259 317 386 458
#
# _framework density 24.999523
#
# number of rings (size 3 to 8) (size 9 to 14) (size 15 to 20)
#    0.000    1.000    1.667    3.000    7.000    2.667 
#    3.000    1.667    0.000    0.000    0.000    0.000 
#    0.000    0.000    0.000    0.000    0.000    0.000 
#
# Total GULP energy -148687.352774 kJ/mol
# GULP energy per Si atom -12390.612731 kJ/mol
# Density = 2.494262 g / cm^3
# Si number density = 24.999523 Si / 1000 Ang^3
#
#
#
# Elastic Constant Matrix: (Units=GPa)
#
#
# Indices 1 2 3 4 5 6 
#
# 1 115.0935 28.2406 61.2336 0.0000 3.5885 0.0000
# 2 28.2406 84.2374 45.8960 0.0000 -19.0035 0.0000
# 3 61.2336 45.8960 152.5096 0.0000 -5.5095 0.0000
# 4 0.0000 0.0000 0.0000 21.5692 0.0000 -4.2732
# 5 3.5885 -19.0035 -5.5095 0.0000 46.5974 0.0000
# 6 0.0000 0.0000 0.0000 -4.2732 0.0000 33.4588
#
#
#
# Elastic Compliance Matrix: (Units=1/GPa)
#
#
# Indices 1 2 3 4 5 6 
#
# 1 0.011424 -0.002141 -0.004023 0.000000 -0.002228 0.000000
# 2 -0.002141 0.016041 -0.003741 0.000000 0.006264 0.000000
# 3 -0.004023 -0.003741 0.009294 0.000000 -0.000117 0.000000
# 4 0.000000 0.000000 0.000000 0.047566 0.000000 0.006075
# 5 -0.002228 0.006264 -0.000117 0.000000 0.024173 0.000000
# 6 0.000000 0.000000 0.000000 0.006075 0.000000 0.030663
#
#
# Mechanical properties :
#
#
# Convention : Reuss Voigt Hill
#
# Bulk Modulus (GPa) = 59.00390 69.17566 64.08978
# Shear Modulus (GPa) = 30.37305 34.75644 32.56474
#
# Velocity S-wave (km/s) = 3.48939 3.73270 3.61309
# Velocity P-wave (km/s) = 6.31567 6.80501 6.56490
#
# Compressibility (1/GPa) = 0.01694803
#
# Stress axis : x y z
#
# Youngs Moduli (GPa) = 87.53748 62.34216 107.59708
#
# Poissons Ratio (x) = 0.13345 0.43286
# Poissons Ratio (y) = 0.18738 0.40257
# Poissons Ratio (z) = 0.35216 0.23325
#
# Static dielectric constant tensor:
#      x y z
#    x 4.705080 0.000000 -0.244940 
#    y 0.000000 4.166040 0.000000 
#    z -0.244940 0.000000 5.023060 
# 
# 
# High freq. dielectric constant tensor:
#      x y z
#    x 2.009720 0.000000 -0.010550 
#    y 0.000000 1.963600 0.000000 
#    z -0.010550 0.000000 2.024190 
# 
# From -- ./inp_files/9218.got.cif
#   From: 2010.03.12/outbox.cif.g09.slc.cpg/sg3_5_cif.got.tgz:9218.got - 2010.03.31 09:20:49.
