data_PCOD8045083
_publ_section_title
;
Structure prediction by ZEFSAII (Michael W. Deem and Ramdas Pophale) SiO2 
 PCOD8045083
Probable space group: P 2
;
_chemical_formula_sum "Si O2"
_cell_formula_units_Z 15
_cell_length_a 18.161930
_cell_length_b 7.687300
_cell_length_c 8.008002
_cell_angle_alpha 90.000000
_cell_angle_beta 41.651323
_cell_angle_gamma 90.000000
_cell_volume 743.049226
_symmetry_space_group_name_H-M "P 2"
_symmetry_group_IT_number 3
_symmetry_cell_setting 'monoclinic'
loop_
_space_group_symop_operation_xyz
x,y,z
-x,y,-z
loop_
_atom_site_type_symbol
_atom_site_label
_atom_site_fract_x
_atom_site_fract_y
_atom_site_fract_z
Si Si1 0.267483 0.863670 0.171063
Si Si2 0.620015 0.526150 0.874089
Si Si3 0.787397 0.845641 0.112226
Si Si4 0.354002 0.157988 0.601593
Si Si5 0.974880 0.768270 0.354847
Si Si6 0.591110 0.180352 0.111122
Si Si7 0.000000 0.522955 0.000000
Si Si8 0.232458 0.472970 0.684313
O O1 0.336195 0.705510 0.128498
O O2 0.140219 0.875328 0.451110
O O3 0.269273 0.830634 0.970995
O O4 0.330547 0.041604 0.117912
O O5 0.703447 0.457549 0.595637
O O6 0.500000 0.558637 0.000000
O O7 0.620112 0.377960 0.015800
O O8 0.766698 0.668025 0.246521
O O9 0.728450 0.001925 0.312576
O O10 0.918894 0.887891 0.872416
O O11 0.459546 0.152391 0.296886
O O12 0.393152 0.140707 0.722886
O O13 0.289589 0.340463 0.712957
O O14 0.963092 0.627943 0.228482
O O15 0.000000 0.688887 0.500000
O O16 0.893836 0.408755 0.130591
#
# Coordination Sequence:
#
# PCOD8045083 Si02
#       8
#     2   2   2   2   2   2   1   2
#     4  10  21  41  63  85 117 156 199 243 297 355
#     4  12  24  38  57  87 121 158 194 240 298 354
#     4   9  21  39  65  89 111 154 199 246 301 349
#     4  10  21  41  61  86 117 154 200 247 292 354
#     4   9  18  38  64  90 121 154 200 254 300 359
#     4  10  23  39  60  86 119 155 198 245 294 352
#     4  10  20  40  60  92 120 158 204 244 308 360
#     4  11  22  40  61  85 122 152 196 246 296 356
#
# _framework density 20.187086999999998
#
# number of rings (size 3 to 8) (size 9 to 14) (size 15 to 20)
#    0.000    1.867    2.667    0.800    1.867    1.600 
#    2.400    0.667    0.000    0.000    0.000    0.000 
#    0.000    0.000    0.000    0.000    0.000    0.000 
#
# Total GULP energy -185887.747721 kJ/mol
# GULP energy per Si atom -12392.516515 kJ/mol
# Density = 2.014114 g / cm^3
# Si number density = 20.187087 Si / 1000 Ang^3
#
#
#
# Elastic Constant Matrix: (Units=GPa)
#
#
# Indices 1 2 3 4 5 6 
#
# 1 77.5699 42.1726 39.3592 0.0000 -30.6489 0.0000
# 2 42.1726 112.3907 37.8454 0.0000 -30.0710 0.0000
# 3 39.3592 37.8454 110.1277 0.0000 -34.2682 0.0000
# 4 0.0000 0.0000 0.0000 44.4243 0.0000 -14.7304
# 5 -30.6489 -30.0710 -34.2682 0.0000 39.3024 0.0000
# 6 0.0000 0.0000 0.0000 -14.7304 0.0000 19.6522
#
#
#
# Elastic Compliance Matrix: (Units=1/GPa)
#
#
# Indices 1 2 3 4 5 6 
#
# 1 0.020650 -0.003977 -0.002675 0.000000 0.010727 0.000000
# 2 -0.003977 0.012169 -0.001137 0.000000 0.005218 0.000000
# 3 -0.002675 -0.001137 0.013047 0.000000 0.008420 0.000000
# 4 0.000000 0.000000 0.000000 0.029955 0.000000 0.022453
# 5 0.010727 0.005218 0.008420 0.000000 0.045143 0.000000
# 6 0.000000 0.000000 0.000000 0.022453 0.000000 0.067715
#
#
# Mechanical properties :
#
#
# Convention : Reuss Voigt Hill
#
# Bulk Modulus (GPa) = 33.01737 59.87139 46.44438
# Shear Modulus (GPa) = 23.32591 32.72320 28.02455
#
# Velocity S-wave (km/s) = 3.40293 4.03053 3.72995
# Velocity P-wave (km/s) = 5.64191 7.16818 6.45035
#
# Compressibility (1/GPa) = 0.03028709
#
# Stress axis : x y z
#
# Youngs Moduli (GPa) = 48.42593 82.17723 76.64488
#
# Poissons Ratio (x) = 0.32686 0.20505
# Poissons Ratio (y) = 0.19261 0.08712
# Poissons Ratio (z) = 0.12956 0.09341
#
# Static dielectric constant tensor:
#      x y z
#    x 3.868970 0.000000 -0.262620 
#    y 0.000000 3.545760 0.000000 
#    z -0.262620 0.000000 4.044930 
# 
# 
# High freq. dielectric constant tensor:
#      x y z
#    x 1.799430 0.000000 -0.012300 
#    y 0.000000 1.761890 0.000000 
#    z -0.012300 0.000000 1.804730 
# 
# From -- ./inp_files/8609.got.cif
#   From: 2010.03.12/outbox.cif.g09.slc.cpg/sg3_5_cif.got.tgz:8609.got - 2010.03.31 09:20:49.
