data_PCOD8045315
_publ_section_title
;
Structure prediction by ZEFSAII (Michael W. Deem and Ramdas Pophale) SiO2 
 PCOD8045315
Probable space group: P 2
;
_chemical_formula_sum "Si O2"
_cell_formula_units_Z 16
_cell_length_a 23.125488
_cell_length_b 5.558728
_cell_length_c 9.155947
_cell_angle_alpha 90.000000
_cell_angle_beta 34.523083
_cell_angle_gamma 90.000000
_cell_volume 667.040332
_symmetry_space_group_name_H-M "P 2"
_symmetry_group_IT_number 3
_symmetry_cell_setting 'monoclinic'
loop_
_space_group_symop_operation_xyz
x,y,z
-x,y,-z
loop_
_atom_site_type_symbol
_atom_site_label
_atom_site_fract_x
_atom_site_fract_y
_atom_site_fract_z
Si Si1 0.799650 0.688180 0.549062
Si Si2 0.271832 0.174053 0.758194
Si Si3 0.941336 0.095296 0.355579
Si Si4 0.574158 0.701670 0.984181
Si Si5 0.816367 0.452444 0.805864
Si Si6 0.499082 0.195592 0.176100
Si Si7 0.111715 0.788066 0.116869
Si Si8 0.884472 0.403037 0.126877
O O1 0.768945 0.622620 0.779502
O O2 0.860557 0.465861 0.346594
O O3 0.871107 0.924904 0.398705
O O4 0.692437 0.718153 0.686898
O O5 0.387787 0.159625 0.472312
O O6 0.267207 0.355921 0.905579
O O7 0.209061 0.259108 0.747642
O O8 0.221444 0.919995 0.907984
O O9 0.870823 0.233922 0.614412
O O10 0.009644 0.258817 0.106385
O O11 0.014808 0.961138 0.317380
O O12 0.550733 0.450124 0.121245
O O13 0.556911 0.951760 0.110680
O O14 0.500000 0.707484 0.000000
O O15 0.899570 0.602356 0.725795
O O16 0.500000 0.203201 0.000000
O O17 0.106273 0.658328 0.971852
#
# Coordination Sequence:
#
# PCOD8045315 Si02
#       8
#     2   2   2   2   2   2   2   2
#     4  12  27  45  74 106 156 194 252 315 386 452
#     4  10  23  43  75 108 141 189 256 306 383 459
#     4  11  26  45  70 108 151 204 251 305 379 459
#     4  10  24  45  77 109 142 193 252 317 388 449
#     4  11  26  44  70 100 156 194 247 301 381 455
#     4  10  22  42  78 110 139 180 252 325 383 449
#     4  10  24  44  71 103 141 200 248 304 367 459
#     4  10  24  43  71 105 148 192 249 311 371 453
#
# _framework density 23.986556
#
# number of rings (size 3 to 8) (size 9 to 14) (size 15 to 20)
#    0.000    1.500    0.000    3.000    8.750   17.000 
#    0.000    0.625    0.000    0.000    0.000    0.000 
#    0.000    0.000    0.000    0.000    0.000    0.000 
#
# Total GULP energy -198323.216940 kJ/mol
# GULP energy per Si atom -12395.201059 kJ/mol
# Density = 2.393196 g / cm^3
# Si number density = 23.986556 Si / 1000 Ang^3
#
#
#
# Elastic Constant Matrix: (Units=GPa)
#
#
# Indices 1 2 3 4 5 6 
#
# 1 85.3157 20.4099 45.5163 0.0000 13.0277 0.0000
# 2 20.4099 159.4132 60.4314 0.0000 -9.3401 0.0000
# 3 45.5163 60.4314 146.1934 0.0000 -19.7686 0.0000
# 4 0.0000 0.0000 0.0000 40.2555 0.0000 0.1925
# 5 13.0277 -9.3401 -19.7686 0.0000 32.8839 0.0000
# 6 0.0000 0.0000 0.0000 0.1925 0.0000 34.8207
#
#
#
# Elastic Compliance Matrix: (Units=1/GPa)
#
#
# Indices 1 2 3 4 5 6 
#
# 1 0.016971 -0.000295 -0.006621 0.000000 -0.010787 0.000000
# 2 -0.000295 0.007446 -0.002922 0.000000 0.000475 0.000000
# 3 -0.006621 -0.002922 0.011268 0.000000 0.008567 0.000000
# 4 0.000000 0.000000 0.000000 0.024842 0.000000 -0.000137
# 5 -0.010787 0.000475 0.008567 0.000000 0.039969 0.000000
# 6 0.000000 0.000000 0.000000 -0.000137 0.000000 0.028719
#
#
# Mechanical properties :
#
#
# Convention : Reuss Voigt Hill
#
# Bulk Modulus (GPa) = 62.46077 71.51530 66.98803
# Shear Modulus (GPa) = 32.41983 39.22968 35.82475
#
# Velocity S-wave (km/s) = 3.68038 4.04850 3.86882
# Velocity P-wave (km/s) = 6.64505 7.19259 6.92423
#
# Compressibility (1/GPa) = 0.01601005
#
# Stress axis : x y z
#
# Youngs Moduli (GPa) = 58.92384 134.29514 88.74914
#
# Poissons Ratio (x) = 0.03963 0.58756
# Poissons Ratio (y) = 0.01739 0.25931
# Poissons Ratio (z) = 0.39011 0.39239
#
# Static dielectric constant tensor:
#      x y z
#    x 4.089620 0.000000 0.099690 
#    y 0.000000 5.365290 0.000000 
#    z 0.099690 0.000000 4.068670 
# 
# 
# High freq. dielectric constant tensor:
#      x y z
#    x 1.932280 0.000000 0.001250 
#    y 0.000000 1.977590 0.000000 
#    z 0.001250 0.000000 1.944290 
# 
# From -- ./inp_files/12712.got.cif
#   From: 2010.03.12/outbox.cif.g09.slc.cpg/sg3_7_cif.got.tgz:12712.got - 2010.03.31 09:20:49.
