data_PCOD8045635
_publ_section_title
;
Structure prediction by ZEFSAII (Michael W. Deem and Ramdas Pophale) SiO2 
 PCOD8045635
Probable space group: P 21
;
_chemical_formula_sum "Si O2"
_cell_formula_units_Z 16
_cell_length_a 20.174668
_cell_length_b 8.425953
_cell_length_c 8.210801
_cell_angle_alpha 90.000000
_cell_angle_beta 144.595166
_cell_angle_gamma 90.000000
_cell_volume 808.633861
_symmetry_space_group_name_H-M "P 21"
_symmetry_group_IT_number 4
_symmetry_cell_setting 'monoclinic'
loop_
_space_group_symop_operation_xyz
x,y,z
-x,1/2+y,-z
loop_
_atom_site_type_symbol
_atom_site_label
_atom_site_fract_x
_atom_site_fract_y
_atom_site_fract_z
Si Si1 0.264528 0.330160 0.627590
Si Si2 0.225652 0.463837 0.197744
Si Si3 0.000457 0.810518 0.223853
Si Si4 0.401759 0.559287 0.303914
Si Si5 0.499893 0.309571 0.268656
Si Si6 0.734973 0.290614 0.569086
Si Si7 0.226740 0.657092 0.706391
Si Si8 0.113256 0.060163 0.225843
O O1 0.268251 0.375611 0.444915
O O2 0.211469 0.469907 0.633714
O O3 0.188660 0.172567 0.494518
O O4 0.391652 0.285183 0.936219
O O5 0.319662 0.442778 0.244675
O O6 0.211377 0.651117 0.211302
O O7 0.108825 0.379364 0.895275
O O8 0.110616 0.742829 0.543045
O O9 0.030950 0.957790 0.172155
O O10 0.969001 0.661711 0.050838
O O11 0.484171 0.461555 0.351490
O O12 0.484100 0.655762 0.587580
O O13 0.321288 0.677082 0.036520
O O14 0.608044 0.335611 0.369764
O O15 0.730638 0.244788 0.370386
O O16 0.810690 0.448324 0.739090
#
# Coordination Sequence:
#
# PCOD8045635 Si02
#       8
#     2   2   2   2   2   2   2   2
#     4   9  19  34  55  81 106 138 187 228 266 327
#     4   9  19  36  54  77 109 141 182 226 269 325
#     4  10  18  32  54  78 108 144 174 228 280 312
#     4  10  22  38  54  80 114 144 178 222 276 332
#     4  10  22  38  56  78 110 148 178 228 280 314
#     4   9  19  34  55  81 106 138 187 228 266 327
#     4   9  19  36  54  77 109 141 182 226 269 325
#     4  10  18  30  54  84 106 134 184 230 270 320
#
# _framework density 19.786458
#
# number of rings (size 3 to 8) (size 9 to 14) (size 15 to 20)
#    0.000    2.500    0.000    3.000    0.000    9.000 
#    0.000    5.000    0.000    0.000    0.000    0.000 
#    0.000    0.000    0.000    0.000    0.000    0.000 
#
# Total GULP energy -198330.371705 kJ/mol
# GULP energy per Si atom -12395.648232 kJ/mol
# Density = 1.974142 g / cm^3
# Si number density = 19.786458 Si / 1000 Ang^3
#
#
#
# Elastic Constant Matrix: (Units=GPa)
#
#
# Indices 1 2 3 4 5 6 
#
# 1 56.5107 24.8759 47.3489 0.0000 3.5536 0.0000
# 2 24.8759 99.5440 39.5609 0.0000 14.0944 0.0000
# 3 47.3489 39.5609 82.1204 0.0000 22.7954 0.0000
# 4 0.0000 0.0000 0.0000 40.2158 0.0000 11.8640
# 5 3.5536 14.0944 22.7954 0.0000 23.3813 0.0000
# 6 0.0000 0.0000 0.0000 11.8640 0.0000 27.1714
#
#
#
# Elastic Compliance Matrix: (Units=1/GPa)
#
#
# Indices 1 2 3 4 5 6 
#
# 1 0.042310 -0.002020 -0.030128 0.000000 0.024161 0.000000
# 2 -0.002020 0.012609 -0.003955 0.000000 -0.003438 0.000000
# 3 -0.030128 -0.003955 0.040475 0.000000 -0.032497 0.000000
# 4 0.000000 0.000000 0.000000 0.028542 0.000000 -0.012463
# 5 0.024161 -0.003438 -0.032497 0.000000 0.072853 0.000000
# 6 0.000000 0.000000 0.000000 -0.012463 0.000000 0.042245
#
#
# Mechanical properties :
#
#
# Convention : Reuss Voigt Hill
#
# Bulk Modulus (GPa) = 43.12965 51.30518 47.21742
# Shear Modulus (GPa) = 15.67544 26.57965 21.12755
#
# Velocity S-wave (km/s) = 2.81771 3.66912 3.27123
# Velocity P-wave (km/s) = 5.69481 6.62840 6.17926
#
# Compressibility (1/GPa) = 0.02318590
#
# Stress axis : x y z
#
# Youngs Moduli (GPa) = 23.63531 79.30604 24.70676
#
# Poissons Ratio (x) = 0.16024 0.74437
# Poissons Ratio (y) = 0.04775 0.09772
# Poissons Ratio (z) = 0.71209 0.31367
#
# Static dielectric constant tensor:
#      x y z
#    x 3.506090 0.000000 0.182440 
#    y 0.000000 3.651100 0.000000 
#    z 0.182440 0.000000 3.703430 
# 
# 
# High freq. dielectric constant tensor:
#      x y z
#    x 1.754540 0.000000 0.015470 
#    y 0.000000 1.775080 0.000000 
#    z 0.015470 0.000000 1.771340 
# 
# From -- ./inp_files/7535.got.cif
#   From: 2010.03.12/outbox.cif.g09.slc.cpg/sg4_4_cif.got.tgz:7535.got - 2010.03.31 09:31:35.
