data_PCOD8045194
_publ_section_title
;
Structure prediction by ZEFSAII (Michael W. Deem and Ramdas Pophale) SiO2 
 PCOD8045194
Probable space group: P 2
;
_chemical_formula_sum "Si O2"
_cell_formula_units_Z 16
_cell_length_a 8.256058
_cell_length_b 6.387553
_cell_length_c 19.168816
_cell_angle_alpha 90.000000
_cell_angle_beta 43.353491
_cell_angle_gamma 90.000000
_cell_volume 693.971283
_symmetry_space_group_name_H-M "P 2"
_symmetry_group_IT_number 3
_symmetry_cell_setting 'monoclinic'
loop_
_space_group_symop_operation_xyz
x,y,z
-x,y,-z
loop_
_atom_site_type_symbol
_atom_site_label
_atom_site_fract_x
_atom_site_fract_y
_atom_site_fract_z
Si Si1 0.876302 0.728880 0.872398
Si Si2 0.305400 0.919768 0.204493
Si Si3 0.559363 0.694957 0.562507
Si Si4 0.959862 0.583656 0.630068
Si Si5 0.853760 0.398955 0.295576
Si Si6 0.701273 0.015515 0.266966
Si Si7 0.540209 0.307475 0.770957
Si Si8 0.266293 0.651899 0.934728
O O1 0.731545 0.881895 0.866200
O O2 0.945618 0.515928 0.811652
O O3 0.713998 0.655842 0.987376
O O4 0.113036 0.850958 0.824211
O O5 0.101779 0.799219 0.310805
O O6 0.560119 0.829855 0.149094
O O7 0.307826 0.164693 0.222930
O O8 0.500000 0.746466 0.500000
O O9 0.401995 0.502291 0.638886
O O10 0.836514 0.640442 0.489640
O O11 0.506015 0.896720 0.626929
O O12 0.722808 0.469509 0.675717
O O13 0.084504 0.418872 0.642850
O O14 0.845780 0.155850 0.277452
O O15 0.590746 0.166696 0.244157
O O16 0.345110 0.429693 0.877735
O O17 0.000000 0.705030 0.000000
#
# Coordination Sequence:
#
# PCOD8045194 Si02
#       8
#     2   2   2   2   2   2   2   2
#     4  10  21  40  64  90 123 161 205 261 314 367
#     4  10  22  41  63  89 122 163 208 258 310 370
#     4   9  20  38  63  92 123 164 214 262 307 364
#     4   9  20  40  62  86 125 165 204 259 311 363
#     4   9  19  37  62  91 120 159 209 258 308 367
#     4  11  22  38  65  96 126 164 208 257 318 378
#     4  11  24  40  61  92 127 166 206 254 320 380
#     4  11  23  40  62  88 123 162 205 257 315 375
#
# _framework density 23.055709
#
# number of rings (size 3 to 8) (size 9 to 14) (size 15 to 20)
#    0.000    2.000    0.000    3.375    0.000    8.000 
#    0.000    8.750    0.000    0.000    0.000    0.000 
#    0.000    0.000    0.000    0.000    0.000    0.000 
#
# Total GULP energy -198374.056810 kJ/mol
# GULP energy per Si atom -12398.378551 kJ/mol
# Density = 2.300323 g / cm^3
# Si number density = 23.055709 Si / 1000 Ang^3
#
#
#
# Elastic Constant Matrix: (Units=GPa)
#
#
# Indices 1 2 3 4 5 6 
#
# 1 47.2366 6.3541 1.7302 0.0000 -16.5040 0.0000
# 2 6.3541 86.7367 37.7835 0.0000 1.5972 0.0000
# 3 1.7302 37.7835 102.6765 0.0000 -14.5407 0.0000
# 4 0.0000 0.0000 0.0000 31.3707 0.0000 2.0714
# 5 -16.5040 1.5972 -14.5407 0.0000 30.9833 0.0000
# 6 0.0000 0.0000 0.0000 2.0714 0.0000 37.1474
#
#
#
# Elastic Compliance Matrix: (Units=1/GPa)
#
#
# Indices 1 2 3 4 5 6 
#
# 1 0.027199 -0.003678 0.003185 0.000000 0.016172 0.000000
# 2 -0.003678 0.014549 -0.006080 0.000000 -0.005562 0.000000
# 3 0.003185 -0.006080 0.013077 0.000000 0.008147 0.000000
# 4 0.000000 0.000000 0.000000 0.031995 0.000000 -0.001784
# 5 0.016172 -0.005562 0.008147 0.000000 0.045000 0.000000
# 6 0.000000 0.000000 0.000000 -0.001784 0.000000 0.027019
#
#
# Mechanical properties :
#
#
# Convention : Reuss Voigt Hill
#
# Bulk Modulus (GPa) = 23.99223 36.48727 30.23975
# Shear Modulus (GPa) = 26.89952 32.61906 29.75929
#
# Velocity S-wave (km/s) = 3.41943 3.76545 3.59661
# Velocity P-wave (km/s) = 5.10086 5.89618 5.51288
#
# Compressibility (1/GPa) = 0.04168016
#
# Stress axis : x y z
#
# Youngs Moduli (GPa) = 36.76666 68.73127 76.47199
#
# Poissons Ratio (x) = 0.25279 -0.24359
# Poissons Ratio (y) = 0.13522 0.46493
# Poissons Ratio (z) = -0.11712 0.41787
#
# Static dielectric constant tensor:
#      x y z
#    x 4.041220 0.000000 -0.130160 
#    y 0.000000 4.056630 0.000000 
#    z -0.130160 0.000000 4.195810 
# 
# 
# High freq. dielectric constant tensor:
#      x y z
#    x 1.912030 0.000000 -0.012320 
#    y 0.000000 1.902750 0.000000 
#    z -0.012320 0.000000 1.909700 
# 
# From -- ./inp_files/8310.got.cif
#   From: 2010.03.12/outbox.cif.g09.slc.cpg/sg3_5_cif.got.tgz:8310.got - 2010.03.31 09:20:49.
