data_PCOD8045663
_publ_section_title
;
Structure prediction by ZEFSAII (Michael W. Deem and Ramdas Pophale) SiO2 
 PCOD8045663
Probable space group: P 21
;
_chemical_formula_sum "Si O2"
_cell_formula_units_Z 14
_cell_length_a 7.521557
_cell_length_b 12.676402
_cell_length_c 7.158501
_cell_angle_alpha 90.000000
_cell_angle_beta 58.306981
_cell_angle_gamma 90.000000
_cell_volume 580.753282
_symmetry_space_group_name_H-M "P 21"
_symmetry_group_IT_number 4
_symmetry_cell_setting 'monoclinic'
loop_
_space_group_symop_operation_xyz
x,y,z
-x,1/2+y,-z
loop_
_atom_site_type_symbol
_atom_site_label
_atom_site_fract_x
_atom_site_fract_y
_atom_site_fract_z
Si Si1 0.944160 0.472130 0.910335
Si Si2 0.320652 0.040421 0.637249
Si Si3 0.737809 0.964447 0.564444
Si Si4 0.197747 0.811247 0.564439
Si Si5 0.354488 0.803563 0.089663
Si Si6 0.457905 0.235272 0.362753
Si Si7 0.209861 0.387846 0.080281
O O1 0.836941 0.561875 0.099533
O O2 0.757866 0.387848 0.984274
O O3 0.142165 0.429189 0.916439
O O4 0.047656 0.503134 0.656128
O O5 0.309293 0.137847 0.500000
O O6 0.552308 0.036819 0.594549
O O7 0.253775 0.935173 0.563408
O O8 0.682811 0.840521 0.563414
O O9 0.780863 0.978212 0.762183
O O10 0.353145 0.738875 0.594538
O O11 0.956955 0.797482 0.762182
O O12 0.203777 0.772561 0.343872
O O13 0.436461 0.713818 0.900467
O O14 0.558600 0.846502 0.083556
#
# Coordination Sequence:
#
# PCOD8045663 Si02
#       7
#     2   2   2   2   2   2   2
#     4  11  20  38  65  84 118 164 199 254 312 364
#     4  10  21  42  60  93 130 161 210 263 304 370
#     4  10  20  39  62  86 123 164 200 257 312 368
#     4  10  20  39  62  86 123 164 200 257 312 368
#     4  11  20  38  65  84 118 164 199 254 312 364
#     4  10  21  42  60  93 130 161 210 263 304 370
#     4  10  18  34  62  86 108 158 204 238 310 362
#
# _framework density 24.106621000000001
#
# number of rings (size 3 to 8) (size 9 to 14) (size 15 to 20)
#    0.000    1.714    7.143    1.714    0.000    0.000 
#    5.143    5.714    0.000    0.000    0.000    0.000 
#    0.000    0.000    0.000    0.000    0.000    0.000 
#
# Total GULP energy -173455.947498 kJ/mol
# GULP energy per Si atom -12389.710536 kJ/mol
# Density = 2.405175 g / cm^3
# Si number density = 24.106621 Si / 1000 Ang^3
#
#
#
# Elastic Constant Matrix: (Units=GPa)
#
#
# Indices 1 2 3 4 5 6 
#
# 1 104.2481 2.9203 -12.3093 0.0000 -3.2540 0.0000
# 2 2.9203 29.8331 -8.6707 0.0000 -1.0589 0.0000
# 3 -12.3093 -8.6707 98.6594 0.0000 2.7463 0.0000
# 4 0.0000 0.0000 0.0000 16.9974 0.0000 0.3241
# 5 -3.2540 -1.0589 2.7463 0.0000 41.0159 0.0000
# 6 0.0000 0.0000 0.0000 0.3241 0.0000 13.4560
#
#
#
# Elastic Compliance Matrix: (Units=1/GPa)
#
#
# Indices 1 2 3 4 5 6 
#
# 1 0.009766 -0.000598 0.001147 0.000000 0.000683 0.000000
# 2 -0.000598 0.034454 0.002935 0.000000 0.000645 0.000000
# 3 0.001147 0.002935 0.010552 0.000000 -0.000540 0.000000
# 4 0.000000 0.000000 0.000000 0.058860 0.000000 -0.001418
# 5 0.000683 0.000645 -0.000540 0.000000 0.024488 0.000000
# 6 0.000000 0.000000 0.000000 -0.001418 0.000000 0.074350
#
#
# Mechanical properties :
#
#
# Convention : Reuss Voigt Hill
#
# Bulk Modulus (GPa) = 16.19690 21.84679 19.02185
# Shear Modulus (GPa) = 22.11583 31.01389 26.56486
#
# Velocity S-wave (km/s) = 3.03218 3.59071 3.32320
# Velocity P-wave (km/s) = 4.35801 5.12574 4.75739
#
# Compressibility (1/GPa) = 0.06174020
#
# Stress axis : x y z
#
# Youngs Moduli (GPa) = 102.39620 29.02379 94.76895
#
# Poissons Ratio (x) = 0.01737 -0.10869
# Poissons Ratio (y) = 0.06128 -0.27819
# Poissons Ratio (z) = -0.11743 -0.08520
#
# Static dielectric constant tensor:
#      x y z
#    x 4.590630 0.000000 -0.009100 
#    y 0.000000 3.583410 0.000000 
#    z -0.009100 0.000000 4.490570 
# 
# 
# High freq. dielectric constant tensor:
#      x y z
#    x 1.975920 0.000000 0.000310 
#    y 0.000000 1.879460 0.000000 
#    z 0.000310 0.000000 1.979300 
# 
# From -- ./inp_files/6572.got.cif
#   From: 2010.03.12/outbox.cif.g09.slc.cpg/sg4_4_cif.got.tgz:6572.got - 2010.03.31 09:31:35.
