data_PCOD8045984
_publ_section_title
;
Structure prediction by ZEFSAII (Michael W. Deem and Ramdas Pophale) SiO2 
 PCOD8045984
Probable space group: P 21
;
_chemical_formula_sum "Si O2"
_cell_formula_units_Z 14
_cell_length_a 8.472136
_cell_length_b 5.051356
_cell_length_c 31.441549
_cell_angle_alpha 90.000000
_cell_angle_beta 29.214618
_cell_angle_gamma 90.000000
_cell_volume 656.746756
_symmetry_space_group_name_H-M "P 21"
_symmetry_group_IT_number 4
_symmetry_cell_setting 'monoclinic'
loop_
_space_group_symop_operation_xyz
x,y,z
-x,1/2+y,-z
loop_
_atom_site_type_symbol
_atom_site_label
_atom_site_fract_x
_atom_site_fract_y
_atom_site_fract_z
Si Si1 0.340470 0.068020 0.030374
Si Si2 0.362346 0.279134 0.934229
Si Si3 0.387560 0.778200 0.885430
Si Si4 0.930549 0.786829 0.488397
Si Si5 0.391740 0.641269 0.787451
Si Si6 0.405653 0.911646 0.547213
Si Si7 0.746341 0.123123 0.675055
O O1 0.978856 0.061501 0.132933
O O2 0.555659 0.270361 0.008710
O O3 0.399334 0.257040 0.975654
O O4 0.548192 0.537130 0.873419
O O5 0.544598 0.047939 0.865156
O O6 0.984608 0.284985 0.012102
O O7 0.443522 0.747665 0.822550
O O8 0.911066 0.543374 0.526247
O O9 0.148670 0.693818 0.397421
O O10 0.572757 0.861037 0.554082
O O11 0.602556 0.381596 0.730789
O O12 0.489114 0.882080 0.733207
O O13 0.617152 0.132874 0.472663
O O14 0.042492 0.024273 0.635370
#
# Coordination Sequence:
#
# PCOD8045984 Si02
#       7
#     2   2   2   2   2   2   2
#     4  11  22  37  59  84 115 165 214 246 295 378
#     4   9  17  31  53  77 102 138 189 249 281 337
#     4   9  17  31  53  80 104 133 191 244 293 334
#     4  11  22  39  67  96 126 168 208 249 311 384
#     4  11  22  37  62  88 118 160 206 257 316 358
#     4  10  20  38  64  95 120 159 213 251 293 375
#     4  11  22  39  64  92 127 161 209 262 307 370
#
# _framework density 21.317198000000001
#
# number of rings (size 3 to 8) (size 9 to 14) (size 15 to 20)
#    0.000    1.714    0.000    6.857    0.000    4.571 
#    0.000    0.000   31.429    0.000    0.000    0.000 
#    0.000    0.000    0.000    0.000    0.000    0.000 
#
# Total GULP energy -173468.819928 kJ/mol
# GULP energy per Si atom -12390.629995 kJ/mol
# Density = 2.126868 g / cm^3
# Si number density = 21.317198 Si / 1000 Ang^3
#
#
#
# Elastic Constant Matrix: (Units=GPa)
#
#
# Indices 1 2 3 4 5 6 
#
# 1 79.0303 32.8171 29.5274 -0.0003 4.2146 -0.0001
# 2 32.8171 99.4913 36.7534 0.0015 14.5497 -0.0028
# 3 29.5274 36.7534 92.2726 -0.0005 -5.1709 -0.0049
# 4 -0.0003 0.0015 -0.0005 41.3935 -0.0007 8.0125
# 5 4.2146 14.5497 -5.1709 -0.0007 14.8044 0.0009
# 6 -0.0001 -0.0028 -0.0049 8.0125 0.0009 36.8148
#
#
#
# Elastic Compliance Matrix: (Units=1/GPa)
#
#
# Indices 1 2 3 4 5 6 
#
# 1 0.015604 -0.003398 -0.003776 0.000000 -0.002421 -0.000001
# 2 -0.003398 0.015927 -0.006201 -0.000001 -0.016851 0.000001
# 3 -0.003776 -0.006201 0.015215 0.000000 0.012483 0.000001
# 4 0.000000 -0.000001 0.000000 0.025221 0.000003 -0.005489
# 5 -0.002421 -0.016851 0.012483 0.000003 0.089158 -0.000003
# 6 -0.000001 0.000001 0.000001 -0.005489 -0.000003 0.028358
#
#
# Mechanical properties :
#
#
# Convention : Reuss Voigt Hill
#
# Bulk Modulus (GPa) = 50.00713 52.11001 51.05857
# Shear Modulus (GPa) = 22.43176 30.04896 26.24036
#
# Velocity S-wave (km/s) = 3.24741 3.75855 3.51229
# Velocity P-wave (km/s) = 6.12947 6.58284 6.36020
#
# Compressibility (1/GPa) = 0.01999715
#
# Stress axis : x y z
#
# Youngs Moduli (GPa) = 64.08525 62.78609 65.72425
#
# Poissons Ratio (x) = 0.21336 0.24814
# Poissons Ratio (y) = 0.21778 0.40755
# Poissons Ratio (z) = 0.24195 0.38933
#
# Static dielectric constant tensor:
#      x y z
#    x 3.744520 0.000000 0.037440 
#    y 0.000000 4.402160 0.000000 
#    z 0.037440 0.000000 3.613720 
# 
# 
# High freq. dielectric constant tensor:
#      x y z
#    x 1.819020 0.000000 0.013400 
#    y 0.000000 1.876030 0.000000 
#    z 0.013400 0.000000 1.804570 
# 
# From -- ./inp_files/16517.got.cif
#   From: 2010.03.12/outbox.cif.g09.slc.cpg/sg4_9_cif.got.tgz:16517.got - 2010.03.31 09:31:35.
