data_PCOD8045792
_publ_section_title
;
Structure prediction by ZEFSAII (Michael W. Deem and Ramdas Pophale) SiO2 
 PCOD8045792
Probable space group: P 21
;
_chemical_formula_sum "Si O2"
_cell_formula_units_Z 16
_cell_length_a 9.719152
_cell_length_b 17.783489
_cell_length_c 5.081944
_cell_angle_alpha 90.000000
_cell_angle_beta 59.869516
_cell_angle_gamma 90.000000
_cell_volume 759.684594
_symmetry_space_group_name_H-M "P 21"
_symmetry_group_IT_number 4
_symmetry_cell_setting 'monoclinic'
loop_
_space_group_symop_operation_xyz
x,y,z
-x,1/2+y,-z
loop_
_atom_site_type_symbol
_atom_site_label
_atom_site_fract_x
_atom_site_fract_y
_atom_site_fract_z
Si Si1 0.936863 0.428330 0.364488
Si Si2 0.876112 0.256709 0.431566
Si Si3 0.439964 0.155522 0.636124
Si Si4 0.355178 0.569483 0.191125
Si Si5 0.861094 0.642117 0.801697
Si Si6 0.339485 0.035004 0.367686
Si Si7 0.711336 0.201420 0.066961
Si Si8 0.061071 0.504889 0.752961
O O1 0.937438 0.339906 0.320041
O O2 0.757793 0.459003 0.484435
O O3 0.986664 0.447947 0.612000
O O4 0.060886 0.464744 0.037395
O O5 0.822181 0.221623 0.206829
O O6 0.017616 0.205336 0.416288
O O7 0.743596 0.257325 0.790652
O O8 0.573164 0.143187 0.731505
O O9 0.400593 0.070191 0.580465
O O10 0.523245 0.207833 0.333431
O O11 0.272535 0.187848 0.900923
O O12 0.240621 0.522272 0.489562
O O13 0.502124 0.517014 0.956665
O O14 0.259778 0.612646 0.044632
O O15 0.774376 0.599142 0.647890
O O16 0.956696 0.580348 0.880624
#
# Coordination Sequence:
#
# PCOD8045792 Si02
#       8
#     2   2   2   2   2   2   2   2
#     4  11  25  43  59  93 129 172 200 259 324 379
#     4  12  25  41  64  90 133 166 210 254 325 373
#     4  10  19  37  63  94 120 152 208 266 310 355
#     4  10  21  37  67  98 117 154 220 261 310 359
#     4  10  21  36  63  94 119 161 207 269 299 371
#     4   9  21  37  63  90 128 157 212 260 311 367
#     4  11  22  39  62  92 118 164 202 268 298 380
#     4  11  22  40  65  89 122 162 213 257 309 370
#
# _framework density 21.061373
#
# number of rings (size 3 to 8) (size 9 to 14) (size 15 to 20)
#    0.000    1.500    3.750    0.750    7.000    0.000 
#    0.000    2.500    0.000    0.000    0.000    0.000 
#    0.000    0.000    0.000    0.000    0.000    0.000 
#
# Total GULP energy -198287.803772 kJ/mol
# GULP energy per Si atom -12392.987736 kJ/mol
# Density = 2.101344 g / cm^3
# Si number density = 21.061373 Si / 1000 Ang^3
#
#
#
# Elastic Constant Matrix: (Units=GPa)
#
#
# Indices 1 2 3 4 5 6 
#
# 1 57.4482 26.4293 27.8707 0.0000 -12.0743 0.0000
# 2 26.4293 97.5244 36.2158 0.0000 -15.0819 0.0000
# 3 27.8707 36.2158 114.7096 0.0000 -7.2391 0.0000
# 4 0.0000 0.0000 0.0000 28.9125 0.0000 -0.2993
# 5 -12.0743 -15.0819 -7.2391 0.0000 30.8905 0.0000
# 6 0.0000 0.0000 0.0000 -0.2993 0.0000 19.4843
#
#
#
# Elastic Compliance Matrix: (Units=1/GPa)
#
#
# Indices 1 2 3 4 5 6 
#
# 1 0.022227 -0.003661 -0.003866 0.000000 0.005994 0.000000
# 2 -0.003661 0.012993 -0.002946 0.000000 0.004222 0.000000
# 3 -0.003866 -0.002946 0.010557 0.000000 -0.000476 0.000000
# 4 0.000000 0.000000 0.000000 0.034593 0.000000 0.000531
# 5 0.005994 0.004222 -0.000476 0.000000 0.036665 0.000000
# 6 0.000000 0.000000 0.000000 0.000531 0.000000 0.051331
#
#
# Mechanical properties :
#
#
# Convention : Reuss Voigt Hill
#
# Bulk Modulus (GPa) = 40.27314 50.07929 45.17622
# Shear Modulus (GPa) = 25.30497 27.80190 26.55343
#
# Velocity S-wave (km/s) = 3.47001 3.63718 3.55458
# Velocity P-wave (km/s) = 5.93447 6.43958 6.19218
#
# Compressibility (1/GPa) = 0.02483044
#
# Stress axis : x y z
#
# Youngs Moduli (GPa) = 44.99091 76.96480 94.72202
#
# Poissons Ratio (x) = 0.28174 0.36623
# Poissons Ratio (y) = 0.16470 0.27907
# Poissons Ratio (z) = 0.17395 0.22675
#
# Static dielectric constant tensor:
#      x y z
#    x 3.861120 0.000000 -0.095900 
#    y 0.000000 3.333600 0.000000 
#    z -0.095900 0.000000 4.126540 
# 
# 
# High freq. dielectric constant tensor:
#      x y z
#    x 1.825080 0.000000 -0.001000 
#    y 0.000000 1.766110 0.000000 
#    z -0.001000 0.000000 1.851420 
# 
# From -- ./inp_files/1770.got.cif
#   From: 2010.03.12/outbox.cif.g09.slc.cpg/sg4_1_cif.got.tgz:1770.got - 2010.03.31 09:31:35.
