data_PCOD8045837
_publ_section_title
;
Structure prediction by ZEFSAII (Michael W. Deem and Ramdas Pophale) SiO2 
 PCOD8045837
Probable space group: P 21
;
_chemical_formula_sum "Si O2"
_cell_formula_units_Z 16
_cell_length_a 9.768949
_cell_length_b 9.245775
_cell_length_c 12.297615
_cell_angle_alpha 90.000000
_cell_angle_beta 34.938365
_cell_angle_gamma 90.000000
_cell_volume 636.114628
_symmetry_space_group_name_H-M "P 21"
_symmetry_group_IT_number 4
_symmetry_cell_setting 'monoclinic'
loop_
_space_group_symop_operation_xyz
x,y,z
-x,1/2+y,-z
loop_
_atom_site_type_symbol
_atom_site_label
_atom_site_fract_x
_atom_site_fract_y
_atom_site_fract_z
Si Si1 0.127697 0.553930 0.752791
Si Si2 0.025314 0.946958 0.548803
Si Si3 0.507732 0.822217 0.252634
Si Si4 0.140518 0.575732 0.989212
Si Si5 0.618382 0.557159 0.329872
Si Si6 0.581156 0.096687 0.876938
Si Si7 0.302739 0.871298 0.926431
Si Si8 0.869256 0.644110 0.710882
O O1 0.099323 0.626764 0.889954
O O2 0.407283 0.518100 0.551815
O O3 0.011363 0.653814 0.733630
O O4 0.969738 0.408762 0.861128
O O5 0.911492 0.788142 0.614802
O O6 0.291223 0.931933 0.425427
O O7 0.855640 0.056369 0.730718
O O8 0.031108 0.008437 0.421978
O O9 0.555008 0.711819 0.318618
O O10 0.433138 0.733369 0.193939
O O11 0.740542 0.918321 0.078182
O O12 0.312529 0.697392 0.929757
O O13 0.879113 0.568041 0.216840
O O14 0.631767 0.426363 0.236072
O O15 0.487627 0.946817 0.886325
O O16 0.416628 0.129246 0.087744
#
# Coordination Sequence:
#
# PCOD8045837 Si02
#       8
#     2   2   2   2   2   2   2   2
#     4  10  21  44  68  98 138 185 232 283 355 422
#     4  12  24  47  74 103 145 182 241 307 351 418
#     4  11  24  46  69 105 148 185 234 295 353 418
#     4  11  24  40  68 106 142 184 237 288 347 421
#     4  10  19  41  64  93 139 186 227 285 349 400
#     4  10  24  46  70 101 147 192 228 288 368 425
#     4   9  21  39  64  98 139 179 229 290 341 416
#     4  11  25  45  75 102 138 191 240 298 362 418
#
# _framework density 25.152699999999999
#
# number of rings (size 3 to 8) (size 9 to 14) (size 15 to 20)
#    0.000    1.500    2.500    3.000    3.500    2.000 
#    2.250    2.500    0.000    0.000    0.000    0.000 
#    0.000    0.000    0.000    0.000    0.000    0.000 
#
# Total GULP energy -198316.253876 kJ/mol
# GULP energy per Si atom -12394.765867 kJ/mol
# Density = 2.509545 g / cm^3
# Si number density = 25.152700 Si / 1000 Ang^3
#
#
#
# Elastic Constant Matrix: (Units=GPa)
#
#
# Indices 1 2 3 4 5 6 
#
# 1 45.5712 27.8412 20.6743 0.0000 -20.2194 0.0000
# 2 27.8412 101.2878 32.6795 0.0000 -9.1265 0.0000
# 3 20.6743 32.6795 177.4374 0.0000 -29.0644 0.0000
# 4 0.0000 0.0000 0.0000 38.0552 0.0000 -17.1337
# 5 -20.2194 -9.1265 -29.0644 0.0000 31.3431 0.0000
# 6 0.0000 0.0000 0.0000 -17.1337 0.0000 24.7287
#
#
#
# Elastic Compliance Matrix: (Units=1/GPa)
#
#
# Indices 1 2 3 4 5 6 
#
# 1 0.036287 -0.008291 0.000870 0.000000 0.021802 0.000000
# 2 -0.008291 0.012450 -0.001897 0.000000 -0.003483 0.000000
# 3 0.000870 -0.001897 0.006939 0.000000 0.006444 0.000000
# 4 0.000000 0.000000 0.000000 0.038192 0.000000 0.026462
# 5 0.021802 -0.003483 0.006444 0.000000 0.050930 0.000000
# 6 0.000000 0.000000 0.000000 0.026462 0.000000 0.058773
#
#
# Mechanical properties :
#
#
# Convention : Reuss Voigt Hill
#
# Bulk Modulus (GPa) = 26.99750 54.07627 40.53688
# Shear Modulus (GPa) = 21.31701 35.03218 28.17459
#
# Velocity S-wave (km/s) = 2.91435 3.73605 3.35048
# Velocity P-wave (km/s) = 4.69908 6.33692 5.57844
#
# Compressibility (1/GPa) = 0.03704047
#
# Stress axis : x y z
#
# Youngs Moduli (GPa) = 27.55798 80.32051 144.10572
#
# Poissons Ratio (x) = 0.66591 -0.12537
# Poissons Ratio (y) = 0.22847 0.27343
# Poissons Ratio (z) = -0.02398 0.15240
#
# Static dielectric constant tensor:
#      x y z
#    x 4.252400 0.000000 -0.264400 
#    y 0.000000 4.268460 0.000000 
#    z -0.264400 0.000000 4.969270 
# 
# 
# High freq. dielectric constant tensor:
#      x y z
#    x 1.975490 0.000000 -0.020290 
#    y 0.000000 1.995170 0.000000 
#    z -0.020290 0.000000 2.021300 
# 
# From -- ./inp_files/13931.got.cif
#   From: 2010.03.12/outbox.cif.g09.slc.cpg/sg4_7_cif.got.tgz:13931.got - 2010.03.31 09:31:35.
