data_PCOD8045444
_publ_section_title
;
Structure prediction by ZEFSAII (Michael W. Deem and Ramdas Pophale) SiO2 
 PCOD8045444
Probable space group: P 2
;
_chemical_formula_sum "Si O2"
_cell_formula_units_Z 13
_cell_length_a 7.722046
_cell_length_b 9.089626
_cell_length_c 11.620369
_cell_angle_alpha 90.000000
_cell_angle_beta 42.160082
_cell_angle_gamma 90.000000
_cell_volume 547.460831
_symmetry_space_group_name_H-M "P 2"
_symmetry_group_IT_number 3
_symmetry_cell_setting 'monoclinic'
loop_
_space_group_symop_operation_xyz
x,y,z
-x,y,-z
loop_
_atom_site_type_symbol
_atom_site_label
_atom_site_fract_x
_atom_site_fract_y
_atom_site_fract_z
Si Si1 0.371496 0.783120 0.177595
Si Si2 0.626523 0.218851 0.162884
Si Si3 0.898116 0.072332 0.208326
Si Si4 0.508801 0.476880 0.624085
Si Si5 0.000000 0.578901 0.500000
Si Si6 0.865446 0.080427 0.683525
Si Si7 0.237874 0.763772 0.817787
O O1 0.570093 0.826862 0.180184
O O2 0.155028 0.674201 0.330801
O O3 0.252270 0.937430 0.197090
O O4 0.500000 0.711504 0.000000
O O5 0.647476 0.386910 0.199498
O O6 0.355289 0.201992 0.229508
O O7 0.633217 0.127314 0.279953
O O8 0.860325 0.156496 0.971531
O O9 0.917466 0.128135 0.330735
O O10 0.883467 0.894539 0.201158
O O11 0.500000 0.407032 0.500000
O O12 0.805284 0.479624 0.521349
O O13 0.385111 0.639697 0.672134
O O14 0.000000 0.034483 0.500000
O O15 0.000000 0.686364 0.000000
#
# Coordination Sequence:
#
# PCOD8045444 Si02
#       7
#     2   2   2   2   1   2   2
#     4  11  22  42  72 108 149 188 245 313 374 437
#     4  11  25  48  65 108 141 197 247 296 381 449
#     4  11  24  45  75 104 145 181 256 317 361 448
#     4  11  29  46  72 101 156 201 243 307 382 458
#     4  10  26  50  66 110 148 194 260 296 376 456
#     4  12  25  40  73 106 143 193 245 315 378 428
#     4  11  22  44  71 111 140 190 251 306 372 445
#
# _framework density 23.745992999999999
#
# number of rings (size 3 to 8) (size 9 to 14) (size 15 to 20)
#    0.000    0.923    3.846    2.308    9.692    0.000 
#    0.000    6.154    0.000    0.000    0.000    0.000 
#    0.000    0.000    0.000    0.000    0.000    0.000 
#
# Total GULP energy -161067.898783 kJ/mol
# GULP energy per Si atom -12389.838368 kJ/mol
# Density = 2.369195 g / cm^3
# Si number density = 23.745993 Si / 1000 Ang^3
#
#
#
# Elastic Constant Matrix: (Units=GPa)
#
#
# Indices 1 2 3 4 5 6 
#
# 1 145.3644 33.1352 37.2723 0.0000 20.5046 0.0000
# 2 33.1352 87.7847 31.5496 0.0000 6.9567 0.0000
# 3 37.2723 31.5496 107.3466 0.0000 13.2906 0.0000
# 4 0.0000 0.0000 0.0000 26.0140 0.0000 -5.7712
# 5 20.5046 6.9567 13.2906 0.0000 41.3499 0.0000
# 6 0.0000 0.0000 0.0000 -5.7712 0.0000 28.7701
#
#
#
# Elastic Compliance Matrix: (Units=1/GPa)
#
#
# Indices 1 2 3 4 5 6 
#
# 1 0.008302 -0.002223 -0.001839 0.000000 -0.003152 0.000000
# 2 -0.002223 0.013370 -0.003141 0.000000 -0.000138 0.000000
# 3 -0.001839 -0.003141 0.011142 0.000000 -0.002141 0.000000
# 4 0.000000 0.000000 0.000000 0.040231 0.000000 0.008070
# 5 -0.003152 -0.000138 -0.002141 0.000000 0.026458 0.000000
# 6 0.000000 0.000000 0.000000 0.008070 0.000000 0.036377
#
#
# Mechanical properties :
#
#
# Convention : Reuss Voigt Hill
#
# Bulk Modulus (GPa) = 54.32060 60.48999 57.40529
# Shear Modulus (GPa) = 31.96459 35.12935 33.54697
#
# Velocity S-wave (km/s) = 3.67291 3.85044 3.76272
# Velocity P-wave (km/s) = 6.39628 6.73030 6.56541
#
# Compressibility (1/GPa) = 0.01840922
#
# Stress axis : x y z
#
# Youngs Moduli (GPa) = 120.45141 74.79284 89.74807
#
# Poissons Ratio (x) = 0.16626 0.16505
# Poissons Ratio (y) = 0.26776 0.28187
# Poissons Ratio (z) = 0.22152 0.23490
#
# Static dielectric constant tensor:
#      x y z
#    x 4.848940 0.000000 -0.078250 
#    y 0.000000 3.984640 0.000000 
#    z -0.078250 0.000000 4.121840 
# 
# 
# High freq. dielectric constant tensor:
#      x y z
#    x 1.964950 0.000000 -0.000660 
#    y 0.000000 1.919600 0.000000 
#    z -0.000660 0.000000 1.931220 
# 
# From -- ./inp_files/10652.got.cif
#   From: 2010.03.12/outbox.cif.g09.slc.cpg/sg3_6_cif.got.tgz:10652.got - 2010.03.31 09:20:49.
