data_PCOD8045076
_publ_section_title
;
Structure prediction by ZEFSAII (Michael W. Deem and Ramdas Pophale) SiO2 
 PCOD8045076
Probable space group: P 2
;
_chemical_formula_sum "Si O2"
_cell_formula_units_Z 14
_cell_length_a 11.588068
_cell_length_b 9.353000
_cell_length_c 9.458147
_cell_angle_alpha 90.000000
_cell_angle_beta 143.257615
_cell_angle_gamma 90.000000
_cell_volume 613.235913
_symmetry_space_group_name_H-M "P 2"
_symmetry_group_IT_number 3
_symmetry_cell_setting 'monoclinic'
loop_
_space_group_symop_operation_xyz
x,y,z
-x,y,-z
loop_
_atom_site_type_symbol
_atom_site_label
_atom_site_fract_x
_atom_site_fract_y
_atom_site_fract_z
Si Si1 0.693181 0.942800 0.759388
Si Si2 0.280696 0.263929 0.170198
Si Si3 0.463035 0.845093 0.116333
Si Si4 0.687946 0.419542 0.537704
Si Si5 0.207328 0.738069 0.368481
Si Si6 0.980610 0.339051 0.329252
Si Si7 0.117982 0.653929 0.750294
O O1 0.500000 0.881208 0.500000
O O2 0.679537 0.931291 0.917052
O O3 0.838161 0.838044 0.814561
O O4 0.714165 0.109969 0.747394
O O5 0.486048 0.333794 0.328436
O O6 0.195843 0.366684 0.208600
O O7 0.139381 0.244272 0.898588
O O8 0.669560 0.821211 0.391373
O O9 0.500000 0.922753 0.000000
O O10 0.340781 0.701919 0.963872
O O11 0.673195 0.590961 0.542606
O O12 0.805758 0.376874 0.514479
O O13 0.993739 0.703746 0.217786
O O14 0.000000 0.258791 0.500000
O O15 0.861480 0.483892 0.235355
O O16 0.000000 0.713215 0.500000
#
# Coordination Sequence:
#
# PCOD8045076 Si02
#       7
#     2   2   2   2   2   2   2
#     4  10  23  43  63  93 126 161 212 262 311 371
#     4  11  22  44  64  91 128 168 209 257 317 374
#     4  11  22  39  64  91 124 169 199 258 320 369
#     4  10  22  40  68  95 121 168 209 258 319 364
#     4  10  22  40  65  96 125 157 214 263 305 376
#     4  10  23  41  62  95 130 162 210 262 308 380
#     4  10  20  39  62  96 127 157 209 259 311 364
#
# _framework density 22.829713000000002
#
# number of rings (size 3 to 8) (size 9 to 14) (size 15 to 20)
#    0.000    1.714    2.857    1.286    8.000    1.143 
#    7.714    0.714    0.000    0.000    0.000    0.000 
#    0.000    0.000    0.000    0.000    0.000    0.000 
#
# Total GULP energy -173436.574868 kJ/mol
# GULP energy per Si atom -12388.326776 kJ/mol
# Density = 2.277775 g / cm^3
# Si number density = 22.829713 Si / 1000 Ang^3
#
#
#
# Elastic Constant Matrix: (Units=GPa)
#
#
# Indices 1 2 3 4 5 6 
#
# 1 109.7451 29.9845 27.4207 0.0000 -32.6598 0.0000
# 2 29.9845 89.9974 11.5747 0.0000 -10.2317 0.0000
# 3 27.4207 11.5747 77.0499 0.0000 -21.5755 0.0000
# 4 0.0000 0.0000 0.0000 16.5663 0.0000 -12.7768
# 5 -32.6598 -10.2317 -21.5755 0.0000 45.4901 0.0000
# 6 0.0000 0.0000 0.0000 -12.7768 0.0000 1.7417
#
#
#
# Elastic Compliance Matrix: (Units=1/GPa)
#
#
# Indices 1 2 3 4 5 6 
#
# 1 0.012677 -0.003123 -0.001949 0.000000 0.007474 0.000000
# 2 -0.003123 0.012261 -0.000676 0.000000 0.000195 0.000000
# 3 -0.001949 -0.000676 0.015382 0.000000 0.005744 0.000000
# 4 0.000000 0.000000 0.000000 -0.012959 0.000000 -0.095070
# 5 0.007474 0.000195 0.005744 0.000000 0.030117 0.000000
# 6 0.000000 0.000000 0.000000 -0.095070 0.000000 -0.123266
#
#
# Mechanical properties :
#
#
# Convention : Reuss Voigt Hill
#
# Bulk Modulus (GPa) = 34.69374 46.08357 40.38866
# Shear Modulus (GPa) = -111.89641 26.61377 -42.64132
#
# Velocity S-wave (km/s) = -7.00856 3.41801 -4.32649
# Velocity P-wave (km/s) = 7.08967 5.98387 2.68856
#
# Compressibility (1/GPa) = 0.02882364
#
# Stress axis : x y z
#
# Youngs Moduli (GPa) = 78.88489 81.55919 65.00965
#
# Poissons Ratio (x) = 0.25471 0.12672
# Poissons Ratio (y) = 0.24636 0.04394
# Poissons Ratio (z) = 0.15377 0.05512
#
# Static dielectric constant tensor:
#      x y z
#    x 4.385800 0.000000 -0.339930 
#    y 0.000000 3.739960 0.000000 
#    z -0.339930 0.000000 4.095680 
# 
# 
# High freq. dielectric constant tensor:
#      x y z
#    x 1.912320 0.000000 -0.007030 
#    y 0.000000 1.870110 0.000000 
#    z -0.007030 0.000000 1.899950 
# 
# From -- ./inp_files/7584.got.cif
#   From: 2010.03.12/outbox.cif.g09.slc.cpg/sg3_4_cif.got.tgz:7584.got - 2010.03.31 09:20:49.
