data_PCOD8045549
_publ_section_title
;
Structure prediction by ZEFSAII (Michael W. Deem and Ramdas Pophale) SiO2 
 PCOD8045549
Probable space group: P 2
;
_chemical_formula_sum "Si O2"
_cell_formula_units_Z 14
_cell_length_a 14.149111
_cell_length_b 6.227195
_cell_length_c 18.056047
_cell_angle_alpha 90.000000
_cell_angle_beta 157.221737
_cell_angle_gamma 90.000000
_cell_volume 615.944108
_symmetry_space_group_name_H-M "P 2"
_symmetry_group_IT_number 3
_symmetry_cell_setting 'monoclinic'
loop_
_space_group_symop_operation_xyz
x,y,z
-x,y,-z
loop_
_atom_site_type_symbol
_atom_site_label
_atom_site_fract_x
_atom_site_fract_y
_atom_site_fract_z
Si Si1 0.847479 0.228530 0.954183
Si Si2 0.278736 0.901422 0.009061
Si Si3 0.107633 0.580483 0.229348
Si Si4 0.754860 0.822803 0.288181
Si Si5 0.500000 0.489298 0.000000
Si Si6 0.500000 0.922313 0.500000
Si Si7 0.357676 0.261073 0.521558
Si Si8 0.873124 0.134133 0.243859
O O1 0.592928 0.324515 0.740195
O O2 0.811771 0.074461 0.997621
O O3 0.000000 0.105359 0.000000
O O4 0.036345 0.415504 0.113715
O O5 0.573043 0.887778 0.224166
O O6 0.209471 0.962886 0.875958
O O7 0.149238 0.672946 0.927239
O O8 0.270149 0.772319 0.313021
O O9 0.262997 0.464583 0.406450
O O10 0.621599 0.632533 0.150140
O O11 0.823668 0.029832 0.288271
O O12 0.000000 0.726688 0.500000
O O13 0.711382 0.346062 0.116162
O O14 0.426281 0.064931 0.517100
O O15 0.155733 0.188675 0.435163
#
# Coordination Sequence:
#
# PCOD8045549 Si02
#       8
#     2   2   2   2   1   1   2   2
#     4  12  27  46  70 107 144 186 244 299 355 422
#     4  12  24  49  74 101 151 190 234 298 361 417
#     4  12  25  45  74 100 142 187 242 294 356 423
#     4  12  27  46  73 112 142 189 243 290 354 429
#     4  12  24  46  76 102 148 186 238 296 354 422
#     4  12  24  46  74  96 144 188 234 296 360 420
#     4  12  26  46  71 105 138 189 238 292 356 425
#     4  12  24  48  75 103 149 189 233 296 362 418
#
# _framework density 22.729337000000001
#
# number of rings (size 3 to 8) (size 9 to 14) (size 15 to 20)
#    0.000    0.000    5.714    4.714    0.000    4.571 
#    0.000    1.429    0.000    0.000    0.000    0.000 
#    0.000    0.000    0.000    0.000    0.000    0.000 
#
# Total GULP energy -173630.195023 kJ/mol
# GULP energy per Si atom -12402.156787 kJ/mol
# Density = 2.267760 g / cm^3
# Si number density = 22.729337 Si / 1000 Ang^3
#
#
#
# Elastic Constant Matrix: (Units=GPa)
#
#
# Indices 1 2 3 4 5 6 
#
# 1 99.2702 43.7488 44.9178 0.0000 25.5627 0.0000
# 2 43.7488 98.6862 35.4026 0.0000 3.6112 0.0000
# 3 44.9178 35.4026 150.3472 0.0000 6.1557 0.0000
# 4 0.0000 0.0000 0.0000 88.5731 0.0000 20.1766
# 5 25.5627 3.6112 6.1557 0.0000 48.4972 0.0000
# 6 0.0000 0.0000 0.0000 20.1766 0.0000 16.0126
#
#
#
# Elastic Compliance Matrix: (Units=1/GPa)
#
#
# Indices 1 2 3 4 5 6 
#
# 1 0.015933 -0.005669 -0.003115 0.000000 -0.007581 0.000000
# 2 -0.005669 0.013097 -0.001480 0.000000 0.002201 0.000000
# 3 -0.003115 -0.001480 0.007900 0.000000 0.000749 0.000000
# 4 0.000000 0.000000 0.000000 0.015835 0.000000 -0.019953
# 5 -0.007581 0.002201 0.000749 0.000000 0.024357 0.000000
# 6 0.000000 0.000000 0.000000 -0.019953 0.000000 0.087593
#
#
# Mechanical properties :
#
#
# Convention : Reuss Voigt Hill
#
# Bulk Modulus (GPa) = 60.96943 66.27134 63.62038
# Shear Modulus (GPa) = 26.21778 45.56554 35.89166
#
# Velocity S-wave (km/s) = 3.39997 4.48225 3.97809
# Velocity P-wave (km/s) = 6.50349 7.48381 7.01081
#
# Compressibility (1/GPa) = 0.01640166
#
# Stress axis : x y z
#
# Youngs Moduli (GPa) = 62.76168 76.35552 126.58458
#
# Poissons Ratio (x) = 0.43282 0.39432
# Poissons Ratio (y) = 0.35577 0.18740
# Poissons Ratio (z) = 0.19551 0.11304
#
# Static dielectric constant tensor:
#      x y z
#    x 2.690610 0.000000 -1.109000 
#    y 0.000000 4.065360 0.000000 
#    z -1.109000 0.000000 3.114300 
# 
# 
# High freq. dielectric constant tensor:
#      x y z
#    x 1.899470 0.000000 0.021000 
#    y 0.000000 1.893780 0.000000 
#    z 0.021000 0.000000 1.919020 
# 
# From -- ./inp_files/16051.got.cif
#   From: 2010.03.12/outbox.cif.g09.slc.cpg/sg3_9_cif.got.tgz:16051.got - 2010.03.31 09:20:49.
