data_PCOD8045184
_publ_section_title
;
Structure prediction by ZEFSAII (Michael W. Deem and Ramdas Pophale) SiO2 
 PCOD8045184
Probable space group: P 2
;
_chemical_formula_sum "Si O2"
_cell_formula_units_Z 16
_cell_length_a 9.290718
_cell_length_b 9.690691
_cell_length_c 17.405434
_cell_angle_alpha 90.000000
_cell_angle_beta 29.119968
_cell_angle_gamma 90.000000
_cell_volume 762.599586
_symmetry_space_group_name_H-M "P 2"
_symmetry_group_IT_number 3
_symmetry_cell_setting 'monoclinic'
loop_
_space_group_symop_operation_xyz
x,y,z
-x,y,-z
loop_
_atom_site_type_symbol
_atom_site_label
_atom_site_fract_x
_atom_site_fract_y
_atom_site_fract_z
Si Si1 0.615474 0.023500 0.369274
Si Si2 0.674447 0.264909 0.838697
Si Si3 0.701048 0.770121 0.793943
Si Si4 0.012759 0.032125 0.406619
Si Si5 0.786150 0.329811 0.326807
Si Si6 0.531361 0.509239 0.168259
Si Si7 0.180054 0.539153 0.816850
Si Si8 0.954363 0.792185 0.843847
O O1 0.500000 0.947690 0.500000
O O2 0.759883 0.168082 0.324197
O O3 0.335701 0.040949 0.445798
O O4 0.881771 0.934117 0.210816
O O5 0.788438 0.128448 0.741688
O O6 0.502692 0.359447 0.856425
O O7 0.948841 0.357415 0.737637
O O8 0.500000 0.226690 0.000000
O O9 0.710037 0.617042 0.752090
O O10 0.887139 0.769865 0.785408
O O11 0.850713 0.879121 0.665963
O O12 0.355492 0.802955 0.967269
O O13 0.000000 0.082475 0.500000
O O14 0.500000 0.395052 0.500000
O O15 0.846298 0.400369 0.218798
O O16 0.533086 0.513446 0.261251
O O17 0.863535 0.560993 0.003150
O O18 0.194144 0.675553 0.757163
#
# Coordination Sequence:
#
# PCOD8045184 Si02
#       8
#     2   2   2   2   2   2   2   2
#     4  11  22  43  62  92 130 171 217 268 325 398
#     4  12  24  43  73  97 129 180 231 271 328 399
#     4  10  22  42  68  98 127 172 222 271 329 393
#     4  12  28  45  65  99 143 174 216 285 343 389
#     4  11  22  41  65  93 130 170 217 271 327 400
#     4  10  23  41  65  98 133 165 219 281 327 387
#     4  10  22  41  63  96 133 168 214 275 332 383
#     4  10  21  39  72  94 123 169 228 268 314 398
#
# _framework density 20.980867
#
# number of rings (size 3 to 8) (size 9 to 14) (size 15 to 20)
#    0.000    1.250    5.000    0.750    8.750    0.500 
#    2.250    0.625    0.000    0.000    0.000    0.000 
#    0.000    0.000    0.000    0.000    0.000    0.000 
#
# Total GULP energy -198219.194517 kJ/mol
# GULP energy per Si atom -12388.699657 kJ/mol
# Density = 2.093311 g / cm^3
# Si number density = 20.980867 Si / 1000 Ang^3
#
#
#
# Elastic Constant Matrix: (Units=GPa)
#
#
# Indices 1 2 3 4 5 6 
#
# 1 144.0789 40.2157 37.8384 0.0000 -5.6562 0.0000
# 2 40.2157 86.0206 22.2092 0.0000 1.1482 0.0000
# 3 37.8384 22.2092 60.8207 0.0000 -2.1273 0.0000
# 4 0.0000 0.0000 0.0000 67.2832 0.0000 -64.2212
# 5 -5.6562 1.1482 -2.1273 0.0000 29.9132 0.0000
# 6 0.0000 0.0000 0.0000 -64.2212 0.0000 118.6443
#
#
#
# Elastic Compliance Matrix: (Units=1/GPa)
#
#
# Indices 1 2 3 4 5 6 
#
# 1 0.009029 -0.003096 -0.004433 0.000000 0.001511 0.000000
# 2 -0.003096 0.013918 -0.003203 0.000000 -0.001347 0.000000
# 3 -0.004433 -0.003203 0.020395 0.000000 0.000735 0.000000
# 4 0.000000 0.000000 0.000000 0.030750 0.000000 0.016644
# 5 0.001511 -0.001347 0.000735 0.000000 0.033820 0.000000
# 6 0.000000 0.000000 0.000000 0.016644 0.000000 0.017438
#
#
# Mechanical properties :
#
#
# Convention : Reuss Voigt Hill
#
# Bulk Modulus (GPa) = 45.71238 54.60520 50.15879
# Shear Modulus (GPa) = 32.44516 55.87861 44.16188
#
# Velocity S-wave (km/s) = 3.93672 5.16633 4.59286
# Velocity P-wave (km/s) = 6.51909 7.85306 7.21697
#
# Compressibility (1/GPa) = 0.02187591
#
# Stress axis : x y z
#
# Youngs Moduli (GPa) = 110.75967 71.85100 49.03121
#
# Poissons Ratio (x) = 0.22249 0.21737
# Poissons Ratio (y) = 0.34297 0.15704
# Poissons Ratio (z) = 0.49104 0.23013
#
# Static dielectric constant tensor:
#      x y z
#    x 3.942020 0.000000 -0.631780 
#    y 0.000000 3.659130 0.000000 
#    z -0.631780 0.000000 2.885050 
# 
# 
# High freq. dielectric constant tensor:
#      x y z
#    x 1.832880 0.000000 -0.010150 
#    y 0.000000 1.816970 0.000000 
#    z -0.010150 0.000000 1.810100 
# 
# From -- ./inp_files/15034.got.cif
#   From: 2010.03.12/outbox.cif.g09.slc.cpg/sg3_8_cif.got.tgz:15034.got - 2010.03.31 09:20:49.
