data_PCOD8045218
_publ_section_title
;
Structure prediction by ZEFSAII (Michael W. Deem and Ramdas Pophale) SiO2 
 PCOD8045218
Probable space group: P 2
;
_chemical_formula_sum "Si O2"
_cell_formula_units_Z 12
_cell_length_a 5.082873
_cell_length_b 5.519434
_cell_length_c 24.394462
_cell_angle_alpha 90.000000
_cell_angle_beta 142.743090
_cell_angle_gamma 90.000000
_cell_volume 414.314639
_symmetry_space_group_name_H-M "P 2"
_symmetry_group_IT_number 3
_symmetry_cell_setting 'monoclinic'
loop_
_space_group_symop_operation_xyz
x,y,z
-x,y,-z
loop_
_atom_site_type_symbol
_atom_site_label
_atom_site_fract_x
_atom_site_fract_y
_atom_site_fract_z
Si Si1 0.387244 0.056510 0.918624
Si Si2 0.500000 0.198963 0.500000
Si Si3 0.443600 0.049655 0.713841
Si Si4 0.601497 0.546475 0.252064
Si Si5 0.629827 0.558830 0.129670
Si Si6 0.509368 0.910419 0.401577
Si Si7 0.000000 0.475780 0.500000
O O1 0.589977 0.319291 0.934436
O O2 0.872701 0.077404 0.822254
O O3 0.595833 0.819688 0.922020
O O4 0.500000 0.014373 0.000000
O O5 0.891396 0.346958 0.538582
O O6 0.253787 0.030606 0.412675
O O7 0.201254 0.310375 0.684564
O O8 0.167238 0.809973 0.693961
O O9 0.598657 0.013393 0.676471
O O10 0.631324 0.503074 0.193316
O O11 0.116050 0.600031 0.190140
O O12 0.553607 0.619674 0.409724
O O13 0.000000 0.004162 0.500000
#
# Coordination Sequence:
#
# PCOD8045218 Si02
#       7
#     2   1   2   2   2   2   1
#     4  10  21  42  67 101 135 180 227 284 346 414
#     4  12  22  48  72 102 144 192 240 308 364 444
#     4  10  23  44  68  99 139 182 229 291 346 424
#     4  10  22  43  64 101 129 179 225 279 343 409
#     4  10  21  42  65  95 133 175 223 281 336 410
#     4  10  25  46  65 108 135 187 240 297 359 437
#     4  10  24  44  72 102 140 194 236 306 368 436
#
# _framework density 28.963491999999999
#
# number of rings (size 3 to 8) (size 9 to 14) (size 15 to 20)
#    0.500    1.333    0.833    2.000    2.333    0.000 
#   18.000   20.000    0.000    0.000    0.000    0.000 
#    0.000    0.000    0.000    0.000    0.000    0.000 
#
# Total GULP energy -148667.378680 kJ/mol
# GULP energy per Si atom -12388.948223 kJ/mol
# Density = 2.889757 g / cm^3
# Si number density = 28.963492 Si / 1000 Ang^3
#
#
#
# Elastic Constant Matrix: (Units=GPa)
#
#
# Indices 1 2 3 4 5 6 
#
# 1 128.9863 55.3667 47.7271 0.0000 -48.0616 0.0001
# 2 55.3667 285.7372 63.9185 0.0000 -33.1582 0.0001
# 3 47.7271 63.9185 176.3868 0.0002 -39.9389 0.0004
# 4 0.0000 0.0000 0.0002 -17.1047 0.0000 -114.9783
# 5 -48.0616 -33.1582 -39.9389 0.0000 64.4672 0.0000
# 6 0.0001 0.0001 0.0004 -114.9783 0.0000 -151.8460
#
#
#
# Elastic Compliance Matrix: (Units=1/GPa)
#
#
# Indices 1 2 3 4 5 6 
#
# 1 0.011301 -0.001125 -0.001016 0.000000 0.007217 0.000000
# 2 -0.001125 0.004014 -0.001015 0.000000 0.000597 0.000000
# 3 -0.001016 -0.001015 0.007005 0.000000 0.003060 0.000000
# 4 0.000000 0.000000 0.000000 0.014294 0.000000 -0.010824
# 5 0.007217 0.000597 0.003060 0.000000 0.023095 0.000000
# 6 0.000000 0.000000 0.000000 -0.010824 0.000000 0.001610
#
#
# Mechanical properties :
#
#
# Convention : Reuss Voigt Hill
#
# Bulk Modulus (GPa) = 62.46968 102.79276 82.63122
# Shear Modulus (GPa) = 68.52394 7.37650 37.95022
#
# Velocity S-wave (km/s) = 4.86930 1.59761 3.62370
# Velocity P-wave (km/s) = 7.29580 6.24265 6.78967
#
# Compressibility (1/GPa) = 0.01600777
#
# Stress axis : x y z
#
# Youngs Moduli (GPa) = 88.49062 249.12540 142.75492
#
# Poissons Ratio (x) = 0.28025 0.14504
# Poissons Ratio (y) = 0.09955 0.14490
# Poissons Ratio (z) = 0.08991 0.25286
#
# Static dielectric constant tensor:
#      x y z
#    x 5.535120 0.000000 0.385110 
#    y 0.000000 7.042290 0.000000 
#    z 0.385110 0.000000 5.288050 
# 
# 
# High freq. dielectric constant tensor:
#      x y z
#    x 2.187190 0.000000 0.015510 
#    y 0.000000 2.229030 0.000000 
#    z 0.015510 0.000000 2.195420 
# 
# From -- ./inp_files/15565.got.cif
#   From: 2010.03.12/outbox.cif.g09.slc.cpg/sg3_8_cif.got.tgz:15565.got - 2010.03.31 09:20:49.
