data_PCOD8045327
_publ_section_title
;
Structure prediction by ZEFSAII (Michael W. Deem and Ramdas Pophale) SiO2 
 PCOD8045327
Probable space group: P 2
;
_chemical_formula_sum "Si O2"
_cell_formula_units_Z 13
_cell_length_a 19.211424
_cell_length_b 5.441025
_cell_length_c 5.077977
_cell_angle_alpha 90.000000
_cell_angle_beta 117.901229
_cell_angle_gamma 90.000000
_cell_volume 469.097570
_symmetry_space_group_name_H-M "P 2"
_symmetry_group_IT_number 3
_symmetry_cell_setting 'monoclinic'
loop_
_space_group_symop_operation_xyz
x,y,z
-x,y,-z
loop_
_atom_site_type_symbol
_atom_site_label
_atom_site_fract_x
_atom_site_fract_y
_atom_site_fract_z
Si Si1 0.410458 0.496300 0.753161
Si Si2 0.076556 0.947531 0.243593
Si Si3 0.446618 0.996318 0.651532
Si Si4 0.845963 0.327924 0.240979
Si Si5 0.275180 0.706765 0.820045
Si Si6 0.225656 0.964118 0.237093
Si Si7 0.000000 0.576692 0.500000
O O1 0.386826 0.231536 0.576955
O O2 0.353499 0.546081 0.901935
O O3 0.403240 0.730936 0.541080
O O4 0.500000 0.449900 0.000000
O O5 0.135299 0.100746 0.533001
O O6 0.135156 0.858183 0.110034
O O7 0.035490 0.724063 0.319820
O O8 0.000000 0.099738 0.000000
O O9 0.500000 0.059148 0.500000
O O10 0.500000 0.954229 0.000000
O O11 0.802449 0.536089 0.336948
O O12 0.928654 0.411220 0.262602
O O13 0.787794 0.241885 0.898050
O O14 0.270735 0.927698 0.595268
O O15 0.277564 0.816899 0.116131
#
# Coordination Sequence:
#
# PCOD8045327 Si02
#       7
#     2   2   2   2   2   2   1
#     4  10  25  50  80 121 159 211 273 338 406 491
#     4  12  25  46  75 113 152 203 271 329 391 496
#     4  10  22  43  76 111 156 196 256 326 397 472
#     4  12  26  49  77 113 156 216 261 340 409 487
#     4  12  29  50  78 111 163 212 267 338 414 491
#     4  12  27  52  71 113 156 202 271 325 405 492
#     4  12  24  48  76 114 156 212 266 338 404 488
#
# _framework density 27.712786000000001
#
# number of rings (size 3 to 8) (size 9 to 14) (size 15 to 20)
#    0.000    0.615    3.077    3.692    4.308    6.769 
#    5.538    0.000    0.000    0.000    0.000    0.000 
#    0.000    0.000    0.000    0.000    0.000    0.000 
#
# Total GULP energy -161063.956415 kJ/mol
# GULP energy per Si atom -12389.535109 kJ/mol
# Density = 2.764971 g / cm^3
# Si number density = 27.712786 Si / 1000 Ang^3
#
#
#
# Elastic Constant Matrix: (Units=GPa)
#
#
# Indices 1 2 3 4 5 6 
#
# 1 93.0787 -0.3342 -7.2538 0.0000 -32.1051 0.0000
# 2 -0.3342 156.8992 1.7813 0.0000 -22.5059 0.0000
# 3 -7.2538 1.7813 89.8433 0.0000 -19.8588 0.0000
# 4 0.0000 0.0000 0.0000 3.5530 0.0000 -24.4721
# 5 -32.1051 -22.5059 -19.8588 0.0000 54.0410 0.0000
# 6 0.0000 0.0000 0.0000 -24.4721 0.0000 22.3589
#
#
#
# Elastic Compliance Matrix: (Units=1/GPa)
#
#
# Indices 1 2 3 4 5 6 
#
# 1 0.014698 0.001520 0.003512 0.000000 0.010655 0.000000
# 2 0.001520 0.006959 0.000898 0.000000 0.004131 0.000000
# 3 0.003512 0.000898 0.012996 0.000000 0.007236 0.000000
# 4 0.000000 0.000000 0.000000 -0.043044 0.000000 -0.047112
# 5 0.010655 0.004131 0.007236 0.000000 0.029214 0.000000
# 6 0.000000 0.000000 0.000000 -0.047112 0.000000 -0.006840
#
#
# Mechanical properties :
#
#
# Convention : Reuss Voigt Hill
#
# Bulk Modulus (GPa) = 21.49988 36.46752 28.98370
# Shear Modulus (GPa) = 283.64361 39.03246 161.33803
#
# Velocity S-wave (km/s) = 10.12785 3.75702 7.63834
# Velocity P-wave (km/s) = 12.02246 5.65756 9.39541
#
# Compressibility (1/GPa) = 0.04651189
#
# Stress axis : x y z
#
# Youngs Moduli (GPa) = 68.03626 143.69612 76.94900
#
# Poissons Ratio (x) = -0.21840 -0.27023
# Poissons Ratio (y) = -0.10341 -0.06909
# Poissons Ratio (z) = -0.23893 -0.12902
#
# Static dielectric constant tensor:
#      x y z
#    x 5.592620 0.000000 -0.000280 
#    y 0.000000 5.489300 0.000000 
#    z -0.000280 0.000000 4.650240 
# 
# 
# High freq. dielectric constant tensor:
#      x y z
#    x 2.148920 0.000000 -0.005540 
#    y 0.000000 2.115320 0.000000 
#    z -0.005540 0.000000 2.095850 
# 
# From -- ./inp_files/3529.got.cif
#   From: 2010.03.12/outbox.cif.g09.slc.cpg/sg3_2_cif.got.tgz:3529.got - 2010.03.31 09:20:49.
