data_PCOD8045161
_publ_section_title
;
Structure prediction by ZEFSAII (Michael W. Deem and Ramdas Pophale) SiO2 
 PCOD8045161
Probable space group: P 2
;
_chemical_formula_sum "Si O2"
_cell_formula_units_Z 14
_cell_length_a 15.090400
_cell_length_b 11.340942
_cell_length_c 13.005156
_cell_angle_alpha 90.000000
_cell_angle_beta 161.181932
_cell_angle_gamma 90.000000
_cell_volume 717.929194
_symmetry_space_group_name_H-M "P 2"
_symmetry_group_IT_number 3
_symmetry_cell_setting 'monoclinic'
loop_
_space_group_symop_operation_xyz
x,y,z
-x,y,-z
loop_
_atom_site_type_symbol
_atom_site_label
_atom_site_fract_x
_atom_site_fract_y
_atom_site_fract_z
Si Si1 0.925824 0.168470 0.801386
Si Si2 0.873624 0.629963 0.752130
Si Si3 0.187117 0.430664 0.792979
Si Si4 0.344887 0.763658 0.146765
Si Si5 0.423910 0.020894 0.299671
Si Si6 0.715994 0.698370 0.150743
Si Si7 0.766074 0.401953 0.509402
O O1 0.688580 0.070021 0.530522
O O2 0.836801 0.290144 0.654666
O O3 0.000000 0.195499 0.000000
O O4 0.190336 0.120020 0.032454
O O5 0.632076 0.722372 0.511891
O O6 0.732372 0.515793 0.545403
O O7 0.000000 0.592374 0.000000
O O8 0.094864 0.688982 0.919236
O O9 0.257540 0.558589 0.827240
O O10 0.000000 0.364985 0.500000
O O11 0.015746 0.433061 0.708982
O O12 0.483150 0.371116 0.138651
O O13 0.305539 0.901649 0.122163
O O14 0.372179 0.749210 0.054973
O O15 0.500000 0.993713 0.500000
O O16 0.000000 0.755952 0.500000
O O17 0.500000 0.734185 0.000000
#
# Coordination Sequence:
#
# PCOD8045161 Si02
#       7
#     2   2   2   2   2   2   2
#     4  10  22  39  61  86 116 161 206 239 283 353
#     4  12  23  36  56  91 127 156 185 242 314 369
#     4  11  22  37  60  87 121 153 200 241 295 362
#     4  12  23  39  60  89 122 158 198 249 302 355
#     4  10  21  39  60  84 116 161 208 241 280 351
#     4  11  21  37  59  86 118 154 197 243 293 358
#     4  12  21  39  59  89 122 154 193 246 300 357
#
# _framework density 19.500530000000001
#
# number of rings (size 3 to 8) (size 9 to 14) (size 15 to 20)
#    0.000    0.857    2.857    6.429    0.000    1.143 
#    0.000    4.286    0.000    8.571    0.000    0.000 
#    0.000    0.000    0.000    0.000    0.000    0.000 
#
# Total GULP energy -173633.132338 kJ/mol
# GULP energy per Si atom -12402.366596 kJ/mol
# Density = 1.945615 g / cm^3
# Si number density = 19.500530 Si / 1000 Ang^3
#
#
#
# Elastic Constant Matrix: (Units=GPa)
#
#
# Indices 1 2 3 4 5 6 
#
# 1 80.0923 27.4055 32.3219 0.0000 9.0607 0.0000
# 2 27.4055 89.9034 42.7917 0.0000 -8.9364 0.0000
# 3 32.3219 42.7917 128.2119 0.0000 10.7313 0.0000
# 4 0.0000 0.0000 0.0000 96.7110 0.0000 26.0091
# 5 9.0607 -8.9364 10.7313 0.0000 32.3272 0.0000
# 6 0.0000 0.0000 0.0000 26.0091 0.0000 19.9026
#
#
#
# Elastic Compliance Matrix: (Units=1/GPa)
#
#
# Indices 1 2 3 4 5 6 
#
# 1 0.015275 -0.004141 -0.002072 0.000000 -0.004738 0.000000
# 2 -0.004141 0.015280 -0.004635 0.000000 0.006923 0.000000
# 3 -0.002072 -0.004635 0.010211 0.000000 -0.004090 0.000000
# 4 0.000000 0.000000 0.000000 0.015943 0.000000 -0.020835
# 5 -0.004738 0.006923 -0.004090 0.000000 0.035533 0.000000
# 6 0.000000 0.000000 0.000000 -0.020835 0.000000 0.077473
#
#
# Mechanical properties :
#
#
# Convention : Reuss Voigt Hill
#
# Bulk Modulus (GPa) = 52.44038 55.91618 54.17828
# Shear Modulus (GPa) = 25.28211 42.83408 34.05810
#
# Velocity S-wave (km/s) = 3.60458 4.69183 4.18367
# Velocity P-wave (km/s) = 6.65388 7.62151 7.15408
#
# Compressibility (1/GPa) = 0.01906928
#
# Stress axis : x y z
#
# Youngs Moduli (GPa) = 65.46760 65.44590 97.92996
#
# Poissons Ratio (x) = 0.27101 0.20292
# Poissons Ratio (y) = 0.27110 0.45393
# Poissons Ratio (z) = 0.13565 0.30336
#
# Static dielectric constant tensor:
#      x y z
#    x 3.661420 0.000000 -0.013830 
#    y 0.000000 3.275790 0.000000 
#    z -0.013830 0.000000 3.820630 
# 
# 
# High freq. dielectric constant tensor:
#      x y z
#    x 1.764840 0.000000 0.009350 
#    y 0.000000 1.732230 0.000000 
#    z 0.009350 0.000000 1.781010 
# 
# From -- ./inp_files/3297.got.cif
#   From: 2010.03.12/outbox.cif.g09.slc.cpg/sg3_2_cif.got.tgz:3297.got - 2010.03.31 09:20:49.
