data_PCOD8045548
_publ_section_title
;
Structure prediction by ZEFSAII (Michael W. Deem and Ramdas Pophale) SiO2 
 PCOD8045548
Probable space group: P 2
;
_chemical_formula_sum "Si O2"
_cell_formula_units_Z 10
_cell_length_a 14.660549
_cell_length_b 5.194682
_cell_length_c 13.683657
_cell_angle_alpha 90.000000
_cell_angle_beta 21.396972
_cell_angle_gamma 90.000000
_cell_volume 380.188557
_symmetry_space_group_name_H-M "P 2"
_symmetry_group_IT_number 3
_symmetry_cell_setting 'monoclinic'
loop_
_space_group_symop_operation_xyz
x,y,z
-x,y,-z
loop_
_atom_site_type_symbol
_atom_site_label
_atom_site_fract_x
_atom_site_fract_y
_atom_site_fract_z
Si Si1 0.100149 0.519270 0.006025
Si Si2 0.402117 0.087881 0.288256
Si Si3 0.392015 0.018792 0.714059
Si Si4 0.107423 0.580129 0.583431
Si Si5 0.249093 0.827349 0.189210
O O1 0.162129 0.217718 0.950819
O O2 0.327078 0.719739 0.796388
O O3 0.000000 0.596589 0.000000
O O4 0.904695 0.571741 0.286907
O O5 0.421551 0.103613 0.386302
O O6 0.259501 0.337537 0.390896
O O7 0.247619 0.837696 0.411396
O O8 0.669076 0.063447 0.965258
O O9 0.500000 0.068760 0.500000
O O10 0.836892 0.593270 0.798333
O O11 0.000000 0.903403 0.500000
O O12 0.500000 0.749343 0.000000
#
# Coordination Sequence:
#
# PCOD8045548 Si02
#       5
#     2   2   2   2   2
#     4  12  24  43  73 114 162 211 268 330 410 501
#     4  12  27  52  81 117 163 213 273 347 418 499
#     4  12  24  43  73 114 162 211 268 330 410 501
#     4  12  27  52  81 117 163 213 273 347 418 499
#     4  12  28  58  84 124 164 222 284 358 424 498
#
# _framework density 26.30274
#
# number of rings (size 3 to 8) (size 9 to 14) (size 15 to 20)
#    0.000    0.000    4.000    6.000    0.000    0.000 
#    7.200    0.000    0.000    0.000    0.000    0.000 
#    0.000    0.000    0.000    0.000    0.000    0.000 
#
# Total GULP energy -123911.432651 kJ/mol
# GULP energy per Si atom -12391.143265 kJ/mol
# Density = 2.624287 g / cm^3
# Si number density = 26.302740 Si / 1000 Ang^3
#
#
#
# Elastic Constant Matrix: (Units=GPa)
#
#
# Indices 1 2 3 4 5 6 
#
# 1 179.1183 40.9844 72.1676 0.0000 7.7977 0.0000
# 2 40.9844 156.4229 57.0651 0.0000 -6.2920 0.0000
# 3 72.1676 57.0651 146.7645 0.0000 4.0235 0.0000
# 4 0.0000 0.0000 0.0000 52.3239 0.0000 -11.4341
# 5 7.7977 -6.2920 4.0235 0.0000 45.9764 0.0000
# 6 0.0000 0.0000 0.0000 -11.4341 0.0000 5.4381
#
#
#
# Elastic Compliance Matrix: (Units=1/GPa)
#
#
# Indices 1 2 3 4 5 6 
#
# 1 0.007070 -0.000741 -0.003161 0.000000 -0.001024 0.000000
# 2 -0.000741 0.007603 -0.002630 0.000000 0.001396 0.000000
# 3 -0.003161 -0.002630 0.009408 0.000000 -0.000647 0.000000
# 4 0.000000 0.000000 0.000000 0.035358 0.000000 0.074343
# 5 -0.001024 0.001396 -0.000647 0.000000 0.022172 0.000000
# 6 0.000000 0.000000 0.000000 0.074343 0.000000 0.340204
#
#
# Mechanical properties :
#
#
# Convention : Reuss Voigt Hill
#
# Bulk Modulus (GPa) = 90.75751 91.41552 91.08651
# Shear Modulus (GPa) = 11.40121 41.55358 26.47740
#
# Velocity S-wave (km/s) = 2.08423 3.97901 3.17620
# Velocity P-wave (km/s) = 6.35389 7.47934 6.93947
#
# Compressibility (1/GPa) = 0.01101837
#
# Stress axis : x y z
#
# Youngs Moduli (GPa) = 141.43517 131.53286 106.29040
#
# Poissons Ratio (x) = 0.09742 0.33594
# Poissons Ratio (y) = 0.10476 0.27956
# Poissons Ratio (z) = 0.44702 0.34595
#
# Static dielectric constant tensor:
#      x y z
#    x 5.394030 0.000000 0.123810 
#    y 0.000000 4.729670 0.000000 
#    z 0.123810 0.000000 4.924300 
# 
# 
# High freq. dielectric constant tensor:
#      x y z
#    x 2.084490 0.000000 0.010560 
#    y 0.000000 2.046570 0.000000 
#    z 0.010560 0.000000 2.049600 
# 
# From -- ./inp_files/13819.got.cif
#   From: 2010.03.12/outbox.cif.g09.slc.cpg/sg3_7_cif.got.tgz:13819.got - 2010.03.31 09:20:49.
