data_PCOD8045236
_publ_section_title
;
Structure prediction by ZEFSAII (Michael W. Deem and Ramdas Pophale) SiO2 
 PCOD8045236
Probable space group: P 2
;
_chemical_formula_sum "Si O2"
_cell_formula_units_Z 15
_cell_length_a 29.321888
_cell_length_b 5.308598
_cell_length_c 10.554917
_cell_angle_alpha 90.000000
_cell_angle_beta 156.326375
_cell_angle_gamma 90.000000
_cell_volume 659.690925
_symmetry_space_group_name_H-M "P 2"
_symmetry_group_IT_number 3
_symmetry_cell_setting 'monoclinic'
loop_
_space_group_symop_operation_xyz
x,y,z
-x,y,-z
loop_
_atom_site_type_symbol
_atom_site_label
_atom_site_fract_x
_atom_site_fract_y
_atom_site_fract_z
Si Si1 0.830708 0.017980 0.856446
Si Si2 0.706012 0.533417 0.859708
Si Si3 0.238060 0.417975 0.714240
Si Si4 0.470765 0.311250 0.174913
Si Si5 0.107653 0.490326 0.858324
Si Si6 0.630685 0.922122 0.500103
Si Si7 0.500000 0.562692 0.000000
Si Si8 0.866094 0.930240 0.659466
O O1 0.710935 0.099291 0.618135
O O2 0.818394 0.008759 0.674544
O O3 0.914980 0.250461 0.106483
O O4 0.870603 0.744784 0.006796
O O5 0.577723 0.435116 0.518340
O O6 0.700286 0.827034 0.801648
O O7 0.756424 0.497119 0.126019
O O8 0.790292 0.403166 0.974579
O O9 0.193573 0.667428 0.530423
O O10 0.159708 0.169505 0.497789
O O11 0.363146 0.332032 0.990469
O O12 0.511390 0.027948 0.248391
O O13 0.437218 0.409634 0.950779
O O14 0.000000 0.550472 0.500000
O O15 0.602267 0.703867 0.328592
O O16 0.000000 0.880635 0.000000
#
# Coordination Sequence:
#
# PCOD8045236 Si02
#       8
#     2   2   2   2   2   2   1   2
#     4  11  24  45  69 104 137 178 239 303 355 417
#     4  10  25  45  68 104 148 185 237 298 364 435
#     4  12  29  47  75 105 146 196 244 288 378 441
#     4  11  23  43  69 108 143 192 236 297 366 434
#     4  11  24  42  75 101 136 186 238 300 364 419
#     4  10  22  41  70 101 146 181 233 301 359 422
#     4  10  22  36  68 100 144 186 232 288 350 430
#     4  12  30  50  75 104 145 197 246 309 359 427
#
# _framework density 22.737919999999999
#
# number of rings (size 3 to 8) (size 9 to 14) (size 15 to 20)
#    0.000    1.067    1.333    3.200   13.067    0.000 
#    0.000    0.000    0.000    0.000    0.000    0.000 
#    0.000    0.000    0.000    0.000    0.000    0.000 
#
# Total GULP energy -185839.418704 kJ/mol
# GULP energy per Si atom -12389.294580 kJ/mol
# Density = 2.268617 g / cm^3
# Si number density = 22.737920 Si / 1000 Ang^3
#
#
#
# Elastic Constant Matrix: (Units=GPa)
#
#
# Indices 1 2 3 4 5 6 
#
# 1 93.9821 40.8970 43.6250 0.0000 -12.9407 0.0000
# 2 40.8970 125.1681 43.7921 0.0000 -13.0549 0.0000
# 3 43.6250 43.7921 107.4953 0.0000 -11.2795 0.0000
# 4 0.0000 0.0000 0.0000 39.7226 0.0000 -3.7300
# 5 -12.9407 -13.0549 -11.2795 0.0000 44.4243 0.0000
# 6 0.0000 0.0000 0.0000 -3.7300 0.0000 25.2896
#
#
#
# Elastic Compliance Matrix: (Units=1/GPa)
#
#
# Indices 1 2 3 4 5 6 
#
# 1 0.014227 -0.002893 -0.004366 0.000000 0.002186 0.000000
# 2 -0.002893 0.010051 -0.002773 0.000000 0.001407 0.000000
# 3 -0.004366 -0.002773 0.012313 0.000000 0.001040 0.000000
# 4 0.000000 0.000000 0.000000 0.025528 0.000000 0.003765
# 5 0.002186 0.001407 0.001040 0.000000 0.023824 0.000000
# 6 0.000000 0.000000 0.000000 0.003765 0.000000 0.040097
#
#
# Mechanical properties :
#
#
# Convention : Reuss Voigt Hill
#
# Bulk Modulus (GPa) = 60.50432 64.80818 62.65625
# Shear Modulus (GPa) = 32.97847 35.10942 34.04395
#
# Velocity S-wave (km/s) = 3.81251 3.93376 3.87361
# Velocity P-wave (km/s) = 6.78583 7.01404 6.90088
#
# Compressibility (1/GPa) = 0.01652775
#
# Stress axis : x y z
#
# Youngs Moduli (GPa) = 70.29057 99.48791 81.21287
#
# Poissons Ratio (x) = 0.28782 0.35455
# Poissons Ratio (y) = 0.20335 0.22521
# Poissons Ratio (z) = 0.30687 0.27589
#
# Static dielectric constant tensor:
#      x y z
#    x 2.763910 0.000000 -2.108810 
#    y 0.000000 4.291160 0.000000 
#    z -2.108810 0.000000 0.967150 
# 
# 
# High freq. dielectric constant tensor:
#      x y z
#    x 1.891910 0.000000 -0.006470 
#    y 0.000000 1.907080 0.000000 
#    z -0.006470 0.000000 1.905270 
# 
# From -- ./inp_files/9633.got.cif
#   From: 2010.03.12/outbox.cif.g09.slc.cpg/sg3_5_cif.got.tgz:9633.got - 2010.03.31 09:20:49.
