data_PCOD8045512
_publ_section_title
;
Structure prediction by ZEFSAII (Michael W. Deem and Ramdas Pophale) SiO2 
 PCOD8045512
Probable space group: P 2
;
_chemical_formula_sum "Si O2"
_cell_formula_units_Z 13
_cell_length_a 8.352865
_cell_length_b 9.643598
_cell_length_c 10.850178
_cell_angle_alpha 90.000000
_cell_angle_beta 141.373946
_cell_angle_gamma 90.000000
_cell_volume 545.581301
_symmetry_space_group_name_H-M "P 2"
_symmetry_group_IT_number 3
_symmetry_cell_setting 'monoclinic'
loop_
_space_group_symop_operation_xyz
x,y,z
-x,y,-z
loop_
_atom_site_type_symbol
_atom_site_label
_atom_site_fract_x
_atom_site_fract_y
_atom_site_fract_z
Si Si1 0.095955 0.910410 0.733680
Si Si2 0.040345 0.200773 0.330475
Si Si3 0.722902 0.193434 0.782842
Si Si4 0.559389 0.933909 0.829121
Si Si5 0.374283 0.709884 0.553855
Si Si6 0.500000 0.322788 0.000000
Si Si7 0.630652 0.412854 0.336623
O O1 0.311750 0.892441 0.760744
O O2 0.903597 0.781686 0.621741
O O3 0.198047 0.935088 0.934065
O O4 0.945824 0.048799 0.601261
O O5 0.254602 0.194994 0.351768
O O6 0.125389 0.317927 0.478966
O O7 0.743940 0.226618 0.107407
O O8 0.625635 0.345972 0.760334
O O9 0.539964 0.076269 0.736444
O O10 0.000000 0.162538 0.000000
O O11 0.582107 0.806959 0.747196
O O12 0.500000 0.673003 0.500000
O O13 0.324447 0.567799 0.594422
O O14 0.592533 0.419001 0.166826
#
# Coordination Sequence:
#
# PCOD8045512 Si02
#       7
#     2   2   2   2   2   1   2
#     4  11  24  46  74 107 145 187 240 301 359 430
#     4  12  24  44  77 107 146 186 243 306 363 430
#     4  12  22  45  77 108 144 187 249 300 362 426
#     4  11  25  46  73 107 143 189 242 299 360 423
#     4  12  28  47  69 102 149 194 242 293 365 439
#     4  12  26  46  74 108 140 190 246 310 364 436
#     4  12  28  49  70 106 144 194 246 300 367 435
#
# _framework density 23.827797
#
# number of rings (size 3 to 8) (size 9 to 14) (size 15 to 20)
#    0.000    0.308    3.077    6.000    0.000    6.154 
#    2.769    0.000    0.000    0.923    0.000    0.000 
#    0.000    0.000    0.000    0.000    0.000    0.000 
#
# Total GULP energy -161188.109413 kJ/mol
# GULP energy per Si atom -12399.085339 kJ/mol
# Density = 2.377356 g / cm^3
# Si number density = 23.827797 Si / 1000 Ang^3
#
#
#
# Elastic Constant Matrix: (Units=GPa)
#
#
# Indices 1 2 3 4 5 6 
#
# 1 126.4170 45.1372 55.5900 0.0000 -5.7477 0.0000
# 2 45.1372 178.1826 52.1828 0.0000 -7.0742 0.0000
# 3 55.5900 52.1828 102.6470 0.0000 -5.4919 0.0000
# 4 0.0000 0.0000 0.0000 36.6328 0.0000 2.2319
# 5 -5.7477 -7.0742 -5.4919 0.0000 51.5607 0.0000
# 6 0.0000 0.0000 0.0000 2.2319 0.0000 -73.2499
#
#
#
# Elastic Compliance Matrix: (Units=1/GPa)
#
#
# Indices 1 2 3 4 5 6 
#
# 1 0.010601 -0.001166 -0.005123 0.000000 0.000476 0.000000
# 2 -0.001166 0.006738 -0.002767 0.000000 0.000500 0.000000
# 3 -0.005123 -0.002767 0.013952 0.000000 0.000535 0.000000
# 4 0.000000 0.000000 0.000000 0.027247 0.000000 0.000830
# 5 0.000476 0.000500 0.000535 0.000000 0.019573 0.000000
# 6 0.000000 0.000000 0.000000 0.000830 0.000000 -0.013627
#
#
# Mechanical properties :
#
#
# Convention : Reuss Voigt Hill
#
# Bulk Modulus (GPa) = 75.88083 79.22962 77.55523
# Shear Modulus (GPa) = 57.47812 19.94449 38.71130
#
# Velocity S-wave (km/s) = 4.91677 2.89628 4.03504
# Velocity P-wave (km/s) = 8.00922 6.67141 7.37073
#
# Compressibility (1/GPa) = 0.01317856
#
# Stress axis : x y z
#
# Youngs Moduli (GPa) = 94.33011 148.41542 71.67566
#
# Poissons Ratio (x) = 0.17310 0.36718
# Poissons Ratio (y) = 0.11002 0.19832
# Poissons Ratio (z) = 0.48323 0.41066
#
# Static dielectric constant tensor:
#      x y z
#    x 4.612600 0.000000 -0.182100 
#    y 0.000000 3.966960 0.000000 
#    z -0.182100 0.000000 4.876520 
# 
# 
# High freq. dielectric constant tensor:
#      x y z
#    x 1.965580 0.000000 -0.004340 
#    y 0.000000 1.925770 0.000000 
#    z -0.004340 0.000000 1.965640 
# 
# From -- ./inp_files/10840.got.cif
#   From: 2010.03.12/outbox.cif.g09.slc.cpg/sg3_6_cif.got.tgz:10840.got - 2010.03.31 09:20:49.
