data_PCOD8045072
_publ_section_title
;
Structure prediction by ZEFSAII (Michael W. Deem and Ramdas Pophale) SiO2 
 PCOD8045072
Probable space group: P 2
;
_chemical_formula_sum "Si O2"
_cell_formula_units_Z 13
_cell_length_a 9.099888
_cell_length_b 8.421908
_cell_length_c 9.083740
_cell_angle_alpha 90.000000
_cell_angle_beta 59.587540
_cell_angle_gamma 90.000000
_cell_volume 600.373891
_symmetry_space_group_name_H-M "P 2"
_symmetry_group_IT_number 3
_symmetry_cell_setting 'monoclinic'
loop_
_space_group_symop_operation_xyz
x,y,z
-x,y,-z
loop_
_atom_site_type_symbol
_atom_site_label
_atom_site_fract_x
_atom_site_fract_y
_atom_site_fract_z
Si Si1 0.660730 0.875000 0.490393
Si Si2 0.500000 0.852846 0.000000
Si Si3 0.791087 0.694863 0.711609
Si Si4 0.848905 0.187114 0.970530
Si Si5 0.003736 0.856400 0.832907
Si Si6 0.834691 0.331893 0.674806
Si Si7 0.514796 0.119444 0.754682
O O1 0.500000 0.775963 0.500000
O O2 0.748164 0.795075 0.587795
O O3 0.800869 0.908544 0.293382
O O4 0.577446 0.047694 0.568877
O O5 0.344940 0.729521 0.091847
O O6 0.511322 0.963809 0.134115
O O7 0.802975 0.514820 0.652755
O O8 0.963306 0.743392 0.712584
O O9 0.866659 0.313154 0.831077
O O10 0.668254 0.207531 0.147589
O O11 0.877209 0.008342 0.893732
O O12 0.000000 0.235877 0.000000
O O13 0.000000 0.778770 0.000000
O O14 0.662329 0.236501 0.732314
O O15 0.000000 0.268827 0.500000
#
# Coordination Sequence:
#
# PCOD8045072 Si02
#       7
#     2   1   2   2   2   2   2
#     4  11  23  41  67  97 129 172 226 278 324 389
#     4  10  20  38  70  94 118 166 226 278 310 388
#     4  11  25  42  66  94 137 175 218 267 344 392
#     4  11  22  40  64  96 128 169 225 275 324 388
#     4  11  22  41  68  97 130 173 225 278 324 384
#     4  12  25  42  64  95 137 181 214 263 338 407
#     4  11  21  42  66  96 126 171 223 272 327 385
#
# _framework density 21.653172000000001
#
# number of rings (size 3 to 8) (size 9 to 14) (size 15 to 20)
#    0.000    0.923    3.077    5.077    4.308    0.615 
#    0.000    3.846    0.000    0.000    0.000    0.000 
#    0.000    0.000    0.000    0.000    0.000    0.000 
#
# Total GULP energy -161059.489459 kJ/mol
# GULP energy per Si atom -12389.191497 kJ/mol
# Density = 2.160389 g / cm^3
# Si number density = 21.653172 Si / 1000 Ang^3
#
#
#
# Elastic Constant Matrix: (Units=GPa)
#
#
# Indices 1 2 3 4 5 6 
#
# 1 149.7796 28.7399 80.4492 0.0000 -10.0997 0.0000
# 2 28.7399 48.2628 35.4935 0.0000 -4.9078 0.0000
# 3 80.4492 35.4935 141.8037 0.0000 -24.3743 0.0000
# 4 0.0000 0.0000 0.0000 19.2441 0.0000 -7.0585
# 5 -10.0997 -4.9078 -24.3743 0.0000 60.3277 0.0000
# 6 0.0000 0.0000 0.0000 -7.0585 0.0000 4.4173
#
#
#
# Elastic Compliance Matrix: (Units=1/GPa)
#
#
# Indices 1 2 3 4 5 6 
#
# 1 0.009800 -0.002123 -0.005132 0.000000 -0.000606 0.000000
# 2 -0.002123 0.025871 -0.005341 0.000000 -0.000409 0.000000
# 3 -0.005132 -0.005341 0.011905 0.000000 0.003516 0.000000
# 4 0.000000 0.000000 0.000000 0.125549 0.000000 0.200617
# 5 -0.000606 -0.000409 0.003516 0.000000 0.017862 0.000000
# 6 0.000000 0.000000 0.000000 0.200617 0.000000 0.546954
#
#
# Mechanical properties :
#
#
# Convention : Reuss Voigt Hill
#
# Bulk Modulus (GPa) = 44.67820 69.91236 57.29528
# Shear Modulus (GPa) = 6.48851 29.80872 18.14861
#
# Velocity S-wave (km/s) = 1.73294 3.71434 2.89822
# Velocity P-wave (km/s) = 4.96814 7.12408 6.14146
#
# Compressibility (1/GPa) = 0.02238228
#
# Stress axis : x y z
#
# Youngs Moduli (GPa) = 102.04453 38.65398 83.99738
#
# Poissons Ratio (x) = 0.08205 0.43111
# Poissons Ratio (y) = 0.21661 0.44867
# Poissons Ratio (z) = 0.52374 0.20647
#
# Static dielectric constant tensor:
#      x y z
#    x 4.556380 0.000000 -0.487690 
#    y 0.000000 3.560190 0.000000 
#    z -0.487690 0.000000 4.607500 
# 
# 
# High freq. dielectric constant tensor:
#      x y z
#    x 1.870150 0.000000 -0.013670 
#    y 0.000000 1.803010 0.000000 
#    z -0.013670 0.000000 1.876170 
# 
# From -- ./inp_files/5518.got.cif
#   From: 2010.03.12/outbox.cif.g09.slc.cpg/sg3_3_cif.got.tgz:5518.got - 2010.03.31 09:20:49.
