data_PCOD8045481
_publ_section_title
;
Structure prediction by ZEFSAII (Michael W. Deem and Ramdas Pophale) SiO2 
 PCOD8045481
Probable space group: P 2
;
_chemical_formula_sum "Si O2"
_cell_formula_units_Z 16
_cell_length_a 9.913823
_cell_length_b 17.193288
_cell_length_c 8.833357
_cell_angle_alpha 90.000000
_cell_angle_beta 29.959224
_cell_angle_gamma 90.000000
_cell_volume 751.900042
_symmetry_space_group_name_H-M "P 2"
_symmetry_group_IT_number 3
_symmetry_cell_setting 'monoclinic'
loop_
_space_group_symop_operation_xyz
x,y,z
-x,y,-z
loop_
_atom_site_type_symbol
_atom_site_label
_atom_site_fract_x
_atom_site_fract_y
_atom_site_fract_z
Si Si1 0.026013 0.767160 0.644652
Si Si2 0.573754 0.525545 0.263601
Si Si3 0.773411 0.251009 0.830479
Si Si4 0.055374 0.586068 0.615128
Si Si5 0.456997 0.009598 0.370017
Si Si6 0.056079 0.076948 0.277934
Si Si7 0.527558 0.830398 0.301132
Si Si8 0.278696 0.353243 0.821668
O O1 0.336282 0.776674 0.387664
O O2 0.000000 0.799246 0.500000
O O3 0.971336 0.675922 0.706364
O O4 0.831468 0.816699 0.945259
O O5 0.500000 0.560775 0.500000
O O6 0.571628 0.432345 0.272787
O O7 0.363987 0.562914 0.348970
O O8 0.874788 0.545502 0.918220
O O9 0.864711 0.166829 0.799605
O O10 0.000000 0.286902 0.500000
O O11 0.500000 0.245174 0.000000
O O12 0.760329 0.304029 0.989846
O O13 0.000000 0.554520 0.500000
O O14 0.500000 0.034656 0.500000
O O15 0.209681 0.062730 0.560704
O O16 0.413300 0.917662 0.398134
O O17 0.710025 0.026166 0.019633
O O18 0.000000 0.045407 0.500000
O O19 0.500000 0.802385 0.500000
O O20 0.500000 0.309758 0.500000
O O21 0.000000 0.366280 0.000000
#
# Coordination Sequence:
#
# PCOD8045481 Si02
#       8
#     2   2   2   2   2   2   2   2
#     4  11  24  41  62  90 124 160 205 256 308 368
#     4  11  23  41  63  91 124 161 205 255 307 367
#     4  11  24  43  65  94 128 164 208 260 311 371
#     4  11  24  41  62  91 124 161 206 255 307 370
#     4  11  24  41  62  91 124 161 206 255 307 370
#     4  11  23  41  63  91 124 161 205 255 307 367
#     4  11  24  41  62  90 124 160 205 256 308 368
#     4  11  24  43  65  94 128 164 208 260 311 371
#
# _framework density 21.279423999999999
#
# number of rings (size 3 to 8) (size 9 to 14) (size 15 to 20)
#    0.000    1.000    0.000    7.500    0.000   13.000 
#    0.000    0.000    0.000    0.000    0.000    0.000 
#    0.000    0.000    0.000    0.000    0.000    0.000 
#
# Total GULP energy -198432.969116 kJ/mol
# GULP energy per Si atom -12402.060570 kJ/mol
# Density = 2.123099 g / cm^3
# Si number density = 21.279424 Si / 1000 Ang^3
#
#
#
# Elastic Constant Matrix: (Units=GPa)
#
#
# Indices 1 2 3 4 5 6 
#
# 1 151.5107 51.8064 51.5059 0.0000 4.4059 0.0000
# 2 51.8064 62.3932 24.2032 0.0000 5.1600 0.0000
# 3 51.5059 24.2032 132.4135 0.0000 8.7403 0.0000
# 4 0.0000 0.0000 0.0000 36.8170 0.0000 3.6142
# 5 4.4059 5.1600 8.7403 0.0000 53.0110 0.0000
# 6 0.0000 0.0000 0.0000 3.6142 0.0000 27.5702
#
#
#
# Elastic Compliance Matrix: (Units=1/GPa)
#
#
# Indices 1 2 3 4 5 6 
#
# 1 0.009958 -0.007300 -0.002559 0.000000 0.000305 0.000000
# 2 -0.007300 0.022675 -0.001213 0.000000 -0.001400 0.000000
# 3 -0.002559 -0.001213 0.008844 0.000000 -0.001127 0.000000
# 4 0.000000 0.000000 0.000000 0.027515 0.000000 -0.003607
# 5 0.000305 -0.001400 -0.001127 0.000000 0.019161 0.000000
# 6 0.000000 0.000000 0.000000 -0.003607 0.000000 0.036744
#
#
# Mechanical properties :
#
#
# Convention : Reuss Voigt Hill
#
# Bulk Modulus (GPa) = 51.72666 66.81649 59.27158
# Shear Modulus (GPa) = 32.57653 38.06644 35.32149
#
# Velocity S-wave (km/s) = 3.91691 4.23411 4.07859
# Velocity P-wave (km/s) = 6.69457 7.44119 7.07773
#
# Compressibility (1/GPa) = 0.01933239
#
# Stress axis : x y z
#
# Youngs Moduli (GPa) = 100.42663 44.10082 113.07710
#
# Poissons Ratio (x) = 0.32196 0.28936
# Poissons Ratio (y) = 0.73316 0.13711
# Poissons Ratio (z) = 0.25699 0.05347
#
# Static dielectric constant tensor:
#      x y z
#    x 4.003210 0.000000 0.157000 
#    y 0.000000 3.654100 0.000000 
#    z 0.157000 0.000000 4.082940 
# 
# 
# High freq. dielectric constant tensor:
#      x y z
#    x 1.848620 0.000000 0.005120 
#    y 0.000000 1.827890 0.000000 
#    z 0.005120 0.000000 1.857200 
# 
# From -- ./inp_files/6218.got.cif
#   From: 2010.03.12/outbox.cif.g09.slc.cpg/sg3_4_cif.got.tgz:6218.got - 2010.03.31 09:20:49.
