data_PCOD8045649
_publ_section_title
;
Structure prediction by ZEFSAII (Michael W. Deem and Ramdas Pophale) SiO2 
 PCOD8045649
Probable space group: P 21
;
_chemical_formula_sum "Si O2"
_cell_formula_units_Z 14
_cell_length_a 8.599273
_cell_length_b 5.036932
_cell_length_c 26.332704
_cell_angle_alpha 90.000000
_cell_angle_beta 145.870469
_cell_angle_gamma 90.000000
_cell_volume 639.936691
_symmetry_space_group_name_H-M "P 21"
_symmetry_group_IT_number 4
_symmetry_cell_setting 'monoclinic'
loop_
_space_group_symop_operation_xyz
x,y,z
-x,1/2+y,-z
loop_
_atom_site_type_symbol
_atom_site_label
_atom_site_fract_x
_atom_site_fract_y
_atom_site_fract_z
Si Si1 0.019150 0.254760 0.904681
Si Si2 0.309192 0.246255 0.155054
Si Si3 0.093690 0.274209 0.808672
Si Si4 0.551140 0.269212 0.112109
Si Si5 0.735156 0.495791 0.627737
Si Si6 0.211819 0.750407 0.459406
Si Si7 0.097769 0.736893 0.646430
O O1 0.003289 0.329808 0.841468
O O2 0.829118 0.457587 0.884843
O O3 0.334767 0.288221 0.007595
O O4 0.912525 0.956673 0.884195
O O5 0.398493 0.336183 0.123248
O O6 0.570782 0.227297 0.263606
O O7 0.335995 0.470632 0.856494
O O8 0.823502 0.332064 0.701104
O O9 0.197588 0.973628 0.829652
O O10 0.462504 0.676466 0.565523
O O11 0.988378 0.679422 0.674765
O O12 0.651174 0.287025 0.560125
O O13 0.982755 0.522519 0.395766
O O14 0.040875 0.015798 0.428656
#
# Coordination Sequence:
#
# PCOD8045649 Si02
#       7
#     2   2   2   2   2   2   2
#     4  12  26  42  61  94 134 168 204 264 329 373
#     4  12  23  42  64  92 126 170 214 257 308 389
#     4  12  25  40  66  95 129 163 212 268 322 371
#     4  12  23  44  66  91 121 173 223 261 301 375
#     4  10  20  34  60  93 125 151 210 264 313 355
#     4  10  18  32  56  95 118 149 202 276 296 352
#     4  10  19  34  57  90 117 154 203 258 305 355
#
# _framework density 21.877165000000002
#
# number of rings (size 3 to 8) (size 9 to 14) (size 15 to 20)
#    0.857    0.000    2.857    6.000    0.000    0.000 
#    0.000    0.000    0.000    3.429    0.000    2.000 
#    0.000    0.000    0.000    0.000    0.000    0.000 
#
# Total GULP energy -173616.460639 kJ/mol
# GULP energy per Si atom -12401.175760 kJ/mol
# Density = 2.182737 g / cm^3
# Si number density = 21.877165 Si / 1000 Ang^3
#
#
#
# Elastic Constant Matrix: (Units=GPa)
#
#
# Indices 1 2 3 4 5 6 
#
# 1 57.5507 7.6136 23.0727 0.0000 -12.2022 0.0000
# 2 7.6136 99.2174 17.4583 0.0000 6.1593 0.0000
# 3 23.0727 17.4583 112.5824 0.0000 -8.3376 0.0000
# 4 0.0000 0.0000 0.0000 44.3378 0.0000 7.5890
# 5 -12.2022 6.1593 -8.3376 0.0000 22.2632 0.0000
# 6 0.0000 0.0000 0.0000 7.5890 0.0000 23.6568
#
#
#
# Elastic Compliance Matrix: (Units=1/GPa)
#
#
# Indices 1 2 3 4 5 6 
#
# 1 0.021226 -0.001728 -0.003276 0.000000 0.010885 0.000000
# 2 -0.001728 0.010785 -0.001655 0.000000 -0.004551 0.000000
# 3 -0.003276 -0.001655 0.009988 0.000000 0.002403 0.000000
# 4 0.000000 0.000000 0.000000 0.023864 0.000000 -0.007656
# 5 0.010885 -0.004551 0.002403 0.000000 0.053042 0.000000
# 6 0.000000 0.000000 0.000000 -0.007656 0.000000 0.044727
#
#
# Mechanical properties :
#
#
# Convention : Reuss Voigt Hill
#
# Bulk Modulus (GPa) = 34.86654 40.62662 37.74658
# Shear Modulus (GPa) = 26.80789 32.79862 29.80326
#
# Velocity S-wave (km/s) = 3.50434 3.87617 3.69494
# Velocity P-wave (km/s) = 5.68735 6.21640 5.95775
#
# Compressibility (1/GPa) = 0.02868079
#
# Stress axis : x y z
#
# Youngs Moduli (GPa) = 47.11235 92.71900 100.11588
#
# Poissons Ratio (x) = 0.16023 0.32797
# Poissons Ratio (y) = 0.08141 0.16573
# Poissons Ratio (z) = 0.15434 0.15348
#
# Static dielectric constant tensor:
#      x y z
#    x 3.398430 0.000000 -0.023690 
#    y 0.000000 3.950730 0.000000 
#    z -0.023690 0.000000 3.969950 
# 
# 
# High freq. dielectric constant tensor:
#      x y z
#    x 1.808710 0.000000 0.005120 
#    y 0.000000 1.873200 0.000000 
#    z 0.005120 0.000000 1.874790 
# 
# From -- ./inp_files/16522.got.cif
#   From: 2010.03.12/outbox.cif.g09.slc.cpg/sg4_9_cif.got.tgz:16522.got - 2010.03.31 09:31:35.
