data_PCOD8045325
_publ_section_title
;
Structure prediction by ZEFSAII (Michael W. Deem and Ramdas Pophale) SiO2 
 PCOD8045325
Probable space group: P 2
;
_chemical_formula_sum "Si O2"
_cell_formula_units_Z 13
_cell_length_a 8.983269
_cell_length_b 9.768367
_cell_length_c 8.989434
_cell_angle_alpha 90.000000
_cell_angle_beta 130.998578
_cell_angle_gamma 90.000000
_cell_volume 595.357670
_symmetry_space_group_name_H-M "P 2"
_symmetry_group_IT_number 3
_symmetry_cell_setting 'monoclinic'
loop_
_space_group_symop_operation_xyz
x,y,z
-x,y,-z
loop_
_atom_site_type_symbol
_atom_site_label
_atom_site_fract_x
_atom_site_fract_y
_atom_site_fract_z
Si Si1 0.118404 0.959150 0.435219
Si Si2 0.094623 0.486898 0.712696
Si Si3 0.185461 0.246910 0.360345
Si Si4 0.500000 0.380105 0.000000
Si Si5 0.896252 0.747484 0.088664
Si Si6 0.469256 0.929168 0.153206
Si Si7 0.403325 0.220904 0.215103
O O1 0.328492 0.899718 0.626725
O O2 0.000000 0.011133 0.500000
O O3 0.006241 0.838370 0.281170
O O4 0.120381 0.088904 0.327107
O O5 0.091402 0.592780 0.846139
O O6 0.000000 0.547032 0.500000
O O7 0.982043 0.348950 0.690746
O O8 0.322939 0.467321 0.813984
O O9 0.238681 0.275936 0.222319
O O10 0.379390 0.260461 0.587461
O O11 0.378796 0.292709 0.041289
O O12 0.670389 0.796901 0.921668
O O13 0.000000 0.756879 0.000000
O O14 0.370971 0.059270 0.169997
O O15 0.500000 0.963552 0.000000
#
# Coordination Sequence:
#
# PCOD8045325 Si02
#       7
#     2   2   2   1   2   2   2
#     4  11  23  44  76 103 138 181 232 289 348 407
#     4  12  28  48  68  99 144 186 230 284 347 419
#     4  10  23  44  72 104 143 174 227 292 350 402
#     4  12  26  42  70 100 136 184 230 278 350 412
#     4  12  29  47  68 103 138 186 235 281 347 419
#     4  11  23  43  72 103 138 177 232 285 340 413
#     4  10  22  43  71 108 135 179 227 288 347 407
#
# _framework density 21.835614
#
# number of rings (size 3 to 8) (size 9 to 14) (size 15 to 20)
#    0.000    0.923    3.846    1.846    7.538    1.846 
#    0.000    0.000    0.000    0.000    0.000    0.000 
#    0.000    0.000    0.000    0.000    0.000    0.000 
#
# Total GULP energy -161201.506736 kJ/mol
# GULP energy per Si atom -12400.115903 kJ/mol
# Density = 2.178591 g / cm^3
# Si number density = 21.835614 Si / 1000 Ang^3
#
#
#
# Elastic Constant Matrix: (Units=GPa)
#
#
# Indices 1 2 3 4 5 6 
#
# 1 114.3664 34.6682 48.6535 0.0000 0.0066 0.0000
# 2 34.6682 87.4887 33.0165 0.0000 13.0609 0.0000
# 3 48.6535 33.0165 77.7650 0.0000 8.7522 0.0000
# 4 0.0000 0.0000 0.0000 59.9006 0.0000 -16.3034
# 5 0.0066 13.0609 8.7522 0.0000 49.2903 0.0000
# 6 0.0000 0.0000 0.0000 -16.3034 0.0000 28.9513
#
#
#
# Elastic Compliance Matrix: (Units=1/GPa)
#
#
# Indices 1 2 3 4 5 6 
#
# 1 0.012478 -0.002624 -0.006909 0.000000 0.001920 0.000000
# 2 -0.002624 0.014506 -0.004168 0.000000 -0.003103 0.000000
# 3 -0.006909 -0.004168 0.019211 0.000000 -0.002306 0.000000
# 4 0.000000 0.000000 0.000000 0.019716 0.000000 0.011103
# 5 0.001920 -0.003103 -0.002306 0.000000 0.021519 0.000000
# 6 0.000000 0.000000 0.000000 0.011103 0.000000 0.040793
#
#
# Mechanical properties :
#
#
# Convention : Reuss Voigt Hill
#
# Bulk Modulus (GPa) = 53.21001 56.92183 55.06592
# Shear Modulus (GPa) = 30.88505 38.51389 34.69947
#
# Velocity S-wave (km/s) = 3.76498 4.20433 3.99071
# Velocity P-wave (km/s) = 6.58190 7.04936 6.81964
#
# Compressibility (1/GPa) = 0.01879346
#
# Stress axis : x y z
#
# Youngs Moduli (GPa) = 80.13837 68.93719 52.05359
#
# Poissons Ratio (x) = 0.18089 0.35965
# Poissons Ratio (y) = 0.21028 0.21695
# Poissons Ratio (z) = 0.55369 0.28731
#
# Static dielectric constant tensor:
#      x y z
#    x 4.038140 0.000000 0.036480 
#    y 0.000000 3.726560 0.000000 
#    z 0.036480 0.000000 4.183740 
# 
# 
# High freq. dielectric constant tensor:
#      x y z
#    x 1.868860 0.000000 0.001100 
#    y 0.000000 1.841840 0.000000 
#    z 0.001100 0.000000 1.874810 
# 
# From -- ./inp_files/5516.got.cif
#   From: 2010.03.12/outbox.cif.g09.slc.cpg/sg3_3_cif.got.tgz:5516.got - 2010.03.31 09:20:49.
