data_PCOD8045681
_publ_section_title
;
Structure prediction by ZEFSAII (Michael W. Deem and Ramdas Pophale) SiO2 
 PCOD8045681
Probable space group: P 21
;
_chemical_formula_sum "Si O2"
_cell_formula_units_Z 14
_cell_length_a 9.664480
_cell_length_b 9.379290
_cell_length_c 9.823287
_cell_angle_alpha 90.000000
_cell_angle_beta 44.867081
_cell_angle_gamma 90.000000
_cell_volume 628.174700
_symmetry_space_group_name_H-M "P 21"
_symmetry_group_IT_number 4
_symmetry_cell_setting 'monoclinic'
loop_
_space_group_symop_operation_xyz
x,y,z
-x,1/2+y,-z
loop_
_atom_site_type_symbol
_atom_site_label
_atom_site_fract_x
_atom_site_fract_y
_atom_site_fract_z
Si Si1 0.814258 0.914070 0.765321
Si Si2 0.085373 0.204404 0.096287
Si Si3 0.785365 0.496574 0.611905
Si Si4 0.692301 0.803204 0.583734
Si Si5 0.914920 0.393892 0.815384
Si Si6 0.380580 0.424895 0.830794
Si Si7 0.721039 0.225330 0.178305
O O1 0.888002 0.756039 0.765586
O O2 0.702269 0.918102 0.699093
O O3 0.014824 0.002888 0.613033
O O4 0.670968 0.979444 0.978556
O O5 0.880660 0.266275 0.180398
O O6 0.090842 0.034090 0.084614
O O7 0.260584 0.278386 0.883339
O O8 0.705483 0.656654 0.659771
O O9 0.819048 0.430518 0.737489
O O10 0.615093 0.398776 0.660362
O O11 0.484665 0.807981 0.649081
O O12 0.863444 0.835650 0.356922
O O13 0.794256 0.271306 0.976630
O O14 0.311248 0.555178 0.784621
#
# Coordination Sequence:
#
# PCOD8045681 Si02
#       7
#     2   2   2   2   2   2   2
#     4   9  19  37  57  83 114 145 193 240 288 338
#     4  10  22  42  55  86 124 153 194 244 290 355
#     4  10  18  37  64  88 111 151 200 243 294 343
#     4  10  21  39  60  89 116 153 198 246 289 353
#     4  11  22  38  63  89 120 154 196 251 294 347
#     4   9  20  37  60  83 115 158 190 241 291 351
#     4  11  22  40  59  86 122 156 199 237 298 357
#
# _framework density 22.286791999999998
#
# number of rings (size 3 to 8) (size 9 to 14) (size 15 to 20)
#    0.857    1.143    1.429    2.571    0.000    0.000 
#   10.286    0.000    0.000    0.000    0.000    0.000 
#    0.000    0.000    0.000    0.000    0.000    0.000 
#
# Total GULP energy -173440.838438 kJ/mol
# GULP energy per Si atom -12388.631317 kJ/mol
# Density = 2.223607 g / cm^3
# Si number density = 22.286792 Si / 1000 Ang^3
#
#
#
# Elastic Constant Matrix: (Units=GPa)
#
#
# Indices 1 2 3 4 5 6 
#
# 1 68.8387 20.6107 7.8031 0.0000 -32.0421 0.0000
# 2 20.6107 57.0705 11.5394 0.0000 -12.2504 0.0000
# 3 7.8031 11.5394 62.9567 0.0000 -25.6870 0.0000
# 4 0.0000 0.0000 0.0000 32.8819 0.0000 -4.2089
# 5 -32.0421 -12.2504 -25.6870 0.0000 37.7164 0.0000
# 6 0.0000 0.0000 0.0000 -4.2089 0.0000 23.1348
#
#
#
# Elastic Compliance Matrix: (Units=1/GPa)
#
#
# Indices 1 2 3 4 5 6 
#
# 1 0.028632 -0.006060 0.009255 0.000000 0.028660 0.000000
# 2 -0.006060 0.020198 -0.003289 0.000000 -0.000827 0.000000
# 3 0.009255 -0.003289 0.025081 0.000000 0.023877 0.000000
# 4 0.000000 0.000000 0.000000 0.031137 0.000000 0.005665
# 5 0.028660 -0.000827 0.023877 0.000000 0.066854 0.000000
# 6 0.000000 0.000000 0.000000 0.005665 0.000000 0.044255
#
#
# Mechanical properties :
#
#
# Convention : Reuss Voigt Hill
#
# Bulk Modulus (GPa) = 13.56386 29.86358 21.71372
# Shear Modulus (GPa) = 20.75385 28.67414 24.71399
#
# Velocity S-wave (km/s) = 3.05490 3.59081 3.33364
# Velocity P-wave (km/s) = 4.30609 5.53359 4.95798
#
# Compressibility (1/GPa) = 0.07372535
#
# Stress axis : x y z
#
# Youngs Moduli (GPa) = 34.92600 49.50993 39.87003
#
# Poissons Ratio (x) = 0.30002 -0.36901
# Poissons Ratio (y) = 0.21164 0.13112
# Poissons Ratio (z) = -0.32325 0.16282
#
# Static dielectric constant tensor:
#      x y z
#    x 3.797610 0.000000 -0.301960 
#    y 0.000000 3.665250 0.000000 
#    z -0.301960 0.000000 3.903540 
# 
# 
# High freq. dielectric constant tensor:
#      x y z
#    x 1.872020 0.000000 -0.021780 
#    y 0.000000 1.856480 0.000000 
#    z -0.021780 0.000000 1.867350 
# 
# From -- ./inp_files/6070.got.cif
#   From: 2010.03.12/outbox.cif.g09.slc.cpg/sg4_4_cif.got.tgz:6070.got - 2010.03.31 09:31:35.
