data_PCOD8045744
_publ_section_title
;
Structure prediction by ZEFSAII (Michael W. Deem and Ramdas Pophale) SiO2 
 PCOD8045744
Probable space group: P 21
;
_chemical_formula_sum "Si O2"
_cell_formula_units_Z 16
_cell_length_a 8.396672
_cell_length_b 9.261993
_cell_length_c 19.609374
_cell_angle_alpha 90.000000
_cell_angle_beta 34.857326
_cell_angle_gamma 90.000000
_cell_volume 871.601752
_symmetry_space_group_name_H-M "P 21"
_symmetry_group_IT_number 4
_symmetry_cell_setting 'monoclinic'
loop_
_space_group_symop_operation_xyz
x,y,z
-x,1/2+y,-z
loop_
_atom_site_type_symbol
_atom_site_label
_atom_site_fract_x
_atom_site_fract_y
_atom_site_fract_z
Si Si1 0.417688 0.359120 0.284463
Si Si2 0.866624 0.107955 0.692931
Si Si3 0.422194 0.739398 0.074623
Si Si4 0.230569 0.874999 0.631508
Si Si5 0.771715 0.534687 0.873791
Si Si6 0.171366 0.368238 0.519594
Si Si7 0.089930 0.129695 0.320960
Si Si8 0.978651 0.291415 0.153191
O O1 0.358024 0.511268 0.268863
O O2 0.250348 0.352751 0.413494
O O3 0.332701 0.227843 0.266192
O O4 0.746361 0.337098 0.180769
O O5 0.708234 0.177521 0.811598
O O6 0.979891 0.232087 0.604172
O O7 0.131202 0.013983 0.624031
O O8 0.224976 0.863541 0.110283
O O9 0.480471 0.610659 0.000371
O O10 0.718155 0.821487 0.986508
O O11 0.560715 0.876960 0.525594
O O12 0.064332 0.879893 0.761543
O O13 0.167228 0.731001 0.610725
O O14 0.789801 0.545239 0.786059
O O15 0.026155 0.619053 0.822925
O O16 0.003160 0.515997 0.589173
#
# Coordination Sequence:
#
# PCOD8045744 Si02
#       8
#     2   2   2   2   2   2   2   2
#     4  10  22  38  55  77 121 159 185 221 300 349
#     4  11  21  35  61  87 110 154 192 240 283 346
#     4  10  19  36  61  87 110 142 196 242 287 338
#     4   9  19  35  58  83 110 149 191 236 299 329
#     4   9  19  35  61  80 111 142 190 245 282 333
#     4  11  20  36  56  82 116 143 198 243 272 344
#     4  10  19  35  56  82 111 152 186 230 294 337
#     4   8  19  36  58  78 113 151 182 229 287 342
#
# _framework density 18.357008
#
# number of rings (size 3 to 8) (size 9 to 14) (size 15 to 20)
#    0.750    1.500    1.250    2.250    1.750    0.000 
#    2.250    0.000    8.250    0.000    0.000    0.000 
#    0.000    0.000    0.000    0.000    0.000    0.000 
#
# Total GULP energy -198295.134680 kJ/mol
# GULP energy per Si atom -12393.445917 kJ/mol
# Density = 1.831523 g / cm^3
# Si number density = 18.357008 Si / 1000 Ang^3
#
#
#
# Elastic Constant Matrix: (Units=GPa)
#
#
# Indices 1 2 3 4 5 6 
#
# 1 60.1523 22.9657 -0.3627 0.0000 -12.6551 0.0000
# 2 22.9657 101.3237 20.7981 0.0000 -1.8415 0.0000
# 3 -0.3627 20.7981 59.8797 0.0000 2.8393 0.0000
# 4 0.0000 0.0000 0.0000 28.9093 0.0000 7.4293
# 5 -12.6551 -1.8415 2.8393 0.0000 21.5819 0.0000
# 6 0.0000 0.0000 0.0000 7.4293 0.0000 21.7224
#
#
#
# Elastic Compliance Matrix: (Units=1/GPa)
#
#
# Indices 1 2 3 4 5 6 
#
# 1 0.020918 -0.004782 0.001233 0.000000 0.011696 0.000000
# 2 -0.004782 0.011762 -0.004054 0.000000 -0.001267 0.000000
# 3 0.001233 -0.004054 0.018212 0.000000 -0.002019 0.000000
# 4 0.000000 0.000000 0.000000 0.037924 0.000000 -0.012971
# 5 0.011696 -0.001267 -0.002019 0.000000 0.053351 0.000000
# 6 0.000000 0.000000 0.000000 -0.012971 0.000000 0.050471
#
#
# Mechanical properties :
#
#
# Convention : Reuss Voigt Hill
#
# Bulk Modulus (GPa) = 28.02232 34.23975 31.13104
# Shear Modulus (GPa) = 22.75419 26.30636 24.53028
#
# Velocity S-wave (km/s) = 3.52453 3.78966 3.65950
# Velocity P-wave (km/s) = 5.64459 6.15153 5.90350
#
# Compressibility (1/GPa) = 0.03568584
#
# Stress axis : x y z
#
# Youngs Moduli (GPa) = 47.80554 85.01695 54.91017
#
# Poissons Ratio (x) = 0.40653 -0.06770
# Poissons Ratio (y) = 0.22859 0.22262
# Poissons Ratio (z) = -0.05894 0.34469
#
# Static dielectric constant tensor:
#      x y z
#    x 3.230640 0.000000 0.054930 
#    y 0.000000 3.446140 0.000000 
#    z 0.054930 0.000000 3.269090 
# 
# 
# High freq. dielectric constant tensor:
#      x y z
#    x 1.688410 0.000000 0.010400 
#    y 0.000000 1.720130 0.000000 
#    z 0.010400 0.000000 1.709370 
# 
# From -- ./inp_files/7529.got.cif
#   From: 2010.03.12/outbox.cif.g09.slc.cpg/sg4_4_cif.got.tgz:7529.got - 2010.03.31 09:31:35.
