data_PCOD8045988
_publ_section_title
;
Structure prediction by ZEFSAII (Michael W. Deem and Ramdas Pophale) SiO2 
 PCOD8045988
Probable space group: P 21
;
_chemical_formula_sum "Si O2"
_cell_formula_units_Z 14
_cell_length_a 5.152972
_cell_length_b 15.168716
_cell_length_c 8.930376
_cell_angle_alpha 90.000000
_cell_angle_beta 53.945303
_cell_angle_gamma 90.000000
_cell_volume 564.329129
_symmetry_space_group_name_H-M "P 21"
_symmetry_group_IT_number 4
_symmetry_cell_setting 'monoclinic'
loop_
_space_group_symop_operation_xyz
x,y,z
-x,1/2+y,-z
loop_
_atom_site_type_symbol
_atom_site_label
_atom_site_fract_x
_atom_site_fract_y
_atom_site_fract_z
Si Si1 0.779103 0.497840 0.476031
Si Si2 0.637696 0.336830 0.318393
Si Si3 0.372711 0.544855 0.078664
Si Si4 0.467315 0.667486 0.488900
Si Si5 0.990929 0.388237 0.646900
Si Si6 0.801099 0.206828 0.738217
Si Si7 0.993272 0.443958 0.963437
O O1 0.735856 0.403668 0.414902
O O2 0.486697 0.567603 0.550318
O O3 0.822338 0.476387 0.638066
O O4 0.101562 0.539001 0.299134
O O5 0.713377 0.235205 0.336135
O O6 0.838042 0.359991 0.101309
O O7 0.252666 0.353215 0.436328
O O8 0.395287 0.652754 0.064716
O O9 0.705387 0.510296 0.027005
O O10 0.264415 0.495311 0.965040
O O11 0.276792 0.665149 0.398154
O O12 0.823264 0.705219 0.346217
O O13 0.719542 0.311773 0.766106
O O14 0.151080 0.412755 0.753624
#
# Coordination Sequence:
#
# PCOD8045988 Si02
#       7
#     2   2   2   2   2   2   2
#     4  10  20  38  66  89 124 165 211 254 312 367
#     4  10  21  42  61  89 128 164 204 260 312 369
#     4  10  21  41  63  89 124 166 202 256 310 373
#     4  10  21  34  66  93 117 165 214 249 313 373
#     4  11  23  39  65  94 122 167 211 257 310 374
#     4  10  20  39  63  91 121 166 207 252 313 372
#     4  11  24  39  64  91 126 161 207 252 318 362
#
# _framework density 24.808216000000002
#
# number of rings (size 3 to 8) (size 9 to 14) (size 15 to 20)
#    0.000    1.714    2.857    2.571    4.000    0.000 
#    2.571    0.000    0.000    0.000    0.000    0.000 
#    0.000    0.000    0.000    0.000    0.000    0.000 
#
# Total GULP energy -173465.900783 kJ/mol
# GULP energy per Si atom -12390.421484 kJ/mol
# Density = 2.475175 g / cm^3
# Si number density = 24.808216 Si / 1000 Ang^3
#
#
#
# Elastic Constant Matrix: (Units=GPa)
#
#
# Indices 1 2 3 4 5 6 
#
# 1 54.5325 7.5551 1.9138 0.0000 13.8901 0.0000
# 2 7.5551 96.2635 19.6076 0.0000 27.0344 0.0000
# 3 1.9138 19.6076 67.1877 0.0000 22.6679 0.0000
# 4 0.0000 0.0000 0.0000 15.5101 0.0000 10.7877
# 5 13.8901 27.0344 22.6679 0.0000 39.9532 0.0000
# 6 0.0000 0.0000 0.0000 10.7877 0.0000 38.9464
#
#
#
# Elastic Compliance Matrix: (Units=1/GPa)
#
#
# Indices 1 2 3 4 5 6 
#
# 1 0.020398 0.000361 0.002212 0.000000 -0.008591 0.000000
# 2 0.000361 0.012887 -0.000973 0.000000 -0.008294 0.000000
# 3 0.002212 -0.000973 0.018727 0.000000 -0.010735 0.000000
# 4 0.000000 0.000000 0.000000 0.079859 0.000000 -0.022120
# 5 -0.008591 -0.008294 -0.010735 0.000000 0.039719 0.000000
# 6 0.000000 0.000000 0.000000 -0.022120 0.000000 0.031803
#
#
# Mechanical properties :
#
#
# Convention : Reuss Voigt Hill
#
# Bulk Modulus (GPa) = 18.11191 30.68184 24.39687
# Shear Modulus (GPa) = 22.87312 31.47576 27.17444
#
# Velocity S-wave (km/s) = 3.03974 3.56583 3.31324
# Velocity P-wave (km/s) = 4.43132 5.41738 4.94897
#
# Compressibility (1/GPa) = 0.05521230
#
# Stress axis : x y z
#
# Youngs Moduli (GPa) = 49.02371 77.59662 53.40020
#
# Poissons Ratio (x) = -0.02803 -0.11812
# Poissons Ratio (y) = -0.01771 0.05196
# Poissons Ratio (z) = -0.10844 0.07551
#
# Static dielectric constant tensor:
#      x y z
#    x 4.328820 0.000000 0.103470 
#    y 0.000000 5.173540 0.000000 
#    z 0.103470 0.000000 4.230040 
# 
# 
# High freq. dielectric constant tensor:
#      x y z
#    x 1.991430 0.000000 0.010180 
#    y 0.000000 2.005240 0.000000 
#    z 0.010180 0.000000 1.948370 
# 
# From -- ./inp_files/1509.got.cif
#   From: 2010.03.12/outbox.cif.g09.slc.cpg/sg4_1_cif.got.tgz:1509.got - 2010.03.31 09:31:35.
