data_PCOD8045999
_publ_section_title
;
Structure prediction by ZEFSAII (Michael W. Deem and Ramdas Pophale) SiO2 
 PCOD8045999
Probable space group: P 21
;
_chemical_formula_sum "Si O2"
_cell_formula_units_Z 14
_cell_length_a 9.236684
_cell_length_b 12.892145
_cell_length_c 4.956792
_cell_angle_alpha 90.000000
_cell_angle_beta 102.120290
_cell_angle_gamma 90.000000
_cell_volume 577.100633
_symmetry_space_group_name_H-M "P 21"
_symmetry_group_IT_number 4
_symmetry_cell_setting 'monoclinic'
loop_
_space_group_symop_operation_xyz
x,y,z
-x,1/2+y,-z
loop_
_atom_site_type_symbol
_atom_site_label
_atom_site_fract_x
_atom_site_fract_y
_atom_site_fract_z
Si Si1 0.610792 0.767280 0.178178
Si Si2 0.440534 0.988443 0.578518
Si Si3 0.376500 0.553605 0.827355
Si Si4 0.006475 0.311018 0.251142
Si Si5 0.863557 0.913820 0.178651
Si Si6 0.331396 0.783844 0.794977
Si Si7 0.269879 0.169529 0.273867
O O1 0.703986 0.858805 0.074776
O O2 0.647070 0.753645 0.505120
O O3 0.437902 0.796394 0.096723
O O4 0.660017 0.669705 0.000295
O O5 0.369537 0.876406 0.605680
O O6 0.556332 0.977958 0.376585
O O7 0.299615 0.057792 0.421739
O O8 0.526817 0.044349 0.859515
O O9 0.198577 0.529731 0.797036
O O10 0.375162 0.669723 0.699154
O O11 0.834993 0.284901 0.165838
O O12 0.042542 0.357574 0.555326
O O13 0.096900 0.205055 0.212864
O O14 0.041211 0.403520 0.054774
#
# Coordination Sequence:
#
# PCOD8045999 Si02
#       7
#     2   2   2   2   2   2   2
#     4  10  20  38  71  91 131 170 230 267 323 405
#     4  12  25  41  71 103 133 178 236 291 335 400
#     4  12  26  43  72 102 136 180 236 288 335 403
#     4  10  25  42  70  98 141 174 218 279 350 415
#     4  10  22  45  66  94 134 188 211 272 355 402
#     4  12  26  44  71 110 134 177 241 289 330 416
#     4  10  20  43  63  96 131 181 210 274 348 395
#
# _framework density 24.259197
#
# number of rings (size 3 to 8) (size 9 to 14) (size 15 to 20)
#    0.000    1.143    4.286    0.857    4.000    5.714 
#    0.000    4.286    0.000    0.000    0.000    0.000 
#    0.000    0.000    0.000    0.000    0.000    0.000 
#
# Total GULP energy -173472.581611 kJ/mol
# GULP energy per Si atom -12390.898686 kJ/mol
# Density = 2.420398 g / cm^3
# Si number density = 24.259197 Si / 1000 Ang^3
#
#
#
# Elastic Constant Matrix: (Units=GPa)
#
#
# Indices 1 2 3 4 5 6 
#
# 1 155.7445 24.3280 52.4741 0.0000 18.6457 0.0000
# 2 24.3280 93.9947 10.8113 0.0000 -0.1912 0.0000
# 3 52.4741 10.8113 91.7733 0.0000 -6.6938 0.0000
# 4 0.0000 0.0000 0.0000 20.9913 0.0000 -9.3565
# 5 18.6457 -0.1912 -6.6938 0.0000 39.4304 0.0000
# 6 0.0000 0.0000 0.0000 -9.3565 0.0000 36.0650
#
#
#
# Elastic Compliance Matrix: (Units=1/GPa)
#
#
# Indices 1 2 3 4 5 6 
#
# 1 0.009145 -0.001756 -0.005405 0.000000 -0.005250 0.000000
# 2 -0.001756 0.011123 -0.000245 0.000000 0.000843 0.000000
# 3 -0.005405 -0.000245 0.014380 0.000000 0.004996 0.000000
# 4 0.000000 0.000000 0.000000 0.053868 0.000000 0.013975
# 5 -0.005250 0.000843 0.004996 0.000000 0.028696 0.000000
# 6 0.000000 0.000000 0.000000 0.013975 0.000000 0.031353
#
#
# Mechanical properties :
#
#
# Convention : Reuss Voigt Hill
#
# Bulk Modulus (GPa) = 50.41172 57.41549 53.91360
# Shear Modulus (GPa) = 29.41376 36.22397 32.81886
#
# Velocity S-wave (km/s) = 3.48584 3.86839 3.68209
# Velocity P-wave (km/s) = 6.08499 6.60844 6.35211
#
# Compressibility (1/GPa) = 0.01983666
#
# Stress axis : x y z
#
# Youngs Moduli (GPa) = 109.35383 89.90185 69.54098
#
# Poissons Ratio (x) = 0.15786 0.37586
# Poissons Ratio (y) = 0.19201 0.01703
# Poissons Ratio (z) = 0.59104 0.02202
#
# Static dielectric constant tensor:
#      x y z
#    x 4.314430 0.000000 0.045340 
#    y 0.000000 4.601000 0.000000 
#    z 0.045340 0.000000 4.266980 
# 
# 
# High freq. dielectric constant tensor:
#      x y z
#    x 1.959820 0.000000 -0.003500 
#    y 0.000000 1.961950 0.000000 
#    z -0.003500 0.000000 1.960170 
# 
# From -- ./inp_files/1862.got.cif
#   From: 2010.03.12/outbox.cif.g09.slc.cpg/sg4_1_cif.got.tgz:1862.got - 2010.03.31 09:31:35.
