data_PCOD8045596
_publ_section_title
;
Structure prediction by ZEFSAII (Michael W. Deem and Ramdas Pophale) SiO2 
 PCOD8045596
Probable space group: P 21
;
_chemical_formula_sum "Si O2"
_cell_formula_units_Z 10
_cell_length_a 6.665228
_cell_length_b 5.159664
_cell_length_c 15.901990
_cell_angle_alpha 90.000000
_cell_angle_beta 128.735926
_cell_angle_gamma 90.000000
_cell_volume 426.583236
_symmetry_space_group_name_H-M "P 21"
_symmetry_group_IT_number 4
_symmetry_cell_setting 'monoclinic'
loop_
_space_group_symop_operation_xyz
x,y,z
-x,1/2+y,-z
loop_
_atom_site_type_symbol
_atom_site_label
_atom_site_fract_x
_atom_site_fract_y
_atom_site_fract_z
Si Si1 0.390754 0.894610 0.432707
Si Si2 0.671553 0.994522 0.038688
Si Si3 0.326294 0.559152 0.142249
Si Si4 0.819758 0.851022 0.252198
Si Si5 0.603179 0.552900 0.753898
O O1 0.556701 0.633484 0.489864
O O2 0.452882 0.015206 0.358444
O O3 0.096801 0.800203 0.365133
O O4 0.813293 0.024334 0.984989
O O5 0.486689 0.750090 0.981939
O O6 0.865975 0.954797 0.168376
O O7 0.636065 0.594729 0.205091
O O8 0.223617 0.816510 0.162886
O O9 0.259563 0.324682 0.188342
O O10 0.671794 0.064594 0.269920
#
# Coordination Sequence:
#
# PCOD8045596 Si02
#       5
#     2   2   2   2   2
#     4  12  28  43  61  88 122 162 215 262 302 355
#     4  10  16  32  62  93 118 155 194 237 298 374
#     4   9  18  37  64  91 122 153 192 244 302 370
#     4   9  23  38  67  85 125 161 198 244 312 354
#     4  10  21  40  62  87 123 153 205 251 300 363
#
# _framework density 23.442083
#
# number of rings (size 3 to 8) (size 9 to 14) (size 15 to 20)
#    1.200    0.800    2.000    1.200    2.800    1.600 
#    0.000    2.000    0.000    0.000    0.000    0.000 
#    0.000    0.000    0.000    0.000    0.000    0.000 
#
# Total GULP energy -123892.897745 kJ/mol
# GULP energy per Si atom -12389.289774 kJ/mol
# Density = 2.338873 g / cm^3
# Si number density = 23.442083 Si / 1000 Ang^3
#
#
#
# Elastic Constant Matrix: (Units=GPa)
#
#
# Indices 1 2 3 4 5 6 
#
# 1 31.0830 3.3771 17.9602 0.0000 -6.6106 0.0000
# 2 3.3771 150.0765 25.1493 0.0000 -0.4774 0.0000
# 3 17.9602 25.1493 93.2972 0.0000 -1.6476 0.0000
# 4 0.0000 0.0000 0.0000 36.6706 0.0000 -12.3514
# 5 -6.6106 -0.4774 -1.6476 0.0000 40.8151 0.0000
# 6 0.0000 0.0000 0.0000 -12.3514 0.0000 22.4364
#
#
#
# Elastic Compliance Matrix: (Units=1/GPa)
#
#
# Indices 1 2 3 4 5 6 
#
# 1 0.037538 0.000385 -0.007228 0.000000 0.005793 0.000000
# 2 0.000385 0.006982 -0.001955 0.000000 0.000065 0.000000
# 3 -0.007228 -0.001955 0.012625 0.000000 -0.000684 0.000000
# 4 0.000000 0.000000 0.000000 0.033477 0.000000 0.018429
# 5 0.005793 0.000065 -0.000684 0.000000 0.025412 0.000000
# 6 0.000000 0.000000 0.000000 0.018429 0.000000 0.054716
#
#
# Mechanical properties :
#
#
# Convention : Reuss Voigt Hill
#
# Bulk Modulus (GPa) = 25.28472 40.82554 33.05513
# Shear Modulus (GPa) = 24.81019 35.18243 29.99631
#
# Velocity S-wave (km/s) = 3.25678 3.87825 3.58102
# Velocity P-wave (km/s) = 4.99515 6.12435 5.58835
#
# Compressibility (1/GPa) = 0.03954958
#
# Stress axis : x y z
#
# Youngs Moduli (GPa) = 26.63940 143.21617 79.20932
#
# Poissons Ratio (x) = -0.05513 0.57251
# Poissons Ratio (y) = -0.01025 0.15487
# Poissons Ratio (z) = 0.19254 0.28001
#
# Static dielectric constant tensor:
#      x y z
#    x 3.729910 0.000000 -0.237370 
#    y 0.000000 4.086390 0.000000 
#    z -0.237370 0.000000 4.168410 
# 
# 
# High freq. dielectric constant tensor:
#      x y z
#    x 1.909160 0.000000 -0.017700 
#    y 0.000000 1.931450 0.000000 
#    z -0.017700 0.000000 1.925220 
# 
# From -- ./inp_files/8545.got.cif
#   From: 2010.03.12/outbox.cif.g09.slc.cpg/sg4_5_cif.got.tgz:8545.got - 2010.03.31 09:31:35.
