data_PCOD8045165
_publ_section_title
;
Structure prediction by ZEFSAII (Michael W. Deem and Ramdas Pophale) SiO2 
 PCOD8045165
Probable space group: P 2
;
_chemical_formula_sum "Si O2"
_cell_formula_units_Z 15
_cell_length_a 13.715026
_cell_length_b 5.989221
_cell_length_c 22.220523
_cell_angle_alpha 90.000000
_cell_angle_beta 159.117488
_cell_angle_gamma 90.000000
_cell_volume 650.613892
_symmetry_space_group_name_H-M "P 2"
_symmetry_group_IT_number 3
_symmetry_cell_setting 'monoclinic'
loop_
_space_group_symop_operation_xyz
x,y,z
-x,y,-z
loop_
_atom_site_type_symbol
_atom_site_label
_atom_site_fract_x
_atom_site_fract_y
_atom_site_fract_z
Si Si1 0.524616 0.295600 0.944942
Si Si2 0.510907 0.669172 0.168970
Si Si3 0.500000 0.769835 0.500000
Si Si4 0.331966 0.696306 0.531353
Si Si5 0.034317 0.998556 0.859804
Si Si6 0.376469 0.343598 0.653401
Si Si7 0.216943 0.024659 0.168236
Si Si8 0.058161 0.996600 0.624711
O O1 0.503961 0.531359 0.900685
O O2 0.273795 0.146659 0.782205
O O3 0.500000 0.354115 0.000000
O O4 0.805552 0.166788 0.091326
O O5 0.554804 0.501933 0.250547
O O6 0.780231 0.826204 0.325951
O O7 0.230964 0.812139 0.004931
O O8 0.390325 0.630443 0.494918
O O9 0.770343 0.910095 0.671863
O O10 0.266832 0.476352 0.532054
O O11 0.598769 0.814986 0.710072
O O12 0.086500 0.868867 0.402922
O O13 0.912909 0.134199 0.846553
O O14 0.654036 0.223988 0.795487
O O15 0.149113 0.150221 0.534915
O O16 0.000000 0.908722 0.000000
#
# Coordination Sequence:
#
# PCOD8045165 Si02
#       8
#     2   2   1   2   2   2   2   2
#     4  11  24  42  68  97 132 179 227 273 331 403
#     4  11  25  43  68 100 136 176 224 280 337 400
#     4  10  22  42  66  94 134 176 226 282 334 394
#     4  10  22  40  64  94 128 172 222 275 332 397
#     4  10  23  43  65  96 135 178 221 279 340 393
#     4  11  24  42  67  97 130 176 224 273 339 406
#     4  10  21  39  62  90 127 166 216 276 333 396
#     4  10  24  44  65  96 135 173 218 280 341 396
#
# _framework density 23.055147999999999
#
# number of rings (size 3 to 8) (size 9 to 14) (size 15 to 20)
#    0.000    1.600    0.000    3.200    0.000   15.467 
#    0.000    6.667    0.000    0.000    0.000    0.000 
#    0.000    0.000    0.000    0.000    0.000    0.000 
#
# Total GULP energy -185871.914119 kJ/mol
# GULP energy per Si atom -12391.460941 kJ/mol
# Density = 2.300267 g / cm^3
# Si number density = 23.055148 Si / 1000 Ang^3
#
#
#
# Elastic Constant Matrix: (Units=GPa)
#
#
# Indices 1 2 3 4 5 6 
#
# 1 151.6658 58.3897 57.8044 0.0000 -0.1162 0.0000
# 2 58.3897 107.1936 43.9520 0.0000 3.1734 0.0000
# 3 57.8044 43.9520 127.8864 0.0000 15.3653 0.0000
# 4 0.0000 0.0000 0.0000 -415.7371 0.0000 -587.2739
# 5 -0.1162 3.1734 15.3653 0.0000 34.3035 0.0000
# 6 0.0000 0.0000 0.0000 -587.2739 0.0000 -763.7295
#
#
#
# Elastic Compliance Matrix: (Units=1/GPa)
#
#
# Indices 1 2 3 4 5 6 
#
# 1 0.009238 -0.003824 -0.003073 0.000000 0.001762 0.000000
# 2 -0.003824 0.012459 -0.002550 0.000000 -0.000023 0.000000
# 3 -0.003073 -0.002550 0.010630 0.000000 -0.004536 0.000000
# 4 0.000000 0.000000 0.000000 0.027894 0.000000 -0.021449
# 5 0.001762 -0.000023 -0.004536 0.000000 0.031191 0.000000
# 6 0.000000 0.000000 0.000000 -0.021449 0.000000 0.015184
#
#
# Mechanical properties :
#
#
# Convention : Reuss Voigt Hill
#
# Bulk Modulus (GPa) = 74.45298 78.55977 76.50638
# Shear Modulus (GPa) = 38.47087 -213.92598 -87.72756
#
# Velocity S-wave (km/s) = 4.08934 -9.64315 -6.17526
# Velocity P-wave (km/s) = 7.39327 9.47831 4.19392
#
# Compressibility (1/GPa) = 0.01343130
#
# Stress axis : x y z
#
# Youngs Moduli (GPa) = 108.24434 80.26648 94.07424
#
# Poissons Ratio (x) = 0.30697 0.28909
# Poissons Ratio (y) = 0.41397 0.23992
# Poissons Ratio (z) = 0.33263 0.20471
#
# Static dielectric constant tensor:
#      x y z
#    x 6.795240 0.000000 0.355690 
#    y 0.000000 4.258210 0.000000 
#    z 0.355690 0.000000 4.334260 
# 
# 
# High freq. dielectric constant tensor:
#      x y z
#    x 1.928630 0.000000 0.011600 
#    y 0.000000 1.898320 0.000000 
#    z 0.011600 0.000000 1.925890 
# 
# From -- ./inp_files/16342.got.cif
#   From: 2010.03.12/outbox.cif.g09.slc.cpg/sg3_9_cif.got.tgz:16342.got - 2010.03.31 09:20:49.
