data_PCOD8045668
_publ_section_title
;
Structure prediction by ZEFSAII (Michael W. Deem and Ramdas Pophale) SiO2 
 PCOD8045668
Probable space group: P 21
;
_chemical_formula_sum "Si O2"
_cell_formula_units_Z 16
_cell_length_a 9.064935
_cell_length_b 13.558504
_cell_length_c 9.029364
_cell_angle_alpha 90.000000
_cell_angle_beta 54.266019
_cell_angle_gamma 90.000000
_cell_volume 900.843045
_symmetry_space_group_name_H-M "P 21"
_symmetry_group_IT_number 4
_symmetry_cell_setting 'monoclinic'
loop_
_space_group_symop_operation_xyz
x,y,z
-x,1/2+y,-z
loop_
_atom_site_type_symbol
_atom_site_label
_atom_site_fract_x
_atom_site_fract_y
_atom_site_fract_z
Si Si1 0.763670 0.814490 0.283890
Si Si2 0.893382 0.942958 0.959283
Si Si3 0.526956 0.865859 0.678551
Si Si4 0.954220 0.641427 0.037414
Si Si5 0.409672 0.762110 0.308862
Si Si6 0.183286 0.788582 0.716447
Si Si7 0.473672 0.402493 0.999116
Si Si8 0.419796 0.061830 0.857064
O O1 0.714115 0.843750 0.480748
O O2 0.579682 0.793485 0.306020
O O3 0.889284 0.717224 0.203324
O O4 0.867197 0.904141 0.142578
O O5 0.064011 0.887669 0.786278
O O6 0.930415 0.059053 0.945361
O O7 0.718417 0.922602 0.963339
O O8 0.362219 0.801570 0.711279
O O9 0.478466 0.983007 0.695078
O O10 0.559733 0.837905 0.831645
O O11 0.785390 0.595402 0.048213
O O12 0.073442 0.696044 0.844258
O O13 0.232298 0.765672 0.516602
O O14 0.391333 0.840610 0.185630
O O15 0.439952 0.652706 0.226749
O O16 0.567406 0.506679 0.990249
#
# Coordination Sequence:
#
# PCOD8045668 Si02
#       8
#     2   2   2   2   2   2   2   2
#     4   8  18  33  56  78 104 143 187 226 260 324
#     4  10  18  35  52  82 111 139 182 229 278 310
#     4   9  18  37  57  78 104 147 182 220 270 327
#     4  10  19  33  56  84 109 138 184 236 272 318
#     4   9  18  36  55  80 107 145 186 218 272 326
#     4  10  20  35  58  82 105 144 184 237 266 315
#     4   9  20  35  56  77 113 147 174 227 267 334
#     4   9  19  36  58  77 109 147 183 217 275 332
#
# _framework density 17.761142
#
# number of rings (size 3 to 8) (size 9 to 14) (size 15 to 20)
#    0.750    2.000    1.250    0.750    1.750    1.000 
#    0.000    7.500    0.000    0.000    0.000    0.000 
#    0.000    0.000    0.000    0.000    0.000    0.000 
#
# Total GULP energy -198303.517506 kJ/mol
# GULP energy per Si atom -12393.969844 kJ/mol
# Density = 1.772072 g / cm^3
# Si number density = 17.761142 Si / 1000 Ang^3
#
#
#
# Elastic Constant Matrix: (Units=GPa)
#
#
# Indices 1 2 3 4 5 6 
#
# 1 60.1286 28.7011 44.7472 0.0000 5.4236 0.0000
# 2 28.7011 119.6533 76.1659 0.0000 2.0667 0.0000
# 3 44.7472 76.1659 156.4378 0.0000 3.8308 0.0000
# 4 0.0000 0.0000 0.0000 22.3374 0.0000 0.6410
# 5 5.4236 2.0667 3.8308 0.0000 23.6603 0.0000
# 6 0.0000 0.0000 0.0000 0.6410 0.0000 30.1976
#
#
#
# Elastic Compliance Matrix: (Units=1/GPa)
#
#
# Indices 1 2 3 4 5 6 
#
# 1 0.021757 -0.001812 -0.005244 0.000000 -0.003980 0.000000
# 2 -0.001812 0.012262 -0.005457 0.000000 0.000228 0.000000
# 3 -0.005244 -0.005457 0.010550 0.000000 -0.000029 0.000000
# 4 0.000000 0.000000 0.000000 0.044795 0.000000 -0.000951
# 5 -0.003980 0.000228 -0.000029 0.000000 0.043162 0.000000
# 6 0.000000 0.000000 0.000000 -0.000951 0.000000 0.033135
#
#
# Mechanical properties :
#
#
# Convention : Reuss Voigt Hill
#
# Bulk Modulus (GPa) = 51.16941 70.60535 60.88738
# Shear Modulus (GPa) = 25.35459 27.67943 26.51701
#
# Velocity S-wave (km/s) = 3.78237 3.95197 3.86810
# Velocity P-wave (km/s) = 6.92440 7.78865 7.36921
#
# Compressibility (1/GPa) = 0.01954293
#
# Stress axis : x y z
#
# Youngs Moduli (GPa) = 45.96155 81.55166 94.78705
#
# Poissons Ratio (x) = 0.14780 0.49702
# Poissons Ratio (y) = 0.08330 0.51729
# Poissons Ratio (z) = 0.24100 0.44506
#
# Static dielectric constant tensor:
#      x y z
#    x 2.997900 0.000000 -0.053110 
#    y 0.000000 3.345700 0.000000 
#    z -0.053110 0.000000 3.477710 
# 
# 
# High freq. dielectric constant tensor:
#      x y z
#    x 1.664070 0.000000 -0.007730 
#    y 0.000000 1.690100 0.000000 
#    z -0.007730 0.000000 1.684900 
# 
# From -- ./inp_files/6627.got.cif
#   From: 2010.03.12/outbox.cif.g09.slc.cpg/sg4_4_cif.got.tgz:6627.got - 2010.03.31 09:31:35.
