data_PCOD8045056
_publ_section_title
;
Structure prediction by ZEFSAII (Michael W. Deem and Ramdas Pophale) SiO2 
 PCOD8045056
Probable space group: P 2
;
_chemical_formula_sum "Si O2"
_cell_formula_units_Z 15
_cell_length_a 13.155611
_cell_length_b 8.405790
_cell_length_c 7.113960
_cell_angle_alpha 90.000000
_cell_angle_beta 111.008673
_cell_angle_gamma 90.000000
_cell_volume 734.391218
_symmetry_space_group_name_H-M "P 2"
_symmetry_group_IT_number 3
_symmetry_cell_setting 'monoclinic'
loop_
_space_group_symop_operation_xyz
x,y,z
-x,y,-z
loop_
_atom_site_type_symbol
_atom_site_label
_atom_site_fract_x
_atom_site_fract_y
_atom_site_fract_z
Si Si1 0.877571 0.834170 0.473786
Si Si2 0.570619 0.221945 0.715426
Si Si3 0.230747 0.017620 0.254230
Si Si4 0.706637 0.819370 0.045326
Si Si5 0.123000 0.466616 0.525275
Si Si6 0.279304 0.462860 0.972557
Si Si7 0.879693 0.326872 0.863719
Si Si8 0.500000 0.019674 0.000000
O O1 0.812067 0.848634 0.239157
O O2 0.872554 0.650746 0.537114
O O3 0.000000 0.887710 0.500000
O O4 0.822096 0.949271 0.590561
O O5 0.500000 0.303874 0.500000
O O6 0.656339 0.115696 0.653369
O O7 0.625032 0.343925 0.899917
O O8 0.494424 0.118210 0.802188
O O9 0.147136 0.143410 0.102800
O O10 0.256478 0.870695 0.136827
O O11 0.669168 0.636716 0.011552
O O12 0.607841 0.914401 0.070089
O O13 0.214996 0.418236 0.738346
O O14 0.149549 0.350157 0.372499
O O15 0.000000 0.424758 0.500000
O O16 0.189465 0.459017 0.074065
O O17 0.000000 0.369863 0.000000
#
# Coordination Sequence:
#
# PCOD8045056 Si02
#       8
#     2   2   2   2   2   2   2   1
#     4  10  22  37  60  90 122 164 201 246 303 364
#     4  10  22  41  65  88 122 159 205 257 312 360
#     4  10  23  38  57  90 122 159 201 252 301 365
#     4  10  22  42  63  88 123 156 210 253 306 360
#     4  10  20  38  58  84 121 163 201 244 293 356
#     4  10  22  40  62  92 119 159 207 251 297 365
#     4  11  22  35  58  85 124 165 200 241 298 358
#     4  10  22  42  66  88 120 162 198 266 312 362
#
# _framework density 20.425082
#
# number of rings (size 3 to 8) (size 9 to 14) (size 15 to 20)
#    0.000    1.867    1.333    1.600    1.867    6.400 
#    0.000    6.667    0.000    0.000    0.000    0.000 
#    0.000    0.000    0.000    0.000    0.000    0.000 
#
# Total GULP energy -185889.062364 kJ/mol
# GULP energy per Si atom -12392.604158 kJ/mol
# Density = 2.037859 g / cm^3
# Si number density = 20.425082 Si / 1000 Ang^3
#
#
#
# Elastic Constant Matrix: (Units=GPa)
#
#
# Indices 1 2 3 4 5 6 
#
# 1 101.6857 46.8111 47.7346 0.0000 -6.3581 0.0000
# 2 46.8111 87.1447 56.9499 0.0000 2.3563 0.0000
# 3 47.7346 56.9499 120.6601 0.0000 10.0207 0.0000
# 4 0.0000 0.0000 0.0000 29.1522 0.0000 11.4987
# 5 -6.3581 2.3563 10.0207 0.0000 35.6089 0.0000
# 6 0.0000 0.0000 0.0000 11.4987 0.0000 31.2057
#
#
#
# Elastic Compliance Matrix: (Units=1/GPa)
#
#
# Indices 1 2 3 4 5 6 
#
# 1 0.014187 -0.005565 -0.003304 0.000000 0.003831 0.000000
# 2 -0.005565 0.018821 -0.006651 0.000000 -0.000367 0.000000
# 3 -0.003304 -0.006651 0.013052 0.000000 -0.003823 0.000000
# 4 0.000000 0.000000 0.000000 0.040136 0.000000 -0.014789
# 5 0.003831 -0.000367 -0.003823 0.000000 0.029867 0.000000
# 6 0.000000 0.000000 0.000000 -0.014789 0.000000 0.037495
#
#
# Mechanical properties :
#
#
# Convention : Reuss Voigt Hill
#
# Bulk Modulus (GPa) = 66.58255 68.05352 67.31803
# Shear Modulus (GPa) = 26.37077 29.72637 28.04857
#
# Velocity S-wave (km/s) = 3.59708 3.81909 3.70975
# Velocity P-wave (km/s) = 7.06549 7.26899 7.16796
#
# Compressibility (1/GPa) = 0.01501895
#
# Stress axis : x y z
#
# Youngs Moduli (GPa) = 70.48908 53.13218 76.61914
#
# Poissons Ratio (x) = 0.29568 0.25315
# Poissons Ratio (y) = 0.39227 0.50961
# Poissons Ratio (z) = 0.23289 0.35339
#
# Static dielectric constant tensor:
#      x y z
#    x 3.770210 0.000000 -0.051620 
#    y 0.000000 3.696660 0.000000 
#    z -0.051620 0.000000 3.586870 
# 
# 
# High freq. dielectric constant tensor:
#      x y z
#    x 1.806810 0.000000 -0.002870 
#    y 0.000000 1.794920 0.000000 
#    z -0.002870 0.000000 1.799610 
# 
# From -- ./inp_files/3206.got.cif
#   From: 2010.03.12/outbox.cif.g09.slc.cpg/sg3_2_cif.got.tgz:3206.got - 2010.03.31 09:20:49.
