data_PCOD8045465
_publ_section_title
;
Structure prediction by ZEFSAII (Michael W. Deem and Ramdas Pophale) SiO2 
 PCOD8045465
Probable space group: P 2
;
_chemical_formula_sum "Si O2"
_cell_formula_units_Z 13
_cell_length_a 7.488847
_cell_length_b 10.188375
_cell_length_c 10.066070
_cell_angle_alpha 90.000000
_cell_angle_beta 47.495908
_cell_angle_gamma 90.000000
_cell_volume 566.216194
_symmetry_space_group_name_H-M "P 2"
_symmetry_group_IT_number 3
_symmetry_cell_setting 'monoclinic'
loop_
_space_group_symop_operation_xyz
x,y,z
-x,y,-z
loop_
_atom_site_type_symbol
_atom_site_label
_atom_site_fract_x
_atom_site_fract_y
_atom_site_fract_z
Si Si1 0.304971 0.026360 0.198299
Si Si2 0.389326 0.517011 0.749570
Si Si3 0.514407 0.218835 0.683411
Si Si4 0.000000 0.831990 0.500000
Si Si5 0.907114 0.186817 0.273404
Si Si6 0.862010 0.603012 0.392554
Si Si7 0.233345 0.432935 0.091036
O O1 0.417472 0.157641 0.208883
O O2 0.067861 0.062721 0.233122
O O3 0.500000 0.963830 0.000000
O O4 0.232856 0.921858 0.347765
O O5 0.387687 0.359762 0.748295
O O6 0.666741 0.563075 0.602360
O O7 0.244017 0.587376 0.703315
O O8 0.258616 0.540136 0.957181
O O9 0.758971 0.235312 0.476517
O O10 0.294562 0.133528 0.729725
O O11 0.939336 0.749017 0.397473
O O12 0.076962 0.304119 0.132197
O O13 0.099013 0.509759 0.278678
O O14 0.500000 0.386441 0.000000
#
# Coordination Sequence:
#
# PCOD8045465 Si02
#       7
#     2   2   2   1   2   2   2
#     4  12  27  47  72 105 138 186 244 292 350 422
#     4  11  22  43  71 108 142 176 230 298 366 430
#     4  11  21  43  78 105 146 180 220 299 370 428
#     4  12  28  50  68  92 146 196 250 286 334 420
#     4  11  21  42  72 110 143 181 223 289 373 427
#     4  11  24  45  67  98 140 193 239 289 344 418
#     4  12  23  37  70 110 146 182 226 292 370 433
#
# _framework density 22.959427999999999
#
# number of rings (size 3 to 8) (size 9 to 14) (size 15 to 20)
#    0.000    0.615    4.615    4.615    0.000    3.692 
#    5.538    0.000    0.000    0.000    0.000    0.000 
#    0.000    0.000    0.000    0.000    0.000    0.000 
#
# Total GULP energy -161102.047833 kJ/mol
# GULP energy per Si atom -12392.465218 kJ/mol
# Density = 2.290717 g / cm^3
# Si number density = 22.959428 Si / 1000 Ang^3
#
#
#
# Elastic Constant Matrix: (Units=GPa)
#
#
# Indices 1 2 3 4 5 6 
#
# 1 105.1670 29.4834 43.4829 0.0000 -9.8017 0.0000
# 2 29.4834 81.3062 33.6741 0.0000 -4.3712 0.0000
# 3 43.4829 33.6741 136.5822 0.0000 -20.0870 0.0000
# 4 0.0000 0.0000 0.0000 27.7704 0.0000 7.1575
# 5 -9.8017 -4.3712 -20.0870 0.0000 40.5805 0.0000
# 6 0.0000 0.0000 0.0000 7.1575 0.0000 25.4441
#
#
#
# Elastic Compliance Matrix: (Units=1/GPa)
#
#
# Indices 1 2 3 4 5 6 
#
# 1 0.011606 -0.002991 -0.002796 0.000000 0.001097 0.000000
# 2 -0.002991 0.014471 -0.002688 0.000000 -0.000494 0.000000
# 3 -0.002796 -0.002688 0.009418 0.000000 0.003697 0.000000
# 4 0.000000 0.000000 0.000000 0.038824 0.000000 -0.010921
# 5 0.001097 -0.000494 0.003697 0.000000 0.026684 0.000000
# 6 0.000000 0.000000 0.000000 -0.010921 0.000000 0.042374
#
#
# Mechanical properties :
#
#
# Convention : Reuss Voigt Hill
#
# Bulk Modulus (GPa) = 53.92717 59.59290 56.76004
# Shear Modulus (GPa) = 30.02840 33.18668 31.60754
#
# Velocity S-wave (km/s) = 3.62040 3.80603 3.71437
# Velocity P-wave (km/s) = 6.40433 6.73250 6.57046
#
# Compressibility (1/GPa) = 0.01854353
#
# Stress axis : x y z
#
# Youngs Moduli (GPa) = 86.16527 69.10527 106.17774
#
# Poissons Ratio (x) = 0.20673 0.29687
# Poissons Ratio (y) = 0.25776 0.28541
# Poissons Ratio (z) = 0.24091 0.18576
#
# Static dielectric constant tensor:
#      x y z
#    x 4.274270 0.000000 0.002550 
#    y 0.000000 3.688280 0.000000 
#    z 0.002550 0.000000 4.898310 
# 
# 
# High freq. dielectric constant tensor:
#      x y z
#    x 1.912810 0.000000 -0.013670 
#    y 0.000000 1.852850 0.000000 
#    z -0.013670 0.000000 1.936990 
# 
# From -- ./inp_files/10644.got.cif
#   From: 2010.03.12/outbox.cif.g09.slc.cpg/sg3_6_cif.got.tgz:10644.got - 2010.03.31 09:20:49.
