data_PCOD8045960
_publ_section_title
;
Structure prediction by ZEFSAII (Michael W. Deem and Ramdas Pophale) SiO2 
 PCOD8045960
Probable space group: P 21
;
_chemical_formula_sum "Si O2"
_cell_formula_units_Z 16
_cell_length_a 14.899888
_cell_length_b 9.255272
_cell_length_c 6.296721
_cell_angle_alpha 90.000000
_cell_angle_beta 116.630210
_cell_angle_gamma 90.000000
_cell_volume 776.219119
_symmetry_space_group_name_H-M "P 21"
_symmetry_group_IT_number 4
_symmetry_cell_setting 'monoclinic'
loop_
_space_group_symop_operation_xyz
x,y,z
-x,1/2+y,-z
loop_
_atom_site_type_symbol
_atom_site_label
_atom_site_fract_x
_atom_site_fract_y
_atom_site_fract_z
Si Si1 0.428033 0.027330 0.490861
Si Si2 0.727494 0.318870 0.575455
Si Si3 0.802552 0.529803 0.298230
Si Si4 0.912683 0.396512 0.037133
Si Si5 0.284590 0.229664 0.147875
Si Si6 0.573828 0.103711 0.283112
Si Si7 0.556489 0.876652 0.936393
Si Si8 0.099307 0.188314 0.220389
O O1 0.353915 0.164059 0.409757
O O2 0.519625 0.048894 0.433025
O O3 0.358670 0.887276 0.363041
O O4 0.478412 0.997143 0.769977
O O5 0.740559 0.423700 0.385399
O O6 0.685296 0.165120 0.452009
O O7 0.828414 0.304710 0.820042
O O8 0.880456 0.434107 0.243268
O O9 0.859515 0.649017 0.502406
O O10 0.729659 0.611891 0.055944
O O11 0.009948 0.298847 0.156341
O O12 0.936895 0.542461 0.934062
O O13 0.345508 0.362553 0.111917
O O14 0.180677 0.268983 0.153844
O O15 0.502679 0.224959 0.093780
O O16 0.595410 0.953116 0.188218
#
# Coordination Sequence:
#
# PCOD8045960 Si02
#       8
#     2   2   2   2   2   2   2   2
#     4  10  20  38  60  86 122 174 204 244 304 368
#     4  10  21  41  64  90 127 168 207 253 317 373
#     4  10  20  38  70  90 124 166 208 250 318 382
#     4  10  22  43  69  92 124 162 206 259 320 378
#     4  10  21  41  64  90 127 168 207 253 317 373
#     4  10  24  38  62  94 126 167 213 257 305 368
#     4  10  24  38  62  94 126 167 213 257 305 368
#     4  10  22  43  69  92 124 162 206 259 320 378
#
# _framework density 20.612738
#
# number of rings (size 3 to 8) (size 9 to 14) (size 15 to 20)
#    0.000    2.000    3.750    0.000    7.000    9.000 
#    6.750    0.000    0.000    0.000    0.000    0.000 
#    0.000    0.000    0.000    0.000    0.000    0.000 
#
# Total GULP energy -198243.514271 kJ/mol
# GULP energy per Si atom -12390.219642 kJ/mol
# Density = 2.056582 g / cm^3
# Si number density = 20.612738 Si / 1000 Ang^3
#
#
#
# Elastic Constant Matrix: (Units=GPa)
#
#
# Indices 1 2 3 4 5 6 
#
# 1 106.1836 34.6715 30.6977 0.0000 12.1715 0.0000
# 2 34.6715 56.8777 17.4306 0.0000 0.2113 0.0000
# 3 30.6977 17.4306 51.3597 0.0000 0.0358 0.0000
# 4 0.0000 0.0000 0.0000 25.6242 0.0000 9.4049
# 5 12.1715 0.2113 0.0358 0.0000 20.4401 0.0000
# 6 0.0000 0.0000 0.0000 9.4049 0.0000 38.1281
#
#
#
# Elastic Compliance Matrix: (Units=1/GPa)
#
#
# Indices 1 2 3 4 5 6 
#
# 1 0.014454 -0.006846 -0.006310 0.000000 -0.008525 0.000000
# 2 -0.006846 0.022865 -0.003671 0.000000 0.003846 0.000000
# 3 -0.006310 -0.003671 0.024485 0.000000 0.003753 0.000000
# 4 0.000000 0.000000 0.000000 0.042910 0.000000 -0.010585
# 5 -0.008525 0.003846 0.003753 0.000000 0.053954 0.000000
# 6 0.000000 0.000000 0.000000 -0.010585 0.000000 0.028838
#
#
# Mechanical properties :
#
#
# Convention : Reuss Voigt Hill
#
# Bulk Modulus (GPa) = 35.52243 42.22451 38.87347
# Shear Modulus (GPa) = 21.68772 25.61323 23.65047
#
# Velocity S-wave (km/s) = 3.24721 3.52887 3.39096
# Velocity P-wave (km/s) = 5.59730 6.09369 5.85076
#
# Compressibility (1/GPa) = 0.02815123
#
# Stress axis : x y z
#
# Youngs Moduli (GPa) = 69.18298 43.73437 40.84066
#
# Poissons Ratio (x) = 0.29939 0.25771
# Poissons Ratio (y) = 0.47360 0.14993
# Poissons Ratio (z) = 0.43656 0.16056
#
# Static dielectric constant tensor:
#      x y z
#    x 3.777570 0.000000 -0.065550 
#    y 0.000000 3.606160 0.000000 
#    z -0.065550 0.000000 3.807700 
# 
# 
# High freq. dielectric constant tensor:
#      x y z
#    x 1.807030 0.000000 -0.001230 
#    y 0.000000 1.787680 0.000000 
#    z -0.001230 0.000000 1.803740 
# 
# From -- ./inp_files/3500.got.cif
#   From: 2010.03.12/outbox.cif.g09.slc.cpg/sg4_2_cif.got.tgz:3500.got - 2010.03.31 09:31:35.
