data_PCOD8045720
_publ_section_title
;
Structure prediction by ZEFSAII (Michael W. Deem and Ramdas Pophale) SiO2 
 PCOD8045720
Probable space group: P 21
;
_chemical_formula_sum "Si O2"
_cell_formula_units_Z 14
_cell_length_a 12.525328
_cell_length_b 13.580222
_cell_length_c 5.089977
_cell_angle_alpha 90.000000
_cell_angle_beta 117.528575
_cell_angle_gamma 90.000000
_cell_volume 767.764275
_symmetry_space_group_name_H-M "P 21"
_symmetry_group_IT_number 4
_symmetry_cell_setting 'monoclinic'
loop_
_space_group_symop_operation_xyz
x,y,z
-x,1/2+y,-z
loop_
_atom_site_type_symbol
_atom_site_label
_atom_site_fract_x
_atom_site_fract_y
_atom_site_fract_z
Si Si1 0.367653 0.613400 0.580179
Si Si2 0.430749 0.953527 0.281247
Si Si3 0.138457 0.808745 0.650182
Si Si4 0.022434 0.983902 0.332457
Si Si5 0.395748 0.828140 0.741709
Si Si6 0.206564 0.602924 0.887356
Si Si7 0.835412 0.487037 0.015445
O O1 0.464329 0.532236 0.618700
O O2 0.435618 0.714843 0.737795
O O3 0.291611 0.573679 0.741942
O O4 0.282623 0.630929 0.230693
O O5 0.445766 0.898153 0.573078
O O6 0.445035 0.871115 0.071685
O O7 0.305693 0.015767 0.134951
O O8 0.026754 0.863544 0.373777
O O9 0.251020 0.826595 0.583000
O O10 0.121854 0.694951 0.702552
O O11 0.162341 0.867462 0.950583
O O12 0.091016 0.034962 0.656828
O O13 0.096885 0.021766 0.167318
O O14 0.883111 0.013350 0.151666
#
# Coordination Sequence:
#
# PCOD8045720 Si02
#       7
#     2   2   2   2   2   2   2
#     4  11  23  36  58  87 114 145 190 227 283 336
#     4  11  19  36  61  81 113 141 189 239 273 322
#     4   8  19  32  58  79 104 139 196 222 259 319
#     4  10  19  33  56  79 109 137 189 222 274 316
#     4  10  19  35  59  86 104 149 194 229 269 326
#     4  11  22  35  56  84 114 146 184 232 275 330
#     4   9  17  33  54  80  98 139 184 229 263 313
#
# _framework density 18.234763000000001
#
# number of rings (size 3 to 8) (size 9 to 14) (size 15 to 20)
#    0.857    1.143    1.429    4.286    2.000    0.000 
#    0.000    0.000    9.429    0.000    0.000    0.000 
#    0.000    0.000    0.000    0.000    0.000    0.000 
#
# Total GULP energy -173443.821282 kJ/mol
# GULP energy per Si atom -12388.844377 kJ/mol
# Density = 1.819326 g / cm^3
# Si number density = 18.234763 Si / 1000 Ang^3
#
#
#
# Elastic Constant Matrix: (Units=GPa)
#
#
# Indices 1 2 3 4 5 6 
#
# 1 98.2871 45.3340 42.5749 0.0000 -15.1920 0.0000
# 2 45.3340 73.5748 21.4816 0.0000 3.5848 0.0000
# 3 42.5749 21.4816 81.6125 0.0000 -22.4063 0.0000
# 4 0.0000 0.0000 0.0000 20.5286 0.0000 1.2428
# 5 -15.1920 3.5848 -22.4063 0.0000 33.0835 0.0000
# 6 0.0000 0.0000 0.0000 1.2428 0.0000 31.7042
#
#
#
# Elastic Compliance Matrix: (Units=1/GPa)
#
#
# Indices 1 2 3 4 5 6 
#
# 1 0.017775 -0.009732 -0.005135 0.000000 0.005739 0.000000
# 2 -0.009732 0.020813 -0.002761 0.000000 -0.008594 0.000000
# 3 -0.005135 -0.002761 0.018541 0.000000 0.010498 0.000000
# 4 0.000000 0.000000 0.000000 0.048828 0.000000 -0.001914
# 5 0.005739 -0.008594 0.010498 0.000000 0.040903 0.000000
# 6 0.000000 0.000000 0.000000 -0.001914 0.000000 0.031617
#
#
# Mechanical properties :
#
#
# Convention : Reuss Voigt Hill
#
# Bulk Modulus (GPa) = 45.72072 52.47281 49.09677
# Shear Modulus (GPa) = 22.62197 26.66885 24.64541
#
# Velocity S-wave (km/s) = 3.52603 3.82845 3.68035
# Velocity P-wave (km/s) = 6.45794 6.95568 6.71142
#
# Compressibility (1/GPa) = 0.02187192
#
# Stress axis : x y z
#
# Youngs Moduli (GPa) = 56.25965 48.04663 53.93509
#
# Poissons Ratio (x) = 0.46761 0.27697
# Poissons Ratio (y) = 0.54754 0.14890
# Poissons Ratio (z) = 0.28891 0.13264
#
# Static dielectric constant tensor:
#      x y z
#    x 3.275350 0.000000 -0.200640 
#    y 0.000000 3.221510 0.000000 
#    z -0.200640 0.000000 3.322230 
# 
# 
# High freq. dielectric constant tensor:
#      x y z
#    x 1.699700 0.000000 -0.027240 
#    y 0.000000 1.679160 0.000000 
#    z -0.027240 0.000000 1.707030 
# 
# From -- ./inp_files/2751.got.cif
#   From: 2010.03.12/outbox.cif.g09.slc.cpg/sg4_2_cif.got.tgz:2751.got - 2010.03.31 09:31:35.
