data_PCOD8045442
_publ_section_title
;
Structure prediction by ZEFSAII (Michael W. Deem and Ramdas Pophale) SiO2 
 PCOD8045442
Probable space group: P 2
;
_chemical_formula_sum "Si O2"
_cell_formula_units_Z 14
_cell_length_a 14.499275
_cell_length_b 6.712322
_cell_length_c 8.741242
_cell_angle_alpha 90.000000
_cell_angle_beta 42.985391
_cell_angle_gamma 90.000000
_cell_volume 580.038425
_symmetry_space_group_name_H-M "P 2"
_symmetry_group_IT_number 3
_symmetry_cell_setting 'monoclinic'
loop_
_space_group_symop_operation_xyz
x,y,z
-x,y,-z
loop_
_atom_site_type_symbol
_atom_site_label
_atom_site_fract_x
_atom_site_fract_y
_atom_site_fract_z
Si Si1 0.219652 0.934790 0.185391
Si Si2 0.453093 0.420807 0.231012
Si Si3 0.233518 0.164820 0.633711
Si Si4 0.379162 0.179594 0.755181
Si Si5 0.000000 0.414142 0.000000
Si Si6 0.743844 0.764967 0.552448
Si Si7 0.000000 0.249324 0.500000
Si Si8 0.039888 0.602448 0.236276
O O1 0.304907 0.843601 0.222097
O O2 0.124371 0.774785 0.215289
O O3 0.128497 0.106465 0.375759
O O4 0.331843 0.012248 0.931511
O O5 0.348654 0.239767 0.378632
O O6 0.575738 0.378389 0.203163
O O7 0.375113 0.624238 0.368466
O O8 0.500000 0.420385 0.000000
O O9 0.259174 0.221702 0.781344
O O10 0.223395 0.929986 0.615633
O O11 0.091653 0.276106 0.777194
O O12 0.500000 0.096939 0.500000
O O13 0.087863 0.560743 0.003709
O O14 0.881376 0.651056 0.423360
O O15 0.945745 0.390010 0.699581
#
# Coordination Sequence:
#
# PCOD8045442 Si02
#       8
#     2   2   2   2   1   2   1   2
#     4  12  25  45  79 111 158 198 250 324 388 458
#     4  11  26  49  75 106 147 200 259 317 370 455
#     4  11  26  48  74 109 150 204 249 317 388 453
#     4  10  26  49  72 104 149 205 253 303 387 451
#     4  12  26  44  76 110 162 198 246 318 396 464
#     4  12  25  45  74 112 147 196 267 311 375 453
#     4  12  22  46  72 110 154 194 246 316 398 450
#     4  12  26  43  69 121 151 199 251 317 391 458
#
# _framework density 24.136330999999998
#
# number of rings (size 3 to 8) (size 9 to 14) (size 15 to 20)
#    0.000    0.571    4.286    2.571    6.000    4.000 
#    0.000    9.286    0.000    0.000    0.000    0.000 
#    0.000    0.000    0.000    0.000    0.000    0.000 
#
# Total GULP energy -173510.339391 kJ/mol
# GULP energy per Si atom -12393.595671 kJ/mol
# Density = 2.408140 g / cm^3
# Si number density = 24.136331 Si / 1000 Ang^3
#
#
#
# Elastic Constant Matrix: (Units=GPa)
#
#
# Indices 1 2 3 4 5 6 
#
# 1 111.9946 62.1581 15.9732 0.0000 13.9042 0.0000
# 2 62.1581 139.8721 36.0567 0.0000 11.3866 0.0000
# 3 15.9732 36.0567 91.0220 0.0000 12.7135 0.0000
# 4 0.0000 0.0000 0.0000 48.5945 0.0000 -1.7783
# 5 13.9042 11.3866 12.7135 0.0000 29.1641 0.0000
# 6 0.0000 0.0000 0.0000 -1.7783 0.0000 40.8180
#
#
#
# Elastic Compliance Matrix: (Units=1/GPa)
#
#
# Indices 1 2 3 4 5 6 
#
# 1 0.012273 -0.005253 0.000488 0.000000 -0.004013 0.000000
# 2 -0.005253 0.010305 -0.003139 0.000000 -0.000151 0.000000
# 3 0.000488 -0.003139 0.012784 0.000000 -0.004580 0.000000
# 4 0.000000 0.000000 0.000000 0.020611 0.000000 0.000898
# 5 -0.004013 -0.000151 -0.004580 0.000000 0.038257 0.000000
# 6 0.000000 0.000000 0.000000 0.000898 0.000000 0.024538
#
#
# Mechanical properties :
#
#
# Convention : Reuss Voigt Hill
#
# Bulk Modulus (GPa) = 51.14345 63.47386 57.30865
# Shear Modulus (GPa) = 35.43670 38.96203 37.19937
#
# Velocity S-wave (km/s) = 3.83585 4.02213 3.93009
# Velocity P-wave (km/s) = 6.39169 6.92280 6.66254
#
# Compressibility (1/GPa) = 0.01955285
#
# Stress axis : x y z
#
# Youngs Moduli (GPa) = 81.47829 97.03659 78.22239
#
# Poissons Ratio (x) = 0.50975 -0.03814
# Poissons Ratio (y) = 0.42802 0.24557
# Poissons Ratio (z) = -0.03973 0.30464
#
# Static dielectric constant tensor:
#      x y z
#    x 4.652870 0.000000 0.158680 
#    y 0.000000 4.415200 0.000000 
#    z 0.158680 0.000000 4.319200 
# 
# 
# High freq. dielectric constant tensor:
#      x y z
#    x 1.961300 0.000000 0.011720 
#    y 0.000000 1.956380 0.000000 
#    z 0.011720 0.000000 1.964780 
# 
# From -- ./inp_files/8265.got.cif
#   From: 2010.03.12/outbox.cif.g09.slc.cpg/sg3_5_cif.got.tgz:8265.got - 2010.03.31 09:20:49.
