data_PCOD8045367
_publ_section_title
;
Structure prediction by ZEFSAII (Michael W. Deem and Ramdas Pophale) SiO2 
 PCOD8045367
Probable space group: P 2
;
_chemical_formula_sum "Si O2"
_cell_formula_units_Z 12
_cell_length_a 15.009500
_cell_length_b 5.205868
_cell_length_c 19.459777
_cell_angle_alpha 90.000000
_cell_angle_beta 159.441749
_cell_angle_gamma 90.000000
_cell_volume 533.951294
_symmetry_space_group_name_H-M "P 2"
_symmetry_group_IT_number 3
_symmetry_cell_setting 'monoclinic'
loop_
_space_group_symop_operation_xyz
x,y,z
-x,y,-z
loop_
_atom_site_type_symbol
_atom_site_label
_atom_site_fract_x
_atom_site_fract_y
_atom_site_fract_z
Si Si1 0.923202 0.132860 0.872407
Si Si2 0.362310 0.069844 0.826179
Si Si3 0.373700 0.626584 0.341737
Si Si4 0.213250 0.570273 0.762548
Si Si5 0.451761 0.114606 0.187618
Si Si6 0.326952 0.612910 0.581027
O O1 0.731111 0.351154 0.706980
O O2 0.824583 0.848915 0.820515
O O3 0.000000 0.262223 0.000000
O O4 0.154196 0.105192 0.987294
O O5 0.169917 0.310482 0.687799
O O6 0.545187 0.092763 0.892875
O O7 0.197882 0.810855 0.699475
O O8 0.500000 0.051077 0.000000
O O9 0.500000 0.750706 0.500000
O O10 0.567708 0.586077 0.419500
O O11 0.980814 0.596650 0.648470
O O12 0.500000 0.552083 0.000000
O O13 0.568826 0.383467 0.296616
O O14 0.595773 0.883094 0.329437
#
# Coordination Sequence:
#
# PCOD8045367 Si02
#       6
#     2   2   2   2   2   2
#     4  12  23  46  72  99 143 180 228 280 341 408
#     4  10  23  42  62  93 127 169 221 270 331 399
#     4  12  26  43  69 105 142 181 227 285 334 402
#     4  10  23  42  65  88 134 171 217 277 335 392
#     4  12  25  40  72  98 130 180 221 275 340 399
#     4  12  24  42  66 100 132 174 229 273 335 406
#
# _framework density 22.473962
#
# number of rings (size 3 to 8) (size 9 to 14) (size 15 to 20)
#    0.000    0.667    3.333    4.000    0.000    9.333 
#    0.000    0.000    0.000    0.000    0.000    0.000 
#    0.000    0.000    0.000    0.000    0.000    0.000 
#
# Total GULP energy -148694.495760 kJ/mol
# GULP energy per Si atom -12391.207980 kJ/mol
# Density = 2.242281 g / cm^3
# Si number density = 22.473962 Si / 1000 Ang^3
#
#
#
# Elastic Constant Matrix: (Units=GPa)
#
#
# Indices 1 2 3 4 5 6 
#
# 1 142.4995 2.9253 38.5588 0.0000 17.6702 0.0000
# 2 2.9253 159.8718 7.9429 0.0000 14.4128 0.0000
# 3 38.5588 7.9429 93.8556 0.0000 32.9919 0.0000
# 4 0.0000 0.0000 0.0000 6.4402 0.0000 9.9931
# 5 17.6702 14.4128 32.9919 0.0000 49.2358 0.0000
# 6 0.0000 0.0000 0.0000 9.9931 0.0000 27.5442
#
#
#
# Elastic Compliance Matrix: (Units=1/GPa)
#
#
# Indices 1 2 3 4 5 6 
#
# 1 0.007924 0.000082 -0.002949 0.000000 -0.000892 0.000000
# 2 0.000082 0.006427 0.000123 0.000000 -0.001993 0.000000
# 3 -0.002949 0.000123 0.015039 0.000000 -0.009055 0.000000
# 4 0.000000 0.000000 0.000000 0.355284 0.000000 -0.128898
# 5 -0.000892 -0.001993 -0.009055 0.000000 0.027281 0.000000
# 6 0.000000 0.000000 0.000000 -0.128898 0.000000 0.083070
#
#
# Mechanical properties :
#
#
# Convention : Reuss Voigt Hill
#
# Bulk Modulus (GPa) = 41.83702 55.00898 48.42300
# Shear Modulus (GPa) = 9.83321 39.76402 24.79862
#
# Velocity S-wave (km/s) = 2.09401 4.21091 3.32541
# Velocity P-wave (km/s) = 4.95002 6.94063 6.02806
#
# Compressibility (1/GPa) = 0.02390227
#
# Stress axis : x y z
#
# Youngs Moduli (GPa) = 126.19157 155.59132 66.49504
#
# Poissons Ratio (x) = -0.01275 0.19610
# Poissons Ratio (y) = -0.01034 -0.00819
# Poissons Ratio (z) = 0.37214 -0.01915
#
# Static dielectric constant tensor:
#      x y z
#    x 3.969370 0.000000 0.239440 
#    y 0.000000 5.455440 0.000000 
#    z 0.239440 0.000000 3.868410 
# 
# 
# High freq. dielectric constant tensor:
#      x y z
#    x 1.885800 0.000000 0.014900 
#    y 0.000000 1.924290 0.000000 
#    z 0.014900 0.000000 1.872630 
# 
# From -- ./inp_files/14248.got.cif
#   From: 2010.03.12/outbox.cif.g09.slc.cpg/sg3_8_cif.got.tgz:14248.got - 2010.03.31 09:20:49.
