data_PCOD8045114
_publ_section_title
;
Structure prediction by ZEFSAII (Michael W. Deem and Ramdas Pophale) SiO2 
 PCOD8045114
Probable space group: P 2
;
_chemical_formula_sum "Si O2"
_cell_formula_units_Z 16
_cell_length_a 10.080185
_cell_length_b 5.316193
_cell_length_c 25.968926
_cell_angle_alpha 90.000000
_cell_angle_beta 31.980713
_cell_angle_gamma 90.000000
_cell_volume 737.053297
_symmetry_space_group_name_H-M "P 2"
_symmetry_group_IT_number 3
_symmetry_cell_setting 'monoclinic'
loop_
_space_group_symop_operation_xyz
x,y,z
-x,y,-z
loop_
_atom_site_type_symbol
_atom_site_label
_atom_site_fract_x
_atom_site_fract_y
_atom_site_fract_z
Si Si1 0.702735 0.151150 0.094603
Si Si2 0.793089 0.712200 0.397040
Si Si3 0.742926 0.211635 0.453945
Si Si4 0.707191 0.181558 0.582973
Si Si5 0.602309 0.143809 0.909612
Si Si6 0.441591 0.655196 0.212949
Si Si7 0.152716 0.646551 0.202534
Si Si8 0.269855 0.681088 0.382287
O O1 0.609756 0.147212 0.065128
O O2 0.594963 0.394428 0.159630
O O3 0.626591 0.895601 0.149114
O O4 0.000000 0.171844 0.000000
O O5 0.500000 0.762612 0.500000
O O6 0.893901 0.474703 0.398067
O O7 0.857821 0.672795 0.314509
O O8 0.912081 0.977092 0.378553
O O9 0.500000 0.263997 0.500000
O O10 0.658426 0.159386 0.539145
O O11 0.579983 0.436307 0.646550
O O12 0.000000 0.197763 0.500000
O O13 0.584174 0.936503 0.650069
O O14 0.791922 0.376965 0.840007
O O15 0.748312 0.877867 0.863985
O O16 0.500000 0.185339 0.000000
O O17 0.257442 0.674011 0.225782
O O18 0.270009 0.666221 0.320515
O O19 0.000000 0.692895 0.500000
#
# Coordination Sequence:
#
# PCOD8045114 Si02
#       8
#     2   2   2   2   2   2   2   2
#     4  10  21  40  67  89 116 154 196 245 307 361
#     4  10  21  36  59  84 117 162 202 237 282 336
#     4  10  21  36  55  74 109 160 199 233 279 337
#     4  10  21  32  53  80 105 152 199 231 287 321
#     4  10  21  40  65  93 118 148 192 255 309 351
#     4  10  21  36  61  92 116 155 206 239 287 364
#     4  10  21  35  63  92 114 156 206 240 285 364
#     4  10  21  35  53  86 122 153 190 245 287 324
#
# _framework density 21.708065000000001
#
# number of rings (size 3 to 8) (size 9 to 14) (size 15 to 20)
#    0.000    2.000    0.000    3.000    7.000    0.000 
#    0.000    0.000   33.000    0.000    0.000    0.000 
#    0.000    0.000    0.000    0.000    0.000    0.000 
#
# Total GULP energy -198219.767074 kJ/mol
# GULP energy per Si atom -12388.735442 kJ/mol
# Density = 2.165866 g / cm^3
# Si number density = 21.708065 Si / 1000 Ang^3
#
#
#
# Elastic Constant Matrix: (Units=GPa)
#
#
# Indices 1 2 3 4 5 6 
#
# 1 51.4022 2.0570 21.8865 0.0000 12.4733 0.0000
# 2 2.0570 187.2650 10.3012 0.0000 9.7202 0.0000
# 3 21.8865 10.3012 104.5739 0.0000 15.5632 0.0000
# 4 0.0000 0.0000 0.0000 42.0515 0.0000 9.3148
# 5 12.4733 9.7202 15.5632 0.0000 36.6869 0.0000
# 6 0.0000 0.0000 0.0000 9.3148 0.0000 14.9551
#
#
#
# Elastic Compliance Matrix: (Units=1/GPa)
#
#
# Indices 1 2 3 4 5 6 
#
# 1 0.022562 0.000281 -0.003839 0.000000 -0.006117 0.000000
# 2 0.000281 0.005429 -0.000390 0.000000 -0.001369 0.000000
# 3 -0.003839 -0.000390 0.010882 0.000000 -0.003208 0.000000
# 4 0.000000 0.000000 0.000000 0.027586 0.000000 -0.017182
# 5 -0.006117 -0.001369 -0.003208 0.000000 0.031061 0.000000
# 6 0.000000 0.000000 0.000000 -0.017182 0.000000 0.077569
#
#
# Mechanical properties :
#
#
# Convention : Reuss Voigt Hill
#
# Bulk Modulus (GPa) = 32.28243 45.74781 39.01512
# Shear Modulus (GPa) = 25.86487 39.33846 32.60166
#
# Velocity S-wave (km/s) = 3.45554 4.26156 3.87954
# Velocity P-wave (km/s) = 5.55198 6.73308 6.17085
#
# Compressibility (1/GPa) = 0.03097660
#
# Stress axis : x y z
#
# Youngs Moduli (GPa) = 44.32186 184.18141 91.89512
#
# Poissons Ratio (x) = -0.05173 0.35283
# Poissons Ratio (y) = -0.01245 0.03583
# Poissons Ratio (z) = 0.17017 0.07182
#
# Static dielectric constant tensor:
#      x y z
#    x 3.395840 0.000000 0.108770 
#    y 0.000000 5.610660 0.000000 
#    z 0.108770 0.000000 3.953740 
# 
# 
# High freq. dielectric constant tensor:
#      x y z
#    x 1.811650 0.000000 0.018970 
#    y 0.000000 1.900140 0.000000 
#    z 0.018970 0.000000 1.838630 
# 
# From -- ./inp_files/16291.got.cif
#   From: 2010.03.12/outbox.cif.g09.slc.cpg/sg3_9_cif.got.tgz:16291.got - 2010.03.31 09:20:49.
