data_PCOD8045308
_publ_section_title
;
Structure prediction by ZEFSAII (Michael W. Deem and Ramdas Pophale) SiO2 
 PCOD8045308
Probable space group: P 2
;
_chemical_formula_sum "Si O2"
_cell_formula_units_Z 10
_cell_length_a 9.146723
_cell_length_b 10.714315
_cell_length_c 8.069866
_cell_angle_alpha 90.000000
_cell_angle_beta 31.373258
_cell_angle_gamma 90.000000
_cell_volume 411.727392
_symmetry_space_group_name_H-M "P 2"
_symmetry_group_IT_number 3
_symmetry_cell_setting 'monoclinic'
loop_
_space_group_symop_operation_xyz
x,y,z
-x,y,-z
loop_
_atom_site_type_symbol
_atom_site_label
_atom_site_fract_x
_atom_site_fract_y
_atom_site_fract_z
Si Si1 0.476875 0.756700 0.332534
Si Si2 0.228029 0.161502 0.155596
Si Si3 0.871851 0.522655 0.445686
Si Si4 0.622299 0.389835 0.196575
Si Si5 0.983173 0.919389 0.823197
O O1 0.500000 0.718473 0.500000
O O2 0.324481 0.642228 0.393787
O O3 0.297650 0.881580 0.469984
O O4 0.789335 0.796275 0.971779
O O5 0.000000 0.221961 0.500000
O O6 0.110655 0.033647 0.196297
O O7 0.500000 0.132635 0.000000
O O8 0.266687 0.254077 0.962427
O O9 0.644489 0.411626 0.664707
O O10 0.000000 0.535729 0.500000
O O11 0.127555 0.493821 0.068085
O O12 0.500000 0.393933 0.500000
O O13 0.000000 0.956295 0.000000
#
# Coordination Sequence:
#
# PCOD8045308 Si02
#       5
#     2   2   2   2   2
#     4  10  22  42  68  98 135 177 225 274 329 402
#     4  12  26  45  70 101 140 177 224 287 346 401
#     4  12  25  44  70 103 139 176 225 285 345 401
#     4  12  27  46  70  98 135 183 232 278 337 411
#     4  10  23  43  68  98 133 177 225 274 330 401
#
# _framework density 24.287915000000002
#
# number of rings (size 3 to 8) (size 9 to 14) (size 15 to 20)
#    0.000    0.800    0.000    7.200    0.000   11.200 
#    0.000    0.000    0.000    0.000    0.000    0.000 
#    0.000    0.000    0.000    0.000    0.000    0.000 
#
# Total GULP energy -123945.810264 kJ/mol
# GULP energy per Si atom -12394.581026 kJ/mol
# Density = 2.423263 g / cm^3
# Si number density = 24.287915 Si / 1000 Ang^3
#
#
#
# Elastic Constant Matrix: (Units=GPa)
#
#
# Indices 1 2 3 4 5 6 
#
# 1 127.4748 59.2350 35.6003 0.0000 -19.5349 0.0000
# 2 59.2350 85.5992 11.5023 0.0000 7.8642 0.0000
# 3 35.6003 11.5023 114.4781 0.0000 -0.7065 0.0000
# 4 0.0000 0.0000 0.0000 12.2487 0.0000 -8.3971
# 5 -19.5349 7.8642 -0.7065 0.0000 41.8939 0.0000
# 6 0.0000 0.0000 0.0000 -8.3971 0.0000 29.6468
#
#
#
# Elastic Compliance Matrix: (Units=1/GPa)
#
#
# Indices 1 2 3 4 5 6 
#
# 1 0.015367 -0.010990 -0.003618 0.000000 0.009167 0.000000
# 2 -0.010990 0.019917 0.001362 0.000000 -0.008840 0.000000
# 3 -0.003618 0.001362 0.009713 0.000000 -0.001779 0.000000
# 4 0.000000 0.000000 0.000000 0.101314 0.000000 0.028696
# 5 0.009167 -0.008840 -0.001779 0.000000 0.029774 0.000000
# 6 0.000000 0.000000 0.000000 0.028696 0.000000 0.041858
#
#
# Mechanical properties :
#
#
# Convention : Reuss Voigt Hill
#
# Bulk Modulus (GPa) = 54.04217 60.02527 57.03372
# Shear Modulus (GPa) = 19.95197 31.50550 25.72874
#
# Velocity S-wave (km/s) = 2.86925 3.60553 3.25825
# Velocity P-wave (km/s) = 5.76851 6.48851 6.13908
#
# Compressibility (1/GPa) = 0.01850407
#
# Stress axis : x y z
#
# Youngs Moduli (GPa) = 65.07559 50.20940 102.95925
#
# Poissons Ratio (x) = 0.55180 0.37250
# Poissons Ratio (y) = 0.71518 -0.14022
# Poissons Ratio (z) = 0.23544 -0.06838
#
# Static dielectric constant tensor:
#      x y z
#    x 4.372740 0.000000 -0.436150 
#    y 0.000000 4.190090 0.000000 
#    z -0.436150 0.000000 5.113020 
# 
# 
# High freq. dielectric constant tensor:
#      x y z
#    x 1.972000 0.000000 -0.025820 
#    y 0.000000 1.965670 0.000000 
#    z -0.025820 0.000000 1.982780 
# 
# From -- ./inp_files/5687.got.cif
#   From: 2010.03.12/outbox.cif.g09.slc.cpg/sg3_3_cif.got.tgz:5687.got - 2010.03.31 09:20:49.
