data_PCOD8045123
_publ_section_title
;
Structure prediction by ZEFSAII (Michael W. Deem and Ramdas Pophale) SiO2 
 PCOD8045123
Probable space group: P 2
;
_chemical_formula_sum "Si O2"
_cell_formula_units_Z 12
_cell_length_a 8.729836
_cell_length_b 5.260255
_cell_length_c 12.988299
_cell_angle_alpha 90.000000
_cell_angle_beta 109.636462
_cell_angle_gamma 90.000000
_cell_volume 561.751238
_symmetry_space_group_name_H-M "P 2"
_symmetry_group_IT_number 3
_symmetry_cell_setting 'monoclinic'
loop_
_space_group_symop_operation_xyz
x,y,z
-x,y,-z
loop_
_atom_site_type_symbol
_atom_site_label
_atom_site_fract_x
_atom_site_fract_y
_atom_site_fract_z
Si Si1 0.494848 0.561590 0.621524
Si Si2 0.183148 0.548932 0.680651
Si Si3 0.997487 0.048930 0.680657
Si Si4 0.373345 0.061591 0.378472
Si Si5 0.874473 0.043845 0.063189
Si Si6 0.311286 0.543844 0.936808
O O1 0.500000 0.581225 0.500000
O O2 0.309566 0.548558 0.615820
O O3 0.597952 0.316262 0.683446
O O4 0.585449 0.816268 0.683446
O O5 0.072184 0.798523 0.645303
O O6 0.283755 0.550372 0.808699
O O7 0.073093 0.298532 0.645311
O O8 0.024944 0.050374 0.808704
O O9 0.806240 0.048562 0.615840
O O10 0.500000 0.081231 0.500000
O O11 0.778104 0.780339 0.029364
O O12 0.751258 0.280341 0.029364
O O13 0.000000 0.070457 0.000000
O O14 0.500000 0.570455 0.000000
#
# Coordination Sequence:
#
# PCOD8045123 Si02
#       6
#     2   2   2   2   2   2
#     4  10  21  38  56  81 110 140 185 232 274 326
#     4  10  21  38  58  81 112 148 184 226 276 329
#     4  10  21  38  58  81 112 148 184 226 276 329
#     4  10  21  38  56  81 110 140 185 232 274 326
#     4  10  21  36  56  84 114 146 184 224 273 329
#     4  10  21  36  56  84 114 146 184 224 273 329
#
# _framework density 21.361768000000001
#
# number of rings (size 3 to 8) (size 9 to 14) (size 15 to 20)
#    0.000    2.000    0.000    3.000    0.000    2.667 
#    0.000   20.000    0.000    0.000    0.000    0.000 
#    0.000    0.000    0.000    0.000    0.000    0.000 
#
# Total GULP energy -148812.464275 kJ/mol
# GULP energy per Si atom -12401.038690 kJ/mol
# Density = 2.131315 g / cm^3
# Si number density = 21.361768 Si / 1000 Ang^3
#
#
#
# Elastic Constant Matrix: (Units=GPa)
#
#
# Indices 1 2 3 4 5 6 
#
# 1 163.6400 42.9137 34.8871 0.0000 4.2253 0.0000
# 2 42.9137 180.8826 3.7887 0.0000 3.7339 0.0000
# 3 34.8871 3.7887 33.1518 0.0000 8.2467 0.0000
# 4 0.0000 0.0000 0.0000 1.6620 0.0000 4.0141
# 5 4.2253 3.7339 8.2467 0.0000 41.8864 0.0000
# 6 0.0000 0.0000 0.0000 4.0141 0.0000 43.6444
#
#
#
# Elastic Compliance Matrix: (Units=1/GPa)
#
#
# Indices 1 2 3 4 5 6 
#
# 1 0.008483 -0.001847 -0.008984 0.000000 0.001078 0.000000
# 2 -0.001847 0.005950 0.001418 0.000000 -0.000623 0.000000
# 3 -0.008984 0.001418 0.041284 0.000000 -0.007348 0.000000
# 4 0.000000 0.000000 0.000000 0.773485 0.000000 -0.071140
# 5 0.001078 -0.000623 -0.007348 0.000000 0.025268 0.000000
# 6 0.000000 0.000000 0.000000 -0.071140 0.000000 0.029456
#
#
# Mechanical properties :
#
#
# Convention : Reuss Voigt Hill
#
# Bulk Modulus (GPa) = 27.10578 60.09483 43.60030
# Shear Modulus (GPa) = 5.46421 37.17756 21.32089
#
# Velocity S-wave (km/s) = 1.60109 4.17631 3.16268
# Velocity P-wave (km/s) = 4.01677 7.17276 5.81304
#
# Compressibility (1/GPa) = 0.03689250
#
# Stress axis : x y z
#
# Youngs Moduli (GPa) = 117.88740 168.07580 24.22245
#
# Poissons Ratio (x) = 0.31036 0.21761
# Poissons Ratio (y) = 0.21769 -0.03436
# Poissons Ratio (z) = 1.05907 -0.23839
#
# Static dielectric constant tensor:
#      x y z
#    x 3.846860 0.000000 0.032570 
#    y 0.000000 8.811500 0.000000 
#    z 0.032570 0.000000 3.506440 
# 
# 
# High freq. dielectric constant tensor:
#      x y z
#    x 1.847910 0.000000 0.004240 
#    y 0.000000 1.874430 0.000000 
#    z 0.004240 0.000000 1.803570 
# 
# From -- ./inp_files/2870.got.cif
#   From: 2010.03.12/outbox.cif.g09.slc.cpg/sg3_2_cif.got.tgz:2870.got - 2010.03.31 09:20:49.
