data_PCOD8045686
_publ_section_title
;
Structure prediction by ZEFSAII (Michael W. Deem and Ramdas Pophale) SiO2 
 PCOD8045686
Probable space group: P 21
;
_chemical_formula_sum "Si O2"
_cell_formula_units_Z 16
_cell_length_a 9.518712
_cell_length_b 11.398480
_cell_length_c 13.014388
_cell_angle_alpha 90.000000
_cell_angle_beta 36.335267
_cell_angle_gamma 90.000000
_cell_volume 836.650220
_symmetry_space_group_name_H-M "P 21"
_symmetry_group_IT_number 4
_symmetry_cell_setting 'monoclinic'
loop_
_space_group_symop_operation_xyz
x,y,z
-x,1/2+y,-z
loop_
_atom_site_type_symbol
_atom_site_label
_atom_site_fract_x
_atom_site_fract_y
_atom_site_fract_z
Si Si1 0.439883 0.656640 0.927359
Si Si2 0.398885 0.305242 0.670733
Si Si3 0.819348 0.587587 0.869522
Si Si4 0.307033 0.067022 0.828654
Si Si5 0.840324 0.961439 0.018052
Si Si6 0.616295 0.317760 0.212382
Si Si7 0.166878 0.782104 0.712103
Si Si8 0.937918 0.333942 0.841227
O O1 0.651569 0.635307 0.879500
O O2 0.343096 0.535024 0.941912
O O3 0.540519 0.738089 0.772536
O O4 0.224011 0.728760 0.110169
O O5 0.419901 0.173514 0.700406
O O6 0.321119 0.397602 0.802231
O O7 0.658062 0.340180 0.475060
O O8 0.216924 0.305059 0.680252
O O9 0.056306 0.664942 0.729929
O O10 0.889337 0.452697 0.806323
O O11 0.683532 0.600257 0.057139
O O12 0.472993 0.950722 0.710116
O O13 0.034066 0.049311 0.952837
O O14 0.963775 0.872298 0.865750
O O15 0.676993 0.246316 0.279546
O O16 0.865689 0.348993 0.005271
#
# Coordination Sequence:
#
# PCOD8045686 Si02
#       8
#     2   2   2   2   2   2   2   2
#     4  10  21  36  65  85 123 169 196 241 311 366
#     4  12  21  37  66  92 120 153 207 262 302 355
#     4  11  20  35  64  89 119 162 202 243 305 364
#     4  10  18  38  62  85 118 154 205 251 296 352
#     4  11  20  39  59  88 123 157 201 250 300 361
#     4   8  18  39  56  86 119 154 197 250 293 351
#     4  11  23  35  65  95 117 155 204 255 306 358
#     4   9  19  37  57  88 119 154 198 248 299 349
#
# _framework density 19.123881999999998
#
# number of rings (size 3 to 8) (size 9 to 14) (size 15 to 20)
#    0.750    1.000    6.250    0.750    1.750    2.000 
#    0.000    0.000   11.000    0.000    0.000    0.000 
#    0.000    0.000    0.000    0.000    0.000    0.000 
#
# Total GULP energy -198254.411588 kJ/mol
# GULP energy per Si atom -12390.900724 kJ/mol
# Density = 1.908036 g / cm^3
# Si number density = 19.123882 Si / 1000 Ang^3
#
#
#
# Elastic Constant Matrix: (Units=GPa)
#
#
# Indices 1 2 3 4 5 6 
#
# 1 120.9728 57.1937 29.1407 0.0000 5.4907 0.0000
# 2 57.1937 106.0427 32.8686 0.0000 0.3821 0.0000
# 3 29.1407 32.8686 78.2930 0.0000 -0.2534 0.0000
# 4 0.0000 0.0000 0.0000 11.1939 0.0000 3.4348
# 5 5.4907 0.3821 -0.2534 0.0000 8.2694 0.0000
# 6 0.0000 0.0000 0.0000 3.4348 0.0000 31.0531
#
#
#
# Elastic Compliance Matrix: (Units=1/GPa)
#
#
# Indices 1 2 3 4 5 6 
#
# 1 0.011799 -0.005710 -0.002019 0.000000 -0.007632 0.000000
# 2 -0.005710 0.013608 -0.003578 0.000000 0.003053 0.000000
# 3 -0.002019 -0.003578 0.015032 0.000000 0.001967 0.000000
# 4 0.000000 0.000000 0.000000 0.092472 0.000000 -0.010228
# 5 -0.007632 0.003053 0.001967 0.000000 0.125915 0.000000
# 6 0.000000 0.000000 0.000000 -0.010228 0.000000 0.033334
#
#
# Mechanical properties :
#
#
# Convention : Reuss Voigt Hill
#
# Bulk Modulus (GPa) = 56.09996 60.41272 58.25634
# Shear Modulus (GPa) = 15.59013 22.51033 19.05023
#
# Velocity S-wave (km/s) = 2.85830 3.43458 3.15961
# Velocity P-wave (km/s) = 6.34759 6.88384 6.62114
#
# Compressibility (1/GPa) = 0.01782533
#
# Stress axis : x y z
#
# Youngs Moduli (GPa) = 84.75443 73.48677 66.52365
#
# Poissons Ratio (x) = 0.41963 0.13431
# Poissons Ratio (y) = 0.48398 0.23799
# Poissons Ratio (z) = 0.17111 0.26290
#
# Static dielectric constant tensor:
#      x y z
#    x 3.228000 0.000000 0.070740 
#    y 0.000000 3.673030 0.000000 
#    z 0.070740 0.000000 3.113260 
# 
# 
# High freq. dielectric constant tensor:
#      x y z
#    x 1.720200 0.000000 0.007520 
#    y 0.000000 1.759960 0.000000 
#    z 0.007520 0.000000 1.703770 
# 
# From -- ./inp_files/11228.got.cif
#   From: 2010.03.12/outbox.cif.g09.slc.cpg/sg4_6_cif.got.tgz:11228.got - 2010.03.31 09:31:35.
