data_PCOD8045428
_publ_section_title
;
Structure prediction by ZEFSAII (Michael W. Deem and Ramdas Pophale) SiO2 
 PCOD8045428
Probable space group: P 2
;
_chemical_formula_sum "Si O2"
_cell_formula_units_Z 11
_cell_length_a 15.609426
_cell_length_b 5.600725
_cell_length_c 15.586045
_cell_angle_alpha 90.000000
_cell_angle_beta 18.453846
_cell_angle_gamma 90.000000
_cell_volume 431.317010
_symmetry_space_group_name_H-M "P 2"
_symmetry_group_IT_number 3
_symmetry_cell_setting 'monoclinic'
loop_
_space_group_symop_operation_xyz
x,y,z
-x,y,-z
loop_
_atom_site_type_symbol
_atom_site_label
_atom_site_fract_x
_atom_site_fract_y
_atom_site_fract_z
Si Si1 0.647548 0.616410 0.127537
Si Si2 0.454517 0.946182 0.447359
Si Si3 0.955006 0.274511 0.946823
Si Si4 0.000000 0.584539 0.500000
Si Si5 0.363965 0.263887 0.268824
Si Si6 0.857317 0.943255 0.780867
O O1 0.443194 0.725038 0.392656
O O2 0.461688 0.433548 0.252180
O O3 0.902611 0.492593 0.932141
O O4 0.783516 0.819493 0.940283
O O5 0.500000 0.843776 0.500000
O O6 0.197576 0.114131 0.682809
O O7 0.700453 0.106211 0.185242
O O8 0.000000 0.377532 0.000000
O O9 0.769782 0.419492 0.678449
O O10 0.856147 0.747190 0.707533
O O11 0.149155 0.071885 0.510328
O O12 0.624197 0.134426 0.980348
#
# Coordination Sequence:
#
# PCOD8045428 Si02
#       6
#     2   2   2   1   2   2
#     4  12  28  49  79 112 152 202 247 305 382 438
#     4  10  25  48  74 109 152 199 254 309 363 436
#     4  10  25  48  74 109 152 199 254 309 363 436
#     4  12  30  54  82 108 148 202 244 302 388 444
#     4  12  30  52  78 115 152 192 250 311 370 451
#     4  12  30  52  78 115 152 192 250 311 370 451
#
# _framework density 25.503285000000002
#
# number of rings (size 3 to 8) (size 9 to 14) (size 15 to 20)
#    0.000    0.727    0.000    3.818    0.000   31.273 
#    0.000    3.636    0.000    0.000    0.000    0.000 
#    0.000    0.000    0.000    0.000    0.000    0.000 
#
# Total GULP energy -136478.653953 kJ/mol
# GULP energy per Si atom -12407.150359 kJ/mol
# Density = 2.544524 g / cm^3
# Si number density = 25.503285 Si / 1000 Ang^3
#
#
#
# Elastic Constant Matrix: (Units=GPa)
#
#
# Indices 1 2 3 4 5 6 
#
# 1 144.4830 52.5174 24.5336 0.0000 -2.2789 0.0000
# 2 52.5174 101.8798 23.7578 0.0000 -1.0853 0.0000
# 3 24.5336 23.7578 131.2774 0.0000 -8.6332 0.0000
# 4 0.0000 0.0000 0.0000 24.5382 0.0000 -6.3033
# 5 -2.2789 -1.0853 -8.6332 0.0000 46.1144 0.0000
# 6 0.0000 0.0000 0.0000 -6.3033 0.0000 14.6047
#
#
#
# Elastic Compliance Matrix: (Units=1/GPa)
#
#
# Indices 1 2 3 4 5 6 
#
# 1 0.008606 -0.004241 -0.000830 0.000000 0.000170 0.000000
# 2 -0.004241 0.012339 -0.001453 0.000000 -0.000191 0.000000
# 3 -0.000830 -0.001453 0.008131 0.000000 0.001447 0.000000
# 4 0.000000 0.000000 0.000000 0.045834 0.000000 0.019782
# 5 0.000170 -0.000191 0.001447 0.000000 0.021960 0.000000
# 6 0.000000 0.000000 0.000000 0.019782 0.000000 0.077009
#
#
# Mechanical properties :
#
#
# Convention : Reuss Voigt Hill
#
# Bulk Modulus (GPa) = 62.39076 64.36197 63.37636
# Shear Modulus (GPa) = 26.00520 35.50688 30.75604
#
# Velocity S-wave (km/s) = 3.19671 3.73533 3.47647
# Velocity P-wave (km/s) = 6.17594 6.62534 6.40458
#
# Compressibility (1/GPa) = 0.01602802
#
# Stress axis : x y z
#
# Youngs Moduli (GPa) = 116.19268 81.04700 122.99207
#
# Poissons Ratio (x) = 0.34373 0.10204
# Poissons Ratio (y) = 0.49279 0.17870
# Poissons Ratio (z) = 0.09640 0.11775
#
# Static dielectric constant tensor:
#      x y z
#    x 5.123440 0.000000 0.140050 
#    y 0.000000 4.837640 0.000000 
#    z 0.140050 0.000000 4.517240 
# 
# 
# High freq. dielectric constant tensor:
#      x y z
#    x 2.036580 0.000000 0.000460 
#    y 0.000000 2.029670 0.000000 
#    z 0.000460 0.000000 2.033360 
# 
# From -- ./inp_files/13892.got.cif
#   From: 2010.03.12/outbox.cif.g09.slc.cpg/sg3_7_cif.got.tgz:13892.got - 2010.03.31 09:20:49.
