data_PCOD8045454
_publ_section_title
;
Structure prediction by ZEFSAII (Michael W. Deem and Ramdas Pophale) SiO2 
 PCOD8045454
Probable space group: P 2
;
_chemical_formula_sum "Si O2"
_cell_formula_units_Z 14
_cell_length_a 15.382109
_cell_length_b 8.419247
_cell_length_c 14.242699
_cell_angle_alpha 90.000000
_cell_angle_beta 18.567787
_cell_angle_gamma 90.000000
_cell_volume 587.341247
_symmetry_space_group_name_H-M "P 2"
_symmetry_group_IT_number 3
_symmetry_cell_setting 'monoclinic'
loop_
_space_group_symop_operation_xyz
x,y,z
-x,y,-z
loop_
_atom_site_type_symbol
_atom_site_label
_atom_site_fract_x
_atom_site_fract_y
_atom_site_fract_z
Si Si1 0.459743 0.755590 0.842783
Si Si2 0.057768 0.909323 0.547388
Si Si3 0.221720 0.385566 0.838986
Si Si4 0.516418 0.846832 0.582725
Si Si5 0.216646 0.210799 0.473940
Si Si6 0.003879 0.052062 0.872223
Si Si7 0.721430 0.420038 0.005255
O O1 0.579332 0.749115 0.612765
O O2 0.348410 0.579261 0.979417
O O3 0.713331 0.788116 0.650416
O O4 0.220995 0.884412 0.106917
O O5 0.000000 0.862766 0.500000
O O6 0.175798 0.091951 0.427534
O O7 0.500000 0.372042 0.500000
O O8 0.274086 0.461479 0.887633
O O9 0.096306 0.212178 0.979195
O O10 0.000000 0.480290 0.000000
O O11 0.500000 0.745965 0.500000
O O12 0.756035 0.972898 0.311120
O O13 0.236345 0.929507 0.897077
O O14 0.519589 0.276566 0.182579
O O15 0.145780 0.086990 0.628189
O O16 0.020940 0.363187 0.668204
#
# Coordination Sequence:
#
# PCOD8045454 Si02
#       7
#     2   2   2   2   2   2   2
#     4  12  25  48  66 104 144 178 222 280 339 414
#     4  12  26  48  78 101 129 175 228 285 351 410
#     4  11  21  35  57  93 133 180 236 280 319 392
#     4  12  22  35  60  94 135 181 222 268 325 386
#     4  11  21  43  69 100 128 171 226 283 338 396
#     4  11  20  35  58  92 131 170 224 285 320 371
#     4  11  25  40  68  94 139 184 213 276 352 389
#
# _framework density 23.836227999999998
#
# number of rings (size 3 to 8) (size 9 to 14) (size 15 to 20)
#    0.000    0.571    2.857    8.143    0.000    0.571 
#    0.000    5.714    0.000    0.000    0.000    0.000 
#    0.000    0.000    0.000    0.000    0.000    0.000 
#
# Total GULP energy -173540.747718 kJ/mol
# GULP energy per Si atom -12395.767694 kJ/mol
# Density = 2.378198 g / cm^3
# Si number density = 23.836228 Si / 1000 Ang^3
#
#
#
# Elastic Constant Matrix: (Units=GPa)
#
#
# Indices 1 2 3 4 5 6 
#
# 1 142.5691 30.9536 22.0796 0.0000 -15.5611 0.0000
# 2 30.9536 53.1686 -5.6313 0.0000 -13.6287 0.0000
# 3 22.0796 -5.6313 99.5925 0.0000 -29.5904 0.0000
# 4 0.0000 0.0000 0.0000 29.2298 0.0000 -18.2452
# 5 -15.5611 -13.6287 -29.5904 0.0000 47.1830 0.0000
# 6 0.0000 0.0000 0.0000 -18.2452 0.0000 18.8155
#
#
#
# Elastic Compliance Matrix: (Units=1/GPa)
#
#
# Indices 1 2 3 4 5 6 
#
# 1 0.008471 -0.005185 -0.002195 0.000000 -0.000080 0.000000
# 2 -0.005185 0.024563 0.005086 0.000000 0.008575 0.000000
# 3 -0.002195 0.005086 0.013564 0.000000 0.009252 0.000000
# 4 0.000000 0.000000 0.000000 0.086673 0.000000 0.084046
# 5 -0.000080 0.008575 0.009252 0.000000 0.029446 0.000000
# 6 0.000000 0.000000 0.000000 0.084046 0.000000 0.134646
#
#
# Mechanical properties :
#
#
# Convention : Reuss Voigt Hill
#
# Bulk Modulus (GPa) = 23.80355 43.34822 33.57589
# Shear Modulus (GPa) = 15.82509 35.57423 25.69966
#
# Velocity S-wave (km/s) = 2.57944 3.86741 3.28712
# Velocity P-wave (km/s) = 4.34503 6.17801 5.34074
#
# Compressibility (1/GPa) = 0.04201054
#
# Stress axis : x y z
#
# Youngs Moduli (GPa) = 118.05001 40.71134 73.72479
#
# Poissons Ratio (x) = 0.21108 0.16183
# Poissons Ratio (y) = 0.61206 -0.37497
# Poissons Ratio (z) = 0.25913 -0.20706
#
# Static dielectric constant tensor:
#      x y z
#    x 4.402310 0.000000 -0.200140 
#    y 0.000000 3.891640 0.000000 
#    z -0.200140 0.000000 4.808720 
# 
# 
# High freq. dielectric constant tensor:
#      x y z
#    x 1.943130 0.000000 -0.020530 
#    y 0.000000 1.926330 0.000000 
#    z -0.020530 0.000000 1.955620 
# 
# From -- ./inp_files/13980.got.cif
#   From: 2010.03.12/outbox.cif.g09.slc.cpg/sg3_7_cif.got.tgz:13980.got - 2010.03.31 09:20:49.
