data_PCOD8045298
_publ_section_title
;
Structure prediction by ZEFSAII (Michael W. Deem and Ramdas Pophale) SiO2 
 PCOD8045298
Probable space group: P 2
;
_chemical_formula_sum "Si O2"
_cell_formula_units_Z 16
_cell_length_a 9.131727
_cell_length_b 6.725234
_cell_length_c 20.604278
_cell_angle_alpha 90.000000
_cell_angle_beta 140.155344
_cell_angle_gamma 90.000000
_cell_volume 810.733411
_symmetry_space_group_name_H-M "P 2"
_symmetry_group_IT_number 3
_symmetry_cell_setting 'monoclinic'
loop_
_space_group_symop_operation_xyz
x,y,z
-x,y,-z
loop_
_atom_site_type_symbol
_atom_site_label
_atom_site_fract_x
_atom_site_fract_y
_atom_site_fract_z
Si Si1 0.254664 0.907350 0.072532
Si Si2 0.861279 0.505967 0.769233
Si Si3 0.340517 0.174450 0.742228
Si Si4 0.402845 0.831362 0.396828
Si Si5 0.747554 0.808496 0.072624
Si Si6 0.021058 0.109452 0.753805
Si Si7 0.455828 0.571200 0.224098
Si Si8 0.740957 0.892109 0.397519
O O1 0.304213 0.689361 0.119696
O O2 0.426031 0.066537 0.160141
O O3 0.273159 0.916466 0.002385
O O4 0.000000 0.978544 0.000000
O O5 0.710905 0.628079 0.666634
O O6 0.705133 0.458556 0.778552
O O7 0.068826 0.635816 0.866481
O O8 0.966248 0.311989 0.772575
O O9 0.137688 0.143525 0.724264
O O10 0.389324 0.408640 0.758581
O O11 0.261540 0.097623 0.644298
O O12 0.500000 0.780476 0.500000
O O13 0.600311 0.913209 0.416411
O O14 0.218103 0.003919 0.340214
O O15 0.808456 0.975005 0.146259
O O16 0.500000 0.711325 0.000000
O O17 0.630483 0.720939 0.316896
O O18 0.000000 0.830794 0.500000
#
# Coordination Sequence:
#
# PCOD8045298 Si02
#       8
#     2   2   2   2   2   2   2   2
#     4  11  23  41  61  87 120 164 204 246 300 350
#     4  10  23  40  61  88 122 158 198 249 297 354
#     4  11  24  39  61  91 123 157 201 248 295 356
#     4  10  22  42  66  89 119 157 196 244 303 358
#     4  11  23  41  59  87 124 160 204 248 298 352
#     4  11  24  39  61  91 123 159 198 247 299 354
#     4  10  23  40  61  90 119 157 203 246 297 353
#     4  10  22  42  66  89 120 155 196 248 299 356
#
# _framework density 19.735219000000001
#
# number of rings (size 3 to 8) (size 9 to 14) (size 15 to 20)
#    0.000    1.500    2.500    1.500    5.250    5.000 
#    0.000    2.500    0.000    0.000    0.000    0.000 
#    0.000    0.000    0.000    0.000    0.000    0.000 
#
# Total GULP energy -198437.067843 kJ/mol
# GULP energy per Si atom -12402.316740 kJ/mol
# Density = 1.969030 g / cm^3
# Si number density = 19.735219 Si / 1000 Ang^3
#
#
#
# Elastic Constant Matrix: (Units=GPa)
#
#
# Indices 1 2 3 4 5 6 
#
# 1 120.0751 18.8994 38.3268 0.0000 14.3625 0.0000
# 2 18.8994 73.2116 8.2450 0.0000 5.7196 0.0000
# 3 38.3268 8.2450 100.1263 0.0000 7.6009 0.0000
# 4 0.0000 0.0000 0.0000 10.0347 0.0000 0.9516
# 5 14.3625 5.7196 7.6009 0.0000 38.1718 0.0000
# 6 0.0000 0.0000 0.0000 0.9516 0.0000 36.6148
#
#
#
# Elastic Compliance Matrix: (Units=1/GPa)
#
#
# Indices 1 2 3 4 5 6 
#
# 1 0.010090 -0.001993 -0.003485 0.000000 -0.002804 0.000000
# 2 -0.001993 0.014313 -0.000315 0.000000 -0.001332 0.000000
# 3 -0.003485 -0.000315 0.011417 0.000000 -0.000915 0.000000
# 4 0.000000 0.000000 0.000000 0.099900 0.000000 -0.002596
# 5 -0.002804 -0.001332 -0.000915 0.000000 0.027634 0.000000
# 6 0.000000 0.000000 0.000000 -0.002596 0.000000 0.027379
#
#
# Mechanical properties :
#
#
# Convention : Reuss Voigt Hill
#
# Bulk Modulus (GPa) = 41.26471 47.15061 44.20766
# Shear Modulus (GPa) = 23.76466 32.16038 27.96252
#
# Velocity S-wave (km/s) = 3.47389 4.04120 3.76824
# Velocity P-wave (km/s) = 6.08647 6.76155 6.43287
#
# Compressibility (1/GPa) = 0.02423378
#
# Stress axis : x y z
#
# Youngs Moduli (GPa) = 99.11176 69.86639 87.59004
#
# Poissons Ratio (x) = 0.13925 0.30527
# Poissons Ratio (y) = 0.19754 0.02755
# Poissons Ratio (z) = 0.34542 0.02198
#
# Static dielectric constant tensor:
#      x y z
#    x 3.713080 0.000000 -0.055180 
#    y 0.000000 3.455990 0.000000 
#    z -0.055180 0.000000 3.684830 
# 
# 
# High freq. dielectric constant tensor:
#      x y z
#    x 1.788210 0.000000 0.002790 
#    y 0.000000 1.758410 0.000000 
#    z 0.002790 0.000000 1.780410 
# 
# From -- ./inp_files/8882.got.cif
#   From: 2010.03.12/outbox.cif.g09.slc.cpg/sg3_5_cif.got.tgz:8882.got - 2010.03.31 09:20:49.
