data_PCOD8045149
_publ_section_title
;
Structure prediction by ZEFSAII (Michael W. Deem and Ramdas Pophale) SiO2 
 PCOD8045149
Probable space group: P 2
;
_chemical_formula_sum "Si O2"
_cell_formula_units_Z 16
_cell_length_a 8.382333
_cell_length_b 11.961543
_cell_length_c 8.898277
_cell_angle_alpha 90.000000
_cell_angle_beta 122.024644
_cell_angle_gamma 90.000000
_cell_volume 756.417799
_symmetry_space_group_name_H-M "P 2"
_symmetry_group_IT_number 3
_symmetry_cell_setting 'monoclinic'
loop_
_space_group_symop_operation_xyz
x,y,z
-x,y,-z
loop_
_atom_site_type_symbol
_atom_site_label
_atom_site_fract_x
_atom_site_fract_y
_atom_site_fract_z
Si Si1 0.021601 0.038950 0.181577
Si Si2 0.463402 0.817835 0.804392
Si Si3 0.787085 0.034868 0.326874
Si Si4 0.320448 0.640536 0.508654
Si Si5 0.806150 0.400225 0.482141
Si Si6 0.839057 0.803125 0.809108
Si Si7 0.294041 0.229563 0.334919
Si Si8 0.532754 0.243163 0.191807
O O1 0.169902 0.124919 0.326521
O O2 0.097005 0.914563 0.243648
O O3 0.819695 0.047340 0.163140
O O4 0.000000 0.073007 0.000000
O O5 0.330004 0.922701 0.700477
O O6 0.370572 0.707345 0.685912
O O7 0.658923 0.836992 0.817067
O O8 0.500000 0.800591 0.000000
O O9 0.000000 0.029434 0.500000
O O10 0.665245 0.141490 0.317040
O O11 0.500000 0.604333 0.500000
O O12 0.207176 0.532397 0.503213
O O13 0.189652 0.713397 0.334813
O O14 0.797949 0.341577 0.642015
O O15 0.636261 0.357699 0.291333
O O16 0.000000 0.368508 0.500000
O O17 0.000000 0.756603 0.000000
O O18 0.500000 0.209825 0.500000
O O19 0.326889 0.239228 0.170592
O O20 0.500000 0.239904 0.000000
#
# Coordination Sequence:
#
# PCOD8045149 Si02
#       8
#     2   2   2   2   2   2   2   2
#     4  11  21  35  57  87 123 155 193 243 299 363
#     4  11  23  39  62  92 125 161 206 257 312 371
#     4  12  23  37  60  92 130 164 204 251 308 375
#     4  10  23  43  64  85 118 163 207 255 314 373
#     4  11  24  42  62  86 118 157 207 258 311 375
#     4  10  22  41  63  90 124 163 208 255 311 377
#     4  10  21  38  60  84 119 158 197 244 301 362
#     4  11  22  39  63  90 123 161 206 257 312 370
#
# _framework density 21.152332999999999
#
# number of rings (size 3 to 8) (size 9 to 14) (size 15 to 20)
#    0.000    1.250    0.000    7.875    0.000    4.500 
#    0.000    3.125    0.000    0.000    0.000    0.000 
#    0.000    0.000    0.000    0.000    0.000    0.000 
#
# Total GULP energy -198380.377823 kJ/mol
# GULP energy per Si atom -12398.773614 kJ/mol
# Density = 2.110419 g / cm^3
# Si number density = 21.152333 Si / 1000 Ang^3
#
#
#
# Elastic Constant Matrix: (Units=GPa)
#
#
# Indices 1 2 3 4 5 6 
#
# 1 124.8079 42.8282 25.6311 0.0000 -6.5625 0.0000
# 2 42.8282 117.6010 38.9822 0.0000 2.7501 0.0000
# 3 25.6311 38.9822 101.1895 0.0000 -7.6336 0.0000
# 4 0.0000 0.0000 0.0000 20.2394 0.0000 -11.5811
# 5 -6.5625 2.7501 -7.6336 0.0000 29.7983 0.0000
# 6 0.0000 0.0000 0.0000 -11.5811 0.0000 18.0810
#
#
#
# Elastic Compliance Matrix: (Units=1/GPa)
#
#
# Indices 1 2 3 4 5 6 
#
# 1 0.009408 -0.003139 -0.001015 0.000000 0.002102 0.000000
# 2 -0.003139 0.010902 -0.003602 0.000000 -0.002620 0.000000
# 3 -0.001015 -0.003602 0.011763 0.000000 0.003122 0.000000
# 4 0.000000 0.000000 0.000000 0.077994 0.000000 0.049956
# 5 0.002102 -0.002620 0.003122 0.000000 0.035064 0.000000
# 6 0.000000 0.000000 0.000000 0.049956 0.000000 0.087304
#
#
# Mechanical properties :
#
#
# Convention : Reuss Voigt Hill
#
# Bulk Modulus (GPa) = 60.38698 62.05347 61.22022
# Shear Modulus (GPa) = 19.72635 29.36753 24.54694
#
# Velocity S-wave (km/s) = 3.05714 3.73014 3.41028
# Velocity P-wave (km/s) = 6.40875 6.92475 6.67174
#
# Compressibility (1/GPa) = 0.01655986
#
# Stress axis : x y z
#
# Youngs Moduli (GPa) = 106.28698 91.72722 85.01257
#
# Poissons Ratio (x) = 0.28793 0.08632
# Poissons Ratio (y) = 0.33363 0.30625
# Poissons Ratio (z) = 0.10792 0.33044
#
# Static dielectric constant tensor:
#      x y z
#    x 4.534040 0.000000 -0.385680 
#    y 0.000000 3.642310 0.000000 
#    z -0.385680 0.000000 4.052770 
# 
# 
# High freq. dielectric constant tensor:
#      x y z
#    x 1.851260 0.000000 -0.014490 
#    y 0.000000 1.820320 0.000000 
#    z -0.014490 0.000000 1.831220 
# 
# From -- ./inp_files/6026.got.cif
#   From: 2010.03.12/outbox.cif.g09.slc.cpg/sg3_4_cif.got.tgz:6026.got - 2010.03.31 09:20:49.
