data_PCOD8045967
_publ_section_title
;
Structure prediction by ZEFSAII (Michael W. Deem and Ramdas Pophale) SiO2 
 PCOD8045967
Probable space group: P 21
;
_chemical_formula_sum "Si O2"
_cell_formula_units_Z 16
_cell_length_a 11.308385
_cell_length_b 10.950220
_cell_length_c 8.929544
_cell_angle_alpha 90.000000
_cell_angle_beta 52.267051
_cell_angle_gamma 90.000000
_cell_volume 874.497888
_symmetry_space_group_name_H-M "P 21"
_symmetry_group_IT_number 4
_symmetry_cell_setting 'monoclinic'
loop_
_space_group_symop_operation_xyz
x,y,z
-x,1/2+y,-z
loop_
_atom_site_type_symbol
_atom_site_label
_atom_site_fract_x
_atom_site_fract_y
_atom_site_fract_z
Si Si1 0.544933 0.592540 0.703556
Si Si2 0.158096 0.805244 0.102155
Si Si3 0.271100 0.672308 0.730045
Si Si4 0.542535 0.263415 0.990997
Si Si5 0.264433 0.303784 0.365998
Si Si6 0.041790 0.715071 0.485726
Si Si7 0.909797 0.999986 0.336126
Si Si8 0.676810 0.324106 0.594072
O O1 0.412713 0.598873 0.684514
O O2 0.674708 0.693656 0.574509
O O3 0.624601 0.463092 0.637040
O O4 0.471566 0.627382 0.923229
O O5 0.321379 0.839808 0.039408
O O6 0.083970 0.708769 0.276394
O O7 0.175130 0.745338 0.926777
O O8 0.055802 0.926111 0.169169
O O9 0.152196 0.579395 0.751891
O O10 0.339101 0.767359 0.557628
O O11 0.569334 0.249726 0.792649
O O12 0.393326 0.341034 0.146329
O O13 0.224635 0.412984 0.507943
O O14 0.125097 0.265380 0.370844
O O15 0.047854 0.581995 0.553710
O O16 0.151608 0.810786 0.484537
#
# Coordination Sequence:
#
# PCOD8045967 Si02
#       8
#     2   2   2   2   2   2   2   2
#     4   9  21  37  59  83 120 151 193 242 291 344
#     4   9  19  40  57  82 122 150 191 239 292 339
#     4  10  22  39  58  89 120 160 194 228 299 351
#     4   8  19  35  57  88 107 151 199 238 291 332
#     4   9  20  35  60  86 114 148 198 235 305 327
#     4   9  20  37  63  87 109 152 198 243 294 339
#     4  10  21  39  62  84 120 152 196 249 281 354
#     4  10  20  38  62  85 120 152 197 242 289 350
#
# _framework density 18.296215
#
# number of rings (size 3 to 8) (size 9 to 14) (size 15 to 20)
#    0.750    2.000    0.000    0.000    7.000    4.000 
#    4.500    5.000    0.000    0.000    0.000    0.000 
#    0.000    0.000    0.000    0.000    0.000    0.000 
#
# Total GULP energy -198249.991601 kJ/mol
# GULP energy per Si atom -12390.624475 kJ/mol
# Density = 1.825457 g / cm^3
# Si number density = 18.296215 Si / 1000 Ang^3
#
#
#
# Elastic Constant Matrix: (Units=GPa)
#
#
# Indices 1 2 3 4 5 6 
#
# 1 93.4044 54.1639 70.9000 0.0000 -10.1712 0.0000
# 2 54.1639 117.9701 61.3284 0.0000 2.2233 0.0000
# 3 70.9000 61.3284 130.0649 0.0000 -1.2982 0.0000
# 4 0.0000 0.0000 0.0000 29.3098 0.0000 -5.6901
# 5 -10.1712 2.2233 -1.2982 0.0000 39.4636 0.0000
# 6 0.0000 0.0000 0.0000 -5.6901 0.0000 28.5702
#
#
#
# Elastic Compliance Matrix: (Units=1/GPa)
#
#
# Indices 1 2 3 4 5 6 
#
# 1 0.021130 -0.005093 -0.009063 0.000000 0.005435 0.000000
# 2 -0.005093 0.012482 -0.003131 0.000000 -0.002119 0.000000
# 3 -0.009063 -0.003131 0.014088 0.000000 -0.001696 0.000000
# 4 0.000000 0.000000 0.000000 0.035490 0.000000 0.007068
# 5 0.005435 -0.002119 -0.001696 0.000000 0.026804 0.000000
# 6 0.000000 0.000000 0.000000 0.007068 0.000000 0.036409
#
#
# Mechanical properties :
#
#
# Convention : Reuss Voigt Hill
#
# Bulk Modulus (GPa) = 76.17177 79.35823 77.76500
# Shear Modulus (GPa) = 26.97544 29.80521 28.39033
#
# Velocity S-wave (km/s) = 3.84392 4.04051 3.94344
# Velocity P-wave (km/s) = 7.83734 8.07688 7.95801
#
# Compressibility (1/GPa) = 0.01312822
#
# Stress axis : x y z
#
# Youngs Moduli (GPa) = 47.32502 80.11253 70.98165
#
# Poissons Ratio (x) = 0.40798 0.64331
# Poissons Ratio (y) = 0.24101 0.22223
# Poissons Ratio (z) = 0.42891 0.25082
#
# Static dielectric constant tensor:
#      x y z
#    x 3.416560 0.000000 -0.087400 
#    y 0.000000 3.156140 0.000000 
#    z -0.087400 0.000000 3.456580 
# 
# 
# High freq. dielectric constant tensor:
#      x y z
#    x 1.713240 0.000000 -0.010600 
#    y 0.000000 1.691430 0.000000 
#    z -0.010600 0.000000 1.708240 
# 
# From -- ./inp_files/8174.got.cif
#   From: 2010.03.12/outbox.cif.g09.slc.cpg/sg4_5_cif.got.tgz:8174.got - 2010.03.31 09:31:35.
