data_PCOD8045996
_publ_section_title
;
Structure prediction by ZEFSAII (Michael W. Deem and Ramdas Pophale) SiO2 
 PCOD8045996
Probable space group: P 21
;
_chemical_formula_sum "Si O2"
_cell_formula_units_Z 14
_cell_length_a 7.612572
_cell_length_b 8.768591
_cell_length_c 17.384167
_cell_angle_alpha 90.000000
_cell_angle_beta 31.638479
_cell_angle_gamma 90.000000
_cell_volume 608.707226
_symmetry_space_group_name_H-M "P 21"
_symmetry_group_IT_number 4
_symmetry_cell_setting 'monoclinic'
loop_
_space_group_symop_operation_xyz
x,y,z
-x,1/2+y,-z
loop_
_atom_site_type_symbol
_atom_site_label
_atom_site_fract_x
_atom_site_fract_y
_atom_site_fract_z
Si Si1 0.967773 0.280510 0.200972
Si Si2 0.668180 0.910452 0.058609
Si Si3 0.589469 0.953952 0.676700
Si Si4 0.328428 0.468563 0.710220
Si Si5 0.140620 0.014978 0.359321
Si Si6 0.083631 0.838685 0.607210
Si Si7 0.887786 0.708102 0.113516
O O1 0.718514 0.346945 0.229272
O O2 0.922630 0.363109 0.299009
O O3 0.914342 0.100498 0.231522
O O4 0.323615 0.328419 0.028793
O O5 0.875361 0.799636 0.038305
O O6 0.283213 0.926128 0.231146
O O7 0.814153 0.084488 0.000578
O O8 0.750397 0.917723 0.699160
O O9 0.466495 0.127376 0.733375
O O10 0.863592 0.918950 0.508388
O O11 0.544271 0.538825 0.700724
O O12 0.079989 0.333904 0.830707
O O13 0.573494 0.413245 0.550917
O O14 0.942893 0.164014 0.407434
#
# Coordination Sequence:
#
# PCOD8045996 Si02
#       7
#     2   2   2   2   2   2   2
#     4  11  24  42  65  95 133 172 217 268 335 399
#     4  10  22  38  63  97 130 173 217 264 336 397
#     4  10  22  42  69  91 130 166 220 275 324 387
#     4  10  21  39  68  96 125 174 224 270 332 383
#     4  10  20  40  64  90 129 165 213 274 322 385
#     4  11  23  39  67 100 125 170 222 276 322 388
#     4  10  20  38  68  93 128 176 219 267 331 399
#
# _framework density 22.999563999999999
#
# number of rings (size 3 to 8) (size 9 to 14) (size 15 to 20)
#    0.000    1.714    2.857    1.714    4.000    0.000 
#    2.571    0.000    9.429    0.000    0.000    0.000 
#    0.000    0.000    0.000    0.000    0.000    0.000 
#
# Total GULP energy -173501.703405 kJ/mol
# GULP energy per Si atom -12392.978815 kJ/mol
# Density = 2.294722 g / cm^3
# Si number density = 22.999564 Si / 1000 Ang^3
#
#
#
# Elastic Constant Matrix: (Units=GPa)
#
#
# Indices 1 2 3 4 5 6 
#
# 1 39.4662 36.5236 47.8242 0.0000 19.4728 0.0000
# 2 36.5236 113.5570 45.7829 0.0000 18.0801 0.0000
# 3 47.8242 45.7829 142.4838 0.0000 39.2007 0.0000
# 4 0.0000 0.0000 0.0000 47.0325 0.0000 3.4682
# 5 19.4728 18.0801 39.2007 0.0000 35.5610 0.0000
# 6 0.0000 0.0000 0.0000 3.4682 0.0000 21.3905
#
#
#
# Elastic Compliance Matrix: (Units=1/GPa)
#
#
# Indices 1 2 3 4 5 6 
#
# 1 0.056162 -0.011366 -0.011952 0.000000 -0.011799 0.000000
# 2 -0.011366 0.012543 -0.000249 0.000000 0.000121 0.000000
# 3 -0.011952 -0.000249 0.013312 0.000000 -0.008003 0.000000
# 4 0.000000 0.000000 0.000000 0.021519 0.000000 -0.003489
# 5 -0.011799 0.000121 -0.008003 0.000000 0.043343 0.000000
# 6 0.000000 0.000000 0.000000 -0.003489 0.000000 0.047315
#
#
# Mechanical properties :
#
#
# Convention : Reuss Voigt Hill
#
# Bulk Modulus (GPa) = 28.66725 61.75202 45.20964
# Shear Modulus (GPa) = 19.76640 31.82189 25.79415
#
# Velocity S-wave (km/s) = 2.93478 3.72370 3.35252
# Velocity P-wave (km/s) = 4.89645 6.73761 5.88942
#
# Compressibility (1/GPa) = 0.03488302
#
# Stress axis : x y z
#
# Youngs Moduli (GPa) = 17.80569 79.72704 75.12201
#
# Poissons Ratio (x) = 0.90618 0.89786
# Poissons Ratio (y) = 0.20238 0.01867
# Poissons Ratio (z) = 0.21282 0.01981
#
# Static dielectric constant tensor:
#      x y z
#    x 3.706300 0.000000 0.203870 
#    y 0.000000 4.190810 0.000000 
#    z 0.203870 0.000000 4.466770 
# 
# 
# High freq. dielectric constant tensor:
#      x y z
#    x 1.869610 0.000000 0.018950 
#    y 0.000000 1.908610 0.000000 
#    z 0.018950 0.000000 1.929250 
# 
# From -- ./inp_files/7632.got.cif
#   From: 2010.03.12/outbox.cif.g09.slc.cpg/sg4_4_cif.got.tgz:7632.got - 2010.03.31 09:31:35.
