data_PCOD8045007
_publ_section_title
;
Structure prediction by ZEFSAII (Michael W. Deem and Ramdas Pophale) SiO2 
 PCOD8045007
Probable space group: P 2
;
_chemical_formula_sum "Si O2"
_cell_formula_units_Z 16
_cell_length_a 12.028856
_cell_length_b 8.987608
_cell_length_c 8.400713
_cell_angle_alpha 90.000000
_cell_angle_beta 124.482092
_cell_angle_gamma 90.000000
_cell_volume 748.637489
_symmetry_space_group_name_H-M "P 2"
_symmetry_group_IT_number 3
_symmetry_cell_setting 'monoclinic'
loop_
_space_group_symop_operation_xyz
x,y,z
-x,y,-z
loop_
_atom_site_type_symbol
_atom_site_label
_atom_site_fract_x
_atom_site_fract_y
_atom_site_fract_z
Si Si1 0.803211 0.916620 0.163769
Si Si2 0.951272 0.760369 0.782497
Si Si3 0.803210 0.259183 0.163769
Si Si4 0.048728 0.415434 0.217502
Si Si5 0.548427 0.755946 0.858576
Si Si6 0.451573 0.419857 0.141424
Si Si7 0.706896 0.259176 0.444911
Si Si8 0.706895 0.916627 0.444911
O O1 0.766387 0.898448 0.317391
O O2 0.947160 0.840396 0.256153
O O3 0.811428 0.087901 0.119527
O O4 0.692212 0.837374 0.962121
O O5 0.943680 0.587902 0.730639
O O6 0.803974 0.832589 0.646535
O O7 0.000000 0.786885 0.000000
O O8 0.766387 0.277356 0.317391
O O9 0.947159 0.335408 0.256151
O O10 0.692211 0.338429 0.962121
O O11 0.196026 0.343214 0.353465
O O12 0.000000 0.388919 0.000000
O O13 0.564397 0.587902 0.808220
O O14 0.440605 0.842632 0.662690
O O15 0.500000 0.757648 0.000000
O O16 0.559396 0.333171 0.337310
O O17 0.500000 0.418156 0.000000
O O18 0.694230 0.087902 0.484119
#
# Coordination Sequence:
#
# PCOD8045007 Si02
#       8
#     2   2   2   2   2   2   2   2
#     4  10  20  35  57  84 111 140 177 221 268 319
#     4  11  24  39  54  76 108 145 184 225 268 316
#     4  10  20  35  57  84 111 140 177 221 268 319
#     4  11  24  39  54  76 108 145 184 225 268 316
#     4   9  17  31  54  83 112 141 174 216 266 317
#     4   9  17  31  54  83 112 141 174 216 266 317
#     4  10  20  35  57  84 111 140 177 221 268 319
#     4  10  20  35  57  84 111 140 177 221 268 319
#
# _framework density 21.372159
#
# number of rings (size 3 to 8) (size 9 to 14) (size 15 to 20)
#    0.000    2.000    0.000    3.750    0.000   11.000 
#    0.000    1.250    0.000    7.500    0.000    0.000 
#    0.000    0.000    0.000    0.000    0.000    0.000 
#
# Total GULP energy -198486.817656 kJ/mol
# GULP energy per Si atom -12405.426104 kJ/mol
# Density = 2.132351 g / cm^3
# Si number density = 21.372159 Si / 1000 Ang^3
#
#
#
# Elastic Constant Matrix: (Units=GPa)
#
#
# Indices 1 2 3 4 5 6 
#
# 1 12.3066 14.5750 13.8845 0.0000 11.7488 0.0000
# 2 14.5750 182.1310 75.3812 0.0000 13.7455 0.0000
# 3 13.8845 75.3812 122.8402 0.0000 39.6759 0.0000
# 4 0.0000 0.0000 0.0000 39.8120 0.0000 16.7013
# 5 11.7488 13.7455 39.6759 0.0000 30.0321 0.0000
# 6 0.0000 0.0000 0.0000 16.7013 0.0000 24.9490
#
#
#
# Elastic Compliance Matrix: (Units=1/GPa)
#
#
# Indices 1 2 3 4 5 6 
#
# 1 0.146727 -0.011943 0.013115 0.000000 -0.069261 0.000000
# 2 -0.011943 0.008703 -0.007349 0.000000 0.010398 0.000000
# 3 0.013115 -0.007349 0.020476 0.000000 -0.028818 0.000000
# 4 0.000000 0.000000 0.000000 0.034926 0.000000 -0.023380
# 5 -0.069261 0.010398 -0.028818 0.000000 0.093707 0.000000
# 6 0.000000 0.000000 0.000000 -0.023380 0.000000 0.055733
#
#
# Mechanical properties :
#
#
# Convention : Reuss Voigt Hill
#
# Bulk Modulus (GPa) = 6.11426 58.32878 32.22152
# Shear Modulus (GPa) = 11.70565 33.18775 22.44670
#
# Velocity S-wave (km/s) = 2.34285 3.94490 3.24431
# Velocity P-wave (km/s) = 3.19150 6.93547 5.39845
#
# Compressibility (1/GPa) = 0.16355201
#
# Stress axis : x y z
#
# Youngs Moduli (GPa) = 6.81538 114.89882 48.83704
#
# Poissons Ratio (x) = 1.37219 -0.64048
# Poissons Ratio (y) = 0.08139 0.35892
# Poissons Ratio (z) = -0.08938 0.84443
#
# Static dielectric constant tensor:
#      x y z
#    x 3.565890 0.000000 0.361500 
#    y 0.000000 4.032110 0.000000 
#    z 0.361500 0.000000 3.842410 
# 
# 
# High freq. dielectric constant tensor:
#      x y z
#    x 1.816380 0.000000 0.025800 
#    y 0.000000 1.854000 0.000000 
#    z 0.025800 0.000000 1.839880 
# 
# From -- ./inp_files/7513.got.cif
#   From: 2010.03.12/outbox.cif.g09.slc.cpg/sg3_4_cif.got.tgz:7513.got - 2010.03.31 09:20:49.
