data_PCOD8045768
_publ_section_title
;
Structure prediction by ZEFSAII (Michael W. Deem and Ramdas Pophale) SiO2 
 PCOD8045768
Probable space group: P 21
;
_chemical_formula_sum "Si O2"
_cell_formula_units_Z 16
_cell_length_a 32.638814
_cell_length_b 4.977689
_cell_length_c 17.692493
_cell_angle_alpha 90.000000
_cell_angle_beta 16.546890
_cell_angle_gamma 90.000000
_cell_volume 818.636386
_symmetry_space_group_name_H-M "P 21"
_symmetry_group_IT_number 4
_symmetry_cell_setting 'monoclinic'
loop_
_space_group_symop_operation_xyz
x,y,z
-x,1/2+y,-z
loop_
_atom_site_type_symbol
_atom_site_label
_atom_site_fract_x
_atom_site_fract_y
_atom_site_fract_z
Si Si1 0.321195 0.756850 0.915426
Si Si2 0.633129 0.668890 0.423187
Si Si3 0.964157 0.147387 0.520190
Si Si4 0.999891 0.752347 0.052619
Si Si5 0.758460 0.756512 0.039817
Si Si6 0.439246 0.667005 0.199218
Si Si7 0.688504 0.667111 0.651831
Si Si8 0.698338 0.168770 0.402706
O O1 0.466918 0.712924 0.701334
O O2 0.292161 0.546327 0.899483
O O3 0.318299 0.045889 0.880635
O O4 0.202669 0.730059 0.192433
O O5 0.719131 0.720362 0.195244
O O6 0.661130 0.366085 0.399927
O O7 0.687074 0.865528 0.393371
O O8 0.024282 0.329748 0.483926
O O9 0.067186 0.223400 0.268049
O O10 0.859568 0.717548 0.354743
O O11 0.997456 0.549725 0.986486
O O12 0.139665 0.711945 0.856164
O O13 0.383206 0.368043 0.281602
O O14 0.419469 0.718873 0.323111
O O15 0.337398 0.867368 0.332379
O O16 0.606910 0.702647 0.877274
#
# Coordination Sequence:
#
# PCOD8045768 Si02
#       8
#     2   2   2   2   2   2   2   2
#     4  10  19  36  58  81 105 148 196 228 268 333
#     4  12  24  36  53  82 118 152 178 230 293 335
#     4   8  16  30  54  80 101 130 183 236 268 306
#     4  12  21  38  62  85 108 148 189 233 279 345
#     4  10  19  36  58  81 108 145 193 234 265 330
#     4  10  20  36  59  82 112 138 185 238 277 336
#     4  10  19  36  61  87 101 142 192 233 275 326
#     4  12  24  38  53  84 119 147 182 234 293 337
#
# _framework density 19.544695999999998
#
# number of rings (size 3 to 8) (size 9 to 14) (size 15 to 20)
#    0.000    1.500    2.500    3.750    0.000    0.000 
#    0.000    2.500    0.000    0.000    0.000    0.000 
#    0.000    0.000    0.000    0.000    0.000    0.000 
#
# Total GULP energy -198364.476981 kJ/mol
# GULP energy per Si atom -12397.779811 kJ/mol
# Density = 1.950021 g / cm^3
# Si number density = 19.544696 Si / 1000 Ang^3
#
#
#
# Elastic Constant Matrix: (Units=GPa)
#
#
# Indices 1 2 3 4 5 6 
#
# 1 78.3183 3.3629 56.1361 0.0000 44.0665 0.0000
# 2 3.3629 70.4640 11.4195 0.0000 -6.0893 0.0000
# 3 56.1361 11.4195 172.8148 0.0000 11.7807 0.0000
# 4 0.0000 0.0000 0.0000 25.4455 0.0000 0.7241
# 5 44.0665 -6.0893 11.7807 0.0000 167.7116 0.0000
# 6 0.0000 0.0000 0.0000 0.7241 0.0000 34.0704
#
#
#
# Elastic Compliance Matrix: (Units=1/GPa)
#
#
# Indices 1 2 3 4 5 6 
#
# 1 0.019858 -0.000374 -0.006098 0.000000 -0.004803 0.000000
# 2 -0.000374 0.014411 -0.000877 0.000000 0.000683 0.000000
# 3 -0.006098 -0.000877 0.007756 0.000000 0.001026 0.000000
# 4 0.000000 0.000000 0.000000 0.039323 0.000000 -0.000836
# 5 -0.004803 0.000683 0.001026 0.000000 0.007177 0.000000
# 6 0.000000 0.000000 0.000000 -0.000836 0.000000 0.029369
#
#
# Mechanical properties :
#
#
# Convention : Reuss Voigt Hill
#
# Bulk Modulus (GPa) = 36.59761 51.49268 44.04514
# Shear Modulus (GPa) = 35.28531 62.15742 48.72137
#
# Velocity S-wave (km/s) = 4.25357 5.64551 4.99823
# Velocity P-wave (km/s) = 6.54901 8.30054 7.47625
#
# Compressibility (1/GPa) = 0.02732419
#
# Stress axis : x y z
#
# Youngs Moduli (GPa) = 50.35741 69.39278 128.93989
#
# Poissons Ratio (x) = 0.02599 0.78633
# Poissons Ratio (y) = 0.01886 0.11310
# Poissons Ratio (z) = 0.30710 0.06087
#
# Static dielectric constant tensor:
#      x y z
#    x 3.083280 0.000000 0.203460 
#    y 0.000000 3.826040 0.000000 
#    z 0.203460 0.000000 4.045560 
# 
# 
# High freq. dielectric constant tensor:
#      x y z
#    x 1.708230 0.000000 0.016670 
#    y 0.000000 1.786290 0.000000 
#    z 0.016670 0.000000 1.784450 
# 
# From -- ./inp_files/12513.got.cif
#   From: 2010.03.12/outbox.cif.g09.slc.cpg/sg4_7_cif.got.tgz:12513.got - 2010.03.31 09:31:35.
