data_PCOD8045466
_publ_section_title
;
Structure prediction by ZEFSAII (Michael W. Deem and Ramdas Pophale) SiO2 
 PCOD8045466
Probable space group: P 2
;
_chemical_formula_sum "Si O2"
_cell_formula_units_Z 16
_cell_length_a 15.812594
_cell_length_b 9.026619
_cell_length_c 19.823212
_cell_angle_alpha 90.000000
_cell_angle_beta 18.245917
_cell_angle_gamma 90.000000
_cell_volume 885.890318
_symmetry_space_group_name_H-M "P 2"
_symmetry_group_IT_number 3
_symmetry_cell_setting 'monoclinic'
loop_
_space_group_symop_operation_xyz
x,y,z
-x,y,-z
loop_
_atom_site_type_symbol
_atom_site_label
_atom_site_fract_x
_atom_site_fract_y
_atom_site_fract_z
Si Si1 0.185615 0.988710 0.064329
Si Si2 0.194746 0.985320 0.411743
Si Si3 0.231049 0.329062 0.875487
Si Si4 0.213103 0.831563 0.536832
Si Si5 0.213109 0.482721 0.536826
Si Si6 0.194753 0.328963 0.411736
Si Si7 0.814388 0.325569 0.935667
Si Si8 0.768948 0.985223 0.124516
O O1 0.011316 0.874339 0.238753
O O2 0.106946 0.157139 0.142903
O O3 0.128704 0.958192 0.028810
O O4 0.498711 0.958560 0.843686
O O5 0.144563 0.157143 0.466716
O O6 0.000000 0.928950 0.500000
O O7 0.124167 0.894488 0.531979
O O8 0.500601 0.419661 0.655676
O O9 0.300134 0.157143 0.811327
O O10 0.128706 0.356091 0.028810
O O11 0.000000 0.385259 0.000000
O O12 0.234645 0.657142 0.515363
O O13 0.499392 0.894627 0.344330
O O14 0.124188 0.419801 0.531960
O O15 0.988697 0.439934 0.761235
O O16 0.000000 0.385334 0.500000
O O17 0.501294 0.355718 0.156305
O O18 0.000000 0.929036 0.000000
#
# Coordination Sequence:
#
# PCOD8045466 Si02
#       8
#     2   2   2   2   2   2   2   2
#     4   9  18  34  55  77 103 135 173 217 260 306
#     4   9  19  37  59  79 100 133 179 224 260 299
#     4   9  19  37  59  79 100 133 179 224 260 299
#     4  11  22  34  51  77 111 143 169 207 260 318
#     4  11  22  34  51  77 111 143 169 207 260 318
#     4   9  19  37  59  79 100 133 179 224 260 299
#     4   9  18  34  55  77 103 135 173 217 260 306
#     4   9  19  37  59  79 100 133 179 224 260 299
#
# _framework density 18.060927
#
# number of rings (size 3 to 8) (size 9 to 14) (size 15 to 20)
#    0.000    2.500    0.000    3.750    0.000    7.000 
#    0.000   10.000    0.000    0.000    0.000    0.000 
#    0.000    0.000    0.000    0.000    0.000    0.000 
#
# Total GULP energy -198455.217154 kJ/mol
# GULP energy per Si atom -12403.451072 kJ/mol
# Density = 1.801982 g / cm^3
# Si number density = 18.060927 Si / 1000 Ang^3
#
#
#
# Elastic Constant Matrix: (Units=GPa)
#
#
# Indices 1 2 3 4 5 6 
#
# 1 157.7812 54.8695 76.2169 0.0000 -27.4957 0.0000
# 2 54.8695 92.1729 55.1910 0.0000 0.2255 0.0000
# 3 76.2169 55.1910 102.7504 0.0000 2.4707 0.0000
# 4 0.0000 0.0000 0.0000 11.3153 0.0000 -1.9168
# 5 -27.4957 0.2255 2.4707 0.0000 24.6531 0.0000
# 6 0.0000 0.0000 0.0000 -1.9168 0.0000 15.4810
#
#
#
# Elastic Compliance Matrix: (Units=1/GPa)
#
#
# Indices 1 2 3 4 5 6 
#
# 1 0.015693 -0.003169 -0.010385 0.000000 0.018572 0.000000
# 2 -0.003169 0.016645 -0.006517 0.000000 -0.003034 0.000000
# 3 -0.010385 -0.006517 0.021264 0.000000 -0.013654 0.000000
# 4 0.000000 0.000000 0.000000 0.090269 0.000000 0.011177
# 5 0.018572 -0.003034 -0.013654 0.000000 0.062673 0.000000
# 6 0.000000 0.000000 0.000000 0.011177 0.000000 0.065979
#
#
# Mechanical properties :
#
#
# Convention : Reuss Voigt Hill
#
# Bulk Modulus (GPa) = 74.29140 80.58437 77.43789
# Shear Modulus (GPa) = 15.76528 21.38503 18.57515
#
# Velocity S-wave (km/s) = 2.95768 3.44473 3.21046
# Velocity P-wave (km/s) = 7.27234 7.78052 7.53072
#
# Compressibility (1/GPa) = 0.01346051
#
# Stress axis : x y z
#
# Youngs Moduli (GPa) = 63.72337 60.07644 47.02693
#
# Poissons Ratio (x) = 0.19038 0.48837
# Poissons Ratio (y) = 0.20194 0.30649
# Poissons Ratio (z) = 0.66176 0.39153
#
# Static dielectric constant tensor:
#      x y z
#    x 3.557760 0.000000 -0.146920 
#    y 0.000000 3.178060 0.000000 
#    z -0.146920 0.000000 3.234930 
# 
# 
# High freq. dielectric constant tensor:
#      x y z
#    x 1.705680 0.000000 -0.003280 
#    y 0.000000 1.687920 0.000000 
#    z -0.003280 0.000000 1.698300 
# 
# From -- ./inp_files/15357.got.cif
#   From: 2010.03.12/outbox.cif.g09.slc.cpg/sg3_8_cif.got.tgz:15357.got - 2010.03.31 09:20:49.
