data_PCOD8045073
_publ_section_title
;
Structure prediction by ZEFSAII (Michael W. Deem and Ramdas Pophale) SiO2 
 PCOD8045073
Probable space group: P 2
;
_chemical_formula_sum "Si O2"
_cell_formula_units_Z 16
_cell_length_a 9.766875
_cell_length_b 9.583209
_cell_length_c 19.493708
_cell_angle_alpha 90.000000
_cell_angle_beta 27.501469
_cell_angle_gamma 90.000000
_cell_volume 842.535162
_symmetry_space_group_name_H-M "P 2"
_symmetry_group_IT_number 3
_symmetry_cell_setting 'monoclinic'
loop_
_space_group_symop_operation_xyz
x,y,z
-x,y,-z
loop_
_atom_site_type_symbol
_atom_site_label
_atom_site_fract_x
_atom_site_fract_y
_atom_site_fract_z
Si Si1 0.011063 0.003260 0.071057
Si Si2 0.185804 0.586283 0.316200
Si Si3 0.685805 0.795685 0.316199
Si Si4 0.511062 0.378708 0.071057
Si Si5 0.561716 0.543962 0.650963
Si Si6 0.104333 0.315183 0.878639
Si Si7 0.395667 0.066786 0.121361
Si Si8 0.061716 0.838006 0.650963
O O1 0.833175 0.149860 0.151395
O O2 0.863684 0.901195 0.190192
O O3 0.000000 0.937362 0.000000
O O4 0.354923 0.026913 0.934756
O O5 0.363685 0.480774 0.190192
O O6 0.362070 0.608877 0.308647
O O7 0.859937 0.522907 0.474495
O O8 0.162372 0.734316 0.288392
O O9 0.662374 0.647653 0.288391
O O10 0.359939 0.859061 0.474495
O O11 0.862075 0.773090 0.308645
O O12 0.333174 0.232109 0.151395
O O13 0.500000 0.444605 0.000000
O O14 0.854922 0.355056 0.934756
O O15 0.408985 0.393355 0.725058
O O16 0.000000 0.363309 0.000000
O O17 0.091015 0.988613 0.274942
O O18 0.500000 0.018660 0.000000
#
# Coordination Sequence:
#
# PCOD8045073 Si02
#       8
#     2   2   2   2   2   2   2   2
#     4  10  22  37  59  85 114 145 187 233 281 333
#     4  10  22  40  57  84 114 150 188 231 279 330
#     4  10  22  40  57  84 114 150 188 231 279 330
#     4  10  22  37  59  85 114 145 187 233 281 333
#     4  10  22  39  60  81 115 149 189 233 276 331
#     4  10  20  39  59  83 113 148 187 234 279 330
#     4  10  20  39  59  83 113 148 187 234 279 330
#     4  10  22  39  60  81 115 149 189 233 276 331
#
# _framework density 18.990304999999999
#
# number of rings (size 3 to 8) (size 9 to 14) (size 15 to 20)
#    0.000    2.000    2.500    0.000    3.500    3.000 
#    0.000    0.000    0.000    0.000    0.000    0.000 
#    0.000    0.000    0.000    0.000    0.000    0.000 
#
# Total GULP energy -198453.952681 kJ/mol
# GULP energy per Si atom -12403.372043 kJ/mol
# Density = 1.894708 g / cm^3
# Si number density = 18.990305 Si / 1000 Ang^3
#
#
#
# Elastic Constant Matrix: (Units=GPa)
#
#
# Indices 1 2 3 4 5 6 
#
# 1 93.9772 0.3864 0.7177 0.0000 6.3128 0.0000
# 2 0.3864 45.0844 16.4320 0.0000 -2.0459 0.0000
# 3 0.7177 16.4320 46.6404 0.0000 8.4612 0.0000
# 4 0.0000 0.0000 0.0000 24.7114 0.0000 -3.6538
# 5 6.3128 -2.0459 8.4612 0.0000 28.7656 0.0000
# 6 0.0000 0.0000 0.0000 -3.6538 0.0000 27.2611
#
#
#
# Elastic Compliance Matrix: (Units=1/GPa)
#
#
# Indices 1 2 3 4 5 6 
#
# 1 0.010808 -0.000359 0.000417 0.000000 -0.002520 0.000000
# 2 -0.000359 0.026076 -0.010069 0.000000 0.004895 0.000000
# 3 0.000417 -0.010069 0.026545 0.000000 -0.008616 0.000000
# 4 0.000000 0.000000 0.000000 0.041285 0.000000 0.005534
# 5 -0.002520 0.004895 -0.008616 0.000000 0.038199 0.000000
# 6 0.000000 0.000000 0.000000 0.005534 0.000000 0.037424
#
#
# Mechanical properties :
#
#
# Convention : Reuss Voigt Hill
#
# Bulk Modulus (GPa) = 23.03780 24.53046 23.78413
# Shear Modulus (GPa) = 23.27434 27.35867 25.31650
#
# Velocity S-wave (km/s) = 3.50464 3.79973 3.65516
# Velocity P-wave (km/s) = 5.34176 5.67415 5.51046
#
# Compressibility (1/GPa) = 0.04340692
#
# Stress axis : x y z
#
# Youngs Moduli (GPa) = 92.52006 38.34964 37.67214
#
# Poissons Ratio (x) = 0.01377 -0.01573
# Poissons Ratio (y) = 0.03323 0.37934
# Poissons Ratio (z) = -0.03862 0.38616
#
# Static dielectric constant tensor:
#      x y z
#    x 3.805490 0.000000 0.058860 
#    y 0.000000 3.364480 0.000000 
#    z 0.058860 0.000000 3.333280 
# 
# 
# High freq. dielectric constant tensor:
#      x y z
#    x 1.759280 0.000000 0.003600 
#    y 0.000000 1.727260 0.000000 
#    z 0.003600 0.000000 1.727800 
# 
# From -- ./inp_files/7413.got.cif
#   From: 2010.03.12/outbox.cif.g09.slc.cpg/sg3_4_cif.got.tgz:7413.got - 2010.03.31 09:20:49.
