data_PCOD8045398
_publ_section_title
;
Structure prediction by ZEFSAII (Michael W. Deem and Ramdas Pophale) SiO2 
 PCOD8045398
Probable space group: P 2
;
_chemical_formula_sum "Si O2"
_cell_formula_units_Z 6
_cell_length_a 10.151139
_cell_length_b 5.188456
_cell_length_c 5.123537
_cell_angle_alpha 90.000000
_cell_angle_beta 99.647611
_cell_angle_gamma 90.000000
_cell_volume 266.033768
_symmetry_space_group_name_H-M "P 2"
_symmetry_group_IT_number 3
_symmetry_cell_setting 'monoclinic'
loop_
_space_group_symop_operation_xyz
x,y,z
-x,y,-z
loop_
_atom_site_type_symbol
_atom_site_label
_atom_site_fract_x
_atom_site_fract_y
_atom_site_fract_z
Si Si1 0.134693 0.423440 0.196300
Si Si2 0.767370 0.933366 0.546136
Si Si3 0.351198 0.135826 0.010487
O O1 0.162540 0.657208 0.403800
O O2 0.123298 0.160868 0.364020
O O3 0.256296 0.385802 0.027334
O O4 0.000000 0.484231 0.000000
O O5 0.650701 0.961182 0.727421
O O6 0.705122 0.959128 0.240524
O O7 0.500000 0.234710 0.000000
#
# Coordination Sequence:
#
# PCOD8045398 Si02
#       3
#     2   2   2
#     4  10  24  45  67 101 130 177 217 278 327 398
#     4  10  24  42  69  96 134 171 223 265 336 390
#     4  10  24  46  66 101 130 177 218 277 327 399
#
# _framework density 22.553526999999999
#
# number of rings (size 3 to 8) (size 9 to 14) (size 15 to 20)
#    2.000    0.000    0.000    2.000    4.667    2.667 
#    6.000    0.000    0.000    0.000    0.000    0.000 
#    0.000    0.000    0.000    0.000    0.000    0.000 
#
# Total GULP energy -74340.996786 kJ/mol
# GULP energy per Si atom -12390.166131 kJ/mol
# Density = 2.250219 g / cm^3
# Si number density = 22.553527 Si / 1000 Ang^3
#
#
#
# Elastic Constant Matrix: (Units=GPa)
#
#
# Indices 1 2 3 4 5 6 
#
# 1 80.2577 27.2817 17.1124 0.0000 23.2241 0.0000
# 2 27.2817 152.8456 34.4149 0.0000 10.3687 0.0000
# 3 17.1124 34.4149 117.2508 0.0000 -1.3008 0.0000
# 4 0.0000 0.0000 0.0000 22.8291 0.0000 4.5062
# 5 23.2241 10.3687 -1.3008 0.0000 32.3051 0.0000
# 6 0.0000 0.0000 0.0000 4.5062 0.0000 10.5999
#
#
#
# Elastic Compliance Matrix: (Units=1/GPa)
#
#
# Indices 1 2 3 4 5 6 
#
# 1 0.016869 -0.001753 -0.002077 0.000000 -0.011648 0.000000
# 2 -0.001753 0.007368 -0.001920 0.000000 -0.001182 0.000000
# 3 -0.002077 -0.001920 0.009423 0.000000 0.002489 0.000000
# 4 0.000000 0.000000 0.000000 0.047816 0.000000 -0.020328
# 5 -0.011648 -0.001182 0.002489 0.000000 0.039808 0.000000
# 6 0.000000 0.000000 0.000000 -0.020328 0.000000 0.102982
#
#
# Mechanical properties :
#
#
# Convention : Reuss Voigt Hill
#
# Bulk Modulus (GPa) = 45.12505 56.44133 50.78319
# Shear Modulus (GPa) = 20.56317 31.24982 25.90650
#
# Velocity S-wave (km/s) = 3.02280 3.72638 3.39288
# Velocity P-wave (km/s) = 5.67754 6.60261 6.15747
#
# Compressibility (1/GPa) = 0.02216064
#
# Stress axis : x y z
#
# Youngs Moduli (GPa) = 59.27947 135.72345 106.12432
#
# Poissons Ratio (x) = 0.23796 0.22038
# Poissons Ratio (y) = 0.10393 0.20374
# Poissons Ratio (z) = 0.12310 0.26056
#
# Static dielectric constant tensor:
#      x y z
#    x 3.890090 0.000000 -0.094130 
#    y 0.000000 3.726880 0.000000 
#    z -0.094130 0.000000 3.922880 
# 
# 
# High freq. dielectric constant tensor:
#      x y z
#    x 1.870170 0.000000 -0.006650 
#    y 0.000000 1.875070 0.000000 
#    z -0.006650 0.000000 1.894710 
# 
# From -- ./inp_files/717.got.cif
#   From: 2010.03.12/outbox.cif.g09.slc.cpg/sg3_1_cif.got.tgz:717.got - 2010.03.31 09:20:49.
