data_PCOD8046014
_publ_section_title
;
Structure prediction by ZEFSAII (Michael W. Deem and Ramdas Pophale) SiO2 
 PCOD8046014
Probable space group: P 21
;
_chemical_formula_sum "Si O2"
_cell_formula_units_Z 16
_cell_length_a 16.035101
_cell_length_b 8.341729
_cell_length_c 9.246543
_cell_angle_alpha 90.000000
_cell_angle_beta 37.422030
_cell_angle_gamma 90.000000
_cell_volume 751.593477
_symmetry_space_group_name_H-M "P 21"
_symmetry_group_IT_number 4
_symmetry_cell_setting 'monoclinic'
loop_
_space_group_symop_operation_xyz
x,y,z
-x,1/2+y,-z
loop_
_atom_site_type_symbol
_atom_site_label
_atom_site_fract_x
_atom_site_fract_y
_atom_site_fract_z
Si Si1 0.803740 0.617030 0.515889
Si Si2 0.328704 0.144322 0.007535
Si Si3 0.860510 0.576994 0.960236
Si Si4 0.636980 0.962355 0.219590
Si Si5 0.119354 0.436062 0.728228
Si Si6 0.925541 0.946269 0.878202
Si Si7 0.649057 0.466929 0.487891
Si Si8 0.378659 0.594141 0.451391
O O1 0.843623 0.751275 0.344750
O O2 0.693049 0.499525 0.592726
O O3 0.937149 0.516457 0.381648
O O4 0.735876 0.697154 0.751013
O O5 0.354345 0.283632 0.854909
O O6 0.478449 0.069208 0.831463
O O7 0.222452 0.025407 0.071290
O O8 0.913216 0.757924 0.871111
O O9 0.997833 0.472156 0.783171
O O10 0.759623 0.551573 0.233910
O O11 0.504236 0.044105 0.326467
O O12 0.614126 0.969660 0.424114
O O13 0.791967 0.035458 0.987959
O O14 0.255529 0.543209 0.513273
O O15 0.065931 0.476979 0.961833
O O16 0.645550 0.276629 0.461870
#
# Coordination Sequence:
#
# PCOD8046014 Si02
#       8
#     2   2   2   2   2   2   2   2
#     4  12  25  40  65  95 140 171 212 276 335 389
#     4  10  24  44  63  97 135 170 213 277 336 382
#     4  11  21  39  65  92 126 168 224 262 321 393
#     4   9  21  39  69  93 130 165 223 271 318 394
#     4  11  22  37  64  96 126 172 218 268 320 390
#     4  10  20  39  63  95 126 168 218 274 317 385
#     4  11  21  38  68 100 124 174 218 272 326 391
#     4  10  22  40  69  98 129 166 226 274 321 392
#
# _framework density 21.288104000000001
#
# number of rings (size 3 to 8) (size 9 to 14) (size 15 to 20)
#    0.000    1.500    3.750    0.750    3.500    4.000 
#    0.000    0.000    5.500    0.000    0.000    0.000 
#    0.000    0.000    0.000    0.000    0.000    0.000 
#
# Total GULP energy -198219.373283 kJ/mol
# GULP energy per Si atom -12388.710830 kJ/mol
# Density = 2.123965 g / cm^3
# Si number density = 21.288104 Si / 1000 Ang^3
#
#
#
# Elastic Constant Matrix: (Units=GPa)
#
#
# Indices 1 2 3 4 5 6 
#
# 1 119.8118 22.1024 59.3426 0.0000 -35.3689 0.0000
# 2 22.1024 64.6128 37.9637 0.0000 -1.3189 0.0000
# 3 59.3426 37.9637 113.7891 0.0000 -20.8423 0.0000
# 4 0.0000 0.0000 0.0000 18.2473 0.0000 -6.4081
# 5 -35.3689 -1.3189 -20.8423 0.0000 41.6885 0.0000
# 6 0.0000 0.0000 0.0000 -6.4081 0.0000 23.6270
#
#
#
# Elastic Compliance Matrix: (Units=1/GPa)
#
#
# Indices 1 2 3 4 5 6 
#
# 1 0.013827 -0.001609 -0.004992 0.000000 0.009184 0.000000
# 2 -0.001609 0.019754 -0.006480 0.000000 -0.003980 0.000000
# 3 -0.004992 -0.006480 0.014024 0.000000 0.002572 0.000000
# 4 0.000000 0.000000 0.000000 0.060572 0.000000 0.016428
# 5 0.009184 -0.003980 0.002572 0.000000 0.032939 0.000000
# 6 0.000000 0.000000 0.000000 0.016428 0.000000 0.046780
#
#
# Mechanical properties :
#
#
# Convention : Reuss Voigt Hill
#
# Bulk Modulus (GPa) = 46.63669 59.67015 53.15342
# Shear Modulus (GPa) = 22.60332 28.63289 25.61810
#
# Velocity S-wave (km/s) = 3.26203 3.67143 3.47277
# Velocity P-wave (km/s) = 6.01189 6.78699 6.41116
#
# Compressibility (1/GPa) = 0.02144235
#
# Stress axis : x y z
#
# Youngs Moduli (GPa) = 72.32226 50.62374 71.30409
#
# Poissons Ratio (x) = 0.08148 0.35593
# Poissons Ratio (y) = 0.11640 0.46206
# Poissons Ratio (z) = 0.36101 0.32805
#
# Static dielectric constant tensor:
#      x y z
#    x 4.402170 0.000000 -0.655150 
#    y 0.000000 3.523720 0.000000 
#    z -0.655150 0.000000 3.826980 
# 
# 
# High freq. dielectric constant tensor:
#      x y z
#    x 1.848730 0.000000 -0.040510 
#    y 0.000000 1.805190 0.000000 
#    z -0.040510 0.000000 1.821730 
# 
# From -- ./inp_files/9138.got.cif
#   From: 2010.03.12/outbox.cif.g09.slc.cpg/sg4_5_cif.got.tgz:9138.got - 2010.03.31 09:31:35.
