data_PCOD8046383
_publ_section_title
;
Structure prediction by ZEFSAII (Michael W. Deem and Ramdas Pophale) SiO2 
 PCOD8046383
Probable space group: P 21
;
_chemical_formula_sum "Si O2"
_cell_formula_units_Z 16
_cell_length_a 7.013316
_cell_length_b 10.241151
_cell_length_c 11.059747
_cell_angle_alpha 90.000000
_cell_angle_beta 115.338597
_cell_angle_gamma 90.000000
_cell_volume 717.938169
_symmetry_space_group_name_H-M "P 21"
_symmetry_group_IT_number 4
_symmetry_cell_setting 'monoclinic'
loop_
_space_group_symop_operation_xyz
x,y,z
-x,1/2+y,-z
loop_
_atom_site_type_symbol
_atom_site_label
_atom_site_fract_x
_atom_site_fract_y
_atom_site_fract_z
Si Si1 0.212693 0.305870 0.522187
Si Si2 0.282697 0.451179 0.028937
Si Si3 0.135551 0.353781 0.236572
Si Si4 0.915240 0.712792 0.144892
Si Si5 0.885863 0.586331 0.891529
Si Si6 0.679380 0.372559 0.697372
Si Si7 0.261814 0.988334 0.786399
Si Si8 0.151085 0.996358 0.497150
O O1 0.244399 0.367225 0.396758
O O2 0.447251 0.309569 0.643797
O O3 0.065509 0.408891 0.557156
O O4 0.120183 0.156082 0.488467
O O5 0.233011 0.445214 0.159374
O O6 0.522679 0.492520 0.080486
O O7 0.249432 0.318642 0.946105
O O8 0.125137 0.549253 0.917232
O O9 0.178042 0.209077 0.202969
O O10 0.888115 0.384045 0.187730
O O11 0.834188 0.636224 0.241317
O O12 0.151794 0.757312 0.238035
O O13 0.904296 0.602419 0.039326
O O14 0.716856 0.472451 0.818390
O O15 0.719329 0.452365 0.584740
O O16 0.286366 0.953077 0.651567
#
# Coordination Sequence:
#
# PCOD8046383 Si02
#       8
#     2   2   2   2   2   2   2   2
#     4  11  25  45  74  99 145 184 227 299 348 413
#     4  10  22  39  66  94 128 179 216 274 346 406
#     4  10  21  43  63  96 130 172 227 278 333 415
#     4  10  23  43  64 101 134 169 234 280 329 430
#     4  10  21  44  65  94 137 170 229 277 333 414
#     4  11  24  46  72  99 135 186 228 284 353 410
#     4  11  23  40  66  96 133 174 220 283 344 405
#     4  11  25  46  68 109 136 180 239 289 342 427
#
# _framework density 22.286041999999998
#
# number of rings (size 3 to 8) (size 9 to 14) (size 15 to 20)
#    0.000    1.500    2.500    1.500    3.500    3.000 
#   15.750    0.000    0.000    0.000    0.000    0.000 
#    0.000    0.000    0.000    0.000    0.000    0.000 
#
# Total GULP energy -198223.955029 kJ/mol
# GULP energy per Si atom -12388.997189 kJ/mol
# Density = 2.223532 g / cm^3
# Si number density = 22.286042 Si / 1000 Ang^3
#
#
#
# Elastic Constant Matrix: (Units=GPa)
#
#
# Indices 1 2 3 4 5 6 
#
# 1 75.3702 36.2088 25.8829 0.0000 23.6018 0.0000
# 2 36.2088 94.8160 14.8634 0.0000 11.6520 0.0000
# 3 25.8829 14.8634 66.3107 0.0000 13.2932 0.0000
# 4 0.0000 0.0000 0.0000 25.1898 0.0000 -2.0404
# 5 23.6018 11.6520 13.2932 0.0000 44.4322 0.0000
# 6 0.0000 0.0000 0.0000 -2.0404 0.0000 23.9070
#
#
#
# Elastic Compliance Matrix: (Units=1/GPa)
#
#
# Indices 1 2 3 4 5 6 
#
# 1 0.020296 -0.006016 -0.005030 0.000000 -0.007698 0.000000
# 2 -0.006016 0.012934 -0.000544 0.000000 -0.000033 0.000000
# 3 -0.005030 -0.000544 0.017661 0.000000 -0.002469 0.000000
# 4 0.000000 0.000000 0.000000 0.039975 0.000000 0.003412
# 5 -0.007698 -0.000033 -0.002469 0.000000 0.027343 0.000000
# 6 0.000000 0.000000 0.000000 0.003412 0.000000 0.042120
#
#
# Mechanical properties :
#
#
# Convention : Reuss Voigt Hill
#
# Bulk Modulus (GPa) = 36.08878 43.37858 39.73368
# Shear Modulus (GPa) = 25.94078 29.34192 27.64135
#
# Velocity S-wave (km/s) = 3.41543 3.63244 3.52561
# Velocity P-wave (km/s) = 5.63757 6.09094 5.86863
#
# Compressibility (1/GPa) = 0.02770944
#
# Stress axis : x y z
#
# Youngs Moduli (GPa) = 49.26993 77.31785 56.62212
#
# Poissons Ratio (x) = 0.46516 0.28483
# Poissons Ratio (y) = 0.29642 0.03081
# Poissons Ratio (z) = 0.24785 0.04207
#
# Static dielectric constant tensor:
#      x y z
#    x 3.782360 0.000000 -0.151060 
#    y 0.000000 4.136350 0.000000 
#    z -0.151060 0.000000 4.215130 
# 
# 
# High freq. dielectric constant tensor:
#      x y z
#    x 1.854790 0.000000 -0.004430 
#    y 0.000000 1.883280 0.000000 
#    z -0.004430 0.000000 1.892880 
# 
# From -- ./inp_files/10368.got.cif
#   From: 2010.03.12/outbox.cif.g09.slc.cpg/sg4_6_cif.got.tgz:10368.got - 2010.03.31 09:31:35.
