data_PCOD8046215
_publ_section_title
;
Structure prediction by ZEFSAII (Michael W. Deem and Ramdas Pophale) SiO2 
 PCOD8046215
Probable space group: P 21
;
_chemical_formula_sum "Si O2"
_cell_formula_units_Z 16
_cell_length_a 13.081110
_cell_length_b 7.132647
_cell_length_c 9.068001
_cell_angle_alpha 90.000000
_cell_angle_beta 61.673343
_cell_angle_gamma 90.000000
_cell_volume 744.759791
_symmetry_space_group_name_H-M "P 21"
_symmetry_group_IT_number 4
_symmetry_cell_setting 'monoclinic'
loop_
_space_group_symop_operation_xyz
x,y,z
-x,1/2+y,-z
loop_
_atom_site_type_symbol
_atom_site_label
_atom_site_fract_x
_atom_site_fract_y
_atom_site_fract_z
Si Si1 0.870852 0.227570 0.854515
Si Si2 0.521498 0.100748 0.869238
Si Si3 0.293211 0.992555 0.531334
Si Si4 0.698205 0.503347 0.131466
Si Si5 0.228413 0.635923 0.386497
Si Si6 0.758939 0.927253 0.113359
Si Si7 0.512485 0.018748 0.204446
Si Si8 0.866532 0.835734 0.344372
O O1 0.837515 0.225845 0.706342
O O2 0.001569 0.294209 0.785292
O O3 0.794182 0.375921 0.993130
O O4 0.852925 0.022665 0.940136
O O5 0.426816 0.961255 0.860088
O O6 0.652766 0.032153 0.747317
O O7 0.504389 0.299454 0.806845
O O8 0.499615 0.125229 0.058198
O O9 0.255974 0.799061 0.482966
O O10 0.411589 0.083304 0.384903
O O11 0.313621 0.956334 0.689232
O O12 0.191557 0.140212 0.571944
O O13 0.737864 0.716286 0.073382
O O14 0.143800 0.481144 0.514247
O O15 0.639888 0.050480 0.187702
O O16 0.803665 0.931854 0.248983
#
# Coordination Sequence:
#
# PCOD8046215 Si02
#       8
#     2   2   2   2   2   2   2   2
#     4  12  26  45  71  94 133 183 222 267 330 393
#     4  10  21  39  65 101 132 172 214 265 334 397
#     4  10  24  44  69 100 136 171 218 276 332 388
#     4  10  23  43  69 100 133 176 217 273 330 392
#     4  11  25  45  64 102 134 172 222 271 332 390
#     4  10  24  45  66 100 128 173 224 270 331 389
#     4  10  21  40  66 100 135 168 215 270 336 398
#     4  11  28  43  68  97 133 181 220 274 323 391
#
# _framework density 21.483435
#
# number of rings (size 3 to 8) (size 9 to 14) (size 15 to 20)
#    0.000    1.500    1.250    2.250    8.750    2.000 
#    2.250    0.000    0.000    0.000    0.000    0.000 
#    0.000    0.000    0.000    0.000    0.000    0.000 
#
# Total GULP energy -198473.354457 kJ/mol
# GULP energy per Si atom -12404.584654 kJ/mol
# Density = 2.143454 g / cm^3
# Si number density = 21.483435 Si / 1000 Ang^3
#
#
#
# Elastic Constant Matrix: (Units=GPa)
#
#
# Indices 1 2 3 4 5 6 
#
# 1 104.6457 21.1041 45.1547 0.0000 3.8479 0.0000
# 2 21.1041 47.1686 39.0249 0.0000 2.9077 0.0000
# 3 45.1547 39.0249 104.7819 0.0000 9.0148 0.0000
# 4 0.0000 0.0000 0.0000 37.9634 0.0000 -7.3148
# 5 3.8479 2.9077 9.0148 0.0000 37.4366 0.0000
# 6 0.0000 0.0000 0.0000 -7.3148 0.0000 23.3071
#
#
#
# Elastic Compliance Matrix: (Units=1/GPa)
#
#
# Indices 1 2 3 4 5 6 
#
# 1 0.011817 -0.001552 -0.004514 0.000000 -0.000007 0.000000
# 2 -0.001552 0.030852 -0.010854 0.000000 0.000377 0.000000
# 3 -0.004514 -0.010854 0.015745 0.000000 -0.002484 0.000000
# 4 0.000000 0.000000 0.000000 0.028037 0.000000 0.008799
# 5 -0.000007 0.000377 -0.002484 0.000000 0.027282 0.000000
# 6 0.000000 0.000000 0.000000 0.008799 0.000000 0.045667
#
#
# Mechanical properties :
#
#
# Convention : Reuss Voigt Hill
#
# Bulk Modulus (GPa) = 40.69347 51.90707 46.30027
# Shear Modulus (GPa) = 24.82252 29.82890 27.32571
#
# Velocity S-wave (km/s) = 3.40284 3.73025 3.57030
# Velocity P-wave (km/s) = 5.86703 6.53964 6.21244
#
# Compressibility (1/GPa) = 0.02457397
#
# Stress axis : x y z
#
# Youngs Moduli (GPa) = 84.62360 32.41300 63.51257
#
# Poissons Ratio (x) = 0.05032 0.28667
# Poissons Ratio (y) = 0.13136 0.68936
# Poissons Ratio (z) = 0.38196 0.35181
#
# Static dielectric constant tensor:
#      x y z
#    x 4.031780 0.000000 -0.084450 
#    y 0.000000 3.843450 0.000000 
#    z -0.084450 0.000000 4.027930 
# 
# 
# High freq. dielectric constant tensor:
#      x y z
#    x 1.848480 0.000000 0.002600 
#    y 0.000000 1.848190 0.000000 
#    z 0.002600 0.000000 1.848230 
# 
# From -- ./inp_files/7668.got.cif
#   From: 2010.03.12/outbox.cif.g09.slc.cpg/sg4_4_cif.got.tgz:7668.got - 2010.03.31 09:31:35.
