data_PCOD8046631
_publ_section_title
;
Structure prediction by ZEFSAII (Michael W. Deem and Ramdas Pophale) SiO2 
 PCOD8046631
Probable space group: P 21
;
_chemical_formula_sum "Si O2"
_cell_formula_units_Z 16
_cell_length_a 9.020001
_cell_length_b 9.070903
_cell_length_c 11.411024
_cell_angle_alpha 90.000000
_cell_angle_beta 51.566574
_cell_angle_gamma 90.000000
_cell_volume 731.352943
_symmetry_space_group_name_H-M "P 21"
_symmetry_group_IT_number 4
_symmetry_cell_setting 'monoclinic'
loop_
_space_group_symop_operation_xyz
x,y,z
-x,1/2+y,-z
loop_
_atom_site_type_symbol
_atom_site_label
_atom_site_fract_x
_atom_site_fract_y
_atom_site_fract_z
Si Si1 0.382441 0.422260 0.681699
Si Si2 0.550798 0.164540 0.902284
Si Si3 0.956361 0.679824 0.633373
Si Si4 0.764069 0.643025 0.129352
Si Si5 0.223977 0.468880 0.372327
Si Si6 0.413378 0.998817 0.183982
Si Si7 0.584250 0.391283 0.342134
Si Si8 0.108368 0.660180 0.805937
O O1 0.333694 0.254915 0.733626
O O2 0.479188 0.495346 0.746552
O O3 0.527361 0.431710 0.502550
O O4 0.175456 0.491588 0.756720
O O5 0.355446 0.132482 0.931151
O O6 0.603996 0.337512 0.868059
O O7 0.713559 0.056252 0.774388
O O8 0.524045 0.117444 0.049752
O O9 0.920433 0.837134 0.588222
O O10 0.793323 0.561872 0.691553
O O11 0.141817 0.599170 0.493371
O O12 0.987553 0.715944 0.754712
O O13 0.752132 0.494275 0.210034
O O14 0.980310 0.678046 0.985971
O O15 0.400510 0.393826 0.350662
O O16 0.684714 0.234108 0.287241
#
# Coordination Sequence:
#
# PCOD8046631 Si02
#       8
#     2   2   2   2   2   2   2   2
#     4  11  24  43  69  99 137 183 226 278 353 410
#     4  10  22  42  70  98 134 185 227 280 345 409
#     4  12  25  44  68 101 140 173 236 288 342 409
#     4  10  23  44  68  97 134 179 229 283 340 411
#     4  11  25  45  69 101 135 184 226 289 346 414
#     4  11  23  43  69  98 138 181 231 283 344 414
#     4  11  24  45  71  98 138 182 227 276 357 417
#     4  12  24  44  66 100 138 177 228 289 339 412
#
# _framework density 21.877264
#
# number of rings (size 3 to 8) (size 9 to 14) (size 15 to 20)
#    0.000    1.000    2.500    3.750    7.000    1.000 
#    2.250    0.000    0.000    0.000    0.000    0.000 
#    0.000    0.000    0.000    0.000    0.000    0.000 
#
# Total GULP energy -198390.434055 kJ/mol
# GULP energy per Si atom -12399.402128 kJ/mol
# Density = 2.182747 g / cm^3
# Si number density = 21.877264 Si / 1000 Ang^3
#
#
#
# Elastic Constant Matrix: (Units=GPa)
#
#
# Indices 1 2 3 4 5 6 
#
# 1 58.8997 31.7361 24.1680 0.0000 1.2811 0.0000
# 2 31.7361 88.3958 26.3403 0.0000 1.0292 0.0000
# 3 24.1680 26.3403 129.0476 0.0000 -1.5961 0.0000
# 4 0.0000 0.0000 0.0000 44.6545 0.0000 -6.5696
# 5 1.2811 1.0292 -1.5961 0.0000 32.1185 0.0000
# 6 0.0000 0.0000 0.0000 -6.5696 0.0000 32.7036
#
#
#
# Elastic Compliance Matrix: (Units=1/GPa)
#
#
# Indices 1 2 3 4 5 6 
#
# 1 0.021892 -0.007055 -0.002669 0.000000 -0.000780 0.000000
# 2 -0.007055 0.014327 -0.001606 0.000000 -0.000257 0.000000
# 3 -0.002669 -0.001606 0.008584 0.000000 0.000585 0.000000
# 4 0.000000 0.000000 0.000000 0.023076 0.000000 0.004636
# 5 -0.000780 -0.000257 0.000585 0.000000 0.031203 0.000000
# 6 0.000000 0.000000 0.000000 0.004636 0.000000 0.031509
#
#
# Mechanical properties :
#
#
# Convention : Reuss Voigt Hill
#
# Bulk Modulus (GPa) = 45.16421 48.98130 47.07275
# Shear Modulus (GPa) = 31.12674 34.83522 32.98098
#
# Velocity S-wave (km/s) = 3.77608 3.99470 3.88693
# Velocity P-wave (km/s) = 6.30086 6.61170 6.45815
#
# Compressibility (1/GPa) = 0.02214143
#
# Stress axis : x y z
#
# Youngs Moduli (GPa) = 45.67937 69.79663 116.49420
#
# Poissons Ratio (x) = 0.49242 0.31098
# Poissons Ratio (y) = 0.32227 0.18713
# Poissons Ratio (z) = 0.12194 0.11211
#
# Static dielectric constant tensor:
#      x y z
#    x 3.785980 0.000000 -0.031970 
#    y 0.000000 3.986700 0.000000 
#    z -0.031970 0.000000 3.986270 
# 
# 
# High freq. dielectric constant tensor:
#      x y z
#    x 1.845630 0.000000 0.000250 
#    y 0.000000 1.872020 0.000000 
#    z 0.000250 0.000000 1.873860 
# 
# From -- ./inp_files/5412.got.cif
#   From: 2010.03.12/outbox.cif.g09.slc.cpg/sg4_3_cif.got.tgz:5412.got - 2010.03.31 09:31:35.
