data_PCOD8046570
_publ_section_title
;
Structure prediction by ZEFSAII (Michael W. Deem and Ramdas Pophale) SiO2 
 PCOD8046570
Probable space group: P 21
;
_chemical_formula_sum "Si O2"
_cell_formula_units_Z 16
_cell_length_a 14.485125
_cell_length_b 8.565263
_cell_length_c 6.036431
_cell_angle_alpha 90.000000
_cell_angle_beta 71.873020
_cell_angle_gamma 90.000000
_cell_volume 711.763321
_symmetry_space_group_name_H-M "P 21"
_symmetry_group_IT_number 4
_symmetry_cell_setting 'monoclinic'
loop_
_space_group_symop_operation_xyz
x,y,z
-x,1/2+y,-z
loop_
_atom_site_type_symbol
_atom_site_label
_atom_site_fract_x
_atom_site_fract_y
_atom_site_fract_z
Si Si1 0.885968 0.275670 0.183264
Si Si2 0.243570 0.225344 0.741549
Si Si3 0.630744 0.520799 0.061318
Si Si4 0.794595 0.495499 0.605236
Si Si5 0.560282 0.278263 0.469147
Si Si6 0.713397 0.071923 0.240648
Si Si7 0.520364 0.036641 0.182799
Si Si8 0.928518 0.579046 0.884953
O O1 0.831464 0.350428 0.433801
O O2 0.807084 0.174489 0.103191
O O3 0.966000 0.155202 0.212410
O O4 0.932456 0.406894 0.991515
O O5 0.254191 0.130399 0.506539
O O6 0.253649 0.407681 0.682586
O O7 0.323395 0.175028 0.864106
O O8 0.136804 0.192647 0.917661
O O9 0.708101 0.442829 0.834369
O O10 0.529270 0.566813 0.017012
O O11 0.611036 0.398098 0.265416
O O12 0.886455 0.564668 0.669131
O O13 0.648730 0.162715 0.477766
O O14 0.483037 0.169935 0.388185
O O15 0.509746 0.363681 0.710648
O O16 0.638767 0.048024 0.085722
#
# Coordination Sequence:
#
# PCOD8046570 Si02
#       8
#     2   2   2   2   2   2   2   2
#     4  11  22  44  67  99 130 168 212 264 315 387
#     4  10  22  41  64  95 128 166 215 265 313 383
#     4  11  22  41  66  90 127 172 214 265 323 376
#     4  10  23  42  68  92 133 168 207 264 321 378
#     4  10  24  40  60  89 126 166 215 264 316 376
#     4  10  23  39  64  89 129 170 211 266 320 370
#     4  10  25  39  64  90 128 170 212 270 320 370
#     4  10  23  42  71  96 131 168 208 262 322 382
#
# _framework density 22.479384
#
# number of rings (size 3 to 8) (size 9 to 14) (size 15 to 20)
#    0.750    1.000    0.000    4.500    5.250    3.000 
#    0.000    8.750    0.000    0.000    0.000    0.000 
#    0.000    0.000    0.000    0.000    0.000    0.000 
#
# Total GULP energy -198274.177565 kJ/mol
# GULP energy per Si atom -12392.136098 kJ/mol
# Density = 2.242822 g / cm^3
# Si number density = 22.479384 Si / 1000 Ang^3
#
#
#
# Elastic Constant Matrix: (Units=GPa)
#
#
# Indices 1 2 3 4 5 6 
#
# 1 158.7099 61.1972 29.9040 0.0000 15.1953 0.0000
# 2 61.1972 138.3265 27.9930 0.0000 -6.0262 0.0000
# 3 29.9040 27.9930 61.2735 0.0000 6.1849 0.0000
# 4 0.0000 0.0000 0.0000 11.4800 0.0000 -5.7814
# 5 15.1953 -6.0262 6.1849 0.0000 27.2054 0.0000
# 6 0.0000 0.0000 0.0000 -5.7814 0.0000 48.5035
#
#
#
# Elastic Compliance Matrix: (Units=1/GPa)
#
#
# Indices 1 2 3 4 5 6 
#
# 1 0.008560 -0.003602 -0.002015 0.000000 -0.005121 0.000000
# 2 -0.003602 0.009673 -0.003153 0.000000 0.004871 0.000000
# 3 -0.002015 -0.003153 0.019140 0.000000 -0.003924 0.000000
# 4 0.000000 0.000000 0.000000 0.092670 0.000000 0.011046
# 5 -0.005121 0.004871 -0.003924 0.000000 0.041589 0.000000
# 6 0.000000 0.000000 0.000000 0.011046 0.000000 0.021934
#
#
# Mechanical properties :
#
#
# Convention : Reuss Voigt Hill
#
# Bulk Modulus (GPa) = 50.42115 66.27758 58.34936
# Shear Modulus (GPa) = 22.96559 33.38551 28.17555
#
# Velocity S-wave (km/s) = 3.19976 3.85796 3.54417
# Velocity P-wave (km/s) = 6.01082 7.02801 6.53922
#
# Compressibility (1/GPa) = 0.01983295
#
# Stress axis : x y z
#
# Youngs Moduli (GPa) = 116.82614 103.37809 52.24619
#
# Poissons Ratio (x) = 0.37239 0.10527
# Poissons Ratio (y) = 0.42084 0.16473
# Poissons Ratio (z) = 0.23540 0.32594
#
# Static dielectric constant tensor:
#      x y z
#    x 4.176110 0.000000 0.086920 
#    y 0.000000 4.150410 0.000000 
#    z 0.086920 0.000000 3.715210 
# 
# 
# High freq. dielectric constant tensor:
#      x y z
#    x 1.895320 0.000000 0.002520 
#    y 0.000000 1.894740 0.000000 
#    z 0.002520 0.000000 1.850330 
# 
# From -- ./inp_files/3539.got.cif
#   From: 2010.03.12/outbox.cif.g09.slc.cpg/sg4_2_cif.got.tgz:3539.got - 2010.03.31 09:31:35.
