data_PCOD8046030
_publ_section_title
;
Structure prediction by ZEFSAII (Michael W. Deem and Ramdas Pophale) SiO2 
 PCOD8046030
Probable space group: P 21
;
_chemical_formula_sum "Si O2"
_cell_formula_units_Z 14
_cell_length_a 11.474322
_cell_length_b 8.859849
_cell_length_c 9.471247
_cell_angle_alpha 90.000000
_cell_angle_beta 139.912161
_cell_angle_gamma 90.000000
_cell_volume 620.040786
_symmetry_space_group_name_H-M "P 21"
_symmetry_group_IT_number 4
_symmetry_cell_setting 'monoclinic'
loop_
_space_group_symop_operation_xyz
x,y,z
-x,1/2+y,-z
loop_
_atom_site_type_symbol
_atom_site_label
_atom_site_fract_x
_atom_site_fract_y
_atom_site_fract_z
Si Si1 0.170083 0.925800 0.365223
Si Si2 0.930252 0.894340 0.874580
Si Si3 0.614843 0.669967 0.559897
Si Si4 0.125329 0.150574 0.571293
Si Si5 0.142075 0.889795 0.787318
Si Si6 0.542465 0.834427 0.220441
Si Si7 0.322565 0.614426 0.508451
O O1 0.225374 0.762927 0.478943
O O2 0.349296 0.000206 0.461841
O O3 0.095169 0.027559 0.421444
O O4 0.013593 0.910436 0.105059
O O5 0.813062 0.741907 0.765216
O O6 0.082687 0.881014 0.894827
O O7 0.803019 0.038262 0.727459
O O8 0.505325 0.765428 0.341360
O O9 0.509417 0.664254 0.608484
O O10 0.322609 0.228709 0.743416
O O11 0.970601 0.275997 0.415461
O O12 0.110789 0.062287 0.706147
O O13 0.353002 0.848152 0.964387
O O14 0.637842 0.998560 0.327184
#
# Coordination Sequence:
#
# PCOD8046030 Si02
#       7
#     2   2   2   2   2   2   2
#     4  11  22  39  66 105 136 179 222 291 345 411
#     4  11  22  41  70 102 143 179 235 277 354 408
#     4  10  20  40  62 103 144 179 225 284 340 414
#     4  11  28  47  69 101 141 178 243 283 341 421
#     4  12  25  50  73  96 140 190 226 297 344 403
#     4  10  24  46  68  99 140 184 230 286 346 417
#     4  11  21  37  68 100 148 175 225 286 342 416
#
# _framework density 22.579160000000002
#
# number of rings (size 3 to 8) (size 9 to 14) (size 15 to 20)
#    0.000    1.143    4.286    4.286    4.000    2.286 
#    0.000    0.000    0.000    0.000    0.000    0.000 
#    0.000    0.000    0.000    0.000    0.000    0.000 
#
# Total GULP energy -173647.987961 kJ/mol
# GULP energy per Si atom -12403.427712 kJ/mol
# Density = 2.252777 g / cm^3
# Si number density = 22.579160 Si / 1000 Ang^3
#
#
#
# Elastic Constant Matrix: (Units=GPa)
#
#
# Indices 1 2 3 4 5 6 
#
# 1 64.4806 39.6181 32.6735 0.0000 9.8590 0.0000
# 2 39.6181 133.9067 33.4958 0.0000 15.4554 0.0000
# 3 32.6735 33.4958 97.5595 0.0000 26.1187 0.0000
# 4 0.0000 0.0000 0.0000 16.6520 0.0000 -0.1789
# 5 9.8590 15.4554 26.1187 0.0000 25.6142 0.0000
# 6 0.0000 0.0000 0.0000 -0.1789 0.0000 37.7219
#
#
#
# Elastic Compliance Matrix: (Units=1/GPa)
#
#
# Indices 1 2 3 4 5 6 
#
# 1 0.021304 -0.004967 -0.005552 0.000000 0.000459 0.000000
# 2 -0.004967 0.009481 -0.000787 0.000000 -0.003007 0.000000
# 3 -0.005552 -0.000787 0.016067 0.000000 -0.013771 0.000000
# 4 0.000000 0.000000 0.000000 0.060056 0.000000 0.000285
# 5 0.000459 -0.003007 -0.013771 0.000000 0.054721 0.000000
# 6 0.000000 0.000000 0.000000 0.000285 0.000000 0.026511
#
#
# Mechanical properties :
#
#
# Convention : Reuss Voigt Hill
#
# Bulk Modulus (GPa) = 41.25507 56.39130 48.82319
# Shear Modulus (GPa) = 22.84857 28.67489 25.76173
#
# Velocity S-wave (km/s) = 3.18454 3.56753 3.38146
# Velocity P-wave (km/s) = 5.64205 6.48065 6.07584
#
# Compressibility (1/GPa) = 0.02423944
#
# Stress axis : x y z
#
# Youngs Moduli (GPa) = 46.94020 105.47052 62.24065
#
# Poissons Ratio (x) = 0.52388 0.34558
# Poissons Ratio (y) = 0.23316 0.04897
# Poissons Ratio (z) = 0.26062 0.08298
#
# Static dielectric constant tensor:
#      x y z
#    x 3.869590 0.000000 0.097840 
#    y 0.000000 4.433670 0.000000 
#    z 0.097840 0.000000 3.834210 
# 
# 
# High freq. dielectric constant tensor:
#      x y z
#    x 1.879480 0.000000 0.012330 
#    y 0.000000 1.910780 0.000000 
#    z 0.012330 0.000000 1.874540 
# 
# From -- ./inp_files/7927.got.cif
#   From: 2010.03.12/outbox.cif.g09.slc.cpg/sg4_4_cif.got.tgz:7927.got - 2010.03.31 09:31:35.
