data_PCOD8046518
_publ_section_title
;
Structure prediction by ZEFSAII (Michael W. Deem and Ramdas Pophale) SiO2 
 PCOD8046518
Probable space group: P 21
;
_chemical_formula_sum "Si O2"
_cell_formula_units_Z 16
_cell_length_a 11.435074
_cell_length_b 8.242796
_cell_length_c 13.611129
_cell_angle_alpha 90.000000
_cell_angle_beta 152.945416
_cell_angle_gamma 90.000000
_cell_volume 583.533106
_symmetry_space_group_name_H-M "P 21"
_symmetry_group_IT_number 4
_symmetry_cell_setting 'monoclinic'
loop_
_space_group_symop_operation_xyz
x,y,z
-x,1/2+y,-z
loop_
_atom_site_type_symbol
_atom_site_label
_atom_site_fract_x
_atom_site_fract_y
_atom_site_fract_z
Si Si1 0.494837 0.870820 0.279976
Si Si2 0.691476 0.685769 0.257320
Si Si3 0.596652 0.879574 0.001918
Si Si4 0.535210 0.650189 0.495158
Si Si5 0.239040 0.662212 0.613759
Si Si6 0.020214 0.096154 0.961524
Si Si7 0.390795 0.860223 0.559460
Si Si8 0.869527 0.949677 0.029458
O O1 0.510207 0.717606 0.216805
O O2 0.550765 0.802512 0.431319
O O3 0.716946 0.986348 0.402539
O O4 0.224340 0.967402 0.071556
O O5 0.613523 0.520024 0.146589
O O6 0.996388 0.664058 0.505973
O O7 0.665077 0.836543 0.163686
O O8 0.486163 0.723608 0.859526
O O9 0.847407 0.952525 0.131507
O O10 0.547917 0.715593 0.617281
O O11 0.731166 0.497107 0.608981
O O12 0.269405 0.544818 0.286656
O O13 0.182569 0.775818 0.474870
O O14 0.025722 0.275415 0.924956
O O15 0.025580 0.092727 0.087135
O O16 0.575574 0.957660 0.770453
#
# Coordination Sequence:
#
# PCOD8046518 Si02
#       8
#     2   2   2   2   2   2   2   2
#     4  12  23  43  70  97 133 174 223 279 332 399
#     4  12  27  45  70  96 134 183 229 278 334 390
#     4  11  25  46  68 100 136 174 234 275 332 403
#     4  11  24  40  66  99 133 173 215 270 339 406
#     4  11  24  45  71  94 134 177 225 287 331 391
#     4  11  21  38  69  93 131 169 212 266 340 390
#     4  10  22  40  62  97 133 169 214 270 334 399
#     4  10  22  41  64  96 134 169 214 273 332 398
#
# _framework density 27.419180000000001
#
# number of rings (size 3 to 8) (size 9 to 14) (size 15 to 20)
#    0.000    1.000    3.750    4.500    1.750    0.000 
#    0.000    3.750    0.000    0.000    0.000    0.000 
#    0.000    0.000    0.000    0.000    0.000    0.000 
#
# Total GULP energy -198246.479041 kJ/mol
# GULP energy per Si atom -12390.404940 kJ/mol
# Density = 2.735677 g / cm^3
# Si number density = 27.419180 Si / 1000 Ang^3
#
#
#
# Elastic Constant Matrix: (Units=GPa)
#
#
# Indices 1 2 3 4 5 6 
#
# 1 139.7887 9.5298 17.0064 0.0000 8.6871 0.0000
# 2 9.5298 83.5893 -6.8103 0.0000 12.9999 0.0000
# 3 17.0064 -6.8103 17.5704 0.0000 9.0918 0.0000
# 4 0.0000 0.0000 0.0000 24.4575 0.0000 -2.3637
# 5 8.6871 12.9999 9.0918 0.0000 40.7336 0.0000
# 6 0.0000 0.0000 0.0000 -2.3637 0.0000 55.8458
#
#
#
# Elastic Compliance Matrix: (Units=1/GPa)
#
#
# Indices 1 2 3 4 5 6 
#
# 1 0.008350 -0.001841 -0.009245 0.000000 0.000870 0.000000
# 2 -0.001841 0.014035 0.010555 0.000000 -0.006443 0.000000
# 3 -0.009245 0.010555 0.079905 0.000000 -0.019232 0.000000
# 4 0.000000 0.000000 0.000000 0.041055 0.000000 0.001738
# 5 0.000870 -0.006443 -0.019232 0.000000 0.030713 0.000000
# 6 0.000000 0.000000 0.000000 0.001738 0.000000 0.017980
#
#
# Mechanical properties :
#
#
# Convention : Reuss Voigt Hill
#
# Bulk Modulus (GPa) = 9.87868 31.15559 20.51714
# Shear Modulus (GPa) = 22.04172 38.95555 30.49864
#
# Velocity S-wave (km/s) = 2.83835 3.77336 3.33875
# Velocity P-wave (km/s) = 3.78845 5.51105 4.72885
#
# Compressibility (1/GPa) = 0.10122810
#
# Stress axis : x y z
#
# Youngs Moduli (GPa) = 119.76286 71.25043 12.51485
#
# Poissons Ratio (x) = 0.13114 0.11571
# Poissons Ratio (y) = 0.22043 -0.13210
# Poissons Ratio (z) = 1.10727 -0.75206
#
# Static dielectric constant tensor:
#      x y z
#    x 5.307880 0.000000 0.092370 
#    y 0.000000 5.214780 0.000000 
#    z 0.092370 0.000000 5.040700 
# 
# 
# High freq. dielectric constant tensor:
#      x y z
#    x 2.121460 0.000000 0.008330 
#    y 0.000000 2.118900 0.000000 
#    z 0.008330 0.000000 2.098680 
# 
# From -- ./inp_files/13977.got.cif
#   From: 2010.03.12/outbox.cif.g09.slc.cpg/sg4_7_cif.got.tgz:13977.got - 2010.03.31 09:31:35.
