data_PCOD8046978
_publ_section_title
;
Structure prediction by ZEFSAII (Michael W. Deem and Ramdas Pophale) SiO2 
 PCOD8046978
Probable space group: P 21
;
_chemical_formula_sum "Si O2"
_cell_formula_units_Z 16
_cell_length_a 6.679846
_cell_length_b 7.941201
_cell_length_c 16.652935
_cell_angle_alpha 90.000000
_cell_angle_beta 51.947470
_cell_angle_gamma 90.000000
_cell_volume 695.607396
_symmetry_space_group_name_H-M "P 21"
_symmetry_group_IT_number 4
_symmetry_cell_setting 'monoclinic'
loop_
_space_group_symop_operation_xyz
x,y,z
-x,1/2+y,-z
loop_
_atom_site_type_symbol
_atom_site_label
_atom_site_fract_x
_atom_site_fract_y
_atom_site_fract_z
Si Si1 0.292948 0.518470 0.508089
Si Si2 0.151777 0.622319 0.878566
Si Si3 0.719032 0.882100 0.015491
Si Si4 0.518268 0.908027 0.782091
Si Si5 0.293099 0.128467 0.706024
Si Si6 0.149881 0.245039 0.426303
Si Si7 0.399107 0.494478 0.666885
Si Si8 0.280509 0.633607 0.129778
O O1 0.579540 0.535020 0.402228
O O2 0.161634 0.349930 0.506005
O O3 0.296025 0.505508 0.602336
O O4 0.134533 0.682920 0.520278
O O5 0.175279 0.452394 0.925689
O O6 0.384411 0.740711 0.848005
O O7 0.184863 0.578014 0.776418
O O8 0.884985 0.718268 0.951831
O O9 0.429377 0.812077 0.088812
O O10 0.737336 0.038964 0.950660
O O11 0.767253 0.865657 0.667905
O O12 0.317581 0.011048 0.777820
O O13 0.577644 0.012169 0.845150
O O14 0.442239 0.302554 0.682985
O O15 0.997867 0.169474 0.765119
O O16 0.332213 0.084590 0.388875
#
# Coordination Sequence:
#
# PCOD8046978 Si02
#       8
#     2   2   2   2   2   2   2   2
#     4  11  24  44  71 103 147 194 239 296 365 441
#     4  11  25  47  75 103 147 190 243 314 375 436
#     4  12  27  45  77 106 148 191 256 312 384 440
#     4  10  23  46  69 103 146 184 239 308 366 437
#     4  11  25  44  69 105 147 186 243 302 369 435
#     4  10  24  41  69 103 144 191 241 295 358 438
#     4  11  25  42  72 102 141 190 244 293 369 438
#     4  12  27  45  74 107 138 194 249 306 374 453
#
# _framework density 23.001480999999998
#
# number of rings (size 3 to 8) (size 9 to 14) (size 15 to 20)
#    0.000    1.000    1.250    3.750    5.250    8.000 
#    0.000    0.000    0.000    0.000    0.000    0.000 
#    0.000    0.000    0.000    0.000    0.000    0.000 
#
# Total GULP energy -198466.922578 kJ/mol
# GULP energy per Si atom -12404.182661 kJ/mol
# Density = 2.294913 g / cm^3
# Si number density = 23.001481 Si / 1000 Ang^3
#
#
#
# Elastic Constant Matrix: (Units=GPa)
#
#
# Indices 1 2 3 4 5 6 
#
# 1 56.1768 10.0566 50.4124 0.0000 -4.1380 0.0000
# 2 10.0566 89.2215 24.1545 0.0000 -1.9620 0.0000
# 3 50.4124 24.1545 109.4818 0.0000 3.5381 0.0000
# 4 0.0000 0.0000 0.0000 39.0033 0.0000 -0.1514
# 5 -4.1380 -1.9620 3.5381 0.0000 36.8697 0.0000
# 6 0.0000 0.0000 0.0000 -0.1514 0.0000 36.8459
#
#
#
# Elastic Compliance Matrix: (Units=1/GPa)
#
#
# Indices 1 2 3 4 5 6 
#
# 1 0.031219 0.000558 -0.014658 0.000000 0.004940 0.000000
# 2 0.000558 0.011959 -0.002927 0.000000 0.000980 0.000000
# 3 -0.014658 -0.002927 0.016639 0.000000 -0.003398 0.000000
# 4 0.000000 0.000000 0.000000 0.025639 0.000000 0.000105
# 5 0.004940 0.000980 -0.003398 0.000000 0.028055 0.000000
# 6 0.000000 0.000000 0.000000 0.000105 0.000000 0.027140
#
#
# Mechanical properties :
#
#
# Convention : Reuss Voigt Hill
#
# Bulk Modulus (GPa) = 38.81541 47.12524 42.97033
# Shear Modulus (GPa) = 27.27870 33.89424 30.58647
#
# Velocity S-wave (km/s) = 3.44750 3.84287 3.65054
# Velocity P-wave (km/s) = 5.72354 6.34213 6.04076
#
# Compressibility (1/GPa) = 0.02576296
#
# Stress axis : x y z
#
# Youngs Moduli (GPa) = 32.03206 83.61797 60.09993
#
# Poissons Ratio (x) = -0.04666 0.88094
# Poissons Ratio (y) = -0.01788 0.17592
# Poissons Ratio (z) = 0.46952 0.24476
#
# Static dielectric constant tensor:
#      x y z
#    x 3.895370 0.000000 -0.038600 
#    y 0.000000 4.294830 0.000000 
#    z -0.038600 0.000000 4.295300 
# 
# 
# High freq. dielectric constant tensor:
#      x y z
#    x 1.892590 0.000000 -0.001080 
#    y 0.000000 1.921440 0.000000 
#    z -0.001080 0.000000 1.921530 
# 
# From -- ./inp_files/3589.got.cif
#   From: 2010.03.12/outbox.cif.g09.slc.cpg/sg4_2_cif.got.tgz:3589.got - 2010.03.31 09:31:35.
