data_PCOD8046141
_publ_section_title
;
Structure prediction by ZEFSAII (Michael W. Deem and Ramdas Pophale) SiO2 
 PCOD8046141
Probable space group: P 21
;
_chemical_formula_sum "Si O2"
_cell_formula_units_Z 14
_cell_length_a 7.720646
_cell_length_b 7.984266
_cell_length_c 11.498265
_cell_angle_alpha 90.000000
_cell_angle_beta 108.707042
_cell_angle_gamma 90.000000
_cell_volume 671.350446
_symmetry_space_group_name_H-M "P 21"
_symmetry_group_IT_number 4
_symmetry_cell_setting 'monoclinic'
loop_
_space_group_symop_operation_xyz
x,y,z
-x,1/2+y,-z
loop_
_atom_site_type_symbol
_atom_site_label
_atom_site_fract_x
_atom_site_fract_y
_atom_site_fract_z
Si Si1 0.590623 0.074970 0.653222
Si Si2 0.228892 0.316707 0.967788
Si Si3 0.887063 0.704822 0.723446
Si Si4 0.472592 0.254225 0.222371
Si Si5 0.063539 0.528879 0.130284
Si Si6 0.784187 0.994531 0.260255
Si Si7 0.701163 0.843650 0.473235
O O1 0.772497 0.123879 0.765676
O O2 0.472965 0.240463 0.610896
O O3 0.486345 0.930761 0.705073
O O4 0.635342 0.002774 0.534617
O O5 0.300901 0.377976 0.858033
O O6 0.105381 0.151867 0.923409
O O7 0.415215 0.273534 0.075750
O O8 0.122964 0.462474 0.015843
O O9 0.699456 0.663347 0.751187
O O10 0.838758 0.732794 0.578204
O O11 0.023704 0.550065 0.754063
O O12 0.987075 0.866441 0.802116
O O13 0.654204 0.147101 0.267225
O O14 0.818167 0.894833 0.385999
#
# Coordination Sequence:
#
# PCOD8046141 Si02
#       7
#     2   2   2   2   2   2   2
#     4   9  20  39  61  84 115 155 193 234 287 342
#     4  10  21  37  59  87 116 152 193 236 288 340
#     4   9  22  42  59  82 118 154 192 238 284 339
#     4   9  22  42  59  82 118 154 192 238 284 339
#     4   9  20  39  61  84 115 155 193 234 287 342
#     4  12  24  36  60  92 116 150 194 236 288 342
#     4  10  21  37  59  87 116 152 193 236 288 340
#
# _framework density 20.853491999999999
#
# number of rings (size 3 to 8) (size 9 to 14) (size 15 to 20)
#    0.000    2.857    0.000    3.429    0.000   11.429 
#    0.000    0.000    0.000    0.000    0.000    0.000 
#    0.000    0.000    0.000    0.000    0.000    0.000 
#
# Total GULP energy -173533.203340 kJ/mol
# GULP energy per Si atom -12395.228810 kJ/mol
# Density = 2.080603 g / cm^3
# Si number density = 20.853492 Si / 1000 Ang^3
#
#
#
# Elastic Constant Matrix: (Units=GPa)
#
#
# Indices 1 2 3 4 5 6 
#
# 1 34.8757 6.5127 2.1824 0.0000 -3.2320 0.0000
# 2 6.5127 24.8200 8.9827 0.0000 -1.7372 0.0000
# 3 2.1824 8.9827 130.6255 0.0000 -9.5627 0.0000
# 4 0.0000 0.0000 0.0000 26.0146 0.0000 -1.6951
# 5 -3.2320 -1.7372 -9.5627 0.0000 20.9828 0.0000
# 6 0.0000 0.0000 0.0000 -1.6951 0.0000 27.2374
#
#
#
# Elastic Compliance Matrix: (Units=1/GPa)
#
#
# Indices 1 2 3 4 5 6 
#
# 1 0.030504 -0.007832 0.000337 0.000000 0.004204 0.000000
# 2 -0.007832 0.043428 -0.002773 0.000000 0.001125 0.000000
# 3 0.000337 -0.002773 0.008098 0.000000 0.003513 0.000000
# 4 0.000000 0.000000 0.000000 0.038596 0.000000 0.002402
# 5 0.004204 0.001125 0.003513 0.000000 0.050000 0.000000
# 6 0.000000 0.000000 0.000000 0.002402 0.000000 0.036864
#
#
# Mechanical properties :
#
#
# Convention : Reuss Voigt Hill
#
# Bulk Modulus (GPa) = 16.26204 25.07520 20.66862
# Shear Modulus (GPa) = 20.11882 26.35653 23.23767
#
# Velocity S-wave (km/s) = 3.10944 3.55898 3.34178
# Velocity P-wave (km/s) = 4.55046 5.37950 4.98225
#
# Compressibility (1/GPa) = 0.06149291
#
# Stress axis : x y z
#
# Youngs Moduli (GPa) = 32.78229 23.02687 123.49183
#
# Poissons Ratio (x) = 0.18034 -0.04157
# Poissons Ratio (y) = 0.25675 0.34246
# Poissons Ratio (z) = -0.01104 0.06386
#
# Static dielectric constant tensor:
#      x y z
#    x 3.366040 0.000000 0.013930 
#    y 0.000000 3.547880 0.000000 
#    z 0.013930 0.000000 4.099630 
# 
# 
# High freq. dielectric constant tensor:
#      x y z
#    x 1.786270 0.000000 0.003310 
#    y 0.000000 1.801400 0.000000 
#    z 0.003310 0.000000 1.845730 
# 
# From -- ./inp_files/10882.got.cif
#   From: 2010.03.12/outbox.cif.g09.slc.cpg/sg4_6_cif.got.tgz:10882.got - 2010.03.31 09:31:35.
