data_PCOD8046503
_publ_section_title
;
Structure prediction by ZEFSAII (Michael W. Deem and Ramdas Pophale) SiO2 
 PCOD8046503
Probable space group: P 21
;
_chemical_formula_sum "Si O2"
_cell_formula_units_Z 14
_cell_length_a 18.911493
_cell_length_b 5.067209
_cell_length_c 12.722799
_cell_angle_alpha 90.000000
_cell_angle_beta 31.781330
_cell_angle_gamma 90.000000
_cell_volume 642.130295
_symmetry_space_group_name_H-M "P 21"
_symmetry_group_IT_number 4
_symmetry_cell_setting 'monoclinic'
loop_
_space_group_symop_operation_xyz
x,y,z
-x,1/2+y,-z
loop_
_atom_site_type_symbol
_atom_site_label
_atom_site_fract_x
_atom_site_fract_y
_atom_site_fract_z
Si Si1 0.366052 0.383250 0.029270
Si Si2 0.921465 0.033125 0.562777
Si Si3 0.076556 0.460999 0.876841
Si Si4 0.362135 0.113764 0.242419
Si Si5 0.643704 0.808175 0.400754
Si Si6 0.515062 0.804983 0.340884
Si Si7 0.803593 0.104557 0.493856
O O1 0.227958 0.547700 0.199643
O O2 0.349732 0.137177 0.131020
O O3 0.482794 0.575132 0.924119
O O4 0.395114 0.281730 0.876061
O O5 0.912071 0.074490 0.449558
O O6 0.014384 0.248071 0.499637
O O7 0.197646 0.322852 0.786690
O O8 0.114091 0.576954 0.716471
O O9 0.027597 0.717771 0.004112
O O10 0.313703 0.387423 0.354435
O O11 0.268664 0.886168 0.407363
O O12 0.614642 0.804690 0.313671
O O13 0.581589 0.557309 0.538107
O O14 0.581988 0.057944 0.536330
#
# Coordination Sequence:
#
# PCOD8046503 Si02
#       7
#     2   2   2   2   2   2   2
#     4  11  23  40  65  95 120 163 209 252 307 373
#     4  11  25  41  59  87 127 166 201 243 304 376
#     4  12  25  41  66  93 123 167 214 250 301 379
#     4  11  23  39  65  95 125 157 209 264 311 360
#     4  10  22  42  60  95 126 159 204 258 317 355
#     4  10  22  39  67  89 124 160 202 263 312 359
#     4  11  24  44  64  90 129 164 201 266 316 348
#
# _framework density 21.802426000000001
#
# number of rings (size 3 to 8) (size 9 to 14) (size 15 to 20)
#    0.000    1.143    0.000    6.857    0.000    8.000 
#    0.000    0.000    0.000    0.000    0.000    0.000 
#    0.000    0.000    0.000    0.000    0.000    0.000 
#
# Total GULP energy -173661.511936 kJ/mol
# GULP energy per Si atom -12404.393710 kJ/mol
# Density = 2.175280 g / cm^3
# Si number density = 21.802426 Si / 1000 Ang^3
#
#
#
# Elastic Constant Matrix: (Units=GPa)
#
#
# Indices 1 2 3 4 5 6 
#
# 1 76.8914 13.8627 54.4393 0.0000 -3.9713 0.0000
# 2 13.8627 101.5264 29.3729 0.0000 5.4114 0.0000
# 3 54.4393 29.3729 121.2443 0.0000 12.3078 0.0000
# 4 0.0000 0.0000 0.0000 27.6879 0.0000 -2.9048
# 5 -3.9713 5.4114 12.3078 0.0000 39.9476 0.0000
# 6 0.0000 0.0000 0.0000 -2.9048 0.0000 36.6839
#
#
#
# Elastic Compliance Matrix: (Units=1/GPa)
#
#
# Indices 1 2 3 4 5 6 
#
# 1 0.019960 -0.000269 -0.009396 0.000000 0.004916 0.000000
# 2 -0.000269 0.010613 -0.002376 0.000000 -0.000732 0.000000
# 3 -0.009396 -0.002376 0.013528 0.000000 -0.004780 0.000000
# 4 0.000000 0.000000 0.000000 0.036419 0.000000 0.002884
# 5 0.004916 -0.000732 -0.004780 0.000000 0.027093 0.000000
# 6 0.000000 0.000000 0.000000 0.002884 0.000000 0.027488
#
#
# Mechanical properties :
#
#
# Convention : Reuss Voigt Hill
#
# Bulk Modulus (GPa) = 49.95387 55.00131 52.47759
# Shear Modulus (GPa) = 30.14658 34.32971 32.23814
#
# Velocity S-wave (km/s) = 3.72252 3.97241 3.84949
# Velocity P-wave (km/s) = 6.43724 6.80602 6.62420
#
# Compressibility (1/GPa) = 0.02001847
#
# Stress axis : x y z
#
# Youngs Moduli (GPa) = 50.09980 94.22573 73.92342
#
# Poissons Ratio (x) = 0.02535 0.69459
# Poissons Ratio (y) = 0.01348 0.17564
# Poissons Ratio (z) = 0.47074 0.22387
#
# Static dielectric constant tensor:
#      x y z
#    x 4.010980 0.000000 0.022740 
#    y 0.000000 3.999290 0.000000 
#    z 0.022740 0.000000 3.984330 
# 
# 
# High freq. dielectric constant tensor:
#      x y z
#    x 1.862480 0.000000 0.000610 
#    y 0.000000 1.870390 0.000000 
#    z 0.000610 0.000000 1.859140 
# 
# From -- ./inp_files/12726.got.cif
#   From: 2010.03.12/outbox.cif.g09.slc.cpg/sg4_7_cif.got.tgz:12726.got - 2010.03.31 09:31:35.
