data_PCOD8046952
_publ_section_title
;
Structure prediction by ZEFSAII (Michael W. Deem and Ramdas Pophale) SiO2 
 PCOD8046952
Probable space group: P 21
;
_chemical_formula_sum "Si O2"
_cell_formula_units_Z 10
_cell_length_a 18.015056
_cell_length_b 5.044908
_cell_length_c 13.118769
_cell_angle_alpha 90.000000
_cell_angle_beta 159.539210
_cell_angle_gamma 90.000000
_cell_volume 416.784445
_symmetry_space_group_name_H-M "P 21"
_symmetry_group_IT_number 4
_symmetry_cell_setting 'monoclinic'
loop_
_space_group_symop_operation_xyz
x,y,z
-x,1/2+y,-z
loop_
_atom_site_type_symbol
_atom_site_label
_atom_site_fract_x
_atom_site_fract_y
_atom_site_fract_z
Si Si1 0.473267 0.745410 0.897562
Si Si2 0.902055 0.677680 0.826254
Si Si3 0.111622 0.359787 0.685601
Si Si4 0.018468 0.853777 0.258015
Si Si5 0.622225 0.705526 0.630881
O O1 0.238805 0.689908 0.550546
O O2 0.555594 0.484722 0.060013
O O3 0.641535 0.815195 0.025215
O O4 0.924522 0.617430 0.735334
O O5 0.662582 0.634958 0.563264
O O6 0.951560 0.979660 0.918818
O O7 0.020369 0.589087 0.496200
O O8 0.082611 0.449683 0.765336
O O9 0.844666 0.672183 0.977862
O O10 0.448329 0.510264 0.452132
#
# Coordination Sequence:
#
# PCOD8046952 Si02
#       5
#     2   2   2   2   2
#     4  12  25  47  70 104 141 184 232 286 344 419
#     4  10  23  45  68  98 138 180 232 286 341 415
#     4  12  25  47  71 104 141 180 237 287 337 423
#     4  11  26  47  75  98 147 187 227 287 364 392
#     4  11  25  46  70 106 139 181 242 290 338 419
#
# _framework density 23.993217000000001
#
# number of rings (size 3 to 8) (size 9 to 14) (size 15 to 20)
#    0.000    0.800    4.000    2.400    2.800    9.600 
#    3.600    0.000    0.000    0.000    0.000    0.000 
#    0.000    0.000    0.000    0.000    0.000    0.000 
#
# Total GULP energy -123969.897981 kJ/mol
# GULP energy per Si atom -12396.989798 kJ/mol
# Density = 2.393861 g / cm^3
# Si number density = 23.993217 Si / 1000 Ang^3
#
#
#
# Elastic Constant Matrix: (Units=GPa)
#
#
# Indices 1 2 3 4 5 6 
#
# 1 167.3173 3.7297 40.6287 0.0000 12.8028 0.0000
# 2 3.7297 80.2234 25.0621 0.0000 5.9851 0.0000
# 3 40.6287 25.0621 121.9327 0.0000 18.6442 0.0000
# 4 0.0000 0.0000 0.0000 20.3034 0.0000 7.7781
# 5 12.8028 5.9851 18.6442 0.0000 32.8315 0.0000
# 6 0.0000 0.0000 0.0000 7.7781 0.0000 35.5684
#
#
#
# Elastic Compliance Matrix: (Units=1/GPa)
#
#
# Indices 1 2 3 4 5 6 
#
# 1 0.006580 0.000447 -0.002058 0.000000 -0.001478 0.000000
# 2 0.000447 0.013378 -0.002737 0.000000 -0.001059 0.000000
# 3 -0.002058 -0.002737 0.010130 0.000000 -0.004451 0.000000
# 4 0.000000 0.000000 0.000000 0.053756 0.000000 -0.011755
# 5 -0.001478 -0.001059 -0.004451 0.000000 0.033756 0.000000
# 6 0.000000 0.000000 0.000000 -0.011755 0.000000 0.030685
#
#
# Mechanical properties :
#
#
# Convention : Reuss Voigt Hill
#
# Bulk Modulus (GPa) = 46.74491 56.47935 51.61213
# Shear Modulus (GPa) = 30.46693 37.74418 34.10555
#
# Velocity S-wave (km/s) = 3.56731 3.97056 3.77432
# Velocity P-wave (km/s) = 6.04090 6.67917 6.36803
#
# Compressibility (1/GPa) = 0.02139270
#
# Stress axis : x y z
#
# Youngs Moduli (GPa) = 151.98438 74.74717 98.71440
#
# Poissons Ratio (x) = -0.03344 0.20318
# Poissons Ratio (y) = -0.06800 0.27018
# Poissons Ratio (z) = 0.31282 0.20458
#
# Static dielectric constant tensor:
#      x y z
#    x 4.866670 0.000000 0.124190 
#    y 0.000000 4.059950 0.000000 
#    z 0.124190 0.000000 4.181600 
# 
# 
# High freq. dielectric constant tensor:
#      x y z
#    x 1.981410 0.000000 0.021570 
#    y 0.000000 1.945480 0.000000 
#    z 0.021570 0.000000 1.932720 
# 
# From -- ./inp_files/8546.got.cif
#   From: 2010.03.12/outbox.cif.g09.slc.cpg/sg4_5_cif.got.tgz:8546.got - 2010.03.31 09:31:35.
