data_PCOD8046883
_publ_section_title
;
Structure prediction by ZEFSAII (Michael W. Deem and Ramdas Pophale) SiO2 
 PCOD8046883
Probable space group: P 21
;
_chemical_formula_sum "Si O2"
_cell_formula_units_Z 16
_cell_length_a 9.391572
_cell_length_b 8.323837
_cell_length_c 13.321413
_cell_angle_alpha 90.000000
_cell_angle_beta 40.193775
_cell_angle_gamma 90.000000
_cell_volume 672.084823
_symmetry_space_group_name_H-M "P 21"
_symmetry_group_IT_number 4
_symmetry_cell_setting 'monoclinic'
loop_
_space_group_symop_operation_xyz
x,y,z
-x,1/2+y,-z
loop_
_atom_site_type_symbol
_atom_site_label
_atom_site_fract_x
_atom_site_fract_y
_atom_site_fract_z
Si Si1 0.906234 0.795740 0.540272
Si Si2 0.849484 0.937758 0.089077
Si Si3 0.674827 0.772797 0.874206
Si Si4 0.509832 0.344093 0.565791
Si Si5 0.781878 0.645181 0.412795
Si Si6 0.767471 0.613422 0.023175
Si Si7 0.762992 0.104221 0.933805
Si Si8 0.688001 0.124500 0.629816
O O1 0.829153 0.763844 0.694513
O O2 0.799451 0.664839 0.523017
O O3 0.171808 0.770151 0.395506
O O4 0.850373 0.973078 0.530749
O O5 0.647094 0.944091 0.275357
O O6 0.866528 0.764932 0.028929
O O7 0.076205 0.965895 0.028918
O O8 0.806232 0.071458 0.027765
O O9 0.771148 0.643602 0.901919
O O10 0.679053 0.947293 0.921202
O O11 0.423351 0.739882 0.977185
O O12 0.704686 0.464244 0.427963
O O13 0.385378 0.282121 0.534628
O O14 0.603249 0.182770 0.567457
O O15 0.014531 0.673547 0.233892
O O16 0.514900 0.577118 0.189457
#
# Coordination Sequence:
#
# PCOD8046883 Si02
#       8
#     2   2   2   2   2   2   2   2
#     4  12  25  42  67  97 136 181 221 274 335 398
#     4  10  23  43  67  95 130 173 221 275 332 392
#     4  11  24  41  66  96 132 174 221 272 334 396
#     4  11  25  45  68  99 132 174 222 274 336 400
#     4  12  26  45  68  99 137 175 223 277 333 401
#     4  10  23  43  67  96 132 171 222 279 330 395
#     4  11  24  44  67  96 133 172 223 279 330 397
#     4  11  24  45  68  96 134 174 223 276 332 397
#
# _framework density 23.806516999999999
#
# number of rings (size 3 to 8) (size 9 to 14) (size 15 to 20)
#    0.000    1.000    0.000    6.750    0.000   12.000 
#    0.000    0.000    0.000    0.000    0.000    0.000 
#    0.000    0.000    0.000    0.000    0.000    0.000 
#
# Total GULP energy -198498.860440 kJ/mol
# GULP energy per Si atom -12406.178778 kJ/mol
# Density = 2.375233 g / cm^3
# Si number density = 23.806517 Si / 1000 Ang^3
#
#
#
# Elastic Constant Matrix: (Units=GPa)
#
#
# Indices 1 2 3 4 5 6 
#
# 1 119.6891 11.5624 39.5277 0.0000 -12.1175 0.0000
# 2 11.5624 48.2418 12.9539 0.0000 -20.3083 0.0000
# 3 39.5277 12.9539 76.7535 0.0000 -11.7161 0.0000
# 4 0.0000 0.0000 0.0000 31.2677 0.0000 -12.9239
# 5 -12.1175 -20.3083 -11.7161 0.0000 45.4593 0.0000
# 6 0.0000 0.0000 0.0000 -12.9239 0.0000 55.1118
#
#
#
# Elastic Compliance Matrix: (Units=1/GPa)
#
#
# Indices 1 2 3 4 5 6 
#
# 1 0.010169 -0.000620 -0.004956 0.000000 0.001157 0.000000
# 2 -0.000620 0.026106 -0.002427 0.000000 0.010872 0.000000
# 3 -0.004956 -0.002427 0.016263 0.000000 0.001786 0.000000
# 4 0.000000 0.000000 0.000000 0.035415 0.000000 0.008305
# 5 0.001157 0.010872 0.001786 0.000000 0.027623 0.000000
# 6 0.000000 0.000000 0.000000 0.008305 0.000000 0.020092
#
#
# Mechanical properties :
#
#
# Convention : Reuss Voigt Hill
#
# Bulk Modulus (GPa) = 27.37303 41.41915 34.39609
# Shear Modulus (GPa) = 30.51568 38.41047 34.46307
#
# Velocity S-wave (km/s) = 3.58414 4.02113 3.80890
# Velocity P-wave (km/s) = 5.35267 6.24462 5.81577
#
# Compressibility (1/GPa) = 0.03653232
#
# Stress axis : x y z
#
# Youngs Moduli (GPa) = 98.34258 38.30563 61.48864
#
# Poissons Ratio (x) = 0.02373 0.30472
# Poissons Ratio (y) = 0.06093 0.14925
# Poissons Ratio (z) = 0.48735 0.09298
#
# Static dielectric constant tensor:
#      x y z
#    x 4.582410 0.000000 0.002040 
#    y 0.000000 4.144710 0.000000 
#    z 0.002040 0.000000 4.077180 
# 
# 
# High freq. dielectric constant tensor:
#      x y z
#    x 1.970510 0.000000 -0.002070 
#    y 0.000000 1.939570 0.000000 
#    z -0.002070 0.000000 1.932040 
# 
# From -- ./inp_files/5583.got.cif
#   From: 2010.03.12/outbox.cif.g09.slc.cpg/sg4_3_cif.got.tgz:5583.got - 2010.03.31 09:31:35.
