data_PCOD8046542
_publ_section_title
;
Structure prediction by ZEFSAII (Michael W. Deem and Ramdas Pophale) SiO2 
 PCOD8046542
Probable space group: P 21
;
_chemical_formula_sum "Si O2"
_cell_formula_units_Z 12
_cell_length_a 9.293220
_cell_length_b 8.778331
_cell_length_c 7.643305
_cell_angle_alpha 90.000000
_cell_angle_beta 108.805667
_cell_angle_gamma 90.000000
_cell_volume 590.247064
_symmetry_space_group_name_H-M "P 21"
_symmetry_group_IT_number 4
_symmetry_cell_setting 'monoclinic'
loop_
_space_group_symop_operation_xyz
x,y,z
-x,1/2+y,-z
loop_
_atom_site_type_symbol
_atom_site_label
_atom_site_fract_x
_atom_site_fract_y
_atom_site_fract_z
Si Si1 0.826535 0.047580 0.629702
Si Si2 0.670758 0.834448 0.332693
Si Si3 0.390495 0.321372 0.313915
Si Si4 0.825650 0.549774 0.245840
Si Si5 0.634090 0.506523 0.851271
Si Si6 0.285087 0.882177 0.478969
O O1 0.746378 0.206995 0.569500
O O2 0.001392 0.070441 0.748005
O O3 0.801175 0.956643 0.437040
O O4 0.741995 0.951207 0.753044
O O5 0.615392 0.749754 0.490134
O O6 0.744313 0.713408 0.231626
O O7 0.527794 0.922525 0.190153
O O8 0.380911 0.190561 0.164143
O O9 0.552329 0.405219 0.362637
O O10 0.832619 0.456375 0.430202
O O11 0.735531 0.460620 0.058200
O O12 0.724599 0.462499 0.712136
#
# Coordination Sequence:
#
# PCOD8046542 Si02
#       6
#     2   2   2   2   2   2
#     4  10  22  40  68  92 126 172 201 263 324 362
#     4   9  21  41  62  88 124 170 204 246 317 369
#     4   9  19  42  65  83 121 170 213 242 308 376
#     4  12  25  38  64 100 130 156 214 267 312 369
#     4  11  23  39  65  93 122 166 212 257 305 374
#     4  11  20  42  66  88 127 172 206 253 316 380
#
# _framework density 20.330468
#
# number of rings (size 3 to 8) (size 9 to 14) (size 15 to 20)
#    1.000    0.667    3.333    1.000    4.667    1.333 
#    0.000    1.667    0.000    0.000    0.000    0.000 
#    0.000    0.000    0.000    0.000    0.000    0.000 
#
# Total GULP energy -148708.790067 kJ/mol
# GULP energy per Si atom -12392.399172 kJ/mol
# Density = 2.028420 g / cm^3
# Si number density = 20.330468 Si / 1000 Ang^3
#
#
#
# Elastic Constant Matrix: (Units=GPa)
#
#
# Indices 1 2 3 4 5 6 
#
# 1 106.1626 36.5122 24.7565 0.0000 24.3447 0.0000
# 2 36.5122 103.6182 21.2276 0.0000 3.3032 0.0000
# 3 24.7565 21.2276 82.5757 0.0000 15.5051 0.0000
# 4 0.0000 0.0000 0.0000 17.7542 0.0000 -5.0293
# 5 24.3447 3.3032 15.5051 0.0000 24.6552 0.0000
# 6 0.0000 0.0000 0.0000 -5.0293 0.0000 31.7193
#
#
#
# Elastic Compliance Matrix: (Units=1/GPa)
#
#
# Indices 1 2 3 4 5 6 
#
# 1 0.014034 -0.004400 -0.000664 0.000000 -0.012851 0.000000
# 2 -0.004400 0.011569 -0.002471 0.000000 0.004349 0.000000
# 3 -0.000664 -0.002471 0.014468 0.000000 -0.008112 0.000000
# 4 0.000000 0.000000 0.000000 0.058974 0.000000 0.009351
# 5 -0.012851 0.004349 -0.008112 0.000000 0.057767 0.000000
# 6 0.000000 0.000000 0.000000 0.009351 0.000000 0.033009
#
#
# Mechanical properties :
#
#
# Convention : Reuss Voigt Hill
#
# Bulk Modulus (GPa) = 39.99793 50.81657 45.40725
# Shear Modulus (GPa) = 23.44953 28.81641 26.13297
#
# Velocity S-wave (km/s) = 3.39989 3.76892 3.58915
# Velocity P-wave (km/s) = 5.92696 6.63244 6.28960
#
# Compressibility (1/GPa) = 0.02500130
#
# Stress axis : x y z
#
# Youngs Moduli (GPa) = 71.25390 86.43912 69.12018
#
# Poissons Ratio (x) = 0.38031 0.04586
# Poissons Ratio (y) = 0.31350 0.17083
# Poissons Ratio (z) = 0.04728 0.21363
#
# Static dielectric constant tensor:
#      x y z
#    x 3.529890 0.000000 0.041070 
#    y 0.000000 3.562150 0.000000 
#    z 0.041070 0.000000 3.319190 
# 
# 
# High freq. dielectric constant tensor:
#      x y z
#    x 1.786540 0.000000 0.006050 
#    y 0.000000 1.796320 0.000000 
#    z 0.006050 0.000000 1.768060 
# 
# From -- ./inp_files/5447.got.cif
#   From: 2010.03.12/outbox.cif.g09.slc.cpg/sg4_3_cif.got.tgz:5447.got - 2010.03.31 09:31:35.
