data_PCOD8046652
_publ_section_title
;
Structure prediction by ZEFSAII (Michael W. Deem and Ramdas Pophale) SiO2 
 PCOD8046652
Probable space group: P 21
;
_chemical_formula_sum "Si O2"
_cell_formula_units_Z 16
_cell_length_a 6.603223
_cell_length_b 13.282957
_cell_length_c 9.424358
_cell_angle_alpha 90.000000
_cell_angle_beta 56.447220
_cell_angle_gamma 90.000000
_cell_volume 688.880725
_symmetry_space_group_name_H-M "P 21"
_symmetry_group_IT_number 4
_symmetry_cell_setting 'monoclinic'
loop_
_space_group_symop_operation_xyz
x,y,z
-x,1/2+y,-z
loop_
_atom_site_type_symbol
_atom_site_label
_atom_site_fract_x
_atom_site_fract_y
_atom_site_fract_z
Si Si1 0.626852 0.764810 0.375634
Si Si2 0.458158 0.870393 0.038388
Si Si3 0.833488 0.622078 0.507987
Si Si4 0.430906 0.467210 0.719644
Si Si5 0.888204 0.479883 0.013711
Si Si6 0.751933 0.696184 0.018494
Si Si7 0.047965 0.448752 0.259298
Si Si8 0.091007 0.736574 0.645038
O O1 0.809727 0.723238 0.423496
O O2 0.594778 0.885800 0.398641
O O3 0.750259 0.741434 0.176588
O O4 0.369370 0.709431 0.503943
O O5 0.419518 0.913068 0.211540
O O6 0.531494 0.751431 0.017254
O O7 0.217952 0.885430 0.035195
O O8 0.671843 0.935193 0.885243
O O9 0.576172 0.565044 0.614438
O O10 0.030404 0.548209 0.361444
O O11 0.923653 0.656781 0.626416
O O12 0.164512 0.503694 0.866233
O O13 0.722195 0.576280 0.036809
O O14 0.877461 0.458869 0.185302
O O15 0.007018 0.726614 0.842721
O O16 0.952391 0.352455 0.385277
#
# Coordination Sequence:
#
# PCOD8046652 Si02
#       8
#     2   2   2   2   2   2   2   2
#     4  11  24  45  69 104 139 186 238 292 349 434
#     4   9  22  41  67 102 134 187 234 294 351 419
#     4  12  24  44  70 103 138 190 227 293 360 414
#     4  10  23  44  68 103 144 179 247 287 356 431
#     4  11  21  44  74  99 142 192 228 305 353 420
#     4  10  22  43  67 101 140 182 241 282 356 424
#     4  10  23  44  67 100 139 179 241 290 355 426
#     4  11  25  45  68 102 146 179 240 299 344 426
#
# _framework density 23.226081000000001
#
# number of rings (size 3 to 8) (size 9 to 14) (size 15 to 20)
#    0.000    1.500    2.500    2.250    1.750    4.000 
#    4.500    7.500    0.000    0.000    0.000    0.000 
#    0.000    0.000    0.000    0.000    0.000    0.000 
#
# Total GULP energy -198368.826885 kJ/mol
# GULP energy per Si atom -12398.051680 kJ/mol
# Density = 2.317322 g / cm^3
# Si number density = 23.226081 Si / 1000 Ang^3
#
#
#
# Elastic Constant Matrix: (Units=GPa)
#
#
# Indices 1 2 3 4 5 6 
#
# 1 57.2817 26.4498 21.3687 0.0000 1.3953 0.0000
# 2 26.4498 113.2531 16.4132 0.0000 4.5058 0.0000
# 3 21.3687 16.4132 110.8467 0.0000 -1.1337 0.0000
# 4 0.0000 0.0000 0.0000 33.2971 0.0000 7.0961
# 5 1.3953 4.5058 -1.1337 0.0000 17.2978 0.0000
# 6 0.0000 0.0000 0.0000 7.0961 0.0000 36.2161
#
#
#
# Elastic Compliance Matrix: (Units=1/GPa)
#
#
# Indices 1 2 3 4 5 6 
#
# 1 0.020727 -0.004323 -0.003363 0.000000 -0.000766 0.000000
# 2 -0.004323 0.010029 -0.000675 0.000000 -0.002308 0.000000
# 3 -0.003363 -0.000675 0.009781 0.000000 0.001088 0.000000
# 4 0.000000 0.000000 0.000000 0.031341 0.000000 -0.006141
# 5 -0.000766 -0.002308 0.001088 0.000000 0.058545 0.000000
# 6 0.000000 0.000000 0.000000 -0.006141 0.000000 0.028815
#
#
# Mechanical properties :
#
#
# Convention : Reuss Voigt Hill
#
# Bulk Modulus (GPa) = 41.99207 45.53831 43.76519
# Shear Modulus (GPa) = 27.18873 31.83887 29.51380
#
# Velocity S-wave (km/s) = 3.42513 3.70648 3.56858
# Velocity P-wave (km/s) = 5.81042 6.16169 5.98863
#
# Compressibility (1/GPa) = 0.02381402
#
# Stress axis : x y z
#
# Youngs Moduli (GPa) = 48.24624 99.71050 102.23922
#
# Poissons Ratio (x) = 0.43103 0.34388
# Poissons Ratio (y) = 0.20856 0.06904
# Poissons Ratio (z) = 0.16227 0.06733
#
# Static dielectric constant tensor:
#      x y z
#    x 3.763100 0.000000 0.008410 
#    y 0.000000 4.338650 0.000000 
#    z 0.008410 0.000000 4.221150 
# 
# 
# High freq. dielectric constant tensor:
#      x y z
#    x 1.888050 0.000000 -0.005450 
#    y 0.000000 1.924760 0.000000 
#    z -0.005450 0.000000 1.924450 
# 
# From -- ./inp_files/4676.got.cif
#   From: 2010.03.12/outbox.cif.g09.slc.cpg/sg4_3_cif.got.tgz:4676.got - 2010.03.31 09:31:35.
