data_PCOD8046957
_publ_section_title
;
Structure prediction by ZEFSAII (Michael W. Deem and Ramdas Pophale) SiO2 
 PCOD8046957
Probable space group: P 21
;
_chemical_formula_sum "Si O2"
_cell_formula_units_Z 16
_cell_length_a 9.838522
_cell_length_b 9.502548
_cell_length_c 12.218216
_cell_angle_alpha 90.000000
_cell_angle_beta 141.848972
_cell_angle_gamma 90.000000
_cell_volume 705.636408
_symmetry_space_group_name_H-M "P 21"
_symmetry_group_IT_number 4
_symmetry_cell_setting 'monoclinic'
loop_
_space_group_symop_operation_xyz
x,y,z
-x,1/2+y,-z
loop_
_atom_site_type_symbol
_atom_site_label
_atom_site_fract_x
_atom_site_fract_y
_atom_site_fract_z
Si Si1 0.900910 0.864920 0.249733
Si Si2 0.567125 0.020616 0.750842
Si Si3 0.485919 0.238009 0.871691
Si Si4 0.339218 0.741626 0.618281
Si Si5 0.842484 0.172624 0.268646
Si Si6 0.729572 0.707670 0.566542
Si Si7 0.970890 0.518777 0.882515
Si Si8 0.525048 0.439683 0.692270
O O1 0.704886 0.757661 0.157521
O O2 0.130201 0.789721 0.417318
O O3 0.913156 0.912895 0.131127
O O4 0.856870 0.004387 0.293244
O O5 0.451287 0.091980 0.784184
O O6 0.445427 0.083441 0.567553
O O7 0.536010 0.853251 0.730952
O O8 0.826630 0.061462 0.910010
O O9 0.493788 0.365755 0.789869
O O10 0.716247 0.222895 0.080036
O O11 0.276314 0.739615 0.704474
O O12 0.425904 0.594802 0.628051
O O13 0.092994 0.227682 0.419134
O O14 0.862131 0.658839 0.758644
O O15 0.596289 0.854623 0.484066
O O16 0.785364 0.440045 0.834503
#
# Coordination Sequence:
#
# PCOD8046957 Si02
#       8
#     2   2   2   2   2   2   2   2
#     4  11  23  44  68 104 136 184 231 286 360 414
#     4  11  22  43  72  96 143 186 222 298 343 418
#     4  11  23  45  71 102 139 184 238 294 354 417
#     4  12  24  40  71 107 141 180 239 292 349 423
#     4  11  22  42  71  99 141 183 231 291 356 413
#     4  10  23  45  70  97 137 192 226 283 357 410
#     4  11  24  47  70 103 141 187 234 289 360 414
#     4  11  27  44  71 108 142 182 247 287 349 433
#
# _framework density 22.674565999999999
#
# number of rings (size 3 to 8) (size 9 to 14) (size 15 to 20)
#    0.000    1.000    6.250    2.250    1.750    2.000 
#    2.250    0.000    0.000    0.000    0.000    0.000 
#    0.000    0.000    0.000    0.000    0.000    0.000 
#
# Total GULP energy -198338.147457 kJ/mol
# GULP energy per Si atom -12396.134216 kJ/mol
# Density = 2.262296 g / cm^3
# Si number density = 22.674566 Si / 1000 Ang^3
#
#
#
# Elastic Constant Matrix: (Units=GPa)
#
#
# Indices 1 2 3 4 5 6 
#
# 1 65.6239 20.8005 19.0968 0.0000 25.6551 0.0000
# 2 20.8005 142.9021 48.3709 0.0000 15.1440 0.0000
# 3 19.0968 48.3709 129.2855 0.0000 32.0766 0.0000
# 4 0.0000 0.0000 0.0000 30.9496 0.0000 11.6349
# 5 25.6551 15.1440 32.0766 0.0000 30.7592 0.0000
# 6 0.0000 0.0000 0.0000 11.6349 0.0000 22.3148
#
#
#
# Elastic Compliance Matrix: (Units=1/GPa)
#
#
# Indices 1 2 3 4 5 6 
#
# 1 0.023430 -0.002029 0.002562 0.000000 -0.021214 0.000000
# 2 -0.002029 0.008216 -0.002955 0.000000 0.000729 0.000000
# 3 0.002562 -0.002955 0.011644 0.000000 -0.012824 0.000000
# 4 0.000000 0.000000 0.000000 0.040188 0.000000 -0.020954
# 5 -0.021214 0.000729 -0.012824 0.000000 0.063219 0.000000
# 6 0.000000 0.000000 0.000000 -0.020954 0.000000 0.055739
#
#
# Mechanical properties :
#
#
# Convention : Reuss Voigt Hill
#
# Bulk Modulus (GPa) = 26.01166 57.14978 41.58072
# Shear Modulus (GPa) = 22.71744 33.44094 28.07919
#
# Velocity S-wave (km/s) = 3.16870 3.84451 3.52285
# Velocity P-wave (km/s) = 4.98841 6.70567 5.90975
#
# Compressibility (1/GPa) = 0.03844429
#
# Stress axis : x y z
#
# Youngs Moduli (GPa) = 42.68107 121.71066 85.88225
#
# Poissons Ratio (x) = 0.24699 -0.22002
# Poissons Ratio (y) = 0.08661 0.25380
# Poissons Ratio (z) = -0.10934 0.35968
#
# Static dielectric constant tensor:
#      x y z
#    x 4.038220 0.000000 0.158680 
#    y 0.000000 4.123290 0.000000 
#    z 0.158680 0.000000 4.248800 
# 
# 
# High freq. dielectric constant tensor:
#      x y z
#    x 1.884660 0.000000 0.016200 
#    y 0.000000 1.886510 0.000000 
#    z 0.016200 0.000000 1.904960 
# 
# From -- ./inp_files/13980.got.cif
#   From: 2010.03.12/outbox.cif.g09.slc.cpg/sg4_7_cif.got.tgz:13980.got - 2010.03.31 09:31:35.
