data_PCOD8046148
_publ_section_title
;
Structure prediction by ZEFSAII (Michael W. Deem and Ramdas Pophale) SiO2 
 PCOD8046148
Probable space group: P 21
;
_chemical_formula_sum "Si O2"
_cell_formula_units_Z 12
_cell_length_a 10.742330
_cell_length_b 5.001970
_cell_length_c 10.632100
_cell_angle_alpha 90.000000
_cell_angle_beta 85.185453
_cell_angle_gamma 90.000000
_cell_volume 569.276875
_symmetry_space_group_name_H-M "P 21"
_symmetry_group_IT_number 4
_symmetry_cell_setting 'monoclinic'
loop_
_space_group_symop_operation_xyz
x,y,z
-x,1/2+y,-z
loop_
_atom_site_type_symbol
_atom_site_label
_atom_site_fract_x
_atom_site_fract_y
_atom_site_fract_z
Si Si1 0.716344 0.404510 0.227695
Si Si2 0.526186 0.908555 0.876131
Si Si3 0.682546 0.394718 0.874041
Si Si4 0.917904 0.474443 0.019194
Si Si5 0.612957 0.168935 0.634750
Si Si6 0.355782 0.402352 0.614863
O O1 0.625398 0.451316 0.112513
O O2 0.855844 0.425363 0.160560
O O3 0.704358 0.616173 0.343677
O O4 0.688348 0.105005 0.274175
O O5 0.584567 0.629639 0.914739
O O6 0.601097 0.148447 0.941259
O O7 0.549887 0.933671 0.722623
O O8 0.701767 0.341501 0.721951
O O9 0.820239 0.429304 0.914933
O O10 0.965626 0.777233 0.007687
O O11 0.506007 0.371145 0.592677
O O12 0.689138 0.025243 0.515432
#
# Coordination Sequence:
#
# PCOD8046148 Si02
#       6
#     2   2   2   2   2   2
#     4  11  22  38  59  94 127 161 202 256 308 370
#     4   9  18  34  57  97 121 152 189 245 320 371
#     4  10  21  37  61  92 121 162 201 251 307 375
#     4  12  27  46  64  82 117 177 224 266 302 354
#     4   9  20  32  59  96 131 163 179 235 318 388
#     4  11  20  33  60  97 137 157 189 235 317 398
#
# _framework density 21.079371999999999
#
# number of rings (size 3 to 8) (size 9 to 14) (size 15 to 20)
#    1.000    0.667    1.667    4.000    2.333    1.333 
#    0.000    0.000    0.000    4.000    0.000    0.000 
#    0.000    0.000    0.000    0.000    0.000    0.000 
#
# Total GULP energy -148715.069900 kJ/mol
# GULP energy per Si atom -12392.922492 kJ/mol
# Density = 2.103139 g / cm^3
# Si number density = 21.079372 Si / 1000 Ang^3
#
#
#
# Elastic Constant Matrix: (Units=GPa)
#
#
# Indices 1 2 3 4 5 6 
#
# 1 82.2172 15.1865 32.4681 0.0000 1.4042 0.0000
# 2 15.1865 107.4355 11.2792 0.0000 -2.7354 0.0000
# 3 32.4681 11.2792 84.9176 0.0000 0.9831 0.0000
# 4 0.0000 0.0000 0.0000 337.8245 0.0000 36.0388
# 5 1.4042 -2.7354 0.9831 0.0000 27.6627 0.0000
# 6 0.0000 0.0000 0.0000 36.0388 0.0000 37.4444
#
#
#
# Elastic Compliance Matrix: (Units=1/GPa)
#
#
# Indices 1 2 3 4 5 6 
#
# 1 0.014572 -0.001515 -0.005362 0.000000 -0.000699 0.000000
# 2 -0.001515 0.009624 -0.000711 0.000000 0.001054 0.000000
# 3 -0.005362 -0.000711 0.013924 0.000000 -0.000293 0.000000
# 4 0.000000 0.000000 0.000000 0.003299 0.000000 -0.003175
# 5 -0.000699 0.001054 -0.000293 0.000000 0.036300 0.000000
# 6 0.000000 0.000000 0.000000 -0.003175 0.000000 0.029762
#
#
# Mechanical properties :
#
#
# Convention : Reuss Voigt Hill
#
# Bulk Modulus (GPa) = 43.58569 43.60421 43.59495
# Shear Modulus (GPa) = 38.37141 94.96209 66.66675
#
# Velocity S-wave (km/s) = 4.27116 6.71919 5.62985
# Velocity P-wave (km/s) = 6.71160 8.99597 7.93640
#
# Compressibility (1/GPa) = 0.02294331
#
# Stress axis : x y z
#
# Youngs Moduli (GPa) = 68.62349 103.91205 71.81685
#
# Poissons Ratio (x) = 0.15739 0.38511
# Poissons Ratio (y) = 0.10394 0.05108
# Poissons Ratio (z) = 0.36799 0.07391
#
# Static dielectric constant tensor:
#      x y z
#    x 3.337040 0.000000 0.021060 
#    y 0.000000 3.802840 0.000000 
#    z 0.021060 0.000000 3.042020 
# 
# 
# High freq. dielectric constant tensor:
#      x y z
#    x 1.769540 0.000000 0.000890 
#    y 0.000000 1.843100 0.000000 
#    z 0.000890 0.000000 1.845520 
# 
# From -- ./inp_files/10719.got.cif
#   From: 2010.03.12/outbox.cif.g09.slc.cpg/sg4_6_cif.got.tgz:10719.got - 2010.03.31 09:31:35.
