data_PCOD8046490
_publ_section_title
;
Structure prediction by ZEFSAII (Michael W. Deem and Ramdas Pophale) SiO2 
 PCOD8046490
Probable space group: P 21
;
_chemical_formula_sum "Si O2"
_cell_formula_units_Z 16
_cell_length_a 6.646446
_cell_length_b 6.571417
_cell_length_c 16.622679
_cell_angle_alpha 90.000000
_cell_angle_beta 92.682219
_cell_angle_gamma 90.000000
_cell_volume 725.226178
_symmetry_space_group_name_H-M "P 21"
_symmetry_group_IT_number 4
_symmetry_cell_setting 'monoclinic'
loop_
_space_group_symop_operation_xyz
x,y,z
-x,1/2+y,-z
loop_
_atom_site_type_symbol
_atom_site_label
_atom_site_fract_x
_atom_site_fract_y
_atom_site_fract_z
Si Si1 0.707408 0.123510 0.335629
Si Si2 0.747697 0.480490 0.950581
Si Si3 0.384332 0.833305 0.383123
Si Si4 0.304808 0.999443 0.551443
Si Si5 0.934211 0.091685 0.918477
Si Si6 0.047722 0.241065 0.652129
Si Si7 0.463976 0.364291 0.082960
Si Si8 0.214621 0.957000 0.788191
O O1 0.673157 0.280762 0.406796
O O2 0.770128 0.238625 0.255018
O O3 0.506475 0.982590 0.325097
O O4 0.891482 0.974680 0.360081
O O5 0.607650 0.633840 0.896568
O O6 0.868959 0.324236 0.894991
O O7 0.908421 0.610275 0.005511
O O8 0.608970 0.349583 0.008734
O O9 0.307986 0.969390 0.456404
O O10 0.516036 0.645105 0.415724
O O11 0.190680 0.737342 0.334067
O O12 0.094444 0.108913 0.572514
O O13 0.025462 0.966836 0.845125
O O14 0.733806 0.984705 0.944835
O O15 0.184578 0.141378 0.725338
O O16 0.575732 0.477401 0.159229
#
# Coordination Sequence:
#
# PCOD8046490 Si02
#       8
#     2   2   2   2   2   2   2   2
#     4  10  23  45  63  94 135 169 222 267 322 401
#     4  11  22  40  65 103 129 165 220 275 325 379
#     4  11  22  39  68  96 131 174 214 285 326 383
#     4  10  22  39  62 100 129 164 223 271 336 380
#     4  11  23  40  68  97 134 168 218 271 329 387
#     4  10  25  42  65  94 134 171 222 271 319 400
#     4  11  23  41  69  95 135 170 211 277 327 382
#     4  10  26  44  60  99 135 181 214 259 330 406
#
# _framework density 22.062083999999999
#
# number of rings (size 3 to 8) (size 9 to 14) (size 15 to 20)
#    0.000    1.500    3.750    0.000    1.750    9.000 
#    0.000    0.000    0.000    0.000    0.000    0.000 
#    0.000    0.000    0.000    0.000    0.000    0.000 
#
# Total GULP energy -198313.847373 kJ/mol
# GULP energy per Si atom -12394.615461 kJ/mol
# Density = 2.201187 g / cm^3
# Si number density = 22.062084 Si / 1000 Ang^3
#
#
#
# Elastic Constant Matrix: (Units=GPa)
#
#
# Indices 1 2 3 4 5 6 
#
# 1 129.1766 53.0379 28.0490 0.0000 2.7576 0.0000
# 2 53.0379 126.3566 30.2048 0.0000 2.8847 0.0000
# 3 28.0490 30.2048 70.8609 0.0000 1.8144 0.0000
# 4 0.0000 0.0000 0.0000 26.5545 0.0000 -7.3273
# 5 2.7576 2.8847 1.8144 0.0000 14.4993 0.0000
# 6 0.0000 0.0000 0.0000 -7.3273 0.0000 37.7065
#
#
#
# Elastic Compliance Matrix: (Units=1/GPa)
#
#
# Indices 1 2 3 4 5 6 
#
# 1 0.009700 -0.003496 -0.002328 0.000000 -0.000858 0.000000
# 2 -0.003496 0.010096 -0.002895 0.000000 -0.000982 0.000000
# 3 -0.002328 -0.002895 0.016293 0.000000 -0.001020 0.000000
# 4 0.000000 0.000000 0.000000 0.039792 0.000000 0.007733
# 5 -0.000858 -0.000982 -0.001020 0.000000 0.069455 0.000000
# 6 0.000000 0.000000 0.000000 0.007733 0.000000 0.028023
#
#
# Mechanical properties :
#
#
# Convention : Reuss Voigt Hill
#
# Bulk Modulus (GPa) = 53.60850 60.99750 57.30300
# Shear Modulus (GPa) = 25.37898 30.09223 27.73560
#
# Velocity S-wave (km/s) = 3.39535 3.69722 3.54949
# Velocity P-wave (km/s) = 6.30261 6.77746 6.54434
#
# Compressibility (1/GPa) = 0.01865376
#
# Stress axis : x y z
#
# Youngs Moduli (GPa) = 103.08893 99.05158 61.37438
#
# Poissons Ratio (x) = 0.34625 0.14286
# Poissons Ratio (y) = 0.36037 0.17765
# Poissons Ratio (z) = 0.23996 0.28671
#
# Static dielectric constant tensor:
#      x y z
#    x 4.127610 0.000000 -0.188600 
#    y 0.000000 4.117490 0.000000 
#    z -0.188600 0.000000 3.695730 
# 
# 
# High freq. dielectric constant tensor:
#      x y z
#    x 1.877450 0.000000 -0.012580 
#    y 0.000000 1.880500 0.000000 
#    z -0.012580 0.000000 1.837210 
# 
# From -- ./inp_files/4009.got.cif
#   From: 2010.03.12/outbox.cif.g09.slc.cpg/sg4_3_cif.got.tgz:4009.got - 2010.03.31 09:31:35.
