data_PCOD8046815
_publ_section_title
;
Structure prediction by ZEFSAII (Michael W. Deem and Ramdas Pophale) SiO2 
 PCOD8046815
Probable space group: P 21
;
_chemical_formula_sum "Si O2"
_cell_formula_units_Z 16
_cell_length_a 19.639153
_cell_length_b 7.231144
_cell_length_c 9.201990
_cell_angle_alpha 90.000000
_cell_angle_beta 144.794239
_cell_angle_gamma 90.000000
_cell_volume 753.393271
_symmetry_space_group_name_H-M "P 21"
_symmetry_group_IT_number 4
_symmetry_cell_setting 'monoclinic'
loop_
_space_group_symop_operation_xyz
x,y,z
-x,1/2+y,-z
loop_
_atom_site_type_symbol
_atom_site_label
_atom_site_fract_x
_atom_site_fract_y
_atom_site_fract_z
Si Si1 0.703553 0.602120 0.451942
Si Si2 0.864329 0.931615 0.665442
Si Si3 0.881937 0.292882 0.854961
Si Si4 0.651385 0.637493 0.038800
Si Si5 0.502825 0.476358 0.302905
Si Si6 0.875350 0.837077 0.353206
Si Si7 0.373581 0.820470 0.207293
Si Si8 0.873557 0.187316 0.169357
O O1 0.757831 0.808195 0.543852
O O2 0.795821 0.465682 0.688903
O O3 0.675099 0.546727 0.236866
O O4 0.583066 0.594092 0.332574
O O5 0.870718 0.932734 0.502735
O O6 0.840829 0.142696 0.666116
O O7 0.985944 0.860406 0.948140
O O8 0.877059 0.194248 0.002027
O O9 0.775006 0.680471 0.173122
O O10 0.575027 0.825688 0.919963
O O11 0.583891 0.482929 0.826616
O O12 0.419758 0.620775 0.239721
O O13 0.581530 0.362975 0.553495
O O14 0.003252 0.750336 0.545568
O O15 0.848727 0.978740 0.177102
O O16 0.231507 0.817463 0.957502
#
# Coordination Sequence:
#
# PCOD8046815 Si02
#       8
#     2   2   2   2   2   2   2   2
#     4  11  26  43  66 102 132 175 229 272 329 402
#     4  10  23  41  66  98 135 173 218 276 335 393
#     4  11  22  41  69  97 135 174 219 273 338 393
#     4  11  26  45  69  98 136 174 226 278 334 394
#     4  12  26  46  68 100 134 179 229 271 332 396
#     4  10  23  43  65 101 137 170 222 276 337 396
#     4  12  25  45  70  95 136 179 222 282 328 393
#     4  11  23  42  67 103 133 174 223 274 335 403
#
# _framework density 21.23725
#
# number of rings (size 3 to 8) (size 9 to 14) (size 15 to 20)
#    0.000    1.000    5.000    0.750    3.500    4.000 
#    0.000    0.000    0.000    0.000    0.000    0.000 
#    0.000    0.000    0.000    0.000    0.000    0.000 
#
# Total GULP energy -198462.853849 kJ/mol
# GULP energy per Si atom -12403.928366 kJ/mol
# Density = 2.118891 g / cm^3
# Si number density = 21.237250 Si / 1000 Ang^3
#
#
#
# Elastic Constant Matrix: (Units=GPa)
#
#
# Indices 1 2 3 4 5 6 
#
# 1 85.2425 21.1950 25.6807 0.0000 14.7116 0.0000
# 2 21.1950 65.9658 16.9532 0.0000 -1.4735 0.0000
# 3 25.6807 16.9532 86.1952 0.0000 7.5098 0.0000
# 4 0.0000 0.0000 0.0000 40.4510 0.0000 -6.9388
# 5 14.7116 -1.4735 7.5098 0.0000 39.7443 0.0000
# 6 0.0000 0.0000 0.0000 -6.9388 0.0000 30.4508
#
#
#
# Elastic Compliance Matrix: (Units=1/GPa)
#
#
# Indices 1 2 3 4 5 6 
#
# 1 0.014507 -0.003972 -0.003112 0.000000 -0.004929 0.000000
# 2 -0.003972 0.017111 -0.002405 0.000000 0.002559 0.000000
# 3 -0.003112 -0.002405 0.013125 0.000000 -0.001417 0.000000
# 4 0.000000 0.000000 0.000000 0.025727 0.000000 0.005862
# 5 -0.004929 0.002559 -0.001417 0.000000 0.027348 0.000000
# 6 0.000000 0.000000 0.000000 0.005862 0.000000 0.034176
#
#
# Mechanical properties :
#
#
# Convention : Reuss Voigt Hill
#
# Bulk Modulus (GPa) = 38.81022 40.56235 39.68629
# Shear Modulus (GPa) = 31.33648 33.70086 32.51867
#
# Velocity S-wave (km/s) = 3.84545 3.98788 3.91731
# Velocity P-wave (km/s) = 6.16692 6.35180 6.26004
#
# Compressibility (1/GPa) = 0.02576641
#
# Stress axis : x y z
#
# Youngs Moduli (GPa) = 68.93304 58.44296 76.18958
#
# Poissons Ratio (x) = 0.23211 0.23707
# Poissons Ratio (y) = 0.27377 0.18324
# Poissons Ratio (z) = 0.21449 0.14056
#
# Static dielectric constant tensor:
#      x y z
#    x 3.767870 0.000000 0.132320 
#    y 0.000000 3.680470 0.000000 
#    z 0.132320 0.000000 3.905040 
# 
# 
# High freq. dielectric constant tensor:
#      x y z
#    x 1.830430 0.000000 0.005270 
#    y 0.000000 1.832620 0.000000 
#    z 0.005270 0.000000 1.841920 
# 
# From -- ./inp_files/9545.got.cif
#   From: 2010.03.12/outbox.cif.g09.slc.cpg/sg4_5_cif.got.tgz:9545.got - 2010.03.31 09:31:35.
