data_PCOD8046021
_publ_section_title
;
Structure prediction by ZEFSAII (Michael W. Deem and Ramdas Pophale) SiO2 
 PCOD8046021
Probable space group: P 21
;
_chemical_formula_sum "Si O2"
_cell_formula_units_Z 16
_cell_length_a 13.670374
_cell_length_b 8.778005
_cell_length_c 8.540357
_cell_angle_alpha 90.000000
_cell_angle_beta 44.072971
_cell_angle_gamma 90.000000
_cell_volume 712.845730
_symmetry_space_group_name_H-M "P 21"
_symmetry_group_IT_number 4
_symmetry_cell_setting 'monoclinic'
loop_
_space_group_symop_operation_xyz
x,y,z
-x,1/2+y,-z
loop_
_atom_site_type_symbol
_atom_site_label
_atom_site_fract_x
_atom_site_fract_y
_atom_site_fract_z
Si Si1 0.757277 0.735280 0.310346
Si Si2 0.245946 0.422398 0.967567
Si Si3 0.835710 0.315504 0.796088
Si Si4 0.468555 0.048738 0.254005
Si Si5 0.229337 0.547587 0.547075
Si Si6 0.072387 0.500358 0.433612
Si Si7 0.913902 0.179830 0.008832
Si Si8 0.584685 0.252175 0.879144
O O1 0.730348 0.763540 0.154010
O O2 0.656241 0.597648 0.484169
O O3 0.918539 0.694566 0.161709
O O4 0.709587 0.898757 0.436392
O O5 0.382718 0.534691 0.824067
O O6 0.181433 0.389051 0.213918
O O7 0.121018 0.513444 0.021572
O O8 0.849620 0.314168 0.970589
O O9 0.678897 0.317429 0.912591
O O10 0.910193 0.451414 0.616544
O O11 0.920909 0.166334 0.646108
O O12 0.457407 0.880336 0.194371
O O13 0.460973 0.170746 0.119965
O O14 0.104923 0.489395 0.579835
O O15 0.346263 0.617621 0.299898
O O16 0.167850 0.680597 0.730969
#
# Coordination Sequence:
#
# PCOD8046021 Si02
#       8
#     2   2   2   2   2   2   2   2
#     4  11  25  41  73 102 138 186 229 294 354 423
#     4  10  24  45  67  96 147 180 232 292 345 415
#     4  10  21  39  65 100 133 170 226 284 349 398
#     4  12  25  47  70 102 142 186 243 277 360 420
#     4  10  21  41  67 100 137 177 229 298 342 407
#     4  10  20  39  66  96 134 171 223 281 347 397
#     4  10  21  41  66 102 137 173 224 291 357 405
#     4  11  25  43  70 100 134 193 232 293 336 429
#
# _framework density 22.445250000000001
#
# number of rings (size 3 to 8) (size 9 to 14) (size 15 to 20)
#    0.000    1.500    5.000    0.750    7.000    3.000 
#    0.000    0.000    0.000    0.000    0.000    0.000 
#    0.000    0.000    0.000    0.000    0.000    0.000 
#
# Total GULP energy -198213.616417 kJ/mol
# GULP energy per Si atom -12388.351026 kJ/mol
# Density = 2.239416 g / cm^3
# Si number density = 22.445250 Si / 1000 Ang^3
#
#
#
# Elastic Constant Matrix: (Units=GPa)
#
#
# Indices 1 2 3 4 5 6 
#
# 1 82.9992 15.5720 31.4531 0.0000 10.8308 0.0000
# 2 15.5720 53.6835 6.6178 0.0000 0.4788 0.0000
# 3 31.4531 6.6178 73.5464 0.0000 11.1669 0.0000
# 4 0.0000 0.0000 0.0000 40.2623 0.0000 4.9642
# 5 10.8308 0.4788 11.1669 0.0000 32.5850 0.0000
# 6 0.0000 0.0000 0.0000 4.9642 0.0000 30.9596
#
#
#
# Elastic Compliance Matrix: (Units=1/GPa)
#
#
# Indices 1 2 3 4 5 6 
#
# 1 0.015325 -0.003709 -0.005755 0.000000 -0.003067 0.000000
# 2 -0.003709 0.019737 -0.000351 0.000000 0.001063 0.000000
# 3 -0.005755 -0.000351 0.016665 0.000000 -0.003793 0.000000
# 4 0.000000 0.000000 0.000000 0.025338 0.000000 -0.004063
# 5 -0.003067 0.001063 -0.003793 0.000000 0.032993 0.000000
# 6 0.000000 0.000000 0.000000 -0.004063 0.000000 0.032952
#
#
# Mechanical properties :
#
#
# Convention : Reuss Voigt Hill
#
# Bulk Modulus (GPa) = 31.15384 35.27942 33.21663
# Shear Modulus (GPa) = 28.84521 31.20045 30.02283
#
# Velocity S-wave (km/s) = 3.58877 3.73241 3.66129
# Velocity P-wave (km/s) = 5.57516 5.85889 5.71879
#
# Compressibility (1/GPa) = 0.03209877
#
# Stress axis : x y z
#
# Youngs Moduli (GPa) = 65.25252 50.66547 60.00438
#
# Poissons Ratio (x) = 0.18790 0.34530
# Poissons Ratio (y) = 0.24200 0.02108
# Poissons Ratio (z) = 0.37550 0.01780
#
# Static dielectric constant tensor:
#      x y z
#    x 4.222600 0.000000 0.419850 
#    y 0.000000 3.839710 0.000000 
#    z 0.419850 0.000000 4.313640 
# 
# 
# High freq. dielectric constant tensor:
#      x y z
#    x 1.881920 0.000000 0.016700 
#    y 0.000000 1.861640 0.000000 
#    z 0.016700 0.000000 1.888510 
# 
# From -- ./inp_files/9139.got.cif
#   From: 2010.03.12/outbox.cif.g09.slc.cpg/sg4_5_cif.got.tgz:9139.got - 2010.03.31 09:31:35.
