data_PCOD8046765
_publ_section_title
;
Structure prediction by ZEFSAII (Michael W. Deem and Ramdas Pophale) SiO2 
 PCOD8046765
Probable space group: P 21
;
_chemical_formula_sum "Si O2"
_cell_formula_units_Z 16
_cell_length_a 9.300358
_cell_length_b 9.341261
_cell_length_c 17.683578
_cell_angle_alpha 90.000000
_cell_angle_beta 150.277679
_cell_angle_gamma 90.000000
_cell_volume 761.691719
_symmetry_space_group_name_H-M "P 21"
_symmetry_group_IT_number 4
_symmetry_cell_setting 'monoclinic'
loop_
_space_group_symop_operation_xyz
x,y,z
-x,1/2+y,-z
loop_
_atom_site_type_symbol
_atom_site_label
_atom_site_fract_x
_atom_site_fract_y
_atom_site_fract_z
Si Si1 0.083993 0.977850 0.709381
Si Si2 0.774743 0.248148 0.520148
Si Si3 0.149033 0.300820 0.000771
Si Si4 0.132740 0.976715 0.004309
Si Si5 0.217739 0.759925 0.653575
Si Si6 0.103145 0.293399 0.234325
Si Si7 0.232096 0.488079 0.751165
Si Si8 0.706948 0.022870 0.048797
O O1 0.065044 0.899835 0.619004
O O2 0.013672 0.860566 0.741288
O O3 0.397901 0.051527 0.867172
O O4 0.849925 0.102719 0.598415
O O5 0.842899 0.238187 0.462244
O O6 0.446886 0.274037 0.394843
O O7 0.981258 0.372431 0.645170
O O8 0.186933 0.367138 0.933820
O O9 0.025272 0.140388 0.942956
O O10 0.443337 0.282449 0.181122
O O11 0.949837 0.416395 0.951647
O O12 0.951555 0.899959 0.857975
O O13 0.475162 0.942539 0.157941
O O14 0.099474 0.624036 0.646862
O O15 0.940274 0.146355 0.138099
O O16 0.345626 0.524038 0.886323
#
# Coordination Sequence:
#
# PCOD8046765 Si02
#       8
#     2   2   2   2   2   2   2   2
#     4  11  25  43  74  97 131 183 227 272 342 399
#     4  12  27  43  65  99 138 181 220 276 345 403
#     4  10  23  40  72 101 133 170 227 280 336 389
#     4  11  22  43  68 102 130 177 222 280 329 397
#     4  10  22  47  65  96 135 178 222 278 331 406
#     4  12  25  44  67  99 144 169 226 284 332 401
#     4  11  24  43  71  95 133 176 226 277 335 401
#     4  11  24  45  70 101 130 176 228 285 330 394
#
# _framework density 21.005873000000001
#
# number of rings (size 3 to 8) (size 9 to 14) (size 15 to 20)
#    0.000    1.000    3.750    2.250    5.250    1.000 
#    2.250    0.000    0.000    0.000    0.000    0.000 
#    0.000    0.000    0.000    0.000    0.000    0.000 
#
# Total GULP energy -198362.533894 kJ/mol
# GULP energy per Si atom -12397.658368 kJ/mol
# Density = 2.095806 g / cm^3
# Si number density = 21.005873 Si / 1000 Ang^3
#
#
#
# Elastic Constant Matrix: (Units=GPa)
#
#
# Indices 1 2 3 4 5 6 
#
# 1 70.6386 19.7385 13.9119 0.0000 2.2146 0.0000
# 2 19.7385 121.4345 48.5999 0.0000 18.4964 0.0000
# 3 13.9119 48.5999 72.9912 0.0000 9.1913 0.0000
# 4 0.0000 0.0000 0.0000 29.1306 0.0000 -2.3580
# 5 2.2146 18.4964 9.1913 0.0000 35.4840 0.0000
# 6 0.0000 0.0000 0.0000 -2.3580 0.0000 38.9478
#
#
#
# Elastic Compliance Matrix: (Units=1/GPa)
#
#
# Indices 1 2 3 4 5 6 
#
# 1 0.014987 -0.001826 -0.001698 0.000000 0.000456 0.000000
# 2 -0.001826 0.012041 -0.007126 0.000000 -0.004317 0.000000
# 3 -0.001698 -0.007126 0.018904 0.000000 -0.001076 0.000000
# 4 0.000000 0.000000 0.000000 0.034497 0.000000 0.002089
# 5 0.000456 -0.004317 -0.001076 0.000000 0.030682 0.000000
# 6 0.000000 0.000000 0.000000 0.002089 0.000000 0.025802
#
#
# Mechanical properties :
#
#
# Convention : Reuss Voigt Hill
#
# Bulk Modulus (GPa) = 40.59696 47.72945 44.16321
# Shear Modulus (GPa) = 30.04384 32.90009 31.47196
#
# Velocity S-wave (km/s) = 3.78598 3.96186 3.87492
# Velocity P-wave (km/s) = 6.20322 6.61058 6.41014
#
# Compressibility (1/GPa) = 0.02463238
#
# Stress axis : x y z
#
# Youngs Moduli (GPa) = 66.72489 83.04948 52.89888
#
# Poissons Ratio (x) = 0.15164 0.08983
# Poissons Ratio (y) = 0.12183 0.37694
# Poissons Ratio (z) = 0.11331 0.59179
#
# Static dielectric constant tensor:
#      x y z
#    x 3.894260 0.000000 0.007810 
#    y 0.000000 4.176540 0.000000 
#    z 0.007810 0.000000 3.634840 
# 
# 
# High freq. dielectric constant tensor:
#      x y z
#    x 1.832950 0.000000 -0.002110 
#    y 0.000000 1.835070 0.000000 
#    z -0.002110 0.000000 1.810980 
# 
# From -- ./inp_files/5413.got.cif
#   From: 2010.03.12/outbox.cif.g09.slc.cpg/sg4_3_cif.got.tgz:5413.got - 2010.03.31 09:31:35.
