data_PCOD8046174
_publ_section_title
;
Structure prediction by ZEFSAII (Michael W. Deem and Ramdas Pophale) SiO2 
 PCOD8046174
Probable space group: P 21
;
_chemical_formula_sum "Si O2"
_cell_formula_units_Z 16
_cell_length_a 13.981349
_cell_length_b 8.522632
_cell_length_c 12.543722
_cell_angle_alpha 90.000000
_cell_angle_beta 29.726306
_cell_angle_gamma 90.000000
_cell_volume 741.149904
_symmetry_space_group_name_H-M "P 21"
_symmetry_group_IT_number 4
_symmetry_cell_setting 'monoclinic'
loop_
_space_group_symop_operation_xyz
x,y,z
-x,1/2+y,-z
loop_
_atom_site_type_symbol
_atom_site_label
_atom_site_fract_x
_atom_site_fract_y
_atom_site_fract_z
Si Si1 0.218922 0.009210 0.894524
Si Si2 0.437950 0.877505 0.879590
Si Si3 0.011364 0.248515 0.808052
Si Si4 0.719099 0.487517 0.406464
Si Si5 0.665747 0.057262 0.103554
Si Si6 0.067392 0.284297 0.160896
Si Si7 0.147787 0.329693 0.452759
Si Si8 0.861650 0.575105 0.710100
O O1 0.301715 0.965057 0.699262
O O2 0.380488 0.949603 0.820963
O O3 0.162966 0.192019 0.967135
O O4 0.016477 0.915506 0.107756
O O5 0.405260 0.687778 0.912953
O O6 0.662470 0.907884 0.681107
O O7 0.322927 0.969125 0.082606
O O8 0.208749 0.166284 0.649558
O O9 0.007455 0.270886 0.683652
O O10 0.827176 0.141451 0.022077
O O11 0.509260 0.479912 0.661547
O O12 0.864050 0.362998 0.322463
O O13 0.780232 0.911513 0.940593
O O14 0.041998 0.161514 0.281425
O O15 0.204800 0.189612 0.319033
O O16 0.029447 0.461667 0.502507
#
# Coordination Sequence:
#
# PCOD8046174 Si02
#       8
#     2   2   2   2   2   2   2   2
#     4  10  21  44  63  95 141 169 226 271 329 387
#     4  10  23  46  64  95 133 169 214 285 324 396
#     4  10  21  43  65  90 135 172 214 277 326 385
#     4  11  22  38  69  97 126 189 218 267 331 393
#     4  10  21  38  62  90 132 167 218 269 321 388
#     4  10  23  41  60  98 138 165 223 280 321 392
#     4  12  24  45  74  93 128 181 211 275 348 390
#     4  11  27  43  69  98 127 174 224 274 330 409
#
# _framework density 21.588075
#
# number of rings (size 3 to 8) (size 9 to 14) (size 15 to 20)
#    0.000    1.500    5.000    0.750    3.500    6.000 
#    4.500    0.000    0.000    0.000    0.000    0.000 
#    0.000    0.000    0.000    0.000    0.000    0.000 
#
# Total GULP energy -198305.175745 kJ/mol
# GULP energy per Si atom -12394.073484 kJ/mol
# Density = 2.153894 g / cm^3
# Si number density = 21.588075 Si / 1000 Ang^3
#
#
#
# Elastic Constant Matrix: (Units=GPa)
#
#
# Indices 1 2 3 4 5 6 
#
# 1 61.1211 29.1181 36.0100 0.0000 -5.5503 0.0000
# 2 29.1181 106.4102 49.4655 0.0000 -2.4100 0.0000
# 3 36.0100 49.4655 110.0799 0.0000 -7.0434 0.0000
# 4 0.0000 0.0000 0.0000 30.4064 0.0000 0.4547
# 5 -5.5503 -2.4100 -7.0434 0.0000 35.6047 0.0000
# 6 0.0000 0.0000 0.0000 0.4547 0.0000 31.6229
#
#
#
# Elastic Compliance Matrix: (Units=1/GPa)
#
#
# Indices 1 2 3 4 5 6 
#
# 1 0.021262 -0.003286 -0.005349 0.000000 0.002034 0.000000
# 2 -0.003286 0.012389 -0.004529 0.000000 -0.000569 0.000000
# 3 -0.005349 -0.004529 0.012960 0.000000 0.001423 0.000000
# 4 0.000000 0.000000 0.000000 0.032895 0.000000 -0.000473
# 5 0.002034 -0.000569 0.001423 0.000000 0.028646 0.000000
# 6 0.000000 0.000000 0.000000 -0.000473 0.000000 0.031629
#
#
# Mechanical properties :
#
#
# Convention : Reuss Voigt Hill
#
# Bulk Modulus (GPa) = 49.29772 56.31094 52.80433
# Shear Modulus (GPa) = 28.92342 30.39463 29.65903
#
# Velocity S-wave (km/s) = 3.66428 3.75632 3.71059
# Velocity P-wave (km/s) = 6.38653 6.70479 6.54759
#
# Compressibility (1/GPa) = 0.02028492
#
# Stress axis : x y z
#
# Youngs Moduli (GPa) = 47.03164 80.71675 77.15961
#
# Poissons Ratio (x) = 0.26521 0.41271
# Poissons Ratio (y) = 0.15453 0.34943
# Poissons Ratio (z) = 0.25156 0.36554
#
# Static dielectric constant tensor:
#      x y z
#    x 3.578080 0.000000 -0.091670 
#    y 0.000000 4.224040 0.000000 
#    z -0.091670 0.000000 3.779960 
# 
# 
# High freq. dielectric constant tensor:
#      x y z
#    x 1.825730 0.000000 -0.010650 
#    y 0.000000 1.862370 0.000000 
#    z -0.010650 0.000000 1.841630 
# 
# From -- ./inp_files/12617.got.cif
#   From: 2010.03.12/outbox.cif.g09.slc.cpg/sg4_7_cif.got.tgz:12617.got - 2010.03.31 09:31:35.
