data_PCOD8046995
_publ_section_title
;
Structure prediction by ZEFSAII (Michael W. Deem and Ramdas Pophale) SiO2 
 PCOD8046995
Probable space group: P 21
;
_chemical_formula_sum "Si O2"
_cell_formula_units_Z 16
_cell_length_a 14.150409
_cell_length_b 8.612788
_cell_length_c 12.156159
_cell_angle_alpha 90.000000
_cell_angle_beta 149.196723
_cell_angle_gamma 90.000000
_cell_volume 758.677329
_symmetry_space_group_name_H-M "P 21"
_symmetry_group_IT_number 4
_symmetry_cell_setting 'monoclinic'
loop_
_space_group_symop_operation_xyz
x,y,z
-x,1/2+y,-z
loop_
_atom_site_type_symbol
_atom_site_label
_atom_site_fract_x
_atom_site_fract_y
_atom_site_fract_z
Si Si1 0.167614 0.017010 0.543270
Si Si2 0.167841 0.105893 0.791870
Si Si3 0.796163 0.941889 0.078425
Si Si4 0.448648 0.136859 0.667546
Si Si5 0.796317 0.180784 0.513939
Si Si6 0.551447 0.485871 0.770739
Si Si7 0.999867 0.311261 0.918717
Si Si8 0.260925 0.061366 0.260792
O O1 0.213043 0.061772 0.712808
O O2 0.275037 0.140298 0.575633
O O3 0.240834 0.845329 0.583236
O O4 0.949203 0.033517 0.302803
O O5 0.241092 0.277416 0.898722
O O6 0.949481 0.089245 0.595750
O O7 0.275448 0.982256 0.974131
O O8 0.874402 0.919938 0.033361
O O9 0.611918 0.041975 0.889349
O O10 0.500158 0.311407 0.691631
O O11 0.391963 0.055001 0.497569
O O12 0.874275 0.202636 0.715245
O O13 0.612160 0.080586 0.334499
O O14 0.608780 0.568102 0.715008
O O15 0.869581 0.410356 0.868575
O O16 0.129939 0.212098 0.128978
#
# Coordination Sequence:
#
# PCOD8046995 Si02
#       8
#     2   2   2   2   2   2   2   2
#     4  10  23  46  73  99 130 186 234 283 350 410
#     4  10  23  46  73  99 130 186 234 283 350 410
#     4  10  23  48  67  95 145 182 221 292 352 399
#     4  12  28  40  67 106 141 180 234 286 342 423
#     4  10  23  48  67  95 145 182 221 292 352 399
#     4  12  28  40  67 106 141 180 234 286 342 423
#     4  10  24  44  70  94 140 188 220 286 342 410
#     4  12  26  44  70 106 136 188 234 284 346 418
#
# _framework density 21.089334000000001
#
# number of rings (size 3 to 8) (size 9 to 14) (size 15 to 20)
#    0.000    1.500    5.000    0.750    7.000    8.000 
#    0.000    0.000    0.000    0.000    0.000    0.000 
#    0.000    0.000    0.000    0.000    0.000    0.000 
#
# Total GULP energy -198441.464792 kJ/mol
# GULP energy per Si atom -12402.591549 kJ/mol
# Density = 2.104133 g / cm^3
# Si number density = 21.089334 Si / 1000 Ang^3
#
#
#
# Elastic Constant Matrix: (Units=GPa)
#
#
# Indices 1 2 3 4 5 6 
#
# 1 100.3884 32.7615 59.9006 0.0000 -14.1137 0.0000
# 2 32.7615 77.7985 46.5983 0.0000 16.3307 0.0000
# 3 59.9006 46.5983 90.0397 0.0000 -0.6039 0.0000
# 4 0.0000 0.0000 0.0000 32.2384 0.0000 2.9252
# 5 -14.1137 16.3307 -0.6039 0.0000 31.6729 0.0000
# 6 0.0000 0.0000 0.0000 2.9252 0.0000 29.8204
#
#
#
# Elastic Compliance Matrix: (Units=1/GPa)
#
#
# Indices 1 2 3 4 5 6 
#
# 1 0.018935 -0.003779 -0.010573 0.000000 0.010184 0.000000
# 2 -0.003779 0.023008 -0.009486 0.000000 -0.013728 0.000000
# 3 -0.010573 -0.009486 0.023053 0.000000 0.000619 0.000000
# 4 0.000000 0.000000 0.000000 0.031298 0.000000 -0.003070
# 5 0.010184 -0.013728 0.000619 0.000000 0.043201 0.000000
# 6 0.000000 0.000000 0.000000 -0.003070 0.000000 0.033835
#
#
# Mechanical properties :
#
#
# Convention : Reuss Voigt Hill
#
# Bulk Modulus (GPa) = 57.73044 60.74970 59.24007
# Shear Modulus (GPa) = 22.04792 27.34408 24.69600
#
# Velocity S-wave (km/s) = 3.23685 3.60472 3.42573
# Velocity P-wave (km/s) = 6.43454 6.79660 6.61804
#
# Compressibility (1/GPa) = 0.01732188
#
# Stress axis : x y z
#
# Youngs Moduli (GPa) = 52.81191 43.46306 43.37754
#
# Poissons Ratio (x) = 0.16423 0.45863
# Poissons Ratio (y) = 0.19956 0.41146
# Poissons Ratio (z) = 0.55838 0.41227
#
# Static dielectric constant tensor:
#      x y z
#    x 3.756250 0.000000 0.128470 
#    y 0.000000 3.673270 0.000000 
#    z 0.128470 0.000000 3.863750 
# 
# 
# High freq. dielectric constant tensor:
#      x y z
#    x 1.827710 0.000000 0.006450 
#    y 0.000000 1.815380 0.000000 
#    z 0.006450 0.000000 1.833040 
# 
# From -- ./inp_files/12599.got.cif
#   From: 2010.03.12/outbox.cif.g09.slc.cpg/sg4_7_cif.got.tgz:12599.got - 2010.03.31 09:31:35.
