data_PCOD8046108
_publ_section_title
;
Structure prediction by ZEFSAII (Michael W. Deem and Ramdas Pophale) SiO2 
 PCOD8046108
Probable space group: P 21
;
_chemical_formula_sum "Si O2"
_cell_formula_units_Z 16
_cell_length_a 11.704536
_cell_length_b 11.812334
_cell_length_c 13.535107
_cell_angle_alpha 90.000000
_cell_angle_beta 22.110480
_cell_angle_gamma 90.000000
_cell_volume 704.358877
_symmetry_space_group_name_H-M "P 21"
_symmetry_group_IT_number 4
_symmetry_cell_setting 'monoclinic'
loop_
_space_group_symop_operation_xyz
x,y,z
-x,1/2+y,-z
loop_
_atom_site_type_symbol
_atom_site_label
_atom_site_fract_x
_atom_site_fract_y
_atom_site_fract_z
Si Si1 0.271854 0.021950 0.878455
Si Si2 0.613152 0.781997 0.012962
Si Si3 0.502513 0.845938 0.310025
Si Si4 0.608301 0.274583 0.156528
Si Si5 0.029024 0.490904 0.286281
Si Si6 0.084447 0.733716 0.297750
Si Si7 0.101967 0.548528 0.004181
Si Si8 0.859132 0.143413 0.366877
O O1 0.616290 0.066265 0.621615
O O2 0.270481 0.885715 0.885086
O O3 0.182267 0.066989 0.840667
O O4 0.012614 0.069809 0.158514
O O5 0.640489 0.769978 0.110830
O O6 0.281921 0.763525 0.234987
O O7 0.875221 0.690511 0.771024
O O8 0.685548 0.910244 0.923546
O O9 0.328576 0.757065 0.522383
O O10 0.732092 0.936125 0.175775
O O11 0.269372 0.927051 0.438329
O O12 0.690389 0.162563 0.155643
O O13 0.248162 0.286971 0.430017
O O14 0.755756 0.272023 0.930616
O O15 0.066518 0.599632 0.322388
O O16 0.980590 0.521052 0.209755
#
# Coordination Sequence:
#
# PCOD8046108 Si02
#       8
#     2   2   2   2   2   2   2   2
#     4  12  27  44  70 103 143 181 219 290 353 394
#     4  10  23  43  72  97 136 183 224 281 344 402
#     4  10  20  45  69  98 134 174 241 281 315 428
#     4  11  26  45  65 102 143 168 235 279 338 424
#     4   9  21  41  66 101 131 171 237 277 323 422
#     4  11  24  45  67  99 137 179 220 283 351 398
#     4  10  24  44  70 100 133 190 222 283 343 407
#     4  11  25  45  65 104 137 172 236 276 331 413
#
# _framework density 22.715693000000002
#
# number of rings (size 3 to 8) (size 9 to 14) (size 15 to 20)
#    0.000    1.500    2.500    0.750    7.000    2.000 
#    0.000    0.000    0.000    0.000    0.000    0.000 
#    0.000    0.000    0.000    0.000    0.000    0.000 
#
# Total GULP energy -198232.317739 kJ/mol
# GULP energy per Si atom -12389.519859 kJ/mol
# Density = 2.266399 g / cm^3
# Si number density = 22.715693 Si / 1000 Ang^3
#
#
#
# Elastic Constant Matrix: (Units=GPa)
#
#
# Indices 1 2 3 4 5 6 
#
# 1 44.3095 27.2104 18.9491 0.0000 -20.6834 0.0000
# 2 27.2104 130.4693 39.0793 0.0000 -2.0941 0.0000
# 3 18.9491 39.0793 123.5081 0.0000 -5.1716 0.0000
# 4 0.0000 0.0000 0.0000 27.1863 0.0000 -6.9682
# 5 -20.6834 -2.0941 -5.1716 0.0000 26.9390 0.0000
# 6 0.0000 0.0000 0.0000 -6.9682 0.0000 23.9957
#
#
#
# Elastic Compliance Matrix: (Units=1/GPa)
#
#
# Indices 1 2 3 4 5 6 
#
# 1 0.043652 -0.007716 -0.002901 0.000000 0.032359 0.000000
# 2 -0.007716 0.009831 -0.002160 0.000000 -0.005575 0.000000
# 3 -0.002901 -0.002160 0.009199 0.000000 -0.000629 0.000000
# 4 0.000000 0.000000 0.000000 0.039741 0.000000 0.011541
# 5 0.032359 -0.005575 -0.000629 0.000000 0.061412 0.000000
# 6 0.000000 0.000000 0.000000 0.011541 0.000000 0.045026
#
#
# Mechanical properties :
#
#
# Convention : Reuss Voigt Hill
#
# Bulk Modulus (GPa) = 26.93354 52.08495 39.50925
# Shear Modulus (GPa) = 20.26001 29.82740 25.04370
#
# Velocity S-wave (km/s) = 2.98970 3.62757 3.32397
# Velocity P-wave (km/s) = 4.87855 6.36589 5.67119
#
# Compressibility (1/GPa) = 0.03712842
#
# Stress axis : x y z
#
# Youngs Moduli (GPa) = 22.90828 101.71441 108.70808
#
# Poissons Ratio (x) = 0.78480 0.31536
# Poissons Ratio (y) = 0.17675 0.23486
# Poissons Ratio (z) = 0.06646 0.21975
#
# Static dielectric constant tensor:
#      x y z
#    x 3.473520 0.000000 -0.021720 
#    y 0.000000 4.512120 0.000000 
#    z -0.021720 0.000000 4.337880 
# 
# 
# High freq. dielectric constant tensor:
#      x y z
#    x 1.845430 0.000000 -0.002540 
#    y 0.000000 1.918350 0.000000 
#    z -0.002540 0.000000 1.914070 
# 
# From -- ./inp_files/2771.got.cif
#   From: 2010.03.12/outbox.cif.g09.slc.cpg/sg4_2_cif.got.tgz:2771.got - 2010.03.31 09:31:35.
