data_PCOD8046687
_publ_section_title
;
Structure prediction by ZEFSAII (Michael W. Deem and Ramdas Pophale) SiO2 
 PCOD8046687
Probable space group: P 21
;
_chemical_formula_sum "Si O2"
_cell_formula_units_Z 16
_cell_length_a 12.451487
_cell_length_b 8.425505
_cell_length_c 7.242151
_cell_angle_alpha 90.000000
_cell_angle_beta 68.602726
_cell_angle_gamma 90.000000
_cell_volume 707.405692
_symmetry_space_group_name_H-M "P 21"
_symmetry_group_IT_number 4
_symmetry_cell_setting 'monoclinic'
loop_
_space_group_symop_operation_xyz
x,y,z
-x,1/2+y,-z
loop_
_atom_site_type_symbol
_atom_site_label
_atom_site_fract_x
_atom_site_fract_y
_atom_site_fract_z
Si Si1 0.272202 0.485740 0.990311
Si Si2 0.974396 0.990267 0.738768
Si Si3 0.776432 0.818975 0.315229
Si Si4 0.992152 0.358458 0.660546
Si Si5 0.642302 0.328536 0.052467
Si Si6 0.507306 0.376437 0.774308
Si Si7 0.855009 0.520476 0.051226
Si Si8 0.533321 0.703221 0.556239
O O1 0.154562 0.420244 0.154911
O O2 0.260576 0.475692 0.773985
O O3 0.292743 0.665943 0.031371
O O4 0.385342 0.378216 0.964425
O O5 0.955401 0.179612 0.730780
O O6 0.036248 0.905658 0.529697
O O7 0.061418 0.941384 0.847823
O O8 0.833050 0.700951 0.125963
O O9 0.668873 0.742129 0.488418
O O10 0.870132 0.873371 0.404247
O O11 0.925105 0.493268 0.818723
O O12 0.729102 0.444437 0.104278
O O13 0.533838 0.314206 0.256405
O O14 0.605535 0.384544 0.869152
O O15 0.514702 0.523649 0.629669
O O16 0.510756 0.226344 0.630190
#
# Coordination Sequence:
#
# PCOD8046687 Si02
#       8
#     2   2   2   2   2   2   2   2
#     4  10  22  44  66  96 136 177 224 279 336 402
#     4  11  25  44  67 102 134 181 231 277 343 404
#     4  10  23  43  70  95 135 183 222 286 339 399
#     4  11  25  41  68 103 132 181 225 277 344 407
#     4  11  24  43  71 100 140 179 224 281 346 411
#     4  10  24  43  69 104 133 184 221 281 348 403
#     4  11  24  45  68  99 143 175 224 285 344 402
#     4  10  23  45  67 101 137 174 233 276 340 402
#
# _framework density 22.617856
#
# number of rings (size 3 to 8) (size 9 to 14) (size 15 to 20)
#    0.000    1.500    2.500    0.750    3.500   10.000 
#    4.500    0.000    0.000    0.000    0.000    0.000 
#    0.000    0.000    0.000    0.000    0.000    0.000 
#
# Total GULP energy -198266.871225 kJ/mol
# GULP energy per Si atom -12391.679452 kJ/mol
# Density = 2.256638 g / cm^3
# Si number density = 22.617856 Si / 1000 Ang^3
#
#
#
# Elastic Constant Matrix: (Units=GPa)
#
#
# Indices 1 2 3 4 5 6 
#
# 1 134.9490 31.4821 53.2464 0.0000 -7.0634 0.0000
# 2 31.4821 51.8306 37.4768 0.0000 10.5697 0.0000
# 3 53.2464 37.4768 104.4311 0.0000 4.3573 0.0000
# 4 0.0000 0.0000 0.0000 27.4258 0.0000 3.0264
# 5 -7.0634 10.5697 4.3573 0.0000 35.6938 0.0000
# 6 0.0000 0.0000 0.0000 3.0264 0.0000 23.5700
#
#
#
# Elastic Compliance Matrix: (Units=1/GPa)
#
#
# Indices 1 2 3 4 5 6 
#
# 1 0.010064 -0.004106 -0.003811 0.000000 0.003673 0.000000
# 2 -0.004106 0.029378 -0.008094 0.000000 -0.008524 0.000000
# 3 -0.003811 -0.008094 0.014428 0.000000 -0.000119 0.000000
# 4 0.000000 0.000000 0.000000 0.036986 0.000000 -0.004749
# 5 0.003673 -0.008524 -0.000119 0.000000 0.031282 0.000000
# 6 0.000000 0.000000 0.000000 -0.004749 0.000000 0.043037
#
#
# Mechanical properties :
#
#
# Convention : Reuss Voigt Hill
#
# Bulk Modulus (GPa) = 45.76892 59.51349 52.64120
# Shear Modulus (GPa) = 24.45232 28.60494 26.52863
#
# Velocity S-wave (km/s) = 3.29159 3.56013 3.42849
# Velocity P-wave (km/s) = 5.89285 6.57792 6.24479
#
# Compressibility (1/GPa) = 0.02184889
#
# Stress axis : x y z
#
# Youngs Moduli (GPa) = 99.36297 34.03876 69.30837
#
# Poissons Ratio (x) = 0.13978 0.26413
# Poissons Ratio (y) = 0.40802 0.56095
# Poissons Ratio (z) = 0.37867 0.27549
#
# Static dielectric constant tensor:
#      x y z
#    x 4.390300 0.000000 -0.081470 
#    y 0.000000 3.856150 0.000000 
#    z -0.081470 0.000000 3.917720 
# 
# 
# High freq. dielectric constant tensor:
#      x y z
#    x 1.908610 0.000000 -0.007050 
#    y 0.000000 1.875460 0.000000 
#    z -0.007050 0.000000 1.888440 
# 
# From -- ./inp_files/2634.got.cif
#   From: 2010.03.12/outbox.cif.g09.slc.cpg/sg4_2_cif.got.tgz:2634.got - 2010.03.31 09:31:35.
