data_PCOD8046321
_publ_section_title
;
Structure prediction by ZEFSAII (Michael W. Deem and Ramdas Pophale) SiO2 
 PCOD8046321
Probable space group: P 21
;
_chemical_formula_sum "Si O2"
_cell_formula_units_Z 16
_cell_length_a 6.998152
_cell_length_b 12.907306
_cell_length_c 14.010341
_cell_angle_alpha 90.000000
_cell_angle_beta 39.983560
_cell_angle_gamma 90.000000
_cell_volume 813.179887
_symmetry_space_group_name_H-M "P 21"
_symmetry_group_IT_number 4
_symmetry_cell_setting 'monoclinic'
loop_
_space_group_symop_operation_xyz
x,y,z
-x,1/2+y,-z
loop_
_atom_site_type_symbol
_atom_site_label
_atom_site_fract_x
_atom_site_fract_y
_atom_site_fract_z
Si Si1 0.340456 0.262830 0.209784
Si Si2 0.280955 0.260049 0.774856
Si Si3 0.500890 0.489336 0.124429
Si Si4 0.318030 0.714103 0.535102
Si Si5 0.270783 0.605026 0.033965
Si Si6 0.758990 0.110595 0.618727
Si Si7 0.564939 0.648279 0.638978
Si Si8 0.829877 0.985253 0.112047
O O1 0.486162 0.366821 0.113222
O O2 0.464205 0.235558 0.268084
O O3 0.986975 0.278405 0.347666
O O4 0.430359 0.168779 0.105319
O O5 0.422157 0.282805 0.615057
O O6 0.542574 0.204774 0.737440
O O7 0.187675 0.362510 0.865869
O O8 0.004782 0.183202 0.866562
O O9 0.303205 0.554313 0.125443
O O10 0.365673 0.507883 0.282461
O O11 0.842283 0.524790 0.984640
O O12 0.268701 0.609705 0.487371
O O13 0.393464 0.687905 0.613149
O O14 0.227857 0.510355 0.976650
O O15 0.096723 0.127947 0.520329
O O16 0.414631 0.541433 0.729475
#
# Coordination Sequence:
#
# PCOD8046321 Si02
#       8
#     2   2   2   2   2   2   2   2
#     4  10  23  40  60  92 122 157 210 257 308 373
#     4  10  21  43  60  89 130 157 211 254 314 362
#     4  12  23  39  65  91 122 168 210 253 318 370
#     4   9  20  42  58  89 121 161 200 257 310 364
#     4  11  23  42  63  90 126 164 207 262 312 370
#     4   9  22  38  61  89 124 160 202 259 300 371
#     4  10  21  41  66  86 126 162 202 261 310 361
#     4  11  23  41  63  92 121 167 208 259 308 379
#
# _framework density 19.675841999999999
#
# number of rings (size 3 to 8) (size 9 to 14) (size 15 to 20)
#    0.750    1.000    2.500    1.500    1.750    2.000 
#    4.500    0.000    0.000    0.000    0.000    0.000 
#    0.000    0.000    0.000    0.000    0.000    0.000 
#
# Total GULP energy -198296.730012 kJ/mol
# GULP energy per Si atom -12393.545626 kJ/mol
# Density = 1.963106 g / cm^3
# Si number density = 19.675842 Si / 1000 Ang^3
#
#
#
# Elastic Constant Matrix: (Units=GPa)
#
#
# Indices 1 2 3 4 5 6 
#
# 1 99.1954 42.2564 39.9847 0.0000 -0.3226 0.0000
# 2 42.2564 95.4274 33.9020 0.0000 -0.8061 0.0000
# 3 39.9847 33.9020 91.1743 0.0000 -10.4831 0.0000
# 4 0.0000 0.0000 0.0000 28.1856 0.0000 -1.4346
# 5 -0.3226 -0.8061 -10.4831 0.0000 34.7360 0.0000
# 6 0.0000 0.0000 0.0000 -1.4346 0.0000 23.0893
#
#
#
# Elastic Compliance Matrix: (Units=1/GPa)
#
#
# Indices 1 2 3 4 5 6 
#
# 1 0.013834 -0.004525 -0.004539 0.000000 -0.001346 0.000000
# 2 -0.004525 0.013596 -0.003149 0.000000 -0.000677 0.000000
# 3 -0.004539 -0.003149 0.014624 0.000000 0.004298 0.000000
# 4 0.000000 0.000000 0.000000 0.035592 0.000000 0.002211
# 5 -0.001346 -0.000677 0.004298 0.000000 0.030057 0.000000
# 6 0.000000 0.000000 0.000000 0.002211 0.000000 0.043447
#
#
# Mechanical properties :
#
#
# Convention : Reuss Voigt Hill
#
# Bulk Modulus (GPa) = 56.72859 57.56481 57.14670
# Shear Modulus (GPa) = 27.55556 28.51246 28.03401
#
# Velocity S-wave (km/s) = 3.74635 3.81085 3.77874
# Velocity P-wave (km/s) = 6.89984 6.97736 6.93871
#
# Compressibility (1/GPa) = 0.01762780
#
# Stress axis : x y z
#
# Youngs Moduli (GPa) = 72.28615 73.55277 68.38158
#
# Poissons Ratio (x) = 0.33279 0.31041
# Poissons Ratio (y) = 0.32706 0.21533
# Poissons Ratio (z) = 0.32813 0.23161
#
# Static dielectric constant tensor:
#      x y z
#    x 3.492270 0.000000 -0.126580 
#    y 0.000000 3.261060 0.000000 
#    z -0.126580 0.000000 3.753050 
# 
# 
# High freq. dielectric constant tensor:
#      x y z
#    x 1.763620 0.000000 -0.015170 
#    y 0.000000 1.741100 0.000000 
#    z -0.015170 0.000000 1.783310 
# 
# From -- ./inp_files/10390.got.cif
#   From: 2010.03.12/outbox.cif.g09.slc.cpg/sg4_6_cif.got.tgz:10390.got - 2010.03.31 09:31:35.
