data_PCOD8046898
_publ_section_title
;
Structure prediction by ZEFSAII (Michael W. Deem and Ramdas Pophale) SiO2 
 PCOD8046898
Probable space group: P 21
;
_chemical_formula_sum "Si O2"
_cell_formula_units_Z 16
_cell_length_a 8.940655
_cell_length_b 8.356041
_cell_length_c 11.375390
_cell_angle_alpha 90.000000
_cell_angle_beta 58.442426
_cell_angle_gamma 90.000000
_cell_volume 724.159531
_symmetry_space_group_name_H-M "P 21"
_symmetry_group_IT_number 4
_symmetry_cell_setting 'monoclinic'
loop_
_space_group_symop_operation_xyz
x,y,z
-x,1/2+y,-z
loop_
_atom_site_type_symbol
_atom_site_label
_atom_site_fract_x
_atom_site_fract_y
_atom_site_fract_z
Si Si1 0.265136 0.725530 0.638496
Si Si2 0.075196 0.273281 0.684089
Si Si3 0.426573 0.713981 0.247676
Si Si4 0.090031 0.823138 0.492999
Si Si5 0.041260 0.536111 0.883764
Si Si6 0.408034 0.083387 0.592514
Si Si7 0.216672 0.301352 0.996502
Si Si8 0.148835 0.504366 0.239850
O O1 0.131370 0.697018 0.582393
O O2 0.171117 0.685187 0.800370
O O3 0.428887 0.604553 0.563154
O O4 0.319834 0.911523 0.612131
O O5 0.027323 0.438648 0.767220
O O6 0.277159 0.229208 0.618072
O O7 0.034596 0.268273 0.561366
O O8 0.952632 0.138043 0.795953
O O9 0.287646 0.847346 0.355250
O O10 0.524152 0.609154 0.304787
O O11 0.329495 0.580103 0.210212
O O12 0.575192 0.806526 0.112580
O O13 0.985652 0.969194 0.596233
O O14 0.857075 0.620819 0.994001
O O15 0.114946 0.426227 0.956000
O O16 0.187296 0.350162 0.144395
#
# Coordination Sequence:
#
# PCOD8046898 Si02
#       8
#     2   2   2   2   2   2   2   2
#     4  11  24  41  67 104 143 179 237 291 365 419
#     4  11  23  41  73 103 138 186 238 296 364 425
#     4  10  26  44  70 102 145 177 242 292 351 431
#     4  10  23  43  70 104 137 182 231 297 361 424
#     4  12  26  43  72 104 141 196 240 297 354 436
#     4  11  22  43  67 105 140 178 232 302 348 428
#     4  12  26  47  71 104 149 191 246 291 365 432
#     4  11  24  48  70 100 145 187 236 298 362 433
#
# _framework density 22.094577999999998
#
# number of rings (size 3 to 8) (size 9 to 14) (size 15 to 20)
#    0.000    1.000    3.750    1.500   10.500    2.000 
#    2.250    0.000    0.000    0.000    0.000    0.000 
#    0.000    0.000    0.000    0.000    0.000    0.000 
#
# Total GULP energy -198233.585516 kJ/mol
# GULP energy per Si atom -12389.599095 kJ/mol
# Density = 2.204429 g / cm^3
# Si number density = 22.094578 Si / 1000 Ang^3
#
#
#
# Elastic Constant Matrix: (Units=GPa)
#
#
# Indices 1 2 3 4 5 6 
#
# 1 120.5932 34.8637 39.0708 0.0000 -0.0118 0.0000
# 2 34.8637 99.1116 43.5084 0.0000 -5.6942 0.0000
# 3 39.0708 43.5084 108.5604 0.0000 -15.2033 0.0000
# 4 0.0000 0.0000 0.0000 39.8107 0.0000 -8.1476
# 5 -0.0118 -5.6942 -15.2033 0.0000 33.2872 0.0000
# 6 0.0000 0.0000 0.0000 -8.1476 0.0000 36.4300
#
#
#
# Elastic Compliance Matrix: (Units=1/GPa)
#
#
# Indices 1 2 3 4 5 6 
#
# 1 0.009892 -0.002318 -0.002870 0.000000 -0.001704 0.000000
# 2 -0.002318 0.012788 -0.004257 0.000000 0.000242 0.000000
# 3 -0.002870 -0.004257 0.012658 0.000000 0.005052 0.000000
# 4 0.000000 0.000000 0.000000 0.026324 0.000000 0.005887
# 5 -0.001704 0.000242 0.005052 0.000000 0.032390 0.000000
# 6 0.000000 0.000000 0.000000 0.005887 0.000000 0.028767
#
#
# Mechanical properties :
#
#
# Convention : Reuss Voigt Hill
#
# Bulk Modulus (GPa) = 60.79534 62.57234 61.68384
# Shear Modulus (GPa) = 33.96984 35.96039 34.96511
#
# Velocity S-wave (km/s) = 3.92532 4.03869 3.98241
# Velocity P-wave (km/s) = 6.93685 7.08023 7.00891
#
# Compressibility (1/GPa) = 0.01644863
#
# Stress axis : x y z
#
# Youngs Moduli (GPa) = 101.09152 78.20119 79.00220
#
# Poissons Ratio (x) = 0.18125 0.22672
# Poissons Ratio (y) = 0.23430 0.33630
# Poissons Ratio (z) = 0.29012 0.33289
#
# Static dielectric constant tensor:
#      x y z
#    x 4.171680 0.000000 -0.139990 
#    y 0.000000 3.937550 0.000000 
#    z -0.139990 0.000000 4.081420 
# 
# 
# High freq. dielectric constant tensor:
#      x y z
#    x 1.877000 0.000000 -0.004890 
#    y 0.000000 1.861610 0.000000 
#    z -0.004890 0.000000 1.868790 
# 
# From -- ./inp_files/7762.got.cif
#   From: 2010.03.12/outbox.cif.g09.slc.cpg/sg4_4_cif.got.tgz:7762.got - 2010.03.31 09:31:35.
