data_PCOD8046316
_publ_section_title
;
Structure prediction by ZEFSAII (Michael W. Deem and Ramdas Pophale) SiO2 
 PCOD8046316
Probable space group: P 21
;
_chemical_formula_sum "Si O2"
_cell_formula_units_Z 16
_cell_length_a 14.693231
_cell_length_b 7.315776
_cell_length_c 23.235231
_cell_angle_alpha 90.000000
_cell_angle_beta 161.576841
_cell_angle_gamma 90.000000
_cell_volume 789.326189
_symmetry_space_group_name_H-M "P 21"
_symmetry_group_IT_number 4
_symmetry_cell_setting 'monoclinic'
loop_
_space_group_symop_operation_xyz
x,y,z
-x,1/2+y,-z
loop_
_atom_site_type_symbol
_atom_site_label
_atom_site_fract_x
_atom_site_fract_y
_atom_site_fract_z
Si Si1 0.269530 0.900290 0.184042
Si Si2 0.387734 0.649993 0.986566
Si Si3 0.657565 0.845709 0.314985
Si Si4 0.103248 0.095072 0.630409
Si Si5 0.673811 0.231561 0.458396
Si Si6 0.819125 0.769017 0.152721
Si Si7 0.194314 0.519109 0.180391
Si Si8 0.771363 0.481544 0.028085
O O1 0.221158 0.739796 0.201601
O O2 0.431443 0.800793 0.228715
O O3 0.448575 0.063410 0.321074
O O4 0.973945 0.978134 0.980249
O O5 0.650245 0.550175 0.176370
O O6 0.520529 0.728047 0.007205
O O7 0.154711 0.489586 0.836981
O O8 0.240248 0.813240 0.933937
O O9 0.945663 0.912195 0.518273
O O10 0.743206 0.662436 0.334833
O O11 0.520279 0.986664 0.185547
O O12 0.867611 0.236117 0.516431
O O13 0.504250 0.421529 0.362808
O O14 0.890754 0.200575 0.641826
O O15 0.802502 0.671197 0.080827
O O16 0.037709 0.450812 0.144477
#
# Coordination Sequence:
#
# PCOD8046316 Si02
#       8
#     2   2   2   2   2   2   2   2
#     4  10  21  41  65  88 124 163 201 258 313 367
#     4  10  21  41  65  88 124 163 201 258 313 367
#     4   9  20  36  57  93 121 148 201 256 301 370
#     4   9  20  36  57  93 121 148 201 256 301 370
#     4  10  23  41  60  93 120 159 215 245 306 376
#     4  11  22  42  66  88 125 166 203 257 310 367
#     4  11  22  42  66  88 125 166 203 257 310 367
#     4  10  23  41  60  93 120 159 215 245 306 376
#
# _framework density 20.270454999999998
#
# number of rings (size 3 to 8) (size 9 to 14) (size 15 to 20)
#    0.000    2.000    2.500    0.000    3.500    2.000 
#    9.000    0.000    0.000    0.000    0.000    0.000 
#    0.000    0.000    0.000    0.000    0.000    0.000 
#
# Total GULP energy -198343.154630 kJ/mol
# GULP energy per Si atom -12396.447164 kJ/mol
# Density = 2.022432 g / cm^3
# Si number density = 20.270455 Si / 1000 Ang^3
#
#
#
# Elastic Constant Matrix: (Units=GPa)
#
#
# Indices 1 2 3 4 5 6 
#
# 1 64.8378 18.2591 17.9901 0.0000 -6.2629 0.0000
# 2 18.2591 85.6453 18.2657 0.0000 0.0407 0.0000
# 3 17.9901 18.2657 64.1514 0.0000 6.4055 0.0000
# 4 0.0000 0.0000 0.0000 32.3899 0.0000 0.0169
# 5 -6.2629 0.0407 6.4055 0.0000 11.4155 0.0000
# 6 0.0000 0.0000 0.0000 0.0169 0.0000 32.3701
#
#
#
# Elastic Compliance Matrix: (Units=1/GPa)
#
#
# Indices 1 2 3 4 5 6 
#
# 1 0.019221 -0.002831 -0.005973 0.000000 0.013907 0.000000
# 2 -0.002831 0.012894 -0.002879 0.000000 0.000017 0.000000
# 3 -0.005973 -0.002879 0.019502 0.000000 -0.014209 0.000000
# 4 0.000000 0.000000 0.000000 0.030874 0.000000 -0.000016
# 5 0.013907 0.000017 -0.014209 0.000000 0.103203 0.000000
# 6 0.000000 0.000000 0.000000 -0.000016 0.000000 0.030893
#
#
# Mechanical properties :
#
#
# Convention : Reuss Voigt Hill
#
# Bulk Modulus (GPa) = 35.39669 35.96270 35.67970
# Shear Modulus (GPa) = 20.05077 25.90974 22.98026
#
# Velocity S-wave (km/s) = 3.14851 3.57907 3.37067
# Velocity P-wave (km/s) = 5.54234 5.90421 5.72613
#
# Compressibility (1/GPa) = 0.02825123
#
# Stress axis : x y z
#
# Youngs Moduli (GPa) = 52.02721 77.55826 51.27780
#
# Poissons Ratio (x) = 0.21953 0.30627
# Poissons Ratio (y) = 0.14726 0.14763
# Poissons Ratio (z) = 0.31075 0.22329
#
# Static dielectric constant tensor:
#      x y z
#    x 3.719280 0.000000 -0.001640 
#    y 0.000000 3.369740 0.000000 
#    z -0.001640 0.000000 3.717350 
# 
# 
# High freq. dielectric constant tensor:
#      x y z
#    x 1.790240 0.000000 -0.000110 
#    y 0.000000 1.777280 0.000000 
#    z -0.000110 0.000000 1.789870 
# 
# From -- ./inp_files/12820.got.cif
#   From: 2010.03.12/outbox.cif.g09.slc.cpg/sg4_7_cif.got.tgz:12820.got - 2010.03.31 09:31:35.
