data_PCOD8046916
_publ_section_title
;
Structure prediction by ZEFSAII (Michael W. Deem and Ramdas Pophale) SiO2 
 PCOD8046916
Probable space group: P 21
;
_chemical_formula_sum "Si O2"
_cell_formula_units_Z 16
_cell_length_a 11.491505
_cell_length_b 8.453482
_cell_length_c 8.738951
_cell_angle_alpha 90.000000
_cell_angle_beta 53.328342
_cell_angle_gamma 90.000000
_cell_volume 680.902223
_symmetry_space_group_name_H-M "P 21"
_symmetry_group_IT_number 4
_symmetry_cell_setting 'monoclinic'
loop_
_space_group_symop_operation_xyz
x,y,z
-x,1/2+y,-z
loop_
_atom_site_type_symbol
_atom_site_label
_atom_site_fract_x
_atom_site_fract_y
_atom_site_fract_z
Si Si1 0.548996 0.265360 0.475611
Si Si2 0.387221 0.355391 0.901075
Si Si3 0.834839 0.377877 0.100403
Si Si4 0.160543 0.754255 0.237079
Si Si5 0.088104 0.217850 0.084631
Si Si6 0.350034 0.459163 0.452067
Si Si7 0.556334 0.119394 0.919064
Si Si8 0.954343 0.026837 0.445293
O O1 0.504593 0.325512 0.677622
O O2 0.680563 0.369482 0.305597
O O3 0.410570 0.290757 0.468972
O O4 0.602607 0.084218 0.451062
O O5 0.406786 0.215780 0.014744
O O6 0.220901 0.342514 0.980534
O O7 0.424377 0.528807 0.936212
O O8 0.958808 0.310334 0.108848
O O9 0.837956 0.269948 0.945956
O O10 0.863115 0.561248 0.044152
O O11 0.322797 0.759801 0.178244
O O12 0.098727 0.584827 0.346021
O O13 0.067873 0.889928 0.390072
O O14 0.035229 0.169931 0.295201
O O15 0.428374 0.494833 0.230856
O O16 0.176527 0.460738 0.561118
#
# Coordination Sequence:
#
# PCOD8046916 Si02
#       8
#     2   2   2   2   2   2   2   2
#     4  11  24  45  71  99 141 182 235 294 352 427
#     4  11  27  45  72 105 141 190 239 298 364 423
#     4  11  25  46  70 104 142 187 237 295 363 421
#     4  10  25  43  73 101 140 186 232 298 354 431
#     4  11  26  45  70 103 142 183 238 300 352 437
#     4  10  23  44  65 103 136 181 230 295 343 432
#     4  10  25  46  67 102 140 182 243 291 352 428
#     4  10  23  46  68 103 144 179 238 295 362 427
#
# _framework density 23.498235000000001
#
# number of rings (size 3 to 8) (size 9 to 14) (size 15 to 20)
#    0.000    1.500    1.250    1.500   15.750    0.000 
#    0.000    0.000    0.000    0.000    0.000    0.000 
#    0.000    0.000    0.000    0.000    0.000    0.000 
#
# Total GULP energy -198349.161146 kJ/mol
# GULP energy per Si atom -12396.822572 kJ/mol
# Density = 2.344475 g / cm^3
# Si number density = 23.498235 Si / 1000 Ang^3
#
#
#
# Elastic Constant Matrix: (Units=GPa)
#
#
# Indices 1 2 3 4 5 6 
#
# 1 85.8933 40.7824 32.2875 0.0000 -3.2531 0.0000
# 2 40.7824 58.4112 19.4545 0.0000 9.5964 0.0000
# 3 32.2875 19.4545 74.7225 0.0000 -17.3826 0.0000
# 4 0.0000 0.0000 0.0000 28.9161 0.0000 2.1289
# 5 -3.2531 9.5964 -17.3826 0.0000 23.4799 0.0000
# 6 0.0000 0.0000 0.0000 2.1289 0.0000 60.4943
#
#
#
# Elastic Compliance Matrix: (Units=1/GPa)
#
#
# Indices 1 2 3 4 5 6 
#
# 1 0.019567 -0.013298 -0.003742 0.000000 0.005376 0.000000
# 2 -0.013298 0.032248 -0.007423 0.000000 -0.020518 0.000000
# 3 -0.003742 -0.007423 0.021162 0.000000 0.018182 0.000000
# 4 0.000000 0.000000 0.000000 0.034673 0.000000 -0.001220
# 5 0.005376 -0.020518 0.018182 0.000000 0.065180 0.000000
# 6 0.000000 0.000000 0.000000 -0.001220 0.000000 0.016573
#
#
# Mechanical properties :
#
#
# Convention : Reuss Voigt Hill
#
# Bulk Modulus (GPa) = 41.57897 44.89731 43.23814
# Shear Modulus (GPa) = 20.29672 31.01157 25.65414
#
# Velocity S-wave (km/s) = 2.94216 3.63676 3.30775
# Velocity P-wave (km/s) = 5.41061 6.06489 5.74707
#
# Compressibility (1/GPa) = 0.02405062
#
# Stress axis : x y z
#
# Youngs Moduli (GPa) = 51.10769 31.00990 47.25476
#
# Poissons Ratio (x) = 0.41237 0.17682
# Poissons Ratio (y) = 0.67964 0.35076
# Poissons Ratio (z) = 0.19124 0.23018
#
# Static dielectric constant tensor:
#      x y z
#    x 4.336520 0.000000 -0.045770 
#    y 0.000000 4.136790 0.000000 
#    z -0.045770 0.000000 4.259980 
# 
# 
# High freq. dielectric constant tensor:
#      x y z
#    x 1.937610 0.000000 -0.004190 
#    y 0.000000 1.919240 0.000000 
#    z -0.004190 0.000000 1.932510 
# 
# From -- ./inp_files/7828.got.cif
#   From: 2010.03.12/outbox.cif.g09.slc.cpg/sg4_4_cif.got.tgz:7828.got - 2010.03.31 09:31:35.
