data_PCOD8046713
_publ_section_title
;
Structure prediction by ZEFSAII (Michael W. Deem and Ramdas Pophale) SiO2 
 PCOD8046713
Probable space group: P 21
;
_chemical_formula_sum "Si O2"
_cell_formula_units_Z 14
_cell_length_a 8.672648
_cell_length_b 5.231439
_cell_length_c 12.837904
_cell_angle_alpha 90.000000
_cell_angle_beta 80.265434
_cell_angle_gamma 90.000000
_cell_volume 574.074726
_symmetry_space_group_name_H-M "P 21"
_symmetry_group_IT_number 4
_symmetry_cell_setting 'monoclinic'
loop_
_space_group_symop_operation_xyz
x,y,z
-x,1/2+y,-z
loop_
_atom_site_type_symbol
_atom_site_label
_atom_site_fract_x
_atom_site_fract_y
_atom_site_fract_z
Si Si1 0.996995 0.281000 0.845215
Si Si2 0.220483 0.392911 0.201508
Si Si3 0.160154 0.082588 0.395841
Si Si4 0.711129 0.021792 0.277315
Si Si5 0.436917 0.023868 0.801566
Si Si6 0.799133 0.081533 0.493771
Si Si7 0.780470 0.608403 0.999650
O O1 0.842958 0.382686 0.920274
O O2 0.105516 0.493610 0.776660
O O3 0.929423 0.082917 0.765669
O O4 0.100151 0.139169 0.919177
O O5 0.185898 0.127100 0.268446
O O6 0.376874 0.523325 0.226739
O O7 0.236087 0.349423 0.075494
O O8 0.244755 0.325931 0.439032
O O9 0.979555 0.080945 0.443447
O O10 0.241908 0.824749 0.428376
O O11 0.624321 0.755051 0.263211
O O12 0.633243 0.252644 0.224968
O O13 0.696442 0.086409 0.400869
O O14 0.387315 0.056292 0.928533
#
# Coordination Sequence:
#
# PCOD8046713 Si02
#       7
#     2   2   2   2   2   2   2
#     4  11  24  41  74 107 140 197 255 304 354 433
#     4  12  28  44  70 109 153 191 246 311 360 444
#     4  10  24  40  71 113 135 177 236 302 367 413
#     4  11  25  48  74 104 145 192 247 303 366 444
#     4  11  29  45  71 107 150 199 240 293 382 442
#     4  10  22  44  73 106 138 177 234 305 361 426
#     4  11  24  42  69 100 147 193 244 296 360 430
#
# _framework density 24.387070999999999
#
# number of rings (size 3 to 8) (size 9 to 14) (size 15 to 20)
#    0.000    1.143    1.429    2.571   20.000    0.000 
#    0.000    2.857    0.000    0.000    0.000    0.000 
#    0.000    0.000    0.000    0.000    0.000    0.000 
#
# Total GULP energy -173586.206310 kJ/mol
# GULP energy per Si atom -12399.014736 kJ/mol
# Density = 2.433156 g / cm^3
# Si number density = 24.387071 Si / 1000 Ang^3
#
#
#
# Elastic Constant Matrix: (Units=GPa)
#
#
# Indices 1 2 3 4 5 6 
#
# 1 93.5224 44.7304 37.3277 0.0000 10.7940 0.0000
# 2 44.7304 143.0951 33.4986 0.0000 16.1433 0.0000
# 3 37.3277 33.4986 109.1344 0.0000 18.2676 0.0000
# 4 0.0000 0.0000 0.0000 45.9923 0.0000 3.1169
# 5 10.7940 16.1433 18.2676 0.0000 20.8875 0.0000
# 6 0.0000 0.0000 0.0000 3.1169 0.0000 25.4708
#
#
#
# Elastic Compliance Matrix: (Units=1/GPa)
#
#
# Indices 1 2 3 4 5 6 
#
# 1 0.013849 -0.003346 -0.003450 0.000000 -0.001554 0.000000
# 2 -0.003346 0.008708 -0.000810 0.000000 -0.004293 0.000000
# 3 -0.003450 -0.000810 0.011936 0.000000 -0.008030 0.000000
# 4 0.000000 0.000000 0.000000 0.021925 0.000000 -0.002683
# 5 -0.001554 -0.004293 -0.008030 0.000000 0.059019 0.000000
# 6 0.000000 0.000000 0.000000 -0.002683 0.000000 0.039589
#
#
# Mechanical properties :
#
#
# Convention : Reuss Voigt Hill
#
# Bulk Modulus (GPa) = 51.86369 64.09613 57.97991
# Shear Modulus (GPa) = 28.30222 33.81646 31.05934
#
# Velocity S-wave (km/s) = 3.41037 3.72782 3.57262
# Velocity P-wave (km/s) = 6.06799 6.69842 6.39098
#
# Compressibility (1/GPa) = 0.01928131
#
# Stress axis : x y z
#
# Youngs Moduli (GPa) = 72.20560 114.83321 83.78278
#
# Poissons Ratio (x) = 0.38427 0.28903
# Poissons Ratio (y) = 0.24163 0.06785
# Poissons Ratio (z) = 0.24909 0.09300
#
# Static dielectric constant tensor:
#      x y z
#    x 4.210130 0.000000 0.052110 
#    y 0.000000 4.508060 0.000000 
#    z 0.052110 0.000000 4.727160 
# 
# 
# High freq. dielectric constant tensor:
#      x y z
#    x 1.952820 0.000000 0.010050 
#    y 0.000000 1.974790 0.000000 
#    z 0.010050 0.000000 1.978690 
# 
# From -- ./inp_files/7286.got.cif
#   From: 2010.03.12/outbox.cif.g09.slc.cpg/sg4_4_cif.got.tgz:7286.got - 2010.03.31 09:31:35.
