data_PCOD8046568
_publ_section_title
;
Structure prediction by ZEFSAII (Michael W. Deem and Ramdas Pophale) SiO2 
 PCOD8046568
Probable space group: P 21
;
_chemical_formula_sum "Si O2"
_cell_formula_units_Z 16
_cell_length_a 11.666624
_cell_length_b 8.140349
_cell_length_c 9.177793
_cell_angle_alpha 90.000000
_cell_angle_beta 126.752283
_cell_angle_gamma 90.000000
_cell_volume 698.366938
_symmetry_space_group_name_H-M "P 21"
_symmetry_group_IT_number 4
_symmetry_cell_setting 'monoclinic'
loop_
_space_group_symop_operation_xyz
x,y,z
-x,1/2+y,-z
loop_
_atom_site_type_symbol
_atom_site_label
_atom_site_fract_x
_atom_site_fract_y
_atom_site_fract_z
Si Si1 0.698549 0.637870 0.412367
Si Si2 0.938246 0.472642 0.940562
Si Si3 0.723649 0.297238 0.987505
Si Si4 0.825415 0.119143 0.332426
Si Si5 0.942885 0.393130 0.610510
Si Si6 0.568101 0.899759 0.120825
Si Si7 0.578213 0.966913 0.797971
Si Si8 0.798078 0.809497 0.766199
O O1 0.829667 0.525515 0.465172
O O2 0.637656 0.727284 0.223514
O O3 0.575729 0.518622 0.386465
O O4 0.746635 0.777612 0.563088
O O5 0.813929 0.386910 0.935098
O O6 0.950989 0.391210 0.790717
O O7 0.895893 0.661563 0.898475
O O8 0.091958 0.462680 0.139326
O O9 0.589506 0.412965 0.928925
O O10 0.676040 0.126512 0.881793
O O11 0.822379 0.255321 0.202130
O O12 0.900375 0.209315 0.526106
O O13 0.663287 0.057260 0.243457
O O14 0.907302 0.952917 0.344988
O O15 0.554852 0.886057 0.937596
O O16 0.655516 0.836046 0.752698
#
# Coordination Sequence:
#
# PCOD8046568 Si02
#       8
#     2   2   2   2   2   2   2   2
#     4  10  23  41  62  95 133 166 213 265 318 385
#     4  11  24  42  63  93 130 171 216 261 320 382
#     4  10  22  41  64  90 127 169 214 264 315 381
#     4  11  23  41  66  93 127 165 214 268 319 377
#     4  11  24  41  63  96 131 167 213 267 321 381
#     4  10  22  42  65  93 126 168 215 265 321 380
#     4  10  22  42  65  93 129 168 216 265 318 381
#     4  11  24  42  66  93 129 170 213 267 320 381
#
# _framework density 22.910592000000001
#
# number of rings (size 3 to 8) (size 9 to 14) (size 15 to 20)
#    0.000    1.500    0.000    5.250    0.000   12.000 
#    0.000    1.250    0.000    0.000    0.000    0.000 
#    0.000    0.000    0.000    0.000    0.000    0.000 
#
# Total GULP energy -198428.493242 kJ/mol
# GULP energy per Si atom -12401.780828 kJ/mol
# Density = 2.285845 g / cm^3
# Si number density = 22.910592 Si / 1000 Ang^3
#
#
#
# Elastic Constant Matrix: (Units=GPa)
#
#
# Indices 1 2 3 4 5 6 
#
# 1 106.5470 18.2413 16.7538 0.0000 -0.1826 0.0000
# 2 18.2413 46.1673 10.0404 0.0000 -3.6946 0.0000
# 3 16.7538 10.0404 50.3569 0.0000 18.7552 0.0000
# 4 0.0000 0.0000 0.0000 41.2553 0.0000 7.0942
# 5 -0.1826 -3.6946 18.7552 0.0000 28.1240 0.0000
# 6 0.0000 0.0000 0.0000 7.0942 0.0000 52.6209
#
#
#
# Elastic Compliance Matrix: (Units=1/GPa)
#
#
# Indices 1 2 3 4 5 6 
#
# 1 0.010507 -0.003197 -0.003629 0.000000 0.002068 0.000000
# 2 -0.003197 0.025040 -0.006847 0.000000 0.007835 0.000000
# 3 -0.003629 -0.006847 0.030300 0.000000 -0.021130 0.000000
# 4 0.000000 0.000000 0.000000 0.024815 0.000000 -0.003345
# 5 0.002068 0.007835 -0.021130 0.000000 0.050690 0.000000
# 6 0.000000 0.000000 0.000000 -0.003345 0.000000 0.019455
#
#
# Mechanical properties :
#
#
# Convention : Reuss Voigt Hill
#
# Bulk Modulus (GPa) = 25.97251 32.57136 29.27193
# Shear Modulus (GPa) = 24.87747 34.93574 29.90661
#
# Velocity S-wave (km/s) = 3.29880 3.90920 3.61690
# Velocity P-wave (km/s) = 5.08631 5.88416 5.49972
#
# Compressibility (1/GPa) = 0.03850225
#
# Stress axis : x y z
#
# Youngs Moduli (GPa) = 95.17518 39.93688 33.00301
#
# Poissons Ratio (x) = 0.12767 0.11975
# Poissons Ratio (y) = 0.30426 0.22597
# Poissons Ratio (z) = 0.34534 0.27344
#
# Static dielectric constant tensor:
#      x y z
#    x 4.187950 0.000000 0.232640 
#    y 0.000000 4.071980 0.000000 
#    z 0.232640 0.000000 4.195690 
# 
# 
# High freq. dielectric constant tensor:
#      x y z
#    x 1.912490 0.000000 0.015370 
#    y 0.000000 1.898430 0.000000 
#    z 0.015370 0.000000 1.902370 
# 
# From -- ./inp_files/7881.got.cif
#   From: 2010.03.12/outbox.cif.g09.slc.cpg/sg4_4_cif.got.tgz:7881.got - 2010.03.31 09:31:35.
