data_PCOD8046002
_publ_section_title
;
Structure prediction by ZEFSAII (Michael W. Deem and Ramdas Pophale) SiO2 
 PCOD8046002
Probable space group: P 21
;
_chemical_formula_sum "Si O2"
_cell_formula_units_Z 14
_cell_length_a 8.570815
_cell_length_b 14.011994
_cell_length_c 7.069751
_cell_angle_alpha 90.000000
_cell_angle_beta 127.688270
_cell_angle_gamma 90.000000
_cell_volume 671.883664
_symmetry_space_group_name_H-M "P 21"
_symmetry_group_IT_number 4
_symmetry_cell_setting 'monoclinic'
loop_
_space_group_symop_operation_xyz
x,y,z
-x,1/2+y,-z
loop_
_atom_site_type_symbol
_atom_site_label
_atom_site_fract_x
_atom_site_fract_y
_atom_site_fract_z
Si Si1 0.907602 0.059970 0.096730
Si Si2 0.092394 0.252894 0.903265
Si Si3 0.318480 0.102603 0.273253
Si Si4 0.360908 0.906433 0.114594
Si Si5 0.756106 0.906433 0.259011
Si Si6 0.681518 0.210263 0.726744
Si Si7 0.081059 0.406432 0.213918
O O1 0.136226 0.091558 0.286546
O O2 0.849651 0.001101 0.239244
O O3 0.764361 0.151307 0.969892
O O4 0.879926 0.998974 0.884609
O O5 0.235640 0.161559 0.030108
O O6 0.120064 0.313889 0.115385
O O7 0.150346 0.311765 0.760754
O O8 0.863771 0.221304 0.713448
O O9 0.499996 0.156434 0.500000
O O10 0.395143 0.999359 0.268996
O O11 0.517993 0.906432 0.057468
O O12 0.395137 0.813509 0.268996
O O13 0.141044 0.906435 0.868252
O O14 0.779048 0.906432 0.501890
#
# Coordination Sequence:
#
# PCOD8046002 Si02
#       7
#     2   2   2   2   2   2   2
#     4   9  21  38  59  87 115 152 194 228 281 347
#     4   9  21  38  59  87 115 152 194 228 281 347
#     4  10  20  39  61  82 116 154 190 237 285 334
#     4  10  22  36  56  88 116 148 196 236 280 346
#     4  11  21  37  62  88 118 151 185 235 288 334
#     4  10  20  39  61  82 116 154 190 237 285 334
#     4   9  19  39  58  84 124 151 185 237 280 332
#
# _framework density 20.836939999999998
#
# number of rings (size 3 to 8) (size 9 to 14) (size 15 to 20)
#    0.000    2.286    0.000    2.571    0.000    4.571 
#    0.000   22.857    0.000    0.000    0.000    0.000 
#    0.000    0.000    0.000    0.000    0.000    0.000 
#
# Total GULP energy -173581.322616 kJ/mol
# GULP energy per Si atom -12398.665901 kJ/mol
# Density = 2.078951 g / cm^3
# Si number density = 20.836940 Si / 1000 Ang^3
#
#
#
# Elastic Constant Matrix: (Units=GPa)
#
#
# Indices 1 2 3 4 5 6 
#
# 1 109.0032 43.1047 39.1323 0.0000 17.2452 0.0000
# 2 43.1047 145.4664 38.3989 0.0000 12.3506 0.0000
# 3 39.1323 38.3989 68.0994 0.0000 1.8928 0.0000
# 4 0.0000 0.0000 0.0000 28.7584 0.0000 11.6221
# 5 17.2452 12.3506 1.8928 0.0000 28.2511 0.0000
# 6 0.0000 0.0000 0.0000 11.6221 0.0000 14.0845
#
#
#
# Elastic Compliance Matrix: (Units=1/GPa)
#
#
# Indices 1 2 3 4 5 6 
#
# 1 0.013249 -0.001619 -0.006508 0.000000 -0.006944 0.000000
# 2 -0.001619 0.008580 -0.003838 0.000000 -0.002506 0.000000
# 3 -0.006508 -0.003838 0.020469 0.000000 0.004279 0.000000
# 4 0.000000 0.000000 0.000000 0.052170 0.000000 -0.043049
# 5 -0.006944 -0.002506 0.004279 0.000000 0.040444 0.000000
# 6 0.000000 0.000000 0.000000 -0.043049 0.000000 0.106523
#
#
# Mechanical properties :
#
#
# Convention : Reuss Voigt Hill
#
# Bulk Modulus (GPa) = 54.43866 62.64898 58.54382
# Shear Modulus (GPa) = 18.41710 27.68100 23.04905
#
# Velocity S-wave (km/s) = 2.97622 3.64876 3.32951
# Velocity P-wave (km/s) = 6.16387 6.91974 6.55271
#
# Compressibility (1/GPa) = 0.01836930
#
# Stress axis : x y z
#
# Youngs Moduli (GPa) = 75.47778 116.55049 48.85370
#
# Poissons Ratio (x) = 0.18864 0.31792
# Poissons Ratio (y) = 0.12216 0.18751
# Poissons Ratio (z) = 0.49118 0.44735
#
# Static dielectric constant tensor:
#      x y z
#    x 3.888950 0.000000 0.308710 
#    y 0.000000 4.079110 0.000000 
#    z 0.308710 0.000000 3.264560 
# 
# 
# High freq. dielectric constant tensor:
#      x y z
#    x 1.820750 0.000000 0.030580 
#    y 0.000000 1.839740 0.000000 
#    z 0.030580 0.000000 1.777680 
# 
# From -- ./inp_files/1697.got.cif
#   From: 2010.03.12/outbox.cif.g09.slc.cpg/sg4_1_cif.got.tgz:1697.got - 2010.03.31 09:31:35.
