data_PCOD8046358
_publ_section_title
;
Structure prediction by ZEFSAII (Michael W. Deem and Ramdas Pophale) SiO2 
 PCOD8046358
Probable space group: P 21
;
_chemical_formula_sum "Si O2"
_cell_formula_units_Z 14
_cell_length_a 16.573575
_cell_length_b 6.887479
_cell_length_c 5.324129
_cell_angle_alpha 90.000000
_cell_angle_beta 114.250749
_cell_angle_gamma 90.000000
_cell_volume 554.120231
_symmetry_space_group_name_H-M "P 21"
_symmetry_group_IT_number 4
_symmetry_cell_setting 'monoclinic'
loop_
_space_group_symop_operation_xyz
x,y,z
-x,1/2+y,-z
loop_
_atom_site_type_symbol
_atom_site_label
_atom_site_fract_x
_atom_site_fract_y
_atom_site_fract_z
Si Si1 0.450373 0.633990 0.231287
Si Si2 0.104152 0.077009 0.410823
Si Si3 0.813289 0.603659 0.982715
Si Si4 0.900520 0.024451 0.139997
Si Si5 0.372958 0.974623 0.388873
Si Si6 0.836434 0.011759 0.559741
Si Si7 0.640863 0.083732 0.394232
O O1 0.420841 0.858813 0.220282
O O2 0.556661 0.617048 0.387365
O O3 0.405966 0.511258 0.406959
O O4 0.420917 0.545536 0.926839
O O5 0.146124 0.992953 0.208125
O O6 0.109737 0.311372 0.414861
O O7 0.156606 0.997229 0.722541
O O8 0.004427 0.002503 0.309397
O O9 0.707109 0.601209 0.823684
O O10 0.849327 0.821855 0.029276
O O11 0.856560 0.130674 0.326876
O O12 0.877648 0.133550 0.847576
O O13 0.339344 0.815208 0.550267
O O14 0.732557 0.970579 0.464477
#
# Coordination Sequence:
#
# PCOD8046358 Si02
#       7
#     2   2   2   2   2   2   2
#     4  10  25  43  71  98 138 174 222 278 330 407
#     4  10  22  41  65  94 132 176 227 272 334 388
#     4  10  23  42  66  96 134 174 223 278 329 398
#     4  10  21  42  64  98 128 179 223 274 331 392
#     4  10  26  45  69 101 137 175 227 271 340 399
#     4  10  21  42  64  95 132 176 220 281 324 399
#     4  10  24  43  65 102 131 174 226 270 342 393
#
# _framework density 25.265273000000001
#
# number of rings (size 3 to 8) (size 9 to 14) (size 15 to 20)
#    0.857    1.143    0.000    1.714    4.000    4.571 
#   15.429    0.000    0.000    0.000    0.000    0.000 
#    0.000    0.000    0.000    0.000    0.000    0.000 
#
# Total GULP energy -173451.935030 kJ/mol
# GULP energy per Si atom -12389.423931 kJ/mol
# Density = 2.520777 g / cm^3
# Si number density = 25.265273 Si / 1000 Ang^3
#
#
#
# Elastic Constant Matrix: (Units=GPa)
#
#
# Indices 1 2 3 4 5 6 
#
# 1 142.2391 13.7329 97.9920 0.0000 11.5642 0.0000
# 2 13.7329 54.3721 -1.5135 0.0000 15.2566 0.0000
# 3 97.9920 -1.5135 258.8158 0.0000 -13.2344 0.0000
# 4 0.0000 0.0000 0.0000 7.1698 0.0000 20.3174
# 5 11.5642 15.2566 -13.2344 0.0000 77.2540 0.0000
# 6 0.0000 0.0000 0.0000 20.3174 0.0000 27.4196
#
#
#
# Elastic Compliance Matrix: (Units=1/GPa)
#
#
# Indices 1 2 3 4 5 6 
#
# 1 0.010082 -0.002164 -0.003920 0.000000 -0.001753 0.000000
# 2 -0.002164 0.019937 0.000758 0.000000 -0.003484 0.000000
# 3 -0.003920 0.000758 0.005422 0.000000 0.001366 0.000000
# 4 0.000000 0.000000 0.000000 -0.126823 0.000000 0.093973
# 5 -0.001753 -0.003484 0.001366 0.000000 0.014129 0.000000
# 6 0.000000 0.000000 0.000000 0.093973 0.000000 -0.033162
#
#
# Mechanical properties :
#
#
# Convention : Reuss Voigt Hill
#
# Bulk Modulus (GPa) = 40.33899 75.09443 57.71671
# Shear Modulus (GPa) = -54.64430 45.38306 -4.63062
#
# Velocity S-wave (km/s) = -4.65566 4.24283 -1.35528
# Velocity P-wave (km/s) = 3.59157 7.33410 4.52160
#
# Compressibility (1/GPa) = 0.02478991
#
# Stress axis : x y z
#
# Youngs Moduli (GPa) = 99.18517 50.15851 184.43209
#
# Poissons Ratio (x) = 0.10852 0.72290
# Poissons Ratio (y) = 0.21460 -0.13973
# Poissons Ratio (z) = 0.38876 -0.03800
#
# Static dielectric constant tensor:
#      x y z
#    x 4.696750 0.000000 -0.837820 
#    y 0.000000 3.909510 0.000000 
#    z -0.837820 0.000000 5.763600 
# 
# 
# High freq. dielectric constant tensor:
#      x y z
#    x 2.006870 0.000000 -0.009090 
#    y 0.000000 1.974420 0.000000 
#    z -0.009090 0.000000 2.029440 
# 
# From -- ./inp_files/2559.got.cif
#   From: 2010.03.12/outbox.cif.g09.slc.cpg/sg4_2_cif.got.tgz:2559.got - 2010.03.31 09:31:35.
