data_PCOD8046189
_publ_section_title
;
Structure prediction by ZEFSAII (Michael W. Deem and Ramdas Pophale) SiO2 
 PCOD8046189
Probable space group: P 21
;
_chemical_formula_sum "Si O2"
_cell_formula_units_Z 16
_cell_length_a 18.447207
_cell_length_b 5.248933
_cell_length_c 8.578603
_cell_angle_alpha 90.000000
_cell_angle_beta 55.074483
_cell_angle_gamma 90.000000
_cell_volume 681.047668
_symmetry_space_group_name_H-M "P 21"
_symmetry_group_IT_number 4
_symmetry_cell_setting 'monoclinic'
loop_
_space_group_symop_operation_xyz
x,y,z
-x,1/2+y,-z
loop_
_atom_site_type_symbol
_atom_site_label
_atom_site_fract_x
_atom_site_fract_y
_atom_site_fract_z
Si Si1 0.676851 0.940910 0.657057
Si Si2 0.230149 0.209668 0.185850
Si Si3 0.097243 0.917163 0.557063
Si Si4 0.910095 0.091148 0.721861
Si Si5 0.242776 0.936883 0.585458
Si Si6 0.493146 0.480573 0.302897
Si Si7 0.750887 0.306895 0.067639
Si Si8 0.591852 0.983263 0.258723
O O1 0.701581 0.900533 0.809744
O O2 0.720672 0.719068 0.497419
O O3 0.707345 0.221656 0.573089
O O4 0.570693 0.951051 0.768058
O O5 0.147181 0.336503 0.198653
O O6 0.183268 0.050990 0.379343
O O7 0.286608 0.030863 0.998952
O O8 0.078313 0.666878 0.475459
O O9 0.136749 0.884088 0.683179
O O10 0.006791 0.075414 0.678671
O O11 0.854529 0.292286 0.892867
O O12 0.262367 0.901557 0.742425
O O13 0.553490 0.234329 0.226612
O O14 0.430267 0.483849 0.531679
O O15 0.554214 0.733176 0.220539
O O16 0.698872 0.033663 0.106957
#
# Coordination Sequence:
#
# PCOD8046189 Si02
#       8
#     2   2   2   2   2   2   2   2
#     4  11  22  43  71 102 132 181 241 279 345 428
#     4  10  23  40  69  96 133 184 231 285 348 417
#     4  10  21  42  66  96 127 183 240 281 335 422
#     4  11  21  41  67  92 133 180 235 285 344 418
#     4  11  24  41  69 102 142 177 230 298 345 418
#     4  10  21  38  68 100 127 176 225 285 336 422
#     4  11  26  41  65 105 139 184 224 303 368 412
#     4  10  22  38  65 101 135 169 224 282 355 411
#
# _framework density 23.493216
#
# number of rings (size 3 to 8) (size 9 to 14) (size 15 to 20)
#    0.000    1.500    3.750    0.750    7.000    0.000 
#    2.250    0.000    2.750    0.000    0.000    0.000 
#    0.000    0.000    0.000    0.000    0.000    0.000 
#
# Total GULP energy -198268.223032 kJ/mol
# GULP energy per Si atom -12391.763940 kJ/mol
# Density = 2.343974 g / cm^3
# Si number density = 23.493216 Si / 1000 Ang^3
#
#
#
# Elastic Constant Matrix: (Units=GPa)
#
#
# Indices 1 2 3 4 5 6 
#
# 1 138.6987 27.1043 36.9753 0.0000 -11.3539 0.0000
# 2 27.1043 98.6761 10.9633 0.0000 -7.8729 0.0000
# 3 36.9753 10.9633 57.6324 0.0000 -5.2273 0.0000
# 4 0.0000 0.0000 0.0000 25.0906 0.0000 3.4735
# 5 -11.3539 -7.8729 -5.2273 0.0000 33.0953 0.0000
# 6 0.0000 0.0000 0.0000 3.4735 0.0000 32.1197
#
#
#
# Elastic Compliance Matrix: (Units=1/GPa)
#
#
# Indices 1 2 3 4 5 6 
#
# 1 0.009136 -0.001765 -0.005356 0.000000 0.001868 0.000000
# 2 -0.001765 0.010852 -0.000764 0.000000 0.001855 0.000000
# 3 -0.005356 -0.000764 0.021051 0.000000 0.001306 0.000000
# 4 0.000000 0.000000 0.000000 0.040461 0.000000 -0.004376
# 5 0.001868 0.001855 0.001306 0.000000 0.031504 0.000000
# 6 0.000000 0.000000 0.000000 -0.004376 0.000000 0.031607
#
#
# Mechanical properties :
#
#
# Convention : Reuss Voigt Hill
#
# Bulk Modulus (GPa) = 39.57357 49.45479 44.51418
# Shear Modulus (GPa) = 29.62025 32.72541 31.17283
#
# Velocity S-wave (km/s) = 3.55463 3.73630 3.64660
# Velocity P-wave (km/s) = 5.80762 6.30156 6.05962
#
# Compressibility (1/GPa) = 0.02526939
#
# Stress axis : x y z
#
# Youngs Moduli (GPa) = 109.46215 92.14975 47.50315
#
# Poissons Ratio (x) = 0.16267 0.25442
# Poissons Ratio (y) = 0.19323 0.03627
# Poissons Ratio (z) = 0.58627 0.07036
#
# Static dielectric constant tensor:
#      x y z
#    x 4.561070 0.000000 -0.005570 
#    y 0.000000 4.333490 0.000000 
#    z -0.005570 0.000000 4.029120 
# 
# 
# High freq. dielectric constant tensor:
#      x y z
#    x 1.940500 0.000000 -0.006870 
#    y 0.000000 1.940220 0.000000 
#    z -0.006870 0.000000 1.906500 
# 
# From -- ./inp_files/9382.got.cif
#   From: 2010.03.12/outbox.cif.g09.slc.cpg/sg4_5_cif.got.tgz:9382.got - 2010.03.31 09:31:35.
