data_PCOD8046504
_publ_section_title
;
Structure prediction by ZEFSAII (Michael W. Deem and Ramdas Pophale) SiO2 
 PCOD8046504
Probable space group: P 21
;
_chemical_formula_sum "Si O2"
_cell_formula_units_Z 16
_cell_length_a 12.033741
_cell_length_b 8.507165
_cell_length_c 15.645380
_cell_angle_alpha 90.000000
_cell_angle_beta 151.778267
_cell_angle_gamma 90.000000
_cell_volume 757.403293
_symmetry_space_group_name_H-M "P 21"
_symmetry_group_IT_number 4
_symmetry_cell_setting 'monoclinic'
loop_
_space_group_symop_operation_xyz
x,y,z
-x,1/2+y,-z
loop_
_atom_site_type_symbol
_atom_site_label
_atom_site_fract_x
_atom_site_fract_y
_atom_site_fract_z
Si Si1 0.118396 0.300540 0.794271
Si Si2 0.441593 0.301647 0.854311
Si Si3 0.226129 0.729244 0.142874
Si Si4 0.835181 0.930061 0.802602
Si Si5 0.361382 0.439635 0.618790
Si Si6 0.928750 0.443906 0.215375
Si Si7 0.411750 0.796629 0.610211
Si Si8 0.387778 0.507693 0.109996
O O1 0.249397 0.337626 0.794795
O O2 0.846003 0.337675 0.597351
O O3 0.161913 0.121865 0.851759
O O4 0.214053 0.412184 0.932385
O O5 0.386661 0.414656 0.737140
O O6 0.433106 0.117358 0.822786
O O7 0.702453 0.333386 0.067768
O O8 0.180970 0.618676 0.194160
O O9 0.475379 0.816879 0.321704
O O10 0.226720 0.620032 0.059089
O O11 0.022250 0.858032 0.996198
O O12 0.586212 0.848170 0.652463
O O13 0.912196 0.900348 0.758363
O O14 0.446271 0.613506 0.652666
O O15 0.090397 0.414261 0.408106
O O16 0.456741 0.891850 0.727465
#
# Coordination Sequence:
#
# PCOD8046504 Si02
#       8
#     2   2   2   2   2   2   2   2
#     4  11  25  42  65  94 128 167 221 263 317 380
#     4  11  23  43  65  93 127 170 214 269 321 372
#     4  10  22  39  67  91 133 169 203 260 322 379
#     4  11  22  41  64  97 131 168 211 257 320 388
#     4  10  22  43  65  94 131 165 213 265 321 378
#     4  11  24  43  67  96 127 169 216 264 320 380
#     4  10  24  42  61  97 129 166 211 261 322 383
#     4  10  22  41  64  92 126 168 213 261 317 380
#
# _framework density 21.124808999999999
#
# number of rings (size 3 to 8) (size 9 to 14) (size 15 to 20)
#    0.000    1.500    2.500    2.250    3.500    8.000 
#    4.500    0.000    0.000    0.000    0.000    0.000 
#    0.000    0.000    0.000    0.000    0.000    0.000 
#
# Total GULP energy -198467.094382 kJ/mol
# GULP energy per Si atom -12404.193399 kJ/mol
# Density = 2.107673 g / cm^3
# Si number density = 21.124809 Si / 1000 Ang^3
#
#
#
# Elastic Constant Matrix: (Units=GPa)
#
#
# Indices 1 2 3 4 5 6 
#
# 1 65.8607 10.4737 17.7808 0.0000 15.8742 0.0000
# 2 10.4737 95.3561 29.3636 0.0000 -4.5804 0.0000
# 3 17.7808 29.3636 81.2290 0.0000 -2.9837 0.0000
# 4 0.0000 0.0000 0.0000 32.4887 0.0000 -0.0546
# 5 15.8742 -4.5804 -2.9837 0.0000 24.0905 0.0000
# 6 0.0000 0.0000 0.0000 -0.0546 0.0000 24.4323
#
#
#
# Elastic Compliance Matrix: (Units=1/GPa)
#
#
# Indices 1 2 3 4 5 6 
#
# 1 0.019967 -0.001531 -0.004331 0.000000 -0.013985 0.000000
# 2 -0.001531 0.011990 -0.003896 0.000000 0.002806 0.000000
# 3 -0.004331 -0.003896 0.014812 0.000000 0.003948 0.000000
# 4 0.000000 0.000000 0.000000 0.030780 0.000000 0.000069
# 5 -0.013985 0.002806 0.003948 0.000000 0.051747 0.000000
# 6 0.000000 0.000000 0.000000 0.000069 0.000000 0.040930
#
#
# Mechanical properties :
#
#
# Convention : Reuss Voigt Hill
#
# Bulk Modulus (GPa) = 36.69344 39.74246 38.21795
# Shear Modulus (GPa) = 25.14758 28.52414 26.83586
#
# Velocity S-wave (km/s) = 3.45400 3.67858 3.56806
# Velocity P-wave (km/s) = 5.77186 6.07426 5.92499
#
# Compressibility (1/GPa) = 0.02725283
#
# Stress axis : x y z
#
# Youngs Moduli (GPa) = 50.08277 83.40509 67.51179
#
# Poissons Ratio (x) = 0.12771 0.29238
# Poissons Ratio (y) = 0.07669 0.26302
# Poissons Ratio (z) = 0.21690 0.32494
#
# Static dielectric constant tensor:
#      x y z
#    x 3.783710 0.000000 0.001850 
#    y 0.000000 4.096000 0.000000 
#    z 0.001850 0.000000 3.766420 
# 
# 
# High freq. dielectric constant tensor:
#      x y z
#    x 1.824650 0.000000 0.002610 
#    y 0.000000 1.840600 0.000000 
#    z 0.002610 0.000000 1.827120 
# 
# From -- ./inp_files/12546.got.cif
#   From: 2010.03.12/outbox.cif.g09.slc.cpg/sg4_7_cif.got.tgz:12546.got - 2010.03.31 09:31:35.
