data_PCOD8046256
_publ_section_title
;
Structure prediction by ZEFSAII (Michael W. Deem and Ramdas Pophale) SiO2 
 PCOD8046256
Probable space group: P 21
;
_chemical_formula_sum "Si O2"
_cell_formula_units_Z 12
_cell_length_a 8.637332
_cell_length_b 9.062881
_cell_length_c 11.648453
_cell_angle_alpha 90.000000
_cell_angle_beta 139.971599
_cell_angle_gamma 90.000000
_cell_volume 586.459554
_symmetry_space_group_name_H-M "P 21"
_symmetry_group_IT_number 4
_symmetry_cell_setting 'monoclinic'
loop_
_space_group_symop_operation_xyz
x,y,z
-x,1/2+y,-z
loop_
_atom_site_type_symbol
_atom_site_label
_atom_site_fract_x
_atom_site_fract_y
_atom_site_fract_z
Si Si1 0.060732 0.370020 0.380881
Si Si2 0.158528 0.056057 0.342490
Si Si3 0.503254 0.559380 0.676555
Si Si4 0.685214 0.364908 0.364617
Si Si5 0.313919 0.384596 0.963121
Si Si6 0.306549 0.043431 0.971070
O O1 0.044395 0.201899 0.331703
O O2 0.336590 0.418173 0.555053
O O3 0.922901 0.386692 0.423086
O O4 0.936122 0.467262 0.211165
O O5 0.333882 0.099517 0.339226
O O6 0.310417 0.971439 0.524620
O O7 0.951158 0.950209 0.176357
O O8 0.326542 0.695635 0.602290
O O9 0.680317 0.528161 0.883953
O O10 0.447712 0.409841 0.159530
O O11 0.301588 0.212017 0.926204
O O12 0.455305 0.465145 0.941744
#
# Coordination Sequence:
#
# PCOD8046256 Si02
#       6
#     2   2   2   2   2   2
#     4  11  23  40  65  89 117 162 206 246 293 356
#     4  12  24  38  61  91 125 157 194 251 310 356
#     4  11  24  40  60  90 124 157 197 249 306 357
#     4  10  22  42  63  86 118 160 207 246 288 357
#     4  10  21  40  63  88 117 157 203 249 295 353
#     4  10  22  40  64  88 117 157 205 249 292 355
#
# _framework density 20.461770000000001
#
# number of rings (size 3 to 8) (size 9 to 14) (size 15 to 20)
#    0.000    1.333    0.000    7.000    0.000    9.333 
#    0.000    0.000    0.000    0.000    0.000    0.000 
#    0.000    0.000    0.000    0.000    0.000    0.000 
#
# Total GULP energy -148887.865074 kJ/mol
# GULP energy per Si atom -12407.322089 kJ/mol
# Density = 2.041520 g / cm^3
# Si number density = 20.461770 Si / 1000 Ang^3
#
#
#
# Elastic Constant Matrix: (Units=GPa)
#
#
# Indices 1 2 3 4 5 6 
#
# 1 79.4289 19.2342 33.9904 0.0000 -19.0967 0.0000
# 2 19.2342 116.4698 47.1457 0.0000 -6.0605 0.0000
# 3 33.9904 47.1457 87.4407 0.0000 -10.7713 0.0000
# 4 0.0000 0.0000 0.0000 27.0925 0.0000 -7.3539
# 5 -19.0967 -6.0605 -10.7713 0.0000 27.5207 0.0000
# 6 0.0000 0.0000 0.0000 -7.3539 0.0000 24.3695
#
#
#
# Elastic Compliance Matrix: (Units=1/GPa)
#
#
# Indices 1 2 3 4 5 6 
#
# 1 0.017324 -0.000145 -0.005441 0.000000 0.009860 0.000000
# 2 -0.000145 0.010984 -0.005863 0.000000 0.000023 0.000000
# 3 -0.005441 -0.005863 0.016904 0.000000 0.001549 0.000000
# 4 0.000000 0.000000 0.000000 0.040204 0.000000 0.012132
# 5 0.009860 0.000023 0.001549 0.000000 0.043789 0.000000
# 6 0.000000 0.000000 0.000000 0.012132 0.000000 0.044696
#
#
# Mechanical properties :
#
#
# Convention : Reuss Voigt Hill
#
# Bulk Modulus (GPa) = 44.81811 53.78666 49.30238
# Shear Modulus (GPa) = 24.48121 27.99449 26.23785
#
# Velocity S-wave (km/s) = 3.46271 3.70285 3.58479
# Velocity P-wave (km/s) = 6.15938 6.68019 6.42506
#
# Compressibility (1/GPa) = 0.02231241
#
# Stress axis : x y z
#
# Youngs Moduli (GPa) = 57.72299 91.03763 59.15894
#
# Poissons Ratio (x) = 0.01323 0.32191
# Poissons Ratio (y) = 0.00839 0.34686
# Poissons Ratio (z) = 0.31410 0.53377
#
# Static dielectric constant tensor:
#      x y z
#    x 3.503010 0.000000 -0.127240 
#    y 0.000000 3.781750 0.000000 
#    z -0.127240 0.000000 3.767600 
# 
# 
# High freq. dielectric constant tensor:
#      x y z
#    x 1.791910 0.000000 -0.006580 
#    y 0.000000 1.811040 0.000000 
#    z -0.006580 0.000000 1.811800 
# 
# From -- ./inp_files/5526.got.cif
#   From: 2010.03.12/outbox.cif.g09.slc.cpg/sg4_3_cif.got.tgz:5526.got - 2010.03.31 09:31:35.
