data_PCOD8046967
_publ_section_title
;
Structure prediction by ZEFSAII (Michael W. Deem and Ramdas Pophale) SiO2 
 PCOD8046967
Probable space group: P 21
;
_chemical_formula_sum "Si O2"
_cell_formula_units_Z 16
_cell_length_a 17.218965
_cell_length_b 5.017795
_cell_length_c 13.175087
_cell_angle_alpha 90.000000
_cell_angle_beta 140.224746
_cell_angle_gamma 90.000000
_cell_volume 728.287118
_symmetry_space_group_name_H-M "P 21"
_symmetry_group_IT_number 4
_symmetry_cell_setting 'monoclinic'
loop_
_space_group_symop_operation_xyz
x,y,z
-x,1/2+y,-z
loop_
_atom_site_type_symbol
_atom_site_label
_atom_site_fract_x
_atom_site_fract_y
_atom_site_fract_z
Si Si1 0.497656 0.327780 0.657627
Si Si2 0.326057 0.142167 0.318114
Si Si3 0.293942 0.473255 0.104330
Si Si4 0.655988 0.553791 0.185280
Si Si5 0.451765 0.555061 0.822959
Si Si6 0.847451 0.491174 0.093514
Si Si7 0.070625 0.962291 0.604095
Si Si8 0.067670 0.977923 0.033759
O O1 0.381188 0.212442 0.482370
O O2 0.580369 0.480781 0.658857
O O3 0.456080 0.521111 0.705982
O O4 0.570868 0.081847 0.782902
O O5 0.287417 0.411609 0.218858
O O6 0.205233 0.968914 0.215354
O O7 0.198075 0.693428 0.973233
O O8 0.266171 0.200027 0.014545
O O9 0.639130 0.844773 0.215978
O O10 0.797282 0.502517 0.310285
O O11 0.602903 0.345413 0.212663
O O12 0.585532 0.524164 0.007256
O O13 0.927230 0.507313 0.273508
O O14 0.931915 0.573262 0.083511
O O15 0.026949 0.662705 0.540834
O O16 0.014258 0.682571 0.986151
#
# Coordination Sequence:
#
# PCOD8046967 Si02
#       8
#     2   2   2   2   2   2   2   2
#     4  12  23  41  69 105 144 174 222 282 351 401
#     4  11  25  40  68 104 141 178 228 280 332 405
#     4  11  21  39  68  99 135 169 228 275 318 405
#     4  10  23  46  66 102 133 172 232 276 340 410
#     4  10  24  42  71  98 137 179 216 282 345 406
#     4  11  24  44  71 101 125 184 238 263 338 402
#     4  12  26  47  75 101 137 175 228 295 337 395
#     4  11  24  45  66  96 138 183 228 275 325 404
#
# _framework density 21.969360999999999
#
# number of rings (size 3 to 8) (size 9 to 14) (size 15 to 20)
#    0.000    1.000    3.750    3.750    1.750    2.000 
#    6.750    0.000    0.000    0.000    0.000    0.000 
#    0.000    0.000    0.000    0.000    0.000    0.000 
#
# Total GULP energy -198426.554405 kJ/mol
# GULP energy per Si atom -12401.659650 kJ/mol
# Density = 2.191936 g / cm^3
# Si number density = 21.969361 Si / 1000 Ang^3
#
#
#
# Elastic Constant Matrix: (Units=GPa)
#
#
# Indices 1 2 3 4 5 6 
#
# 1 75.2497 3.0876 46.9749 0.0000 1.7188 0.0000
# 2 3.0876 81.1726 12.6732 0.0000 -1.1919 0.0000
# 3 46.9749 12.6732 117.7189 0.0000 -11.5021 0.0000
# 4 0.0000 0.0000 0.0000 35.0815 0.0000 5.5575
# 5 1.7188 -1.1919 -11.5021 0.0000 40.2455 0.0000
# 6 0.0000 0.0000 0.0000 5.5575 0.0000 28.8879
#
#
#
# Elastic Compliance Matrix: (Units=1/GPa)
#
#
# Indices 1 2 3 4 5 6 
#
# 1 0.018038 0.000447 -0.007530 0.000000 -0.002909 0.000000
# 2 0.000447 0.012541 -0.001537 0.000000 -0.000087 0.000000
# 3 -0.007530 -0.001537 0.012028 0.000000 0.003714 0.000000
# 4 0.000000 0.000000 0.000000 0.029401 0.000000 -0.005656
# 5 -0.002909 -0.000087 0.003714 0.000000 0.026031 0.000000
# 6 0.000000 0.000000 0.000000 -0.005656 0.000000 0.035705
#
#
# Mechanical properties :
#
#
# Convention : Reuss Voigt Hill
#
# Bulk Modulus (GPa) = 39.42226 44.40140 41.91183
# Shear Modulus (GPa) = 31.35982 34.93669 33.14825
#
# Velocity S-wave (km/s) = 3.78224 3.99212 3.88859
# Velocity P-wave (km/s) = 6.08744 6.44234 6.26740
#
# Compressibility (1/GPa) = 0.02536638
#
# Stress axis : x y z
#
# Youngs Moduli (GPa) = 55.43848 79.73771 83.13901
#
# Poissons Ratio (x) = -0.03563 0.62606
# Poissons Ratio (y) = -0.02477 0.12778
# Poissons Ratio (z) = 0.41747 0.12255
#
# Static dielectric constant tensor:
#      x y z
#    x 3.778580 0.000000 -0.024540 
#    y 0.000000 4.093950 0.000000 
#    z -0.024540 0.000000 4.001340 
# 
# 
# High freq. dielectric constant tensor:
#      x y z
#    x 1.851020 0.000000 -0.001550 
#    y 0.000000 1.881120 0.000000 
#    z -0.001550 0.000000 1.856750 
# 
# From -- ./inp_files/12511.got.cif
#   From: 2010.03.12/outbox.cif.g09.slc.cpg/sg4_7_cif.got.tgz:12511.got - 2010.03.31 09:31:35.
