data_PCOD8046343
_publ_section_title
;
Structure prediction by ZEFSAII (Michael W. Deem and Ramdas Pophale) SiO2 
 PCOD8046343
Probable space group: P 21
;
_chemical_formula_sum "Si O2"
_cell_formula_units_Z 16
_cell_length_a 8.587774
_cell_length_b 5.302749
_cell_length_c 23.264173
_cell_angle_alpha 90.000000
_cell_angle_beta 40.624293
_cell_angle_gamma 90.000000
_cell_volume 689.786007
_symmetry_space_group_name_H-M "P 21"
_symmetry_group_IT_number 4
_symmetry_cell_setting 'monoclinic'
loop_
_space_group_symop_operation_xyz
x,y,z
-x,1/2+y,-z
loop_
_atom_site_type_symbol
_atom_site_label
_atom_site_fract_x
_atom_site_fract_y
_atom_site_fract_z
Si Si1 0.303646 0.384220 0.298907
Si Si2 0.383628 0.090391 0.172160
Si Si3 0.852598 0.603585 0.550992
Si Si4 0.865819 0.859666 0.054134
Si Si5 0.007640 0.727762 0.314181
Si Si6 0.977354 0.874141 0.788632
Si Si7 0.648203 0.001456 0.350625
Si Si8 0.744002 0.686227 0.212058
O O1 0.446803 0.315321 0.199766
O O2 0.243221 0.150954 0.357673
O O3 0.480890 0.569340 0.282723
O O4 0.053071 0.533521 0.354293
O O5 0.252332 0.183738 0.149772
O O6 0.618962 0.931657 0.090533
O O7 0.193412 0.956365 0.267847
O O8 0.635133 0.545408 0.567902
O O9 0.021230 0.359324 0.506444
O O10 0.821423 0.838559 0.134353
O O11 0.950334 0.590483 0.006029
O O12 0.097951 0.611014 0.228605
O O13 0.734979 0.832529 0.381768
O O14 0.208981 0.764555 0.689511
O O15 0.055834 0.967163 0.830298
O O16 0.736057 0.877673 0.266707
#
# Coordination Sequence:
#
# PCOD8046343 Si02
#       8
#     2   2   2   2   2   2   2   2
#     4  11  21  40  72 100 125 175 239 280 326 405
#     4  10  21  41  69  96 128 174 231 281 332 401
#     4  12  27  41  67 101 145 177 220 286 355 409
#     4  12  27  41  67 101 145 177 220 286 355 409
#     4   9  20  37  71  96 126 165 236 283 325 386
#     4   9  20  37  71  96 126 165 236 283 325 386
#     4  10  21  41  69  96 128 174 231 281 332 401
#     4  11  21  40  72 100 125 175 239 280 326 405
#
# _framework density 23.195599000000001
#
# number of rings (size 3 to 8) (size 9 to 14) (size 15 to 20)
#    0.000    1.500    2.500    2.250    7.000    0.000 
#    0.000    0.000   16.500    0.000    0.000    0.000 
#    0.000    0.000    0.000    0.000    0.000    0.000 
#
# Total GULP energy -198229.065839 kJ/mol
# GULP energy per Si atom -12389.316615 kJ/mol
# Density = 2.314280 g / cm^3
# Si number density = 23.195599 Si / 1000 Ang^3
#
#
#
# Elastic Constant Matrix: (Units=GPa)
#
#
# Indices 1 2 3 4 5 6 
#
# 1 141.2783 37.6844 28.2664 0.0000 -27.8271 0.0000
# 2 37.6844 88.7008 21.1866 0.0000 -10.0996 0.0000
# 3 28.2664 21.1866 59.7910 0.0000 -17.3629 0.0000
# 4 0.0000 0.0000 0.0000 39.1015 0.0000 1.7025
# 5 -27.8271 -10.0996 -17.3629 0.0000 27.6213 0.0000
# 6 0.0000 0.0000 0.0000 1.7025 0.0000 45.0046
#
#
#
# Elastic Compliance Matrix: (Units=1/GPa)
#
#
# Indices 1 2 3 4 5 6 
#
# 1 0.009655 -0.002907 -0.001246 0.000000 0.007881 0.000000
# 2 -0.002907 0.013297 -0.003396 0.000000 -0.000201 0.000000
# 3 -0.001246 -0.003396 0.021765 0.000000 0.011185 0.000000
# 4 0.000000 0.000000 0.000000 0.025617 0.000000 -0.000969
# 5 0.007881 -0.000201 0.011185 0.000000 0.051101 0.000000
# 6 0.000000 0.000000 0.000000 -0.000969 0.000000 0.022257
#
#
# Mechanical properties :
#
#
# Convention : Reuss Voigt Hill
#
# Bulk Modulus (GPa) = 33.76107 51.56056 42.66081
# Shear Modulus (GPa) = 29.64497 35.85433 32.74965
#
# Velocity S-wave (km/s) = 3.57885 3.93585 3.76159
# Velocity P-wave (km/s) = 5.62709 6.55221 6.10719
#
# Compressibility (1/GPa) = 0.02961992
#
# Stress axis : x y z
#
# Youngs Moduli (GPa) = 103.57086 75.20424 45.94482
#
# Poissons Ratio (x) = 0.21863 0.05724
# Poissons Ratio (y) = 0.30109 0.15602
# Poissons Ratio (z) = 0.12903 0.25539
#
# Static dielectric constant tensor:
#      x y z
#    x 4.556740 0.000000 -0.213050 
#    y 0.000000 4.460110 0.000000 
#    z -0.213050 0.000000 3.602750 
# 
# 
# High freq. dielectric constant tensor:
#      x y z
#    x 1.939430 0.000000 -0.016630 
#    y 0.000000 1.940460 0.000000 
#    z -0.016630 0.000000 1.848850 
# 
# From -- ./inp_files/14277.got.cif
#   From: 2010.03.12/outbox.cif.g09.slc.cpg/sg4_8_cif.got.tgz:14277.got - 2010.03.31 09:31:35.
