data_PCOD8046331
_publ_section_title
;
Structure prediction by ZEFSAII (Michael W. Deem and Ramdas Pophale) SiO2 
 PCOD8046331
Probable space group: P 21
;
_chemical_formula_sum "Si O2"
_cell_formula_units_Z 16
_cell_length_a 13.598254
_cell_length_b 7.360659
_cell_length_c 8.815400
_cell_angle_alpha 90.000000
_cell_angle_beta 124.342236
_cell_angle_gamma 90.000000
_cell_volume 728.542743
_symmetry_space_group_name_H-M "P 21"
_symmetry_group_IT_number 4
_symmetry_cell_setting 'monoclinic'
loop_
_space_group_symop_operation_xyz
x,y,z
-x,1/2+y,-z
loop_
_atom_site_type_symbol
_atom_site_label
_atom_site_fract_x
_atom_site_fract_y
_atom_site_fract_z
Si Si1 0.450832 0.528970 0.072452
Si Si2 0.905960 0.813001 0.533474
Si Si3 0.640433 0.824396 0.271915
Si Si4 0.399672 0.830677 0.574915
Si Si5 0.387596 0.224772 0.430591
Si Si6 0.983866 0.943294 0.286186
Si Si7 0.159615 0.655696 0.326316
Si Si8 0.243130 0.480700 0.103717
O O1 0.544763 0.684790 0.124141
O O2 0.525700 0.358399 0.205602
O O3 0.353169 0.581582 0.116098
O O4 0.383277 0.497933 0.854685
O O5 0.774612 0.750793 0.364772
O O6 0.970671 0.650373 0.677966
O O7 0.985973 0.870292 0.460049
O O8 0.894825 0.981639 0.637896
O O9 0.617925 0.864491 0.430521
O O10 0.479872 0.724081 0.522067
O O11 0.283811 0.712148 0.514118
O O12 0.357881 0.024505 0.467080
O O13 0.289516 0.295762 0.225667
O O14 0.851688 0.925696 0.105549
O O15 0.068794 0.822176 0.255557
O O16 0.182689 0.618041 0.169333
#
# Coordination Sequence:
#
# PCOD8046331 Si02
#       8
#     2   2   2   2   2   2   2   2
#     4  10  23  39  67 102 137 174 231 282 344 426
#     4  12  26  49  71  98 139 186 234 289 347 423
#     4  11  22  40  65  99 133 181 218 284 344 413
#     4  10  22  41  65 102 139 185 227 287 355 413
#     4  10  21  41  67  98 147 177 228 286 359 427
#     4  12  27  49  71 103 136 185 244 289 349 414
#     4  12  26  44  75  96 139 191 226 297 351 408
#     4  11  25  45  67 104 138 179 238 292 351 418
#
# _framework density 21.961649000000001
#
# number of rings (size 3 to 8) (size 9 to 14) (size 15 to 20)
#    0.000    1.000    3.750    3.750    3.500    1.000 
#    2.250    0.000    0.000    0.000    0.000    0.000 
#    0.000    0.000    0.000    0.000    0.000    0.000 
#
# Total GULP energy -198406.719846 kJ/mol
# GULP energy per Si atom -12400.419990 kJ/mol
# Density = 2.191166 g / cm^3
# Si number density = 21.961649 Si / 1000 Ang^3
#
#
#
# Elastic Constant Matrix: (Units=GPa)
#
#
# Indices 1 2 3 4 5 6 
#
# 1 71.7020 23.3760 7.2262 0.0000 6.1065 0.0000
# 2 23.3760 89.4713 28.8922 0.0000 -0.8288 0.0000
# 3 7.2262 28.8922 95.2574 0.0000 10.2158 0.0000
# 4 0.0000 0.0000 0.0000 31.7375 0.0000 2.8838
# 5 6.1065 -0.8288 10.2158 0.0000 34.3417 0.0000
# 6 0.0000 0.0000 0.0000 2.8838 0.0000 42.0154
#
#
#
# Elastic Compliance Matrix: (Units=1/GPa)
#
#
# Indices 1 2 3 4 5 6 
#
# 1 0.015536 -0.004223 0.000423 0.000000 -0.002990 0.000000
# 2 -0.004223 0.013610 -0.004053 0.000000 0.002285 0.000000
# 3 0.000423 -0.004053 0.012100 0.000000 -0.003772 0.000000
# 4 0.000000 0.000000 0.000000 0.031706 0.000000 -0.002176
# 5 -0.002990 0.002285 -0.003772 0.000000 0.030828 0.000000
# 6 0.000000 0.000000 0.000000 -0.002176 0.000000 0.023950
#
#
# Mechanical properties :
#
#
# Convention : Reuss Voigt Hill
#
# Bulk Modulus (GPa) = 39.15517 41.71326 40.43421
# Shear Modulus (GPa) = 32.90590 34.74802 33.82696
#
# Velocity S-wave (km/s) = 3.87503 3.98202 3.92889
# Velocity P-wave (km/s) = 6.15538 6.33852 6.24763
#
# Compressibility (1/GPa) = 0.02553941
#
# Stress axis : x y z
#
# Youngs Moduli (GPa) = 64.36870 73.47512 82.64770
#
# Poissons Ratio (x) = 0.31031 -0.03497
# Poissons Ratio (y) = 0.27185 0.33495
# Poissons Ratio (z) = -0.02724 0.29777
#
# Static dielectric constant tensor:
#      x y z
#    x 4.136510 0.000000 -0.025080 
#    y 0.000000 3.770790 0.000000 
#    z -0.025080 0.000000 3.921670 
# 
# 
# High freq. dielectric constant tensor:
#      x y z
#    x 1.878310 0.000000 -0.002340 
#    y 0.000000 1.851580 0.000000 
#    z -0.002340 0.000000 1.862350 
# 
# From -- ./inp_files/8028.got.cif
#   From: 2010.03.12/outbox.cif.g09.slc.cpg/sg4_5_cif.got.tgz:8028.got - 2010.03.31 09:31:35.
