data_PCOD8046480
_publ_section_title
;
Structure prediction by ZEFSAII (Michael W. Deem and Ramdas Pophale) SiO2 
 PCOD8046480
Probable space group: P 21
;
_chemical_formula_sum "Si O2"
_cell_formula_units_Z 16
_cell_length_a 6.950436
_cell_length_b 13.461249
_cell_length_c 11.446663
_cell_angle_alpha 90.000000
_cell_angle_beta 135.475780
_cell_angle_gamma 90.000000
_cell_volume 750.973897
_symmetry_space_group_name_H-M "P 21"
_symmetry_group_IT_number 4
_symmetry_cell_setting 'monoclinic'
loop_
_space_group_symop_operation_xyz
x,y,z
-x,1/2+y,-z
loop_
_atom_site_type_symbol
_atom_site_label
_atom_site_fract_x
_atom_site_fract_y
_atom_site_fract_z
Si Si1 0.001696 0.434770 0.604090
Si Si2 0.617788 0.965629 0.915731
Si Si3 0.675294 0.728974 0.687739
Si Si4 0.175799 0.611071 0.820887
Si Si5 0.040272 0.015511 0.659922
Si Si6 0.386612 0.450414 0.350179
Si Si7 0.305473 0.234372 0.032222
Si Si8 0.951472 0.222668 0.663108
O O1 0.008633 0.439883 0.467456
O O2 0.699690 0.446608 0.529606
O O3 0.099095 0.324191 0.682713
O O4 0.191489 0.525268 0.728851
O O5 0.610226 0.996025 0.777256
O O6 0.705390 0.853457 0.976261
O O7 0.316503 0.979335 0.843010
O O8 0.814705 0.048053 0.055770
O O9 0.760347 0.843665 0.716264
O O10 0.698067 0.696548 0.834678
O O11 0.374209 0.720903 0.500645
O O12 0.885933 0.667918 0.698706
O O13 0.419819 0.689780 0.908241
O O14 0.072502 0.131688 0.637419
O O15 0.783236 0.018525 0.635936
O O16 0.041504 0.203207 0.838490
#
# Coordination Sequence:
#
# PCOD8046480 Si02
#       8
#     2   2   2   2   2   2   2   2
#     4  10  23  40  63  94 128 165 211 271 318 373
#     4  10  22  38  63  90 128 163 209 266 314 371
#     4  10  24  41  63  94 128 171 211 268 317 376
#     4  12  22  40  65  94 125 168 215 258 319 386
#     4  11  21  40  65  91 122 174 211 259 322 384
#     4   9  21  41  61  89 124 164 211 260 317 376
#     4  11  23  44  65  94 134 169 211 268 319 376
#     4  11  22  42  65  92 131 166 213 266 320 376
#
# _framework density 21.305669000000002
#
# number of rings (size 3 to 8) (size 9 to 14) (size 15 to 20)
#    0.000    1.500    2.500    3.000    1.750    1.000 
#    0.000    3.750    0.000    0.000    0.000    0.000 
#    0.000    0.000    0.000    0.000    0.000    0.000 
#
# Total GULP energy -198274.172846 kJ/mol
# GULP energy per Si atom -12392.135803 kJ/mol
# Density = 2.125718 g / cm^3
# Si number density = 21.305669 Si / 1000 Ang^3
#
#
#
# Elastic Constant Matrix: (Units=GPa)
#
#
# Indices 1 2 3 4 5 6 
#
# 1 75.2708 25.5676 26.6664 0.0000 1.1207 0.0000
# 2 25.5676 81.5518 21.2389 0.0000 -4.8323 0.0000
# 3 26.6664 21.2389 118.7478 0.0000 -3.4254 0.0000
# 4 0.0000 0.0000 0.0000 33.6701 0.0000 -0.2586
# 5 1.1207 -4.8323 -3.4254 0.0000 19.9613 0.0000
# 6 0.0000 0.0000 0.0000 -0.2586 0.0000 21.0261
#
#
#
# Elastic Compliance Matrix: (Units=1/GPa)
#
#
# Indices 1 2 3 4 5 6 
#
# 1 0.015809 -0.004361 -0.002840 0.000000 -0.002431 0.000000
# 2 -0.004361 0.014214 -0.001464 0.000000 0.003435 0.000000
# 3 -0.002840 -0.001464 0.009362 0.000000 0.001412 0.000000
# 4 0.000000 0.000000 0.000000 0.029703 0.000000 0.000365
# 5 -0.002431 0.003435 0.001412 0.000000 0.051307 0.000000
# 6 0.000000 0.000000 0.000000 0.000365 0.000000 0.047564
#
#
# Mechanical properties :
#
#
# Convention : Reuss Voigt Hill
#
# Bulk Modulus (GPa) = 45.34159 46.94623 46.14391
# Shear Modulus (GPa) = 25.95512 28.40468 27.17990
#
# Velocity S-wave (km/s) = 3.49410 3.65526 3.57559
# Velocity P-wave (km/s) = 6.13237 6.31641 6.22507
#
# Compressibility (1/GPa) = 0.02205481
#
# Stress axis : x y z
#
# Youngs Moduli (GPa) = 63.25519 70.35300 106.81946
#
# Poissons Ratio (x) = 0.30678 0.30340
# Poissons Ratio (y) = 0.27583 0.15638
# Poissons Ratio (z) = 0.17966 0.10299
#
# Static dielectric constant tensor:
#      x y z
#    x 3.491420 0.000000 -0.035670 
#    y 0.000000 4.062540 0.000000 
#    z -0.035670 0.000000 4.038470 
# 
# 
# High freq. dielectric constant tensor:
#      x y z
#    x 1.802820 0.000000 -0.003470 
#    y 0.000000 1.854260 0.000000 
#    z -0.003470 0.000000 1.842430 
# 
# From -- ./inp_files/1873.got.cif
#   From: 2010.03.12/outbox.cif.g09.slc.cpg/sg4_1_cif.got.tgz:1873.got - 2010.03.31 09:31:35.
