data_PCOD8046738
_publ_section_title
;
Structure prediction by ZEFSAII (Michael W. Deem and Ramdas Pophale) SiO2 
 PCOD8046738
Probable space group: P 21
;
_chemical_formula_sum "Si O2"
_cell_formula_units_Z 16
_cell_length_a 12.346202
_cell_length_b 9.479289
_cell_length_c 5.355871
_cell_angle_alpha 90.000000
_cell_angle_beta 84.975565
_cell_angle_gamma 90.000000
_cell_volume 624.406237
_symmetry_space_group_name_H-M "P 21"
_symmetry_group_IT_number 4
_symmetry_cell_setting 'monoclinic'
loop_
_space_group_symop_operation_xyz
x,y,z
-x,1/2+y,-z
loop_
_atom_site_type_symbol
_atom_site_label
_atom_site_fract_x
_atom_site_fract_y
_atom_site_fract_z
Si Si1 0.099252 0.596580 0.226972
Si Si2 0.716962 0.076315 0.434314
Si Si3 0.684224 0.518248 0.742848
Si Si4 0.206345 0.814710 0.907348
Si Si5 0.193394 0.355719 0.934369
Si Si6 0.861591 0.589190 0.356201
Si Si7 0.506683 0.907730 0.503917
Si Si8 0.581661 0.776135 0.976909
O O1 0.211434 0.626859 0.347805
O O2 0.988199 0.607079 0.409852
O O3 0.102368 0.722511 0.022222
O O4 0.100443 0.439898 0.103638
O O5 0.710842 0.207004 0.244024
O O6 0.781946 0.940000 0.323509
O O7 0.592643 0.035492 0.517426
O O8 0.783826 0.613998 0.611757
O O9 0.613585 0.469093 0.517035
O O10 0.606923 0.608994 0.943552
O O11 0.728644 0.383900 0.877793
O O12 0.158630 0.930773 0.730877
O O13 0.162066 0.196439 0.866248
O O14 0.303434 0.357274 0.077744
O O15 0.504055 0.822519 0.764686
O O16 0.532731 0.806682 0.260076
#
# Coordination Sequence:
#
# PCOD8046738 Si02
#       8
#     2   2   2   2   2   2   2   2
#     4  11  24  46  76 105 148 205 256 317 391 462
#     4  10  23  46  73 105 147 198 258 313 385 460
#     4  12  28  45  74 112 156 194 257 321 394 451
#     4  11  26  46  68 110 151 194 253 328 380 463
#     4  10  22  45  73 101 148 196 263 306 382 464
#     4  12  26  45  73 110 154 199 255 324 388 465
#     4  11  27  46  82 111 152 205 257 316 392 463
#     4  11  24  49  75 112 148 207 255 317 378 464
#
# _framework density 25.624344000000001
#
# number of rings (size 3 to 8) (size 9 to 14) (size 15 to 20)
#    0.000    1.000    2.500    3.000    3.500    5.000 
#    0.000    0.000    0.000    0.000    0.000    0.000 
#    0.000    0.000    0.000    0.000    0.000    0.000 
#
# Total GULP energy -198390.338353 kJ/mol
# GULP energy per Si atom -12399.396147 kJ/mol
# Density = 2.556602 g / cm^3
# Si number density = 25.624344 Si / 1000 Ang^3
#
#
#
# Elastic Constant Matrix: (Units=GPa)
#
#
# Indices 1 2 3 4 5 6 
#
# 1 78.0590 13.2461 2.1169 0.0000 4.3415 0.0000
# 2 13.2461 118.4126 17.5802 0.0000 -0.1922 0.0000
# 3 2.1169 17.5802 84.9330 0.0000 9.4804 0.0000
# 4 0.0000 0.0000 0.0000 42.5418 0.0000 6.5063
# 5 4.3415 -0.1922 9.4804 0.0000 28.5606 0.0000
# 6 0.0000 0.0000 0.0000 6.5063 0.0000 23.2342
#
#
#
# Elastic Compliance Matrix: (Units=1/GPa)
#
#
# Indices 1 2 3 4 5 6 
#
# 1 0.013177 -0.001510 0.000217 0.000000 -0.002085 0.000000
# 2 -0.001510 0.008899 -0.001907 0.000000 0.000922 0.000000
# 3 0.000217 -0.001907 0.012637 0.000000 -0.004240 0.000000
# 4 0.000000 0.000000 0.000000 0.024558 0.000000 -0.006877
# 5 -0.002085 0.000922 -0.004240 0.000000 0.036744 0.000000
# 6 0.000000 0.000000 0.000000 -0.006877 0.000000 0.044966
#
#
# Mechanical properties :
#
#
# Convention : Reuss Voigt Hill
#
# Bulk Modulus (GPa) = 35.32044 38.58789 36.95416
# Shear Modulus (GPa) = 31.88414 35.43141 33.65777
#
# Velocity S-wave (km/s) = 3.53128 3.72253 3.62817
# Velocity P-wave (km/s) = 5.51728 5.79380 5.65723
#
# Compressibility (1/GPa) = 0.02831222
#
# Stress axis : x y z
#
# Youngs Moduli (GPa) = 75.88932 112.37758 79.13462
#
# Poissons Ratio (x) = 0.16965 -0.01716
# Poissons Ratio (y) = 0.11456 0.15093
# Poissons Ratio (z) = -0.01645 0.21433
#
# Static dielectric constant tensor:
#      x y z
#    x 4.461490 0.000000 -0.007360 
#    y 0.000000 4.713710 0.000000 
#    z -0.007360 0.000000 4.374060 
# 
# 
# High freq. dielectric constant tensor:
#      x y z
#    x 2.015840 0.000000 0.002440 
#    y 0.000000 2.035590 0.000000 
#    z 0.002440 0.000000 2.015200 
# 
# From -- ./inp_files/2664.got.cif
#   From: 2010.03.12/outbox.cif.g09.slc.cpg/sg4_2_cif.got.tgz:2664.got - 2010.03.31 09:31:35.
