data_PCOD8046520
_publ_section_title
;
Structure prediction by ZEFSAII (Michael W. Deem and Ramdas Pophale) SiO2 
 PCOD8046520
Probable space group: P 21
;
_chemical_formula_sum "Si O2"
_cell_formula_units_Z 16
_cell_length_a 6.502713
_cell_length_b 14.794687
_cell_length_c 10.250358
_cell_angle_alpha 90.000000
_cell_angle_beta 133.606856
_cell_angle_gamma 90.000000
_cell_volume 714.054818
_symmetry_space_group_name_H-M "P 21"
_symmetry_group_IT_number 4
_symmetry_cell_setting 'monoclinic'
loop_
_space_group_symop_operation_xyz
x,y,z
-x,1/2+y,-z
loop_
_atom_site_type_symbol
_atom_site_label
_atom_site_fract_x
_atom_site_fract_y
_atom_site_fract_z
Si Si1 0.091676 0.917780 0.493856
Si Si2 0.405369 0.688083 0.790439
Si Si3 0.569640 0.991448 0.881774
Si Si4 0.023903 0.863845 0.978640
Si Si5 0.636622 0.195105 0.921917
Si Si6 0.517259 0.991477 0.149112
Si Si7 0.815922 0.745631 0.477021
Si Si8 0.429819 0.306703 0.380541
O O1 0.311232 0.981623 0.667187
O O2 0.282933 0.863846 0.470295
O O3 0.852149 0.974310 0.315253
O O4 0.936993 0.847502 0.522341
O O5 0.553062 0.591548 0.829863
O O6 0.549639 0.757967 0.753507
O O7 0.073410 0.676547 0.609843
O O8 0.417823 0.717859 0.948581
O O9 0.717094 0.090371 0.929414
O O10 0.429193 0.987163 0.960749
O O11 0.800795 0.910277 0.980180
O O12 0.115034 0.757863 0.033089
O O13 0.316430 0.917905 0.127290
O O14 0.854736 0.868671 0.764626
O O15 0.340204 0.217609 0.722786
O O16 0.608095 0.740825 0.512764
#
# Coordination Sequence:
#
# PCOD8046520 Si02
#       8
#     2   2   2   2   2   2   2   2
#     4  10  22  40  63  95 128 168 217 266 326 384
#     4  10  24  43  65  94 134 170 216 272 329 386
#     4  10  25  43  63  96 135 167 219 274 327 385
#     4  11  23  40  66  95 129 171 217 268 324 391
#     4  11  23  43  68  95 130 173 218 271 324 390
#     4  11  23  41  66  93 126 174 218 268 325 390
#     4  11  21  41  66  96 127 171 217 268 322 395
#     4  10  23  41  67  92 133 174 210 269 329 385
#
# _framework density 22.407246000000001
#
# number of rings (size 3 to 8) (size 9 to 14) (size 15 to 20)
#    0.000    1.500    2.500    1.500    7.000    0.000 
#    2.250    3.750    0.000    0.000    0.000    0.000 
#    0.000    0.000    0.000    0.000    0.000    0.000 
#
# Total GULP energy -198216.686640 kJ/mol
# GULP energy per Si atom -12388.542915 kJ/mol
# Density = 2.235625 g / cm^3
# Si number density = 22.407246 Si / 1000 Ang^3
#
#
#
# Elastic Constant Matrix: (Units=GPa)
#
#
# Indices 1 2 3 4 5 6 
#
# 1 56.1418 19.4023 29.7447 0.0000 10.0810 0.0000
# 2 19.4023 94.3095 7.0986 0.0000 -0.0193 0.0000
# 3 29.7447 7.0986 114.1748 0.0000 15.5769 0.0000
# 4 0.0000 0.0000 0.0000 29.8937 0.0000 5.7549
# 5 10.0810 -0.0193 15.5769 0.0000 31.6276 0.0000
# 6 0.0000 0.0000 0.0000 5.7549 0.0000 23.8937
#
#
#
# Elastic Compliance Matrix: (Units=1/GPa)
#
#
# Indices 1 2 3 4 5 6 
#
# 1 0.022829 -0.004320 -0.005023 0.000000 -0.004805 0.000000
# 2 -0.004320 0.011474 0.000239 0.000000 0.001266 0.000000
# 3 -0.005023 0.000239 0.010542 0.000000 -0.003591 0.000000
# 4 0.000000 0.000000 0.000000 0.035078 0.000000 -0.008449
# 5 -0.004805 0.001266 -0.003591 0.000000 0.034919 0.000000
# 6 0.000000 0.000000 0.000000 -0.008449 0.000000 0.043887
#
#
# Mechanical properties :
#
#
# Convention : Reuss Voigt Hill
#
# Bulk Modulus (GPa) = 37.53978 41.90189 39.72084
# Shear Modulus (GPa) = 26.90826 30.97502 28.94164
#
# Velocity S-wave (km/s) = 3.46912 3.72205 3.59781
# Velocity P-wave (km/s) = 5.73029 6.10019 5.91813
#
# Compressibility (1/GPa) = 0.02663841
#
# Stress axis : x y z
#
# Youngs Moduli (GPa) = 43.80380 87.15132 94.85692
#
# Poissons Ratio (x) = 0.37645 0.47649
# Poissons Ratio (y) = 0.18921 -0.02269
# Poissons Ratio (z) = 0.22004 -0.02085
#
# Static dielectric constant tensor:
#      x y z
#    x 3.861600 0.000000 0.211060 
#    y 0.000000 4.139180 0.000000 
#    z 0.211060 0.000000 4.054240 
# 
# 
# High freq. dielectric constant tensor:
#      x y z
#    x 1.865250 0.000000 0.017490 
#    y 0.000000 1.879800 0.000000 
#    z 0.017490 0.000000 1.891450 
# 
# From -- ./inp_files/1869.got.cif
#   From: 2010.03.12/outbox.cif.g09.slc.cpg/sg4_1_cif.got.tgz:1869.got - 2010.03.31 09:31:35.
