data_PCOD8046553
_publ_section_title
;
Structure prediction by ZEFSAII (Michael W. Deem and Ramdas Pophale) SiO2 
 PCOD8046553
Probable space group: P 21
;
_chemical_formula_sum "Si O2"
_cell_formula_units_Z 12
_cell_length_a 13.358877
_cell_length_b 5.137498
_cell_length_c 26.243704
_cell_angle_alpha 90.000000
_cell_angle_beta 16.372976
_cell_angle_gamma 90.000000
_cell_volume 507.720631
_symmetry_space_group_name_H-M "P 21"
_symmetry_group_IT_number 4
_symmetry_cell_setting 'monoclinic'
loop_
_space_group_symop_operation_xyz
x,y,z
-x,1/2+y,-z
loop_
_atom_site_type_symbol
_atom_site_label
_atom_site_fract_x
_atom_site_fract_y
_atom_site_fract_z
Si Si1 0.359453 0.899840 0.086276
Si Si2 0.311651 0.677815 0.733191
Si Si3 0.640036 0.077315 0.403401
Si Si4 0.775276 0.828388 0.595612
Si Si5 0.592928 0.931864 0.080749
Si Si6 0.687839 0.442514 0.089149
O O1 0.337468 0.881851 0.157695
O O2 0.325172 0.606572 0.080836
O O3 0.060639 0.071506 0.204436
O O4 0.455623 0.552887 0.610138
O O5 0.650850 0.792419 0.597850
O O6 0.016265 0.895359 0.861735
O O7 0.109619 0.468917 0.869679
O O8 0.510465 0.345381 0.489696
O O9 0.401869 0.875760 0.808596
O O10 0.968668 0.575594 0.524069
O O11 0.483654 0.713212 0.175893
O O12 0.517431 0.219401 0.137278
#
# Coordination Sequence:
#
# PCOD8046553 Si02
#       6
#     2   2   2   2   2   2
#     4  12  22  43  72  99 136 186 248 281 337 427
#     4  10  27  48  74  98 146 193 243 280 357 430
#     4  12  28  45  69 107 150 189 230 299 366 407
#     4  12  29  46  74 110 148 177 233 306 369 414
#     4  10  22  40  76 100 131 182 249 282 330 410
#     4  10  24  44  75 100 139 189 241 278 355 428
#
# _framework density 23.635045999999999
#
# number of rings (size 3 to 8) (size 9 to 14) (size 15 to 20)
#    1.000    0.000    1.667    4.000    7.000    4.000 
#    0.000    0.000    0.000    0.000    0.000    0.000 
#    0.000    0.000    0.000    0.000    0.000    0.000 
#
# Total GULP energy -148684.784999 kJ/mol
# GULP energy per Si atom -12390.398750 kJ/mol
# Density = 2.358125 g / cm^3
# Si number density = 23.635046 Si / 1000 Ang^3
#
#
#
# Elastic Constant Matrix: (Units=GPa)
#
#
# Indices 1 2 3 4 5 6 
#
# 1 154.8699 27.8958 40.1112 0.0001 -4.6756 0.0030
# 2 27.8958 149.3038 17.7413 0.0067 3.8592 0.0033
# 3 40.1112 17.7413 55.9100 -0.0070 9.5137 0.0021
# 4 0.0001 0.0067 -0.0070 11.8118 -0.0046 -8.3825
# 5 -4.6756 3.8592 9.5137 -0.0046 34.8774 -0.0043
# 6 0.0030 0.0033 0.0021 -8.3825 -0.0043 27.9860
#
#
#
# Elastic Compliance Matrix: (Units=1/GPa)
#
#
# Indices 1 2 3 4 5 6 
#
# 1 0.008302 -0.000893 -0.006165 -0.000003 0.002893 -0.000001
# 2 -0.000893 0.007057 -0.001516 -0.000007 -0.000487 -0.000003
# 3 -0.006165 -0.001516 0.024017 0.000014 -0.007210 0.000002
# 4 -0.000003 -0.000007 0.000014 0.107515 0.000015 0.032203
# 5 0.002893 -0.000487 -0.007210 0.000015 0.031080 0.000009
# 6 -0.000001 -0.000003 0.000002 0.032203 0.000009 0.045378
#
#
# Mechanical properties :
#
#
# Convention : Reuss Voigt Hill
#
# Bulk Modulus (GPa) = 44.98812 59.06447 52.02630
# Shear Modulus (GPa) = 20.16894 33.22406 26.69650
#
# Velocity S-wave (km/s) = 2.92438 3.75335 3.36449
# Velocity P-wave (km/s) = 5.52073 6.62027 6.09535
#
# Compressibility (1/GPa) = 0.02222809
#
# Stress axis : x y z
#
# Youngs Moduli (GPa) = 120.45271 141.69612 41.63803
#
# Poissons Ratio (x) = 0.12659 0.25670
# Poissons Ratio (y) = 0.10761 0.06311
# Poissons Ratio (z) = 0.74258 0.21475
#
# Static dielectric constant tensor:
#      x y z
#    x 4.059730 0.000010 0.105940 
#    y 0.000010 4.159330 -0.000060 
#    z 0.105940 -0.000060 4.223930 
# 
# 
# High freq. dielectric constant tensor:
#      x y z
#    x 1.936590 0.000000 0.005950 
#    y 0.000000 1.945730 0.000000 
#    z 0.005950 0.000000 1.915010 
# 
# From -- ./inp_files/16097.got.cif
#   From: 2010.03.12/outbox.cif.g09.slc.cpg/sg4_9_cif.got.tgz:16097.got - 2010.03.31 09:31:35.
