data_PCOD8046019
_publ_section_title
;
Structure prediction by ZEFSAII (Michael W. Deem and Ramdas Pophale) SiO2 
 PCOD8046019
Probable space group: P 21
;
_chemical_formula_sum "Si O2"
_cell_formula_units_Z 16
_cell_length_a 7.600425
_cell_length_b 4.703171
_cell_length_c 16.296629
_cell_angle_alpha 90.000000
_cell_angle_beta 81.313721
_cell_angle_gamma 90.000000
_cell_volume 575.859208
_symmetry_space_group_name_H-M "P 21"
_symmetry_group_IT_number 4
_symmetry_cell_setting 'monoclinic'
loop_
_space_group_symop_operation_xyz
x,y,z
-x,1/2+y,-z
loop_
_atom_site_type_symbol
_atom_site_label
_atom_site_fract_x
_atom_site_fract_y
_atom_site_fract_z
Si Si1 0.387266 0.029900 0.023736
Si Si2 0.096391 0.652449 0.959399
Si Si3 0.318601 0.108382 0.210745
Si Si4 0.864296 0.268107 0.222707
Si Si5 0.099512 0.629952 0.304952
Si Si6 0.464136 0.128021 0.742129
Si Si7 0.123421 0.569356 0.477560
Si Si8 0.262920 0.365288 0.626709
O O1 0.294567 0.124355 0.115082
O O2 0.444488 0.316640 0.971582
O O3 0.264032 0.834074 0.976077
O O4 0.100073 0.588629 0.861785
O O5 0.921512 0.848260 0.993475
O O6 0.359957 0.426368 0.249377
O O7 0.156533 0.937082 0.265591
O O8 0.497812 0.927970 0.215979
O O9 0.722520 0.516347 0.208558
O O10 0.770383 0.103307 0.302159
O O11 0.063926 0.392364 0.235102
O O12 0.208344 0.533977 0.379693
O O13 0.902375 0.651452 0.357394
O O14 0.439775 0.194688 0.645491
O O15 0.941693 0.390940 0.504541
O O16 0.277472 0.492438 0.533989
#
# Coordination Sequence:
#
# PCOD8046019 Si02
#       8
#     2   2   2   2   2   2   2   2
#     4  12  26  46  67  97 138 193 238 291 350 428
#     4  12  28  43  66 101 140 176 231 305 356 404
#     4  12  25  43  68 101 142 183 241 293 359 418
#     4  11  22  44  71  98 135 188 239 280 358 430
#     4  10  24  39  72 108 139 180 230 305 354 416
#     4  11  25  42  70  97 135 191 234 280 346 441
#     4  10  20  39  66 108 138 174 231 291 353 421
#     4  10  22  42  74 102 139 183 238 287 352 438
#
# _framework density 27.784569000000001
#
# number of rings (size 3 to 8) (size 9 to 14) (size 15 to 20)
#    0.000    1.000    2.500    3.750    7.000    0.000 
#    0.000    0.000    2.750    0.000    0.000    0.000 
#    0.000    0.000    0.000    0.000    0.000    0.000 
#
# Total GULP energy -198320.368700 kJ/mol
# GULP energy per Si atom -12395.023044 kJ/mol
# Density = 2.772133 g / cm^3
# Si number density = 27.784569 Si / 1000 Ang^3
#
#
#
# Elastic Constant Matrix: (Units=GPa)
#
#
# Indices 1 2 3 4 5 6 
#
# 1 77.4153 -9.5317 17.2465 0.0000 17.3937 0.0000
# 2 -9.5317 114.6892 38.1614 0.0000 3.8047 0.0000
# 3 17.2465 38.1614 176.7503 0.0000 19.8013 0.0000
# 4 0.0000 0.0000 0.0000 43.3963 0.0000 4.7855
# 5 17.3937 3.8047 19.8013 0.0000 32.9529 0.0000
# 6 0.0000 0.0000 0.0000 4.7855 0.0000 43.6009
#
#
#
# Elastic Compliance Matrix: (Units=1/GPa)
#
#
# Indices 1 2 3 4 5 6 
#
# 1 0.015069 0.001843 -0.001022 0.000000 -0.007552 0.000000
# 2 0.001843 0.009620 -0.002170 0.000000 -0.000780 0.000000
# 3 -0.001022 -0.002170 0.006580 0.000000 -0.003164 0.000000
# 4 0.000000 0.000000 0.000000 0.023326 0.000000 -0.002560
# 5 -0.007552 -0.000780 -0.003164 0.000000 0.036324 0.000000
# 6 0.000000 0.000000 0.000000 -0.002560 0.000000 0.023216
#
#
# Mechanical properties :
#
#
# Convention : Reuss Voigt Hill
#
# Bulk Modulus (GPa) = 34.99930 51.17857 43.08894
# Shear Modulus (GPa) = 39.57047 45.52191 42.54619
#
# Velocity S-wave (km/s) = 3.77794 4.05209 3.91741
# Velocity P-wave (km/s) = 5.62623 6.35235 6.00028
#
# Compressibility (1/GPa) = 0.02857200
#
# Stress axis : x y z
#
# Youngs Moduli (GPa) = 66.36200 103.94869 151.96839
#
# Poissons Ratio (x) = -0.19158 0.15534
# Poissons Ratio (y) = -0.12231 0.32970
# Poissons Ratio (z) = 0.06783 0.22552
#
# Static dielectric constant tensor:
#      x y z
#    x 5.429620 0.000000 0.412970 
#    y 0.000000 5.324640 0.000000 
#    z 0.412970 0.000000 5.127600 
# 
# 
# High freq. dielectric constant tensor:
#      x y z
#    x 2.139920 0.000000 0.025500 
#    y 0.000000 2.137150 0.000000 
#    z 0.025500 0.000000 2.115400 
# 
# From -- ./inp_files/14802.got.cif
#   From: 2010.03.12/outbox.cif.g09.slc.cpg/sg4_8_cif.got.tgz:14802.got - 2010.03.31 09:31:35.
