data_PCOD8046324
_publ_section_title
;
Structure prediction by ZEFSAII (Michael W. Deem and Ramdas Pophale) SiO2 
 PCOD8046324
Probable space group: P 21
;
_chemical_formula_sum "Si O2"
_cell_formula_units_Z 16
_cell_length_a 11.674312
_cell_length_b 9.016466
_cell_length_c 15.545367
_cell_angle_alpha 90.000000
_cell_angle_beta 152.305510
_cell_angle_gamma 90.000000
_cell_volume 760.491682
_symmetry_space_group_name_H-M "P 21"
_symmetry_group_IT_number 4
_symmetry_cell_setting 'monoclinic'
loop_
_space_group_symop_operation_xyz
x,y,z
-x,1/2+y,-z
loop_
_atom_site_type_symbol
_atom_site_label
_atom_site_fract_x
_atom_site_fract_y
_atom_site_fract_z
Si Si1 0.703136 0.785550 0.778602
Si Si2 0.869675 0.529586 0.496496
Si Si3 0.233655 0.019035 0.771836
Si Si4 0.937362 0.294633 0.842426
Si Si5 0.271848 0.688494 0.858713
Si Si6 0.912301 0.612477 0.772720
Si Si7 0.153679 0.728484 0.411716
Si Si8 0.478954 0.605641 0.360052
O O1 0.874329 0.750048 0.810771
O O2 0.444916 0.698998 0.600593
O O3 0.686622 0.962486 0.766570
O O4 0.831019 0.728840 0.951327
O O5 0.797791 0.498512 0.350992
O O6 0.893390 0.375494 0.563843
O O7 0.650500 0.633528 0.389970
O O8 0.131296 0.612939 0.683797
O O9 0.976543 0.086720 0.633326
O O10 0.287846 0.862869 0.852250
O O11 0.452817 0.128632 0.945350
O O12 0.975110 0.470865 0.872410
O O13 0.953915 0.242164 0.755573
O O14 0.686059 0.246969 0.724508
O O15 0.126115 0.655262 0.849164
O O16 0.660671 0.567180 0.558651
#
# Coordination Sequence:
#
# PCOD8046324 Si02
#       8
#     2   2   2   2   2   2   2   2
#     4  11  24  39  69  98 132 177 222 272 340 414
#     4  10  23  46  71  97 133 183 229 280 343 402
#     4  12  27  44  72  96 140 180 233 284 334 415
#     4  12  23  40  68  99 137 176 217 277 341 407
#     4  11  26  44  70 101 133 183 228 284 341 399
#     4  11  22  44  66  96 139 174 220 279 339 401
#     4  11  24  44  66  99 137 179 221 289 342 396
#     4  10  21  41  66  98 135 172 216 277 340 402
#
# _framework density 21.039021999999999
#
# number of rings (size 3 to 8) (size 9 to 14) (size 15 to 20)
#    0.000    1.000    5.000    2.250    7.000    3.000 
#    0.000    0.000    0.000    0.000    0.000    0.000 
#    0.000    0.000    0.000    0.000    0.000    0.000 
#
# Total GULP energy -198384.328968 kJ/mol
# GULP energy per Si atom -12399.020560 kJ/mol
# Density = 2.099114 g / cm^3
# Si number density = 21.039022 Si / 1000 Ang^3
#
#
#
# Elastic Constant Matrix: (Units=GPa)
#
#
# Indices 1 2 3 4 5 6 
#
# 1 92.8299 41.3564 48.0820 0.0000 -3.4206 0.0000
# 2 41.3564 85.1828 37.6770 0.0000 5.9974 0.0000
# 3 48.0820 37.6770 101.5390 0.0000 -12.8117 0.0000
# 4 0.0000 0.0000 0.0000 22.8611 0.0000 7.3461
# 5 -3.4206 5.9974 -12.8117 0.0000 25.8490 0.0000
# 6 0.0000 0.0000 0.0000 7.3461 0.0000 36.8271
#
#
#
# Elastic Compliance Matrix: (Units=1/GPa)
#
#
# Indices 1 2 3 4 5 6 
#
# 1 0.016062 -0.005402 -0.005520 0.000000 0.000643 0.000000
# 2 -0.005402 0.016869 -0.004572 0.000000 -0.006895 0.000000
# 3 -0.005520 -0.004572 0.015148 0.000000 0.007838 0.000000
# 4 0.000000 0.000000 0.000000 0.046738 0.000000 -0.009323
# 5 0.000643 -0.006895 0.007838 0.000000 0.044256 0.000000
# 6 0.000000 0.000000 0.000000 -0.009323 0.000000 0.029014
#
#
# Mechanical properties :
#
#
# Convention : Reuss Voigt Hill
#
# Bulk Modulus (GPa) = 58.50758 59.30916 58.90837
# Shear Modulus (GPa) = 24.41749 27.26988 25.84369
#
# Velocity S-wave (km/s) = 3.41043 3.60412 3.50861
# Velocity P-wave (km/s) = 6.58616 6.75062 6.66890
#
# Compressibility (1/GPa) = 0.01709180
#
# Stress axis : x y z
#
# Youngs Moduli (GPa) = 62.25937 59.27878 66.01595
#
# Poissons Ratio (x) = 0.32020 0.36444
# Poissons Ratio (y) = 0.33630 0.30180
# Poissons Ratio (z) = 0.34370 0.27100
#
# Static dielectric constant tensor:
#      x y z
#    x 3.921090 0.000000 0.004520 
#    y 0.000000 3.671080 0.000000 
#    z 0.004520 0.000000 3.980180 
# 
# 
# High freq. dielectric constant tensor:
#      x y z
#    x 1.823940 0.000000 -0.005840 
#    y 0.000000 1.812350 0.000000 
#    z -0.005840 0.000000 1.841470 
# 
# From -- ./inp_files/11969.got.cif
#   From: 2010.03.12/outbox.cif.g09.slc.cpg/sg4_6_cif.got.tgz:11969.got - 2010.03.31 09:31:35.
