data_PCOD8046961
_publ_section_title
;
Structure prediction by ZEFSAII (Michael W. Deem and Ramdas Pophale) SiO2 
 PCOD8046961
Probable space group: P 21
;
_chemical_formula_sum "Si O2"
_cell_formula_units_Z 16
_cell_length_a 8.901445
_cell_length_b 8.719389
_cell_length_c 11.401738
_cell_angle_alpha 90.000000
_cell_angle_beta 140.165167
_cell_angle_gamma 90.000000
_cell_volume 566.876866
_symmetry_space_group_name_H-M "P 21"
_symmetry_group_IT_number 4
_symmetry_cell_setting 'monoclinic'
loop_
_space_group_symop_operation_xyz
x,y,z
-x,1/2+y,-z
loop_
_atom_site_type_symbol
_atom_site_label
_atom_site_fract_x
_atom_site_fract_y
_atom_site_fract_z
Si Si1 0.824027 0.140150 0.652779
Si Si2 0.538561 0.016174 0.145479
Si Si3 0.545877 0.888232 0.571452
Si Si4 0.665864 0.342933 0.163049
Si Si5 0.297370 0.057643 0.233235
Si Si6 0.490685 0.578256 0.220503
Si Si7 0.082859 0.279102 0.585979
Si Si8 0.934455 0.275965 0.962229
O O1 0.539791 0.204855 0.475855
O O2 0.959538 0.208485 0.845114
O O3 0.956666 0.182274 0.613515
O O4 0.778353 0.955419 0.641595
O O5 0.507561 0.054515 0.264571
O O6 0.783431 0.924591 0.278793
O O7 0.555126 0.175301 0.084246
O O8 0.318914 0.916442 0.959609
O O9 0.328567 0.950582 0.364328
O O10 0.517892 0.961351 0.679238
O O11 0.474623 0.463278 0.101096
O O12 0.901621 0.341436 0.380329
O O13 0.079677 0.960023 0.042693
O O14 0.179285 0.229764 0.178394
O O15 0.736100 0.668727 0.371262
O O16 0.286032 0.703469 0.101490
#
# Coordination Sequence:
#
# PCOD8046961 Si02
#       8
#     2   2   2   2   2   2   2   2
#     4  10  23  45  72 107 140 202 240 312 375 457
#     4  12  29  49  75 120 156 196 270 320 393 474
#     4  10  23  46  71 105 148 188 258 299 374 459
#     4  12  28  47  79 109 156 210 244 331 392 464
#     4  11  25  46  70 110 146 203 246 319 379 456
#     4  11  24  49  72 114 148 195 255 318 380 472
#     4  12  25  52  78 113 161 204 258 316 403 456
#     4  10  25  44  73 102 151 190 249 313 378 456
#
# _framework density 28.224827000000001
#
# number of rings (size 3 to 8) (size 9 to 14) (size 15 to 20)
#    0.000    1.000    2.500    2.250    5.250    3.000 
#    2.250    0.000    0.000    0.000    0.000    0.000 
#    0.000    0.000    0.000    0.000    0.000    0.000 
#
# Total GULP energy -198300.310411 kJ/mol
# GULP energy per Si atom -12393.769401 kJ/mol
# Density = 2.816059 g / cm^3
# Si number density = 28.224827 Si / 1000 Ang^3
#
#
#
# Elastic Constant Matrix: (Units=GPa)
#
#
# Indices 1 2 3 4 5 6 
#
# 1 77.3965 34.2307 23.0017 0.0000 11.5465 0.0000
# 2 34.2307 157.0014 1.3470 0.0000 -7.5687 0.0000
# 3 23.0017 1.3470 87.8333 0.0000 1.4361 0.0000
# 4 0.0000 0.0000 0.0000 42.2012 0.0000 2.6975
# 5 11.5465 -7.5687 1.4361 0.0000 28.7730 0.0000
# 6 0.0000 0.0000 0.0000 2.6975 0.0000 46.2825
#
#
#
# Elastic Compliance Matrix: (Units=1/GPa)
#
#
# Indices 1 2 3 4 5 6 
#
# 1 0.017158 -0.004077 -0.004304 0.000000 -0.007743 0.000000
# 2 -0.004077 0.007421 0.000896 0.000000 0.003544 0.000000
# 3 -0.004304 0.000896 0.012477 0.000000 0.001340 0.000000
# 4 0.000000 0.000000 0.000000 0.023785 0.000000 -0.001386
# 5 -0.007743 0.003544 0.001340 0.000000 0.038727 0.000000
# 6 0.000000 0.000000 0.000000 -0.001386 0.000000 0.021687
#
#
# Mechanical properties :
#
#
# Convention : Reuss Voigt Hill
#
# Bulk Modulus (GPa) = 45.27899 48.82113 47.05006
# Shear Modulus (GPa) = 34.82177 41.02814 37.92495
#
# Velocity S-wave (km/s) = 3.51626 3.81677 3.66959
# Velocity P-wave (km/s) = 5.70636 6.06287 5.88731
#
# Compressibility (1/GPa) = 0.02208530
#
# Stress axis : x y z
#
# Youngs Moduli (GPa) = 58.28140 134.74401 80.14919
#
# Poissons Ratio (x) = 0.54939 0.34498
# Poissons Ratio (y) = 0.23763 -0.07181
# Poissons Ratio (z) = 0.25086 -0.12073
#
# Static dielectric constant tensor:
#      x y z
#    x 4.984710 0.000000 -0.133870 
#    y 0.000000 5.838140 0.000000 
#    z -0.133870 0.000000 5.862110 
# 
# 
# High freq. dielectric constant tensor:
#      x y z
#    x 2.122970 0.000000 -0.013820 
#    y 0.000000 2.180060 0.000000 
#    z -0.013820 0.000000 2.176780 
# 
# From -- ./inp_files/11107.got.cif
#   From: 2010.03.12/outbox.cif.g09.slc.cpg/sg4_6_cif.got.tgz:11107.got - 2010.03.31 09:31:35.
