data_PCOD8046733
_publ_section_title
;
Structure prediction by ZEFSAII (Michael W. Deem and Ramdas Pophale) SiO2 
 PCOD8046733
Probable space group: P 21
;
_chemical_formula_sum "Si O2"
_cell_formula_units_Z 16
_cell_length_a 10.000905
_cell_length_b 9.637844
_cell_length_c 8.893719
_cell_angle_alpha 90.000000
_cell_angle_beta 121.235136
_cell_angle_gamma 90.000000
_cell_volume 732.980285
_symmetry_space_group_name_H-M "P 21"
_symmetry_group_IT_number 4
_symmetry_cell_setting 'monoclinic'
loop_
_space_group_symop_operation_xyz
x,y,z
-x,1/2+y,-z
loop_
_atom_site_type_symbol
_atom_site_label
_atom_site_fract_x
_atom_site_fract_y
_atom_site_fract_z
Si Si1 0.882010 0.732790 0.348221
Si Si2 0.312151 0.498587 0.860490
Si Si3 0.057419 0.706331 0.151125
Si Si4 0.635901 0.118456 0.800026
Si Si5 0.362272 0.901520 0.052032
Si Si6 0.808896 0.279924 0.319057
Si Si7 0.147259 0.016808 0.162038
Si Si8 0.698656 0.522766 0.436345
O O1 0.977379 0.669396 0.262768
O O2 0.761482 0.617839 0.336672
O O3 0.004283 0.773663 0.550027
O O4 0.788169 0.866935 0.242756
O O5 0.496856 0.475226 0.951494
O O6 0.261949 0.625671 0.724988
O O7 0.283758 0.530125 0.019334
O O8 0.234615 0.645396 0.253535
O O9 0.967376 0.637258 0.959350
O O10 0.057539 0.870541 0.120898
O O11 0.573747 0.264949 0.827601
O O12 0.486493 0.040067 0.644193
O O13 0.291517 0.008167 0.130525
O O14 0.226130 0.859595 0.856167
O O15 0.731860 0.362169 0.414648
O O16 0.210736 0.063544 0.360386
#
# Coordination Sequence:
#
# PCOD8046733 Si02
#       8
#     2   2   2   2   2   2   2   2
#     4  12  25  44  75 103 138 183 240 287 348 421
#     4  11  23  44  72 105 134 189 234 283 353 421
#     4  11  25  47  69 100 140 185 228 289 351 420
#     4  10  23  43  71  99 144 179 231 288 342 417
#     4  10  22  45  69  99 141 185 227 279 352 417
#     4  11  24  41  71 103 139 175 233 291 338 408
#     4  11  26  46  68 101 142 180 231 289 352 417
#     4  12  24  46  69 104 138 182 230 294 344 413
#
# _framework density 21.828693000000001
#
# number of rings (size 3 to 8) (size 9 to 14) (size 15 to 20)
#    0.000    1.000    3.750    2.250    5.250    1.000 
#    2.250    0.000    0.000    0.000    0.000    0.000 
#    0.000    0.000    0.000    0.000    0.000    0.000 
#
# Total GULP energy -198473.614988 kJ/mol
# GULP energy per Si atom -12404.600937 kJ/mol
# Density = 2.177901 g / cm^3
# Si number density = 21.828693 Si / 1000 Ang^3
#
#
#
# Elastic Constant Matrix: (Units=GPa)
#
#
# Indices 1 2 3 4 5 6 
#
# 1 117.5648 42.2460 44.5551 0.0000 -3.2671 0.0000
# 2 42.2460 96.1783 45.7909 0.0000 10.0707 0.0000
# 3 44.5551 45.7909 108.4831 0.0000 9.4187 0.0000
# 4 0.0000 0.0000 0.0000 36.9059 0.0000 3.2560
# 5 -3.2671 10.0707 9.4187 0.0000 36.6130 0.0000
# 6 0.0000 0.0000 0.0000 3.2560 0.0000 26.6121
#
#
#
# Elastic Compliance Matrix: (Units=1/GPa)
#
#
# Indices 1 2 3 4 5 6 
#
# 1 0.011133 -0.003620 -0.003290 0.000000 0.002836 0.000000
# 2 -0.003620 0.014368 -0.004303 0.000000 -0.003168 0.000000
# 3 -0.003290 -0.004303 0.012589 0.000000 -0.002349 0.000000
# 4 0.000000 0.000000 0.000000 0.027392 0.000000 -0.003351
# 5 0.002836 -0.003168 -0.002349 0.000000 0.029041 0.000000
# 6 0.000000 0.000000 0.000000 -0.003351 0.000000 0.037987
#
#
# Mechanical properties :
#
#
# Convention : Reuss Voigt Hill
#
# Bulk Modulus (GPa) = 63.84385 65.26781 64.55583
# Shear Modulus (GPa) = 31.21917 32.66847 31.94382
#
# Velocity S-wave (km/s) = 3.78589 3.87277 3.82957
# Velocity P-wave (km/s) = 6.95857 7.06843 7.01372
#
# Compressibility (1/GPa) = 0.01566322
#
# Stress axis : x y z
#
# Youngs Moduli (GPa) = 89.82562 69.59978 79.43128
#
# Poissons Ratio (x) = 0.25198 0.26136
# Poissons Ratio (y) = 0.32520 0.34177
# Poissons Ratio (z) = 0.29556 0.29947
#
# Static dielectric constant tensor:
#      x y z
#    x 3.966440 0.000000 0.010170 
#    y 0.000000 3.949350 0.000000 
#    z 0.010170 0.000000 3.886550 
# 
# 
# High freq. dielectric constant tensor:
#      x y z
#    x 1.859000 0.000000 0.005430 
#    y 0.000000 1.858920 0.000000 
#    z 0.005430 0.000000 1.859800 
# 
# From -- ./inp_files/5857.got.cif
#   From: 2010.03.12/outbox.cif.g09.slc.cpg/sg4_3_cif.got.tgz:5857.got - 2010.03.31 09:31:35.
