data_PCOD8046000
_publ_section_title
;
Structure prediction by ZEFSAII (Michael W. Deem and Ramdas Pophale) SiO2 
 PCOD8046000
Probable space group: P 21
;
_chemical_formula_sum "Si O2"
_cell_formula_units_Z 10
_cell_length_a 9.653615
_cell_length_b 11.203468
_cell_length_c 6.992036
_cell_angle_alpha 90.000000
_cell_angle_beta 133.656453
_cell_angle_gamma 90.000000
_cell_volume 547.116563
_symmetry_space_group_name_H-M "P 21"
_symmetry_group_IT_number 4
_symmetry_cell_setting 'monoclinic'
loop_
_space_group_symop_operation_xyz
x,y,z
-x,1/2+y,-z
loop_
_atom_site_type_symbol
_atom_site_label
_atom_site_fract_x
_atom_site_fract_y
_atom_site_fract_z
Si Si1 0.669240 0.863610 0.424554
Si Si2 0.539835 0.489463 0.079667
Si Si3 0.244686 0.615315 0.575447
Si Si4 0.540996 0.793968 0.715086
Si Si5 0.825911 0.684958 0.284915
O O1 0.601214 0.805096 0.554269
O O2 0.808923 0.771260 0.451154
O O3 0.782260 0.989463 0.564518
O O4 0.483155 0.890097 0.111601
O O5 0.517024 0.424756 0.261452
O O6 0.744431 0.554170 0.261449
O O7 0.371556 0.588828 0.888401
O O8 0.357773 0.707663 0.548849
O O9 0.046948 0.673832 0.445735
O O10 0.719311 0.739465 0.000002
#
# Coordination Sequence:
#
# PCOD8046000 Si02
#       5
#     2   2   2   2   2
#     4   9  21  38  56  84 111 142 189 222 274 332
#     4   8  20  36  60  76 114 144 182 226 282 318
#     4   9  21  38  56  84 111 142 189 222 274 332
#     4  10  20  39  56  82 114 145 182 231 273 326
#     4  10  20  39  56  82 114 145 182 231 273 326
#
# _framework density 18.277642
#
# number of rings (size 3 to 8) (size 9 to 14) (size 15 to 20)
#    1.200    1.600    0.000    0.000    5.600    0.000 
#    7.200    0.000    0.000    0.000    0.000    0.000 
#    0.000    0.000    0.000    0.000    0.000    0.000 
#
# Total GULP energy -123928.997758 kJ/mol
# GULP energy per Si atom -12392.899776 kJ/mol
# Density = 1.823604 g / cm^3
# Si number density = 18.277642 Si / 1000 Ang^3
#
#
#
# Elastic Constant Matrix: (Units=GPa)
#
#
# Indices 1 2 3 4 5 6 
#
# 1 168.6792 81.3678 63.1784 0.0000 -3.5480 0.0000
# 2 81.3678 109.3662 28.0204 0.0000 -3.7042 0.0000
# 3 63.1784 28.0204 50.1939 0.0000 -4.6811 0.0000
# 4 0.0000 0.0000 0.0000 10.4311 0.0000 -1.7825
# 5 -3.5480 -3.7042 -4.6811 0.0000 27.1396 0.0000
# 6 0.0000 0.0000 0.0000 -1.7825 0.0000 36.1062
#
#
#
# Elastic Compliance Matrix: (Units=1/GPa)
#
#
# Indices 1 2 3 4 5 6 
#
# 1 0.015112 -0.007452 -0.015013 0.000000 -0.001631 0.000000
# 2 -0.007452 0.014349 0.001485 0.000000 0.001240 0.000000
# 3 -0.015013 0.001485 0.038445 0.000000 0.004871 0.000000
# 4 0.000000 0.000000 0.000000 0.096683 0.000000 0.004773
# 5 -0.001631 0.001240 0.004871 0.000000 0.037643 0.000000
# 6 0.000000 0.000000 0.000000 0.004773 0.000000 0.027932
#
#
# Mechanical properties :
#
#
# Convention : Reuss Voigt Hill
#
# Bulk Modulus (GPa) = 38.54188 74.81914 56.68051
# Shear Modulus (GPa) = 17.80794 25.11356 21.46075
#
# Velocity S-wave (km/s) = 3.12477 3.71078 3.43031
# Velocity P-wave (km/s) = 5.84393 7.70607 6.83868
#
# Compressibility (1/GPa) = 0.02594580
#
# Stress axis : x y z
#
# Youngs Moduli (GPa) = 66.17232 69.68948 26.01096
#
# Poissons Ratio (x) = 0.51932 0.39051
# Poissons Ratio (y) = 0.49311 -0.03863
# Poissons Ratio (z) = 0.99348 -0.10349
#
# Static dielectric constant tensor:
#      x y z
#    x 3.044090 0.000000 -0.001100 
#    y 0.000000 3.533770 0.000000 
#    z -0.001100 0.000000 3.028400 
# 
# 
# High freq. dielectric constant tensor:
#      x y z
#    x 1.694110 0.000000 -0.001310 
#    y 0.000000 1.725290 0.000000 
#    z -0.001310 0.000000 1.675310 
# 
# From -- ./inp_files/209.got.cif
#   From: 2010.03.12/outbox.cif.g09.slc.cpg/sg4_1_cif.got.tgz:209.got - 2010.03.31 09:31:35.
