data_PCOD8046516
_publ_section_title
;
Structure prediction by ZEFSAII (Michael W. Deem and Ramdas Pophale) SiO2 
 PCOD8046516
Probable space group: P 21
;
_chemical_formula_sum "Si O2"
_cell_formula_units_Z 16
_cell_length_a 8.939585
_cell_length_b 8.444511
_cell_length_c 12.261088
_cell_angle_alpha 90.000000
_cell_angle_beta 128.374426
_cell_angle_gamma 90.000000
_cell_volume 725.639083
_symmetry_space_group_name_H-M "P 21"
_symmetry_group_IT_number 4
_symmetry_cell_setting 'monoclinic'
loop_
_space_group_symop_operation_xyz
x,y,z
-x,1/2+y,-z
loop_
_atom_site_type_symbol
_atom_site_label
_atom_site_fract_x
_atom_site_fract_y
_atom_site_fract_z
Si Si1 0.825682 0.423690 0.939514
Si Si2 0.476877 0.996884 0.837548
Si Si3 0.177752 0.810686 0.572195
Si Si4 0.611983 0.219095 0.542990
Si Si5 0.909697 0.022051 0.321559
Si Si6 0.255764 0.046269 0.318241
Si Si7 0.462990 0.342660 0.917082
Si Si8 0.190392 0.588521 0.166408
O O1 0.782250 0.557839 0.828375
O O2 0.644166 0.404228 0.933344
O O3 0.877431 0.263130 0.899262
O O4 0.004140 0.478102 0.093975
O O5 0.414685 0.161385 0.866730
O O6 0.676143 0.015426 0.866174
O O7 0.318449 0.947777 0.678196
O O8 0.495322 0.858100 0.935430
O O9 0.272139 0.710251 0.517387
O O10 0.120788 0.694241 0.642449
O O11 0.988614 0.898928 0.445717
O O12 0.388187 0.189817 0.418648
O O13 0.620480 0.390418 0.601169
O O14 0.701956 0.092596 0.668554
O O15 0.053959 0.044726 0.286993
O O16 0.712394 0.956675 0.187679
#
# Coordination Sequence:
#
# PCOD8046516 Si02
#       8
#     2   2   2   2   2   2   2   2
#     4  10  23  39  61  90 123 163 210 260 313 372
#     4  11  24  44  66  93 129 169 213 266 320 380
#     4  11  24  41  64  94 127 170 213 264 322 379
#     4  10  22  41  63  91 124 165 210 260 316 371
#     4  11  23  40  63  94 130 169 214 264 317 381
#     4  10  22  40  62  90 124 163 210 262 312 373
#     4  11  24  42  64  93 130 169 211 261 319 382
#     4  10  22  41  63  91 125 164 213 263 313 374
#
# _framework density 22.049527000000001
#
# number of rings (size 3 to 8) (size 9 to 14) (size 15 to 20)
#    0.000    1.500    0.000    4.500    0.000   12.000 
#    0.000    0.000    0.000    0.000    0.000    0.000 
#    0.000    0.000    0.000    0.000    0.000    0.000 
#
# Total GULP energy -198493.374836 kJ/mol
# GULP energy per Si atom -12405.835927 kJ/mol
# Density = 2.199934 g / cm^3
# Si number density = 22.049527 Si / 1000 Ang^3
#
#
#
# Elastic Constant Matrix: (Units=GPa)
#
#
# Indices 1 2 3 4 5 6 
#
# 1 92.5905 41.1370 36.6519 0.0000 -0.9405 0.0000
# 2 41.1370 56.5698 10.4927 0.0000 -5.1189 0.0000
# 3 36.6519 10.4927 82.2753 0.0000 -13.0462 0.0000
# 4 0.0000 0.0000 0.0000 44.3292 0.0000 3.4581
# 5 -0.9405 -5.1189 -13.0462 0.0000 37.2772 0.0000
# 6 0.0000 0.0000 0.0000 3.4581 0.0000 34.2467
#
#
#
# Elastic Compliance Matrix: (Units=1/GPa)
#
#
# Indices 1 2 3 4 5 6 
#
# 1 0.019713 -0.013266 -0.007729 0.000000 -0.004029 0.000000
# 2 -0.013266 0.027145 0.003161 0.000000 0.004499 0.000000
# 3 -0.007729 0.003161 0.016127 0.000000 0.005883 0.000000
# 4 0.000000 0.000000 0.000000 0.022738 0.000000 -0.002296
# 5 -0.004029 0.004499 0.005883 0.000000 0.029401 0.000000
# 6 0.000000 0.000000 0.000000 -0.002296 0.000000 0.029432
#
#
# Mechanical properties :
#
#
# Convention : Reuss Voigt Hill
#
# Bulk Modulus (GPa) = 36.60594 45.33320 40.96957
# Shear Modulus (GPa) = 26.40930 32.71423 29.56176
#
# Velocity S-wave (km/s) = 3.46457 3.85602 3.66553
# Velocity P-wave (km/s) = 5.71333 6.35842 6.04449
#
# Compressibility (1/GPa) = 0.02731797
#
# Stress axis : x y z
#
# Youngs Moduli (GPa) = 50.72911 36.83945 62.00787
#
# Poissons Ratio (x) = 0.48871 0.47923
# Poissons Ratio (y) = 0.67296 -0.19602
# Poissons Ratio (z) = 0.39207 -0.11646
#
# Static dielectric constant tensor:
#      x y z
#    x 3.830150 0.000000 -0.045540 
#    y 0.000000 3.964370 0.000000 
#    z -0.045540 0.000000 4.168280 
# 
# 
# High freq. dielectric constant tensor:
#      x y z
#    x 1.866620 0.000000 -0.000470 
#    y 0.000000 1.864620 0.000000 
#    z -0.000470 0.000000 1.883570 
# 
# From -- ./inp_files/5586.got.cif
#   From: 2010.03.12/outbox.cif.g09.slc.cpg/sg4_3_cif.got.tgz:5586.got - 2010.03.31 09:31:35.
