data_PCOD8046214
_publ_section_title
;
Structure prediction by ZEFSAII (Michael W. Deem and Ramdas Pophale) SiO2 
 PCOD8046214
Probable space group: P 21
;
_chemical_formula_sum "Si O2"
_cell_formula_units_Z 14
_cell_length_a 9.465877
_cell_length_b 6.189106
_cell_length_c 11.192338
_cell_angle_alpha 90.000000
_cell_angle_beta 97.569588
_cell_angle_gamma 90.000000
_cell_volume 649.992571
_symmetry_space_group_name_H-M "P 21"
_symmetry_group_IT_number 4
_symmetry_cell_setting 'monoclinic'
loop_
_space_group_symop_operation_xyz
x,y,z
-x,1/2+y,-z
loop_
_atom_site_type_symbol
_atom_site_label
_atom_site_fract_x
_atom_site_fract_y
_atom_site_fract_z
Si Si1 0.088447 0.127380 0.843517
Si Si2 0.319381 0.990814 0.518277
Si Si3 0.903721 0.763129 0.891158
Si Si4 0.626578 0.736204 0.244452
Si Si5 0.652119 0.008415 0.775609
Si Si6 0.849740 0.376691 0.710536
Si Si7 0.525934 0.137696 0.352023
O O1 0.253307 0.174782 0.838229
O O2 0.000007 0.253344 0.731463
O O3 0.047216 0.213534 0.969852
O O4 0.038604 0.875352 0.837238
O O5 0.316743 0.180983 0.615699
O O6 0.462265 0.997848 0.453269
O O7 0.175652 0.990600 0.421268
O O8 0.332860 0.767092 0.593207
O O9 0.850324 0.551808 0.816298
O O10 0.771783 0.933181 0.883377
O O11 0.492835 0.596959 0.181523
O O12 0.577361 0.986782 0.246717
O O13 0.719088 0.206409 0.707301
O O14 0.605061 0.799851 0.693591
#
# Coordination Sequence:
#
# PCOD8046214 Si02
#       7
#     2   2   2   2   2   2   2
#     4  11  26  45  65  95 130 174 227 276 338 392
#     4  11  20  36  63  98 130 174 210 264 336 398
#     4  11  22  46  71  87 126 184 219 279 336 399
#     4  11  24  41  62 105 132 167 221 282 324 399
#     4  10  21  39  65 101 125 171 221 268 332 389
#     4  11  22  42  69  94 128 179 225 261 334 412
#     4  11  19  37  67  94 139 171 209 270 332 391
#
# _framework density 21.538706999999999
#
# number of rings (size 3 to 8) (size 9 to 14) (size 15 to 20)
#    0.000    1.143    5.714    0.857    0.000    2.286 
#   10.286    0.000    0.000    0.000    0.000    0.000 
#    0.000    0.000    0.000    0.000    0.000    0.000 
#
# Total GULP energy -173487.408753 kJ/mol
# GULP energy per Si atom -12391.957768 kJ/mol
# Density = 2.148968 g / cm^3
# Si number density = 21.538707 Si / 1000 Ang^3
#
#
#
# Elastic Constant Matrix: (Units=GPa)
#
#
# Indices 1 2 3 4 5 6 
#
# 1 91.0094 35.9453 4.3888 0.0000 -5.4907 0.0000
# 2 35.9453 109.3097 21.9053 0.0000 -2.9517 0.0000
# 3 4.3888 21.9053 49.7188 0.0000 12.7422 0.0000
# 4 0.0000 0.0000 0.0000 33.1640 0.0000 10.2896
# 5 -5.4907 -2.9517 12.7422 0.0000 30.9473 0.0000
# 6 0.0000 0.0000 0.0000 10.2896 0.0000 32.2742
#
#
#
# Elastic Compliance Matrix: (Units=1/GPa)
#
#
# Indices 1 2 3 4 5 6 
#
# 1 0.012737 -0.004197 0.000277 0.000000 0.001745 0.000000
# 2 -0.004197 0.011691 -0.005451 0.000000 0.002615 0.000000
# 3 0.000277 -0.005451 0.025278 0.000000 -0.010879 0.000000
# 4 0.000000 0.000000 0.000000 0.033463 0.000000 -0.010669
# 5 0.001745 0.002615 -0.010879 0.000000 0.037351 0.000000
# 6 0.000000 0.000000 0.000000 -0.010669 0.000000 0.034386
#
#
# Mechanical properties :
#
#
# Convention : Reuss Voigt Hill
#
# Bulk Modulus (GPa) = 32.29296 41.61298 36.95297
# Shear Modulus (GPa) = 27.17835 31.79699 29.48767
#
# Velocity S-wave (km/s) = 3.55609 3.84640 3.70409
# Velocity P-wave (km/s) = 5.64682 6.25207 5.95714
#
# Compressibility (1/GPa) = 0.03096650
#
# Stress axis : x y z
#
# Youngs Moduli (GPa) = 78.50856 85.53314 39.55990
#
# Poissons Ratio (x) = 0.35899 -0.01098
# Poissons Ratio (y) = 0.32950 0.21563
# Poissons Ratio (z) = -0.02178 0.46621
#
# Static dielectric constant tensor:
#      x y z
#    x 3.681080 0.000000 0.350890 
#    y 0.000000 4.211420 0.000000 
#    z 0.350890 0.000000 3.612660 
# 
# 
# High freq. dielectric constant tensor:
#      x y z
#    x 1.825550 0.000000 0.035070 
#    y 0.000000 1.864260 0.000000 
#    z 0.035070 0.000000 1.818140 
# 
# From -- ./inp_files/7210.got.cif
#   From: 2010.03.12/outbox.cif.g09.slc.cpg/sg4_4_cif.got.tgz:7210.got - 2010.03.31 09:31:35.
