data_PCOD8046440
_publ_section_title
;
Structure prediction by ZEFSAII (Michael W. Deem and Ramdas Pophale) SiO2 
 PCOD8046440
Probable space group: P 21
;
_chemical_formula_sum "Si O2"
_cell_formula_units_Z 16
_cell_length_a 11.356574
_cell_length_b 8.809837
_cell_length_c 12.083705
_cell_angle_alpha 90.000000
_cell_angle_beta 143.803349
_cell_angle_gamma 90.000000
_cell_volume 713.967177
_symmetry_space_group_name_H-M "P 21"
_symmetry_group_IT_number 4
_symmetry_cell_setting 'monoclinic'
loop_
_space_group_symop_operation_xyz
x,y,z
-x,1/2+y,-z
loop_
_atom_site_type_symbol
_atom_site_label
_atom_site_fract_x
_atom_site_fract_y
_atom_site_fract_z
Si Si1 0.177412 0.623070 0.295008
Si Si2 0.679533 0.194963 0.183977
Si Si3 0.790643 0.449676 0.936462
Si Si4 0.272300 0.604620 0.123427
Si Si5 0.882193 0.675762 0.554111
Si Si6 0.594075 0.528455 0.194916
Si Si7 0.653208 0.988817 0.363598
Si Si8 0.114614 0.970151 0.236296
O O1 0.299286 0.587553 0.275612
O O2 0.317869 0.566240 0.497543
O O3 0.152280 0.799510 0.302282
O O4 0.963851 0.537895 0.133336
O O5 0.593159 0.352763 0.162796
O O6 0.743831 0.087001 0.333282
O O7 0.881395 0.212881 0.265067
O O8 0.503010 0.123941 0.977428
O O9 0.828199 0.269472 0.973417
O O10 0.582330 0.479981 0.839076
O O11 0.778089 0.506582 0.799369
O O12 0.479898 0.569048 0.222392
O O13 0.122022 0.479416 0.962659
O O14 0.820563 0.577820 0.397657
O O15 0.819797 0.587416 0.618769
O O16 0.754510 0.826812 0.446645
#
# Coordination Sequence:
#
# PCOD8046440 Si02
#       8
#     2   2   2   2   2   2   2   2
#     4  10  24  42  69 105 141 173 224 285 341 418
#     4  12  29  47  68 103 135 182 240 284 344 408
#     4  10  23  42  69 102 139 178 223 276 348 411
#     4  10  21  46  67 100 138 181 225 274 350 405
#     4  12  25  47  71  97 141 184 230 285 343 405
#     4  12  26  47  74  95 137 184 230 290 340 413
#     4  12  26  43  70 102 136 183 227 284 341 415
#     4  10  22  42  70 104 139 179 219 284 343 411
#
# _framework density 22.409991999999999
#
# number of rings (size 3 to 8) (size 9 to 14) (size 15 to 20)
#    0.000    1.000    2.500    3.000    3.500    2.000 
#    0.000    0.000    0.000    0.000    0.000    0.000 
#    0.000    0.000    0.000    0.000    0.000    0.000 
#
# Total GULP energy -198412.599069 kJ/mol
# GULP energy per Si atom -12400.787442 kJ/mol
# Density = 2.235899 g / cm^3
# Si number density = 22.409992 Si / 1000 Ang^3
#
#
#
# Elastic Constant Matrix: (Units=GPa)
#
#
# Indices 1 2 3 4 5 6 
#
# 1 81.9642 39.4828 19.0828 0.0000 -7.0141 0.0000
# 2 39.4828 95.3862 18.3093 0.0000 -9.5317 0.0000
# 3 19.0828 18.3093 77.7618 0.0000 -13.9555 0.0000
# 4 0.0000 0.0000 0.0000 45.5904 0.0000 -3.2333
# 5 -7.0141 -9.5317 -13.9555 0.0000 33.9317 0.0000
# 6 0.0000 0.0000 0.0000 -3.2333 0.0000 33.7719
#
#
#
# Elastic Compliance Matrix: (Units=1/GPa)
#
#
# Indices 1 2 3 4 5 6 
#
# 1 0.015676 -0.005981 -0.002331 0.000000 0.000602 0.000000
# 2 -0.005981 0.013414 -0.001335 0.000000 0.001983 0.000000
# 3 -0.002331 -0.001335 0.014675 0.000000 0.005179 0.000000
# 4 0.000000 0.000000 0.000000 0.022084 0.000000 0.002114
# 5 0.000602 0.001983 0.005179 0.000000 0.032282 0.000000
# 6 0.000000 0.000000 0.000000 0.002114 0.000000 0.029813
#
#
# Mechanical properties :
#
#
# Convention : Reuss Voigt Hill
#
# Bulk Modulus (GPa) = 40.86288 45.42911 43.14600
# Shear Modulus (GPa) = 32.17616 34.54128 33.35872
#
# Velocity S-wave (km/s) = 3.79330 3.93024 3.86238
# Velocity P-wave (km/s) = 6.12040 6.39621 6.25983
#
# Compressibility (1/GPa) = 0.02447209
#
# Stress axis : x y z
#
# Youngs Moduli (GPa) = 63.79316 74.55044 68.14107
#
# Poissons Ratio (x) = 0.44589 0.15881
# Poissons Ratio (y) = 0.38155 0.09095
# Poissons Ratio (z) = 0.14867 0.09951
#
# Static dielectric constant tensor:
#      x y z
#    x 4.024590 0.000000 -0.078860 
#    y 0.000000 4.131350 0.000000 
#    z -0.078860 0.000000 4.059830 
# 
# 
# High freq. dielectric constant tensor:
#      x y z
#    x 1.879810 0.000000 -0.006670 
#    y 0.000000 1.890250 0.000000 
#    z -0.006670 0.000000 1.894610 
# 
# From -- ./inp_files/12039.got.cif
#   From: 2010.03.12/outbox.cif.g09.slc.cpg/sg4_7_cif.got.tgz:12039.got - 2010.03.31 09:31:35.
