data_PCOD8046040
_publ_section_title
;
Structure prediction by ZEFSAII (Michael W. Deem and Ramdas Pophale) SiO2 
 PCOD8046040
Probable space group: P 21
;
_chemical_formula_sum "Si O2"
_cell_formula_units_Z 16
_cell_length_a 8.711148
_cell_length_b 8.624822
_cell_length_c 17.480410
_cell_angle_alpha 90.000000
_cell_angle_beta 37.048366
_cell_angle_gamma 90.000000
_cell_volume 791.272825
_symmetry_space_group_name_H-M "P 21"
_symmetry_group_IT_number 4
_symmetry_cell_setting 'monoclinic'
loop_
_space_group_symop_operation_xyz
x,y,z
-x,1/2+y,-z
loop_
_atom_site_type_symbol
_atom_site_label
_atom_site_fract_x
_atom_site_fract_y
_atom_site_fract_z
Si Si1 0.105753 0.867970 0.754125
Si Si2 0.700664 0.856790 0.135716
Si Si3 0.395045 0.371373 0.247794
Si Si4 0.458508 0.346998 0.058590
Si Si5 0.475675 0.110506 0.677080
Si Si6 0.087291 0.702825 0.610365
Si Si7 0.338884 0.009045 0.156118
Si Si8 0.852389 0.178930 0.120822
O O1 0.187894 0.822163 0.635426
O O2 0.185289 0.723774 0.775867
O O3 0.802801 0.888075 0.881753
O O4 0.235878 0.026391 0.732298
O O5 0.598105 0.768048 0.251126
O O6 0.474632 0.918915 0.171599
O O7 0.869773 0.995693 0.102437
O O8 0.884579 0.747157 0.014786
O O9 0.453311 0.444422 0.140379
O O10 0.394492 0.501535 0.311793
O O11 0.606091 0.239595 0.174293
O O12 0.117799 0.291101 0.361067
O O13 0.484105 0.166280 0.071648
O O14 0.679881 0.398952 0.911933
O O15 0.676687 0.145598 0.531597
O O16 0.947585 0.554406 0.704831
#
# Coordination Sequence:
#
# PCOD8046040 Si02
#       8
#     2   2   2   2   2   2   2   2
#     4   9  21  43  62  90 129 166 215 276 324 381
#     4  12  24  38  63  97 132 170 211 270 337 386
#     4   9  21  40  63  91 128 173 212 271 324 383
#     4  10  20  40  65  88 130 162 205 274 327 388
#     4  11  25  39  67  92 128 176 224 263 326 390
#     4  10  23  43  66  90 132 170 220 275 311 394
#     4  10  22  40  64  95 127 166 212 265 332 384
#     4  11  20  39  64  93 130 161 215 272 327 396
#
# _framework density 20.220585
#
# number of rings (size 3 to 8) (size 9 to 14) (size 15 to 20)
#    0.000    2.000    3.750    1.500    3.500    3.000 
#    0.000    5.000    0.000    0.000    0.000    0.000 
#    0.000    0.000    0.000    0.000    0.000    0.000 
#
# Total GULP energy -198334.307046 kJ/mol
# GULP energy per Si atom -12395.894190 kJ/mol
# Density = 2.017456 g / cm^3
# Si number density = 20.220585 Si / 1000 Ang^3
#
#
#
# Elastic Constant Matrix: (Units=GPa)
#
#
# Indices 1 2 3 4 5 6 
#
# 1 104.9164 36.6002 32.5671 0.0000 4.8128 0.0000
# 2 36.6002 101.1895 60.9456 0.0000 8.0766 0.0000
# 3 32.5671 60.9456 97.5198 0.0000 15.3744 0.0000
# 4 0.0000 0.0000 0.0000 35.2682 0.0000 6.4489
# 5 4.8128 8.0766 15.3744 0.0000 25.2913 0.0000
# 6 0.0000 0.0000 0.0000 6.4489 0.0000 36.9270
#
#
#
# Elastic Compliance Matrix: (Units=1/GPa)
#
#
# Indices 1 2 3 4 5 6 
#
# 1 0.011129 -0.002866 -0.001920 0.000000 -0.000036 0.000000
# 2 -0.002866 0.016612 -0.009593 0.000000 0.001072 0.000000
# 3 -0.001920 -0.009593 0.018083 0.000000 -0.007564 0.000000
# 4 0.000000 0.000000 0.000000 0.029289 0.000000 -0.005115
# 5 -0.000036 0.001072 -0.007564 0.000000 0.043802 0.000000
# 6 0.000000 0.000000 0.000000 -0.005115 0.000000 0.027974
#
#
# Mechanical properties :
#
#
# Convention : Reuss Voigt Hill
#
# Bulk Modulus (GPa) = 58.59892 62.65017 60.62455
# Shear Modulus (GPa) = 27.57322 31.06484 29.31903
#
# Velocity S-wave (km/s) = 3.69673 3.92382 3.81196
# Velocity P-wave (km/s) = 6.87487 7.18186 7.03004
#
# Compressibility (1/GPa) = 0.01706516
#
# Stress axis : x y z
#
# Youngs Moduli (GPa) = 89.85699 60.19891 55.29959
#
# Poissons Ratio (x) = 0.17255 0.10615
# Poissons Ratio (y) = 0.25755 0.53051
# Poissons Ratio (z) = 0.17249 0.57751
#
# Static dielectric constant tensor:
#      x y z
#    x 3.907910 0.000000 0.168110 
#    y 0.000000 3.665850 0.000000 
#    z 0.168110 0.000000 3.476030 
# 
# 
# High freq. dielectric constant tensor:
#      x y z
#    x 1.805450 0.000000 0.014090 
#    y 0.000000 1.782530 0.000000 
#    z 0.014090 0.000000 1.772040 
# 
# From -- ./inp_files/14906.got.cif
#   From: 2010.03.12/outbox.cif.g09.slc.cpg/sg4_8_cif.got.tgz:14906.got - 2010.03.31 09:31:35.
