data_PCOD8046451
_publ_section_title
;
Structure prediction by ZEFSAII (Michael W. Deem and Ramdas Pophale) SiO2 
 PCOD8046451
Probable space group: P 21
;
_chemical_formula_sum "Si O2"
_cell_formula_units_Z 16
_cell_length_a 13.114527
_cell_length_b 8.904034
_cell_length_c 18.614443
_cell_angle_alpha 90.000000
_cell_angle_beta 18.588338
_cell_angle_gamma 90.000000
_cell_volume 692.886366
_symmetry_space_group_name_H-M "P 21"
_symmetry_group_IT_number 4
_symmetry_cell_setting 'monoclinic'
loop_
_space_group_symop_operation_xyz
x,y,z
-x,1/2+y,-z
loop_
_atom_site_type_symbol
_atom_site_label
_atom_site_fract_x
_atom_site_fract_y
_atom_site_fract_z
Si Si1 0.856634 0.761660 0.276853
Si Si2 0.867042 0.583337 0.904781
Si Si3 0.323609 0.093989 0.359454
Si Si4 0.570133 0.155782 0.560629
Si Si5 0.517491 0.657262 0.898009
Si Si6 0.443827 0.828443 0.683195
Si Si7 0.345366 0.475449 0.144980
Si Si8 0.728403 0.817118 0.119030
O O1 0.731049 0.668888 0.292433
O O2 0.580000 0.746176 0.521725
O O3 0.931842 0.935185 0.205636
O O4 0.168529 0.683097 0.098759
O O5 0.098038 0.687413 0.701967
O O6 0.552891 0.538684 0.071575
O O7 0.752673 0.678466 0.048620
O O8 0.604880 0.970228 0.166607
O O9 0.009580 0.040373 0.610478
O O10 0.245212 0.129171 0.328017
O O11 0.455382 0.242585 0.311379
O O12 0.537166 0.280304 0.643703
O O13 0.587712 0.995207 0.588474
O O14 0.653445 0.795895 0.852983
O O15 0.499521 0.518266 0.965079
O O16 0.063929 0.840300 0.934295
#
# Coordination Sequence:
#
# PCOD8046451 Si02
#       8
#     2   2   2   2   2   2   2   2
#     4  10  21  47  72 102 147 192 232 300 358 425
#     4  10  26  45  69 104 144 188 243 298 352 426
#     4  12  29  46  75 108 149 190 237 303 363 432
#     4  11  25  42  75 104 144 192 234 291 366 429
#     4  11  26  49  75 100 144 189 247 298 357 424
#     4  11  23  46  70 108 148 185 234 298 365 426
#     4  11  28  49  73 103 140 198 243 299 356 427
#     4  12  26  42  71 109 142 186 242 291 359 439
#
# _framework density 23.091809000000001
#
# number of rings (size 3 to 8) (size 9 to 14) (size 15 to 20)
#    0.000    1.000    2.500    2.250   12.250    0.000 
#    0.000    0.000    0.000    0.000    0.000    0.000 
#    0.000    0.000    0.000    0.000    0.000    0.000 
#
# Total GULP energy -198475.699487 kJ/mol
# GULP energy per Si atom -12404.731218 kJ/mol
# Density = 2.303925 g / cm^3
# Si number density = 23.091809 Si / 1000 Ang^3
#
#
#
# Elastic Constant Matrix: (Units=GPa)
#
#
# Indices 1 2 3 4 5 6 
#
# 1 100.4644 45.6909 16.3028 0.0000 20.0310 0.0000
# 2 45.6909 80.6414 9.2601 0.0000 6.1254 0.0000
# 3 16.3028 9.2601 77.5518 0.0000 1.8654 0.0000
# 4 0.0000 0.0000 0.0000 28.6159 0.0000 2.2605
# 5 20.0310 6.1254 1.8654 0.0000 37.9942 0.0000
# 6 0.0000 0.0000 0.0000 2.2605 0.0000 48.0776
#
#
#
# Elastic Compliance Matrix: (Units=1/GPa)
#
#
# Indices 1 2 3 4 5 6 
#
# 1 0.015194 -0.007864 -0.002095 0.000000 -0.006640 0.000000
# 2 -0.007864 0.016790 -0.000387 0.000000 0.001458 0.000000
# 3 -0.002095 -0.000387 0.013369 0.000000 0.000511 0.000000
# 4 0.000000 0.000000 0.000000 0.035076 0.000000 -0.001649
# 5 -0.006640 0.001458 0.000511 0.000000 0.029560 0.000000
# 6 0.000000 0.000000 0.000000 -0.001649 0.000000 0.020877
#
#
# Mechanical properties :
#
#
# Convention : Reuss Voigt Hill
#
# Bulk Modulus (GPa) = 40.54999 44.57392 42.56195
# Shear Modulus (GPa) = 31.29320 35.43110 33.36215
#
# Velocity S-wave (km/s) = 3.68525 3.92134 3.80512
# Velocity P-wave (km/s) = 5.97550 6.31247 6.14629
#
# Compressibility (1/GPa) = 0.02466092
#
# Stress axis : x y z
#
# Youngs Moduli (GPa) = 65.81455 59.55959 74.79998
#
# Poissons Ratio (x) = 0.46838 0.15673
# Poissons Ratio (y) = 0.51756 0.02893
# Poissons Ratio (z) = 0.13791 0.02303
#
# Static dielectric constant tensor:
#      x y z
#    x 4.151040 0.000000 0.197580 
#    y 0.000000 4.140470 0.000000 
#    z 0.197580 0.000000 4.255290 
# 
# 
# High freq. dielectric constant tensor:
#      x y z
#    x 1.915570 0.000000 0.009330 
#    y 0.000000 1.910020 0.000000 
#    z 0.009330 0.000000 1.921200 
# 
# From -- ./inp_files/12584.got.cif
#   From: 2010.03.12/outbox.cif.g09.slc.cpg/sg4_7_cif.got.tgz:12584.got - 2010.03.31 09:31:35.
