data_PCOD8046339
_publ_section_title
;
Structure prediction by ZEFSAII (Michael W. Deem and Ramdas Pophale) SiO2 
 PCOD8046339
Probable space group: P 21
;
_chemical_formula_sum "Si O2"
_cell_formula_units_Z 14
_cell_length_a 13.771971
_cell_length_b 7.896210
_cell_length_c 8.080488
_cell_angle_alpha 90.000000
_cell_angle_beta 44.783886
_cell_angle_gamma 90.000000
_cell_volume 619.003452
_symmetry_space_group_name_H-M "P 21"
_symmetry_group_IT_number 4
_symmetry_cell_setting 'monoclinic'
loop_
_space_group_symop_operation_xyz
x,y,z
-x,1/2+y,-z
loop_
_atom_site_type_symbol
_atom_site_label
_atom_site_fract_x
_atom_site_fract_y
_atom_site_fract_z
Si Si1 0.010341 0.042850 0.352568
Si Si2 0.344399 0.515425 0.953339
Si Si3 0.113111 0.147727 0.897114
Si Si4 0.178651 0.543252 0.834621
Si Si5 0.344719 0.038694 0.390304
Si Si6 0.253534 0.690454 0.396435
Si Si7 0.203289 0.249865 0.307891
O O1 0.908309 0.206687 0.456251
O O2 0.117233 0.078480 0.371280
O O3 0.911446 0.881619 0.487676
O O4 0.099706 0.038338 0.079503
O O5 0.326566 0.589868 0.159236
O O6 0.286278 0.322798 0.047945
O O7 0.261587 0.598640 0.900557
O O8 0.503870 0.536244 0.713159
O O9 0.158635 0.341335 0.860029
O O10 0.231887 0.037837 0.669160
O O11 0.968212 0.138194 0.973538
O O12 0.262254 0.596609 0.566474
O O13 0.328553 0.868887 0.304294
O O14 0.315533 0.202934 0.310996
#
# Coordination Sequence:
#
# PCOD8046339 Si02
#       7
#     2   2   2   2   2   2   2
#     4  10  21  41  69 103 130 176 237 297 347 398
#     4  11  25  47  70  99 142 194 231 280 356 432
#     4  11  22  42  68 102 135 176 235 297 345 409
#     4  11  24  46  71  99 140 178 242 296 347 415
#     4  12  25  43  68 101 147 184 229 289 354 424
#     4  10  24  44  66 103 139 180 236 292 349 408
#     4  11  23  43  72  99 139 184 238 291 348 414
#
# _framework density 22.616997000000001
#
# number of rings (size 3 to 8) (size 9 to 14) (size 15 to 20)
#    0.000    1.143    1.429    6.000    4.000    1.143 
#   10.286    0.000    0.000    0.000    0.000    0.000 
#    0.000    0.000    0.000    0.000    0.000    0.000 
#
# Total GULP energy -173464.249454 kJ/mol
# GULP energy per Si atom -12390.303532 kJ/mol
# Density = 2.256552 g / cm^3
# Si number density = 22.616997 Si / 1000 Ang^3
#
#
#
# Elastic Constant Matrix: (Units=GPa)
#
#
# Indices 1 2 3 4 5 6 
#
# 1 136.7327 38.0575 70.0519 0.0000 -9.6357 0.0000
# 2 38.0575 76.6692 20.4113 0.0000 -5.2202 0.0000
# 3 70.0519 20.4113 106.3536 0.0000 -3.5345 0.0000
# 4 0.0000 0.0000 0.0000 15.3432 0.0000 -0.6006
# 5 -9.6357 -5.2202 -3.5345 0.0000 29.0126 0.0000
# 6 0.0000 0.0000 0.0000 -0.6006 0.0000 32.7207
#
#
#
# Elastic Compliance Matrix: (Units=1/GPa)
#
#
# Indices 1 2 3 4 5 6 
#
# 1 0.012330 -0.004016 -0.007268 0.000000 0.002487 0.000000
# 2 -0.004016 0.015190 -0.000224 0.000000 0.001372 0.000000
# 3 -0.007268 -0.000224 0.014209 0.000000 -0.000723 0.000000
# 4 0.000000 0.000000 0.000000 0.065222 0.000000 0.001197
# 5 0.002487 0.001372 -0.000723 0.000000 0.035452 0.000000
# 6 0.000000 0.000000 0.000000 0.001197 0.000000 0.030584
#
#
# Mechanical properties :
#
#
# Convention : Reuss Voigt Hill
#
# Bulk Modulus (GPa) = 53.44251 64.08852 58.76551
# Shear Modulus (GPa) = 24.72283 28.16429 26.44356
#
# Velocity S-wave (km/s) = 3.30981 3.53267 3.42305
# Velocity P-wave (km/s) = 6.18765 6.71101 6.45464
#
# Compressibility (1/GPa) = 0.01871170
#
# Stress axis : x y z
#
# Youngs Moduli (GPa) = 81.10060 65.83375 70.37835
#
# Poissons Ratio (x) = 0.26441 0.51152
# Poissons Ratio (y) = 0.32572 0.01578
# Poissons Ratio (z) = 0.58945 0.01476
#
# Static dielectric constant tensor:
#      x y z
#    x 4.176400 0.000000 -0.007140 
#    y 0.000000 3.994330 0.000000 
#    z -0.007140 0.000000 4.189830 
# 
# 
# High freq. dielectric constant tensor:
#      x y z
#    x 1.890960 0.000000 0.007820 
#    y 0.000000 1.883550 0.000000 
#    z 0.007820 0.000000 1.890410 
# 
# From -- ./inp_files/5809.got.cif
#   From: 2010.03.12/outbox.cif.g09.slc.cpg/sg4_3_cif.got.tgz:5809.got - 2010.03.31 09:31:35.
