data_PCOD8046310
_publ_section_title
;
Structure prediction by ZEFSAII (Michael W. Deem and Ramdas Pophale) SiO2 
 PCOD8046310
Probable space group: P 21
;
_chemical_formula_sum "Si O2"
_cell_formula_units_Z 16
_cell_length_a 18.298266
_cell_length_b 9.269114
_cell_length_c 8.197739
_cell_angle_alpha 90.000000
_cell_angle_beta 34.855228
_cell_angle_gamma 90.000000
_cell_volume 794.624850
_symmetry_space_group_name_H-M "P 21"
_symmetry_group_IT_number 4
_symmetry_cell_setting 'monoclinic'
loop_
_space_group_symop_operation_xyz
x,y,z
-x,1/2+y,-z
loop_
_atom_site_type_symbol
_atom_site_label
_atom_site_fract_x
_atom_site_fract_y
_atom_site_fract_z
Si Si1 0.782074 0.405090 0.687742
Si Si2 0.411800 0.587847 0.329222
Si Si3 0.922235 0.397013 0.749383
Si Si4 0.770640 0.336886 0.354240
Si Si5 0.480366 0.026064 0.205567
Si Si6 0.497786 0.823686 0.701610
Si Si7 0.857425 0.678811 0.708476
Si Si8 0.585595 0.785453 0.206193
O O1 0.844175 0.330953 0.736640
O O2 0.836954 0.346780 0.412868
O O3 0.814021 0.577348 0.634788
O O4 0.632831 0.367503 0.969255
O O5 0.279266 0.674376 0.584229
O O6 0.391678 0.419711 0.412272
O O7 0.517425 0.643084 0.264244
O O8 0.470023 0.606917 0.044535
O O9 0.928772 0.572088 0.709018
O O10 0.056807 0.313688 0.504066
O O11 0.863720 0.371708 0.034818
O O12 0.654669 0.449188 0.570161
O O13 0.465525 0.155717 0.359961
O O14 0.587087 0.909770 0.065181
O O15 0.497544 0.855667 0.509398
O O16 0.726639 0.749077 0.016410
#
# Coordination Sequence:
#
# PCOD8046310 Si02
#       8
#     2   2   2   2   2   2   2   2
#     4  10  21  41  63  86 127 158 202 269 308 371
#     4  11  20  37  57  94 131 156 201 253 321 384
#     4  10  24  44  67  87 121 172 220 270 309 361
#     4  11  21  42  66  91 129 169 204 258 320 384
#     4  11  21  34  61  94 129 159 198 252 324 386
#     4  12  20  36  61  95 128 159 203 256 317 391
#     4  10  23  46  62  88 128 164 222 271 306 368
#     4  11  22  36  63  91 123 169 206 251 325 381
#
# _framework density 20.135289
#
# number of rings (size 3 to 8) (size 9 to 14) (size 15 to 20)
#    0.750    0.500    3.750    3.750    0.000    2.000 
#    2.250    0.000    0.000    0.000    0.000    0.000 
#    0.000    0.000    0.000    0.000    0.000    0.000 
#
# Total GULP energy -198231.729362 kJ/mol
# GULP energy per Si atom -12389.483085 kJ/mol
# Density = 2.008946 g / cm^3
# Si number density = 20.135289 Si / 1000 Ang^3
#
#
#
# Elastic Constant Matrix: (Units=GPa)
#
#
# Indices 1 2 3 4 5 6 
#
# 1 76.5313 20.2148 38.1567 0.0000 22.1536 0.0000
# 2 20.2148 92.8719 25.6331 0.0000 -6.1808 0.0000
# 3 38.1567 25.6331 97.5166 0.0000 21.4441 0.0000
# 4 0.0000 0.0000 0.0000 24.0722 0.0000 -1.9989
# 5 22.1536 -6.1808 21.4441 0.0000 30.3953 0.0000
# 6 0.0000 0.0000 0.0000 -1.9989 0.0000 38.7616
#
#
#
# Elastic Compliance Matrix: (Units=1/GPa)
#
#
# Indices 1 2 3 4 5 6 
#
# 1 0.019668 -0.004026 -0.003912 0.000000 -0.012394 0.000000
# 2 -0.004026 0.013216 -0.003711 0.000000 0.008240 0.000000
# 3 -0.003912 -0.003711 0.014558 0.000000 -0.008174 0.000000
# 4 0.000000 0.000000 0.000000 0.041720 0.000000 0.002152
# 5 -0.012394 0.008240 -0.008174 0.000000 0.049376 0.000000
# 6 0.000000 0.000000 0.000000 0.002152 0.000000 0.025910
#
#
# Mechanical properties :
#
#
# Convention : Reuss Voigt Hill
#
# Bulk Modulus (GPa) = 41.41623 48.32543 44.87083
# Shear Modulus (GPa) = 25.53700 30.84018 28.18859
#
# Velocity S-wave (km/s) = 3.56514 3.91787 3.74566
# Velocity P-wave (km/s) = 6.12867 6.67224 6.40622
#
# Compressibility (1/GPa) = 0.02414513
#
# Stress axis : x y z
#
# Youngs Moduli (GPa) = 50.84372 75.66369 68.68934
#
# Poissons Ratio (x) = 0.30463 0.26872
# Poissons Ratio (y) = 0.20470 0.25488
# Poissons Ratio (z) = 0.19891 0.28076
#
# Static dielectric constant tensor:
#      x y z
#    x 3.637190 0.000000 0.224780 
#    y 0.000000 3.714950 0.000000 
#    z 0.224780 0.000000 3.363780 
# 
# 
# High freq. dielectric constant tensor:
#      x y z
#    x 1.777290 0.000000 0.025290 
#    y 0.000000 1.793290 0.000000 
#    z 0.025290 0.000000 1.760050 
# 
# From -- ./inp_files/7846.got.cif
#   From: 2010.03.12/outbox.cif.g09.slc.cpg/sg4_4_cif.got.tgz:7846.got - 2010.03.31 09:31:35.
