data_PCOD8046167
_publ_section_title
;
Structure prediction by ZEFSAII (Michael W. Deem and Ramdas Pophale) SiO2 
 PCOD8046167
Probable space group: P 21
;
_chemical_formula_sum "Si O2"
_cell_formula_units_Z 14
_cell_length_a 9.009619
_cell_length_b 7.746979
_cell_length_c 19.317758
_cell_angle_alpha 90.000000
_cell_angle_beta 153.646831
_cell_angle_gamma 90.000000
_cell_volume 598.526693
_symmetry_space_group_name_H-M "P 21"
_symmetry_group_IT_number 4
_symmetry_cell_setting 'monoclinic'
loop_
_space_group_symop_operation_xyz
x,y,z
-x,1/2+y,-z
loop_
_atom_site_type_symbol
_atom_site_label
_atom_site_fract_x
_atom_site_fract_y
_atom_site_fract_z
Si Si1 0.245547 0.650210 0.849465
Si Si2 0.634876 0.968242 0.968010
Si Si3 0.482219 0.646148 0.556420
Si Si4 0.608901 0.349921 0.705683
Si Si5 0.742347 0.185275 0.890920
Si Si6 0.657134 0.019439 0.642221
Si Si7 0.821959 0.472179 0.026465
O O1 0.336939 0.839826 0.861642
O O2 0.851736 0.620755 0.678032
O O3 0.371141 0.630786 0.981603
O O4 0.432246 0.508958 0.878719
O O5 0.571180 0.027601 0.861302
O O6 0.990031 0.873065 0.128127
O O7 0.433413 0.525263 0.604246
O O8 0.415376 0.848866 0.544190
O O9 0.246188 0.574445 0.396034
O O10 0.499664 0.302500 0.739825
O O11 0.494779 0.186250 0.611493
O O12 0.895753 0.296301 0.017150
O O13 0.035596 0.123451 0.962835
O O14 0.990844 0.961011 0.821698
#
# Coordination Sequence:
#
# PCOD8046167 Si02
#       7
#     2   2   2   2   2   2   2
#     4  11  22  36  59  94 129 152 206 266 319 358
#     4  11  20  36  57  92 127 160 200 263 315 367
#     4  11  23  39  62  92 128 161 210 260 314 364
#     4  10  21  38  60  90 122 160 212 247 303 372
#     4  11  20  37  63  93 126 164 204 259 308 384
#     4  11  21  38  61  90 122 165 208 254 304 377
#     4  11  21  38  62  95 122 158 210 253 319 368
#
# _framework density 23.390768999999999
#
# number of rings (size 3 to 8) (size 9 to 14) (size 15 to 20)
#    0.000    1.143    5.714    3.429    0.000    0.000 
#    0.000    0.000    0.000   10.286    0.000    0.000 
#    0.000    0.000    0.000    0.000    0.000    0.000 
#
# Total GULP energy -173470.320099 kJ/mol
# GULP energy per Si atom -12390.737150 kJ/mol
# Density = 2.333753 g / cm^3
# Si number density = 23.390769 Si / 1000 Ang^3
#
#
#
# Elastic Constant Matrix: (Units=GPa)
#
#
# Indices 1 2 3 4 5 6 
#
# 1 108.7418 35.0641 36.2571 0.0000 -33.3335 0.0000
# 2 35.0641 144.5949 31.5954 0.0000 -31.8096 0.0000
# 3 36.2571 31.5954 57.2886 0.0000 -27.8306 0.0000
# 4 0.0000 0.0000 0.0000 35.2505 0.0000 -20.3948
# 5 -33.3335 -31.8096 -27.8306 0.0000 32.3271 0.0000
# 6 0.0000 0.0000 0.0000 -20.3948 0.0000 49.9956
#
#
#
# Elastic Compliance Matrix: (Units=1/GPa)
#
#
# Indices 1 2 3 4 5 6 
#
# 1 0.013766 -0.000160 -0.003102 0.000000 0.011367 0.000000
# 2 -0.000160 0.008870 -0.001084 0.000000 0.007630 0.000000
# 3 -0.003102 -0.001084 0.030845 0.000000 0.022288 0.000000
# 4 0.000000 0.000000 0.000000 0.037132 0.000000 0.015147
# 5 0.011367 0.007630 0.022288 0.000000 0.069350 0.000000
# 6 0.000000 0.000000 0.000000 0.015147 0.000000 0.026181
#
#
# Mechanical properties :
#
#
# Convention : Reuss Voigt Hill
#
# Bulk Modulus (GPa) = 22.32739 57.38427 39.85583
# Shear Modulus (GPa) = 23.83597 37.36190 30.59893
#
# Velocity S-wave (km/s) = 3.19569 4.00095 3.62078
# Velocity P-wave (km/s) = 4.81484 6.77714 5.87845
#
# Compressibility (1/GPa) = 0.04478804
#
# Stress axis : x y z
#
# Youngs Moduli (GPa) = 72.64050 112.73904 32.42061
#
# Poissons Ratio (x) = 0.01802 0.10058
# Poissons Ratio (y) = 0.01161 0.03515
# Poissons Ratio (z) = 0.22536 0.12224
#
# Static dielectric constant tensor:
#      x y z
#    x 4.249010 0.000000 -0.535280 
#    y 0.000000 4.610220 0.000000 
#    z -0.535280 0.000000 3.850410 
# 
# 
# High freq. dielectric constant tensor:
#      x y z
#    x 1.908330 0.000000 -0.043380 
#    y 0.000000 1.955620 0.000000 
#    z -0.043380 0.000000 1.879820 
# 
# From -- ./inp_files/7633.got.cif
#   From: 2010.03.12/outbox.cif.g09.slc.cpg/sg4_4_cif.got.tgz:7633.got - 2010.03.31 09:31:35.
