data_PCOD8046641
_publ_section_title
;
Structure prediction by ZEFSAII (Michael W. Deem and Ramdas Pophale) SiO2 
 PCOD8046641
Probable space group: P 21
;
_chemical_formula_sum "Si O2"
_cell_formula_units_Z 16
_cell_length_a 11.426017
_cell_length_b 9.068114
_cell_length_c 15.069355
_cell_angle_alpha 90.000000
_cell_angle_beta 151.531821
_cell_angle_gamma 90.000000
_cell_volume 744.260337
_symmetry_space_group_name_H-M "P 21"
_symmetry_group_IT_number 4
_symmetry_cell_setting 'monoclinic'
loop_
_space_group_symop_operation_xyz
x,y,z
-x,1/2+y,-z
loop_
_atom_site_type_symbol
_atom_site_label
_atom_site_fract_x
_atom_site_fract_y
_atom_site_fract_z
Si Si1 0.318881 0.406580 0.485504
Si Si2 0.888365 0.209816 0.255876
Si Si3 0.736580 0.234586 0.827635
Si Si4 0.833130 0.937472 0.331361
Si Si5 0.032641 0.467643 0.113004
Si Si6 0.500466 0.602041 0.755963
Si Si7 0.342648 0.864125 0.744978
Si Si8 0.525281 0.191420 0.872068
O O1 0.576906 0.317382 0.644733
O O2 0.400263 0.557468 0.591170
O O3 0.137811 0.305253 0.424833
O O4 0.192604 0.442659 0.307887
O O5 0.670657 0.283059 0.168888
O O6 0.920673 0.038148 0.306442
O O7 0.797657 0.208019 0.093738
O O8 0.545105 0.231214 0.782042
O O9 0.811554 0.074367 0.845808
O O10 0.985687 0.319909 0.023783
O O11 0.653585 0.800020 0.192078
O O12 0.068374 0.860109 0.527332
O O13 0.705212 0.046107 0.314325
O O14 0.765695 0.535012 0.957288
O O15 0.510675 0.777833 0.783406
O O16 0.438845 0.025863 0.826867
#
# Coordination Sequence:
#
# PCOD8046641 Si02
#       8
#     2   2   2   2   2   2   2   2
#     4  11  21  46  70  97 132 173 225 279 339 399
#     4  11  22  39  67  97 130 178 220 265 336 404
#     4  11  25  45  69  95 130 176 222 284 344 382
#     4  11  20  39  63  94 130 179 214 264 335 397
#     4  11  25  46  72  92 135 173 228 287 335 392
#     4  10  22  43  64  96 131 175 219 271 332 393
#     4  11  23  38  63  97 137 174 220 264 330 406
#     4  12  22  42  62  96 137 174 218 280 327 403
#
# _framework density 21.497854
#
# number of rings (size 3 to 8) (size 9 to 14) (size 15 to 20)
#    0.000    1.000    5.000    3.000    1.750    3.000 
#    2.250    0.000    0.000    0.000    0.000    0.000 
#    0.000    0.000    0.000    0.000    0.000    0.000 
#
# Total GULP energy -198287.298702 kJ/mol
# GULP energy per Si atom -12392.956169 kJ/mol
# Density = 2.144892 g / cm^3
# Si number density = 21.497854 Si / 1000 Ang^3
#
#
#
# Elastic Constant Matrix: (Units=GPa)
#
#
# Indices 1 2 3 4 5 6 
#
# 1 48.5905 29.5100 33.0680 0.0000 -8.9752 0.0000
# 2 29.5100 129.5574 28.0850 0.0000 -11.6666 0.0000
# 3 33.0680 28.0850 136.3645 0.0000 -23.5518 0.0000
# 4 0.0000 0.0000 0.0000 22.0573 0.0000 2.1704
# 5 -8.9752 -11.6666 -23.5518 0.0000 21.6268 0.0000
# 6 0.0000 0.0000 0.0000 2.1704 0.0000 28.3555
#
#
#
# Elastic Compliance Matrix: (Units=1/GPa)
#
#
# Indices 1 2 3 4 5 6 
#
# 1 0.027645 -0.004892 -0.005137 0.000000 0.003240 0.000000
# 2 -0.004892 0.009121 -0.000238 0.000000 0.002631 0.000000
# 3 -0.005137 -0.000238 0.010146 0.000000 0.008789 0.000000
# 4 0.000000 0.000000 0.000000 0.045680 0.000000 -0.003496
# 5 0.003240 0.002631 0.008789 0.000000 0.058574 0.000000
# 6 0.000000 0.000000 0.000000 -0.003496 0.000000 0.035534
#
#
# Mechanical properties :
#
#
# Convention : Reuss Voigt Hill
#
# Bulk Modulus (GPa) = 37.90789 55.09316 46.50052
# Shear Modulus (GPa) = 23.14525 29.33122 26.23824
#
# Velocity S-wave (km/s) = 3.28476 3.69776 3.49736
# Velocity P-wave (km/s) = 5.66197 6.62677 6.16328
#
# Compressibility (1/GPa) = 0.02637974
#
# Stress axis : x y z
#
# Youngs Moduli (GPa) = 36.17261 109.63350 98.56210
#
# Poissons Ratio (x) = 0.53628 0.50630
# Poissons Ratio (y) = 0.17694 0.02345
# Poissons Ratio (z) = 0.18581 0.02608
#
# Static dielectric constant tensor:
#      x y z
#    x 3.604020 0.000000 0.009040 
#    y 0.000000 4.210360 0.000000 
#    z 0.009040 0.000000 4.017830 
# 
# 
# High freq. dielectric constant tensor:
#      x y z
#    x 1.812580 0.000000 0.000190 
#    y 0.000000 1.854190 0.000000 
#    z 0.000190 0.000000 1.856330 
# 
# From -- ./inp_files/11840.got.cif
#   From: 2010.03.12/outbox.cif.g09.slc.cpg/sg4_6_cif.got.tgz:11840.got - 2010.03.31 09:31:35.
