data_PCOD8046632
_publ_section_title
;
Structure prediction by ZEFSAII (Michael W. Deem and Ramdas Pophale) SiO2 
 PCOD8046632
Probable space group: P 21
;
_chemical_formula_sum "Si O2"
_cell_formula_units_Z 14
_cell_length_a 9.571999
_cell_length_b 8.155562
_cell_length_c 13.050839
_cell_angle_alpha 90.000000
_cell_angle_beta 32.932872
_cell_angle_gamma 90.000000
_cell_volume 553.884501
_symmetry_space_group_name_H-M "P 21"
_symmetry_group_IT_number 4
_symmetry_cell_setting 'monoclinic'
loop_
_space_group_symop_operation_xyz
x,y,z
-x,1/2+y,-z
loop_
_atom_site_type_symbol
_atom_site_label
_atom_site_fract_x
_atom_site_fract_y
_atom_site_fract_z
Si Si1 0.900899 0.117470 0.221932
Si Si2 0.600348 0.540006 0.388377
Si Si3 0.061700 0.756619 0.142362
Si Si4 0.270788 0.512703 0.169403
Si Si5 0.433646 0.276288 0.900685
Si Si6 0.421378 0.741997 0.747354
Si Si7 0.274384 0.947481 0.465204
O O1 0.654162 0.156392 0.447506
O O2 0.791468 0.121763 0.173933
O O3 0.979404 0.940392 0.213714
O O4 0.124972 0.252592 0.086325
O O5 0.839262 0.659227 0.217669
O O6 0.560268 0.415768 0.319748
O O7 0.642159 0.432470 0.466501
O O8 0.121810 0.663206 0.208844
O O9 0.331366 0.768742 0.917635
O O10 0.443026 0.598596 0.150665
O O11 0.031012 0.404671 0.362375
O O12 0.458582 0.409742 0.977679
O O13 0.552134 0.339107 0.720260
O O14 0.687576 0.641892 0.585587
#
# Coordination Sequence:
#
# PCOD8046632 Si02
#       7
#     2   2   2   2   2   2   2
#     4  11  23  38  67 107 138 183 226 287 352 412
#     4  10  22  42  71 106 149 183 231 289 351 428
#     4  11  22  42  66 106 144 186 234 284 350 415
#     4  11  25  47  75  97 141 185 239 300 339 421
#     4  12  26  49  73 103 139 187 239 294 355 417
#     4  11  22  42  69 104 148 186 225 287 348 425
#     4  10  24  46  71 103 143 184 238 287 355 418
#
# _framework density 25.276026999999999
#
# number of rings (size 3 to 8) (size 9 to 14) (size 15 to 20)
#    0.000    1.143    1.429    6.000    4.000    2.286 
#   10.286    1.429    0.000    0.000    0.000    0.000 
#    0.000    0.000    0.000    0.000    0.000    0.000 
#
# Total GULP energy -173451.737851 kJ/mol
# GULP energy per Si atom -12389.409846 kJ/mol
# Density = 2.521850 g / cm^3
# Si number density = 25.276027 Si / 1000 Ang^3
#
#
#
# Elastic Constant Matrix: (Units=GPa)
#
#
# Indices 1 2 3 4 5 6 
#
# 1 24.6830 -8.4605 24.9609 0.0000 -2.7392 0.0000
# 2 -8.4605 78.9622 18.8791 0.0000 2.2878 0.0000
# 3 24.9609 18.8791 152.6600 0.0000 -1.4970 0.0000
# 4 0.0000 0.0000 0.0000 45.5077 0.0000 -5.0408
# 5 -2.7392 2.2878 -1.4970 0.0000 33.6183 0.0000
# 6 0.0000 0.0000 0.0000 -5.0408 0.0000 39.8721
#
#
#
# Elastic Compliance Matrix: (Units=1/GPa)
#
#
# Indices 1 2 3 4 5 6 
#
# 1 0.053398 0.007938 -0.009679 0.000000 0.003380 0.000000
# 2 0.007938 0.014261 -0.003066 0.000000 -0.000460 0.000000
# 3 -0.009679 -0.003066 0.008510 0.000000 -0.000201 0.000000
# 4 0.000000 0.000000 0.000000 0.022286 0.000000 0.002818
# 5 0.003380 -0.000460 -0.000201 0.000000 0.030043 0.000000
# 6 0.000000 0.000000 0.000000 0.002818 0.000000 0.025436
#
#
# Mechanical properties :
#
#
# Convention : Reuss Voigt Hill
#
# Bulk Modulus (GPa) = 15.02541 36.34048 25.68295
# Shear Modulus (GPa) = 26.91997 38.52801 32.72399
#
# Velocity S-wave (km/s) = 3.26703 3.90845 3.60205
# Velocity P-wave (km/s) = 4.49319 5.89717 5.24240
#
# Compressibility (1/GPa) = 0.06655391
#
# Stress axis : x y z
#
# Youngs Moduli (GPa) = 18.72733 70.12049 117.50401
#
# Poissons Ratio (x) = -0.55659 1.13737
# Poissons Ratio (y) = -0.14865 0.36027
# Poissons Ratio (z) = 0.18127 0.21499
#
# Static dielectric constant tensor:
#      x y z
#    x 4.228220 0.000000 -0.368950 
#    y 0.000000 4.489920 0.000000 
#    z -0.368950 0.000000 5.040870 
# 
# 
# High freq. dielectric constant tensor:
#      x y z
#    x 1.968490 0.000000 -0.011750 
#    y 0.000000 2.017000 0.000000 
#    z -0.011750 0.000000 2.027220 
# 
# From -- ./inp_files/10784.got.cif
#   From: 2010.03.12/outbox.cif.g09.slc.cpg/sg4_6_cif.got.tgz:10784.got - 2010.03.31 09:31:35.
