data_PCOD8046425
_publ_section_title
;
Structure prediction by ZEFSAII (Michael W. Deem and Ramdas Pophale) SiO2 
 PCOD8046425
Probable space group: P 21
;
_chemical_formula_sum "Si O2"
_cell_formula_units_Z 16
_cell_length_a 12.011004
_cell_length_b 9.455406
_cell_length_c 11.400372
_cell_angle_alpha 90.000000
_cell_angle_beta 145.707788
_cell_angle_gamma 90.000000
_cell_volume 729.467524
_symmetry_space_group_name_H-M "P 21"
_symmetry_group_IT_number 4
_symmetry_cell_setting 'monoclinic'
loop_
_space_group_symop_operation_xyz
x,y,z
-x,1/2+y,-z
loop_
_atom_site_type_symbol
_atom_site_label
_atom_site_fract_x
_atom_site_fract_y
_atom_site_fract_z
Si Si1 0.499618 0.805450 0.941520
Si Si2 0.721482 0.504309 0.551414
Si Si3 0.248626 0.832159 0.927107
Si Si4 0.642231 0.622637 0.867400
Si Si5 0.113628 0.292129 0.239957
Si Si6 0.528586 0.602066 0.158830
Si Si7 0.609946 0.030218 0.563303
Si Si8 0.051105 0.751704 0.147405
O O1 0.280382 0.820707 0.812411
O O2 0.499393 0.728812 0.815452
O O3 0.579343 0.965654 0.994711
O O4 0.625434 0.706510 0.142877
O O5 0.835025 0.627987 0.717877
O O6 0.697551 0.544675 0.393539
O O7 0.502693 0.486430 0.415749
O O8 0.849640 0.362961 0.677291
O O9 0.021153 0.829103 0.765146
O O10 0.362561 0.695351 0.082907
O O11 0.352459 0.973511 0.063223
O O12 0.545834 0.606972 0.656566
O O13 0.860608 0.687651 0.046049
O O14 0.311021 0.385157 0.425810
O O15 0.003522 0.330017 0.022021
O O16 0.795387 0.129279 0.751610
#
# Coordination Sequence:
#
# PCOD8046425 Si02
#       8
#     2   2   2   2   2   2   2   2
#     4  10  22  42  73  96 135 193 227 287 361 408
#     4  12  25  42  67 110 141 182 243 286 356 429
#     4  10  21  44  67  97 134 186 235 279 351 418
#     4  12  23  47  72 102 141 188 234 289 364 422
#     4  12  24  43  67 103 143 186 230 294 358 419
#     4  10  22  42  71  98 136 185 238 286 343 423
#     4  12  25  45  71 104 144 188 234 293 358 429
#     4  12  26  43  68 110 144 184 233 296 357 424
#
# _framework density 21.933806000000001
#
# number of rings (size 3 to 8) (size 9 to 14) (size 15 to 20)
#    0.750    0.000    3.750    4.500    3.500    0.000 
#    0.000    3.750    0.000    0.000    0.000    0.000 
#    0.000    0.000    0.000    0.000    0.000    0.000 
#
# Total GULP energy -198309.517937 kJ/mol
# GULP energy per Si atom -12394.344871 kJ/mol
# Density = 2.188388 g / cm^3
# Si number density = 21.933806 Si / 1000 Ang^3
#
#
#
# Elastic Constant Matrix: (Units=GPa)
#
#
# Indices 1 2 3 4 5 6 
#
# 1 115.4409 41.8695 34.2294 0.0000 -0.3716 0.0000
# 2 41.8695 149.3351 40.6623 0.0000 0.4771 0.0000
# 3 34.2294 40.6623 80.9966 0.0000 -4.4161 0.0000
# 4 0.0000 0.0000 0.0000 34.3373 0.0000 3.4459
# 5 -0.3716 0.4771 -4.4161 0.0000 26.8774 0.0000
# 6 0.0000 0.0000 0.0000 3.4459 0.0000 38.4471
#
#
#
# Elastic Compliance Matrix: (Units=1/GPa)
#
#
# Indices 1 2 3 4 5 6 
#
# 1 0.010394 -0.001982 -0.003418 0.000000 -0.000383 0.000000
# 2 -0.001982 0.008151 -0.003293 0.000000 -0.000713 0.000000
# 3 -0.003418 -0.003293 0.015584 0.000000 0.002572 0.000000
# 4 0.000000 0.000000 0.000000 0.029387 0.000000 -0.002634
# 5 -0.000383 -0.000713 0.002572 0.000000 0.037636 0.000000
# 6 0.000000 0.000000 0.000000 -0.002634 0.000000 0.026246
#
#
# Mechanical properties :
#
#
# Convention : Reuss Voigt Hill
#
# Bulk Modulus (GPa) = 59.73070 64.36611 62.04841
# Shear Modulus (GPa) = 33.25227 35.19978 34.22602
#
# Velocity S-wave (km/s) = 3.89784 4.01036 3.95450
# Velocity P-wave (km/s) = 6.89558 7.13115 7.01435
#
# Compressibility (1/GPa) = 0.01674181
#
# Stress axis : x y z
#
# Youngs Moduli (GPa) = 96.21268 122.68295 64.16738
#
# Poissons Ratio (x) = 0.24318 0.21933
# Poissons Ratio (y) = 0.19071 0.21132
# Poissons Ratio (z) = 0.32887 0.40403
#
# Static dielectric constant tensor:
#      x y z
#    x 3.965770 0.000000 -0.019670 
#    y 0.000000 4.226950 0.000000 
#    z -0.019670 0.000000 3.515290 
# 
# 
# High freq. dielectric constant tensor:
#      x y z
#    x 1.864700 0.000000 -0.006300 
#    y 0.000000 1.890420 0.000000 
#    z -0.006300 0.000000 1.820530 
# 
# From -- ./inp_files/12143.got.cif
#   From: 2010.03.12/outbox.cif.g09.slc.cpg/sg4_7_cif.got.tgz:12143.got - 2010.03.31 09:31:35.
