data_PCOD8046547
_publ_section_title
;
Structure prediction by ZEFSAII (Michael W. Deem and Ramdas Pophale) SiO2 
 PCOD8046547
Probable space group: P 21
;
_chemical_formula_sum "Si O2"
_cell_formula_units_Z 16
_cell_length_a 10.800099
_cell_length_b 8.959810
_cell_length_c 9.333839
_cell_angle_alpha 90.000000
_cell_angle_beta 123.463743
_cell_angle_gamma 90.000000
_cell_volume 753.486037
_symmetry_space_group_name_H-M "P 21"
_symmetry_group_IT_number 4
_symmetry_cell_setting 'monoclinic'
loop_
_space_group_symop_operation_xyz
x,y,z
-x,1/2+y,-z
loop_
_atom_site_type_symbol
_atom_site_label
_atom_site_fract_x
_atom_site_fract_y
_atom_site_fract_z
Si Si1 0.608970 0.347800 0.401460
Si Si2 0.726870 0.854848 0.746510
Si Si3 0.391871 0.324333 0.817282
Si Si4 0.069442 0.588273 0.635929
Si Si5 0.243891 0.164447 0.486934
Si Si6 0.852535 0.117056 0.637716
Si Si7 0.132591 0.306765 0.855918
Si Si8 0.377382 0.671147 0.869584
O O1 0.450701 0.376317 0.374154
O O2 0.692159 0.503413 0.436927
O O3 0.718741 0.237369 0.557174
O O4 0.569201 0.278481 0.222795
O O5 0.761129 0.698523 0.686134
O O6 0.807621 0.985057 0.712526
O O7 0.798021 0.854163 0.948451
O O8 0.343846 0.293827 0.623521
O O9 0.269348 0.252071 0.845657
O O10 0.416377 0.499304 0.858921
O O11 0.541675 0.229478 0.936671
O O12 0.119296 0.553793 0.504474
O O13 0.050875 0.440734 0.719461
O O14 0.201869 0.688228 0.787316
O O15 0.918714 0.680318 0.546217
O O16 0.006960 0.182406 0.797401
#
# Coordination Sequence:
#
# PCOD8046547 Si02
#       8
#     2   2   2   2   2   2   2   2
#     4  11  23  45  68  95 137 180 224 276 342 404
#     4  12  27  43  64 100 138 180 220 280 343 408
#     4  11  22  43  68 102 133 175 227 281 335 398
#     4  10  23  43  69  98 127 172 230 279 332 393
#     4  12  24  42  72  97 133 176 230 279 340 406
#     4  11  24  44  73  96 133 181 227 276 340 406
#     4  11  23  44  67  95 142 167 223 281 333 402
#     4  10  22  40  69 101 135 171 225 284 329 397
#
# _framework density 21.234635000000001
#
# number of rings (size 3 to 8) (size 9 to 14) (size 15 to 20)
#    0.000    1.000    3.750    3.750    3.500    0.000 
#    2.250    0.000    0.000    0.000    0.000    0.000 
#    0.000    0.000    0.000    0.000    0.000    0.000 
#
# Total GULP energy -198388.129952 kJ/mol
# GULP energy per Si atom -12399.258122 kJ/mol
# Density = 2.118630 g / cm^3
# Si number density = 21.234635 Si / 1000 Ang^3
#
#
#
# Elastic Constant Matrix: (Units=GPa)
#
#
# Indices 1 2 3 4 5 6 
#
# 1 121.6212 39.2999 41.1501 0.0000 11.1349 0.0000
# 2 39.2999 101.7189 42.7955 0.0000 10.1395 0.0000
# 3 41.1501 42.7955 114.5700 0.0000 8.6685 0.0000
# 4 0.0000 0.0000 0.0000 35.6772 0.0000 1.3076
# 5 11.1349 10.1395 8.6685 0.0000 32.8956 0.0000
# 6 0.0000 0.0000 0.0000 1.3076 0.0000 35.1148
#
#
#
# Elastic Compliance Matrix: (Units=1/GPa)
#
#
# Indices 1 2 3 4 5 6 
#
# 1 0.010102 -0.002663 -0.002487 0.000000 -0.001943 0.000000
# 2 -0.002663 0.012571 -0.003586 0.000000 -0.002028 0.000000
# 3 -0.002487 -0.003586 0.011033 0.000000 -0.000961 0.000000
# 4 0.000000 0.000000 0.000000 0.028067 0.000000 -0.001045
# 5 -0.001943 -0.002028 -0.000961 0.000000 0.031935 0.000000
# 6 0.000000 0.000000 0.000000 -0.001045 0.000000 0.028517
#
#
# Mechanical properties :
#
#
# Convention : Reuss Voigt Hill
#
# Bulk Modulus (GPa) = 61.59300 64.93345 63.26322
# Shear Modulus (GPa) = 34.45707 35.04850 34.75278
#
# Velocity S-wave (km/s) = 4.03262 4.06708 4.04989
# Velocity P-wave (km/s) = 7.12402 7.25950 7.19208
#
# Compressibility (1/GPa) = 0.01623561
#
# Stress axis : x y z
#
# Youngs Moduli (GPa) = 98.99000 79.55039 90.63414
#
# Poissons Ratio (x) = 0.21185 0.22537
# Poissons Ratio (y) = 0.26362 0.32497
# Poissons Ratio (z) = 0.24614 0.28523
#
# Static dielectric constant tensor:
#      x y z
#    x 3.899990 0.000000 0.198720 
#    y 0.000000 3.704710 0.000000 
#    z 0.198720 0.000000 3.951110 
# 
# 
# High freq. dielectric constant tensor:
#      x y z
#    x 1.834090 0.000000 0.018160 
#    y 0.000000 1.828640 0.000000 
#    z 0.018160 0.000000 1.840170 
# 
# From -- ./inp_files/7789.got.cif
#   From: 2010.03.12/outbox.cif.g09.slc.cpg/sg4_4_cif.got.tgz:7789.got - 2010.03.31 09:31:35.
