data_PCOD8046317
_publ_section_title
;
Structure prediction by ZEFSAII (Michael W. Deem and Ramdas Pophale) SiO2 
 PCOD8046317
Probable space group: P 21
;
_chemical_formula_sum "Si O2"
_cell_formula_units_Z 16
_cell_length_a 13.133031
_cell_length_b 8.925465
_cell_length_c 15.247228
_cell_angle_alpha 90.000000
_cell_angle_beta 26.648108
_cell_angle_gamma 90.000000
_cell_volume 801.601563
_symmetry_space_group_name_H-M "P 21"
_symmetry_group_IT_number 4
_symmetry_cell_setting 'monoclinic'
loop_
_space_group_symop_operation_xyz
x,y,z
-x,1/2+y,-z
loop_
_atom_site_type_symbol
_atom_site_label
_atom_site_fract_x
_atom_site_fract_y
_atom_site_fract_z
Si Si1 0.765644 0.298420 0.610393
Si Si2 0.633507 0.021144 0.106038
Si Si3 0.693636 0.853348 0.411856
Si Si4 0.390484 0.488671 0.338897
Si Si5 0.497154 0.533558 0.601422
Si Si6 0.038889 0.973134 0.679539
Si Si7 0.211007 0.838948 0.053865
Si Si8 0.981874 0.288242 0.627450
O O1 0.595985 0.439619 0.747883
O O2 0.976795 0.354637 0.388373
O O3 0.849815 0.248218 0.640922
O O4 0.651657 0.161094 0.648913
O O5 0.660455 0.030170 0.190353
O O6 0.635600 0.189716 0.068515
O O7 0.841187 0.934907 0.900133
O O8 0.627229 0.960253 0.543975
O O9 0.547070 0.701993 0.530850
O O10 0.962529 0.817028 0.201433
O O11 0.635346 0.941812 0.369346
O O12 0.208320 0.381441 0.429966
O O13 0.645632 0.464130 0.107111
O O14 0.729696 0.448615 0.445199
O O15 0.042786 0.140552 0.636438
O O16 0.176876 0.884176 0.183100
#
# Coordination Sequence:
#
# PCOD8046317 Si02
#       8
#     2   2   2   2   2   2   2   2
#     4  11  24  35  63 101 121 167 217 255 311 373
#     4  10  21  42  63  88 130 165 205 259 315 377
#     4  11  24  41  66  94 120 167 207 259 324 374
#     4  11  22  42  61  90 135 161 205 271 310 372
#     4  11  22  42  65  92 121 165 210 254 322 377
#     4  10  21  44  64  86 131 169 203 262 319 367
#     4  10  21  43  63  85 128 169 204 257 325 370
#     4  10  21  41  65  88 124 173 213 255 318 368
#
# _framework density 19.960041
#
# number of rings (size 3 to 8) (size 9 to 14) (size 15 to 20)
#    0.000    1.500    5.000    1.500    3.500    6.000 
#    0.000    0.000    0.000    0.000    0.000    0.000 
#    0.000    0.000    0.000    0.000    0.000    0.000 
#
# Total GULP energy -198353.323667 kJ/mol
# GULP energy per Si atom -12397.082729 kJ/mol
# Density = 1.991461 g / cm^3
# Si number density = 19.960041 Si / 1000 Ang^3
#
#
#
# Elastic Constant Matrix: (Units=GPa)
#
#
# Indices 1 2 3 4 5 6 
#
# 1 108.4343 38.1948 39.4791 0.0000 11.4466 0.0000
# 2 38.1948 69.3963 39.7993 0.0000 -0.7561 0.0000
# 3 39.4791 39.7993 135.0032 0.0000 21.2973 0.0000
# 4 0.0000 0.0000 0.0000 26.6656 0.0000 1.3935
# 5 11.4466 -0.7561 21.2973 0.0000 22.3288 0.0000
# 6 0.0000 0.0000 0.0000 1.3935 0.0000 29.2483
#
#
#
# Elastic Compliance Matrix: (Units=1/GPa)
#
#
# Indices 1 2 3 4 5 6 
#
# 1 0.012390 -0.006412 -0.000820 0.000000 -0.005787 0.000000
# 2 -0.006412 0.021482 -0.005993 0.000000 0.009731 0.000000
# 3 -0.000820 -0.005993 0.011041 0.000000 -0.010313 0.000000
# 4 0.000000 0.000000 0.000000 0.037595 0.000000 -0.001791
# 5 -0.005787 0.009731 -0.010313 0.000000 0.057918 0.000000
# 6 0.000000 0.000000 0.000000 -0.001791 0.000000 0.034275
#
#
# Mechanical properties :
#
#
# Convention : Reuss Voigt Hill
#
# Bulk Modulus (GPa) = 54.16302 60.86445 57.51374
# Shear Modulus (GPa) = 24.11894 28.67258 26.39576
#
# Velocity S-wave (km/s) = 3.47992 3.79423 3.64047
# Velocity P-wave (km/s) = 6.58340 7.05367 6.82259
#
# Compressibility (1/GPa) = 0.01846278
#
# Stress axis : x y z
#
# Youngs Moduli (GPa) = 80.70889 46.55031 90.57367
#
# Poissons Ratio (x) = 0.29849 0.07428
# Poissons Ratio (y) = 0.51751 0.54280
# Poissons Ratio (z) = 0.06619 0.27897
#
# Static dielectric constant tensor:
#      x y z
#    x 3.518100 0.000000 0.268460 
#    y 0.000000 3.518610 0.000000 
#    z 0.268460 0.000000 3.948730 
# 
# 
# High freq. dielectric constant tensor:
#      x y z
#    x 1.769090 0.000000 0.016450 
#    y 0.000000 1.772540 0.000000 
#    z 0.016450 0.000000 1.788480 
# 
# From -- ./inp_files/12553.got.cif
#   From: 2010.03.12/outbox.cif.g09.slc.cpg/sg4_7_cif.got.tgz:12553.got - 2010.03.31 09:31:35.
