data_PCOD8046706
_publ_section_title
;
Structure prediction by ZEFSAII (Michael W. Deem and Ramdas Pophale) SiO2 
 PCOD8046706
Probable space group: P 21
;
_chemical_formula_sum "Si O2"
_cell_formula_units_Z 16
_cell_length_a 14.958975
_cell_length_b 8.816065
_cell_length_c 6.537100
_cell_angle_alpha 90.000000
_cell_angle_beta 128.684751
_cell_angle_gamma 90.000000
_cell_volume 672.958847
_symmetry_space_group_name_H-M "P 21"
_symmetry_group_IT_number 4
_symmetry_cell_setting 'monoclinic'
loop_
_space_group_symop_operation_xyz
x,y,z
-x,1/2+y,-z
loop_
_atom_site_type_symbol
_atom_site_label
_atom_site_fract_x
_atom_site_fract_y
_atom_site_fract_z
Si Si1 0.508409 0.856890 0.825975
Si Si2 0.643812 0.341636 0.765516
Si Si3 0.963086 0.669365 0.165056
Si Si4 0.802839 0.255767 0.637022
Si Si5 0.147809 0.084516 0.384073
Si Si6 0.949757 0.993986 0.354888
Si Si7 0.633588 0.568387 0.095194
Si Si8 0.298233 0.586428 0.867565
O O1 0.469874 0.859231 0.534080
O O2 0.407478 0.934850 0.810952
O O3 0.527074 0.683560 0.923928
O O4 0.631666 0.932012 0.031884
O O5 0.753362 0.294104 0.787844
O O6 0.665306 0.498549 0.918607
O O7 0.624999 0.207883 0.901015
O O8 0.944115 0.817877 0.279300
O O9 0.071308 0.683872 0.167405
O O10 0.984821 0.518872 0.333760
O O11 0.856194 0.640960 0.857984
O O12 0.817268 0.409884 0.531274
O O13 0.720525 0.142888 0.392006
O O14 0.254769 0.161406 0.656998
O O15 0.022027 0.100573 0.302990
O O16 0.822553 0.060646 0.190240
#
# Coordination Sequence:
#
# PCOD8046706 Si02
#       8
#     2   2   2   2   2   2   2   2
#     4  12  27  47  69 103 142 183 239 298 352 421
#     4  12  22  45  74  98 132 191 240 283 358 419
#     4  10  24  44  71 108 143 188 233 289 356 424
#     4  10  22  44  71  99 141 187 224 292 355 413
#     4  11  23  44  70 106 142 185 235 290 356 424
#     4  10  25  44  71 106 144 189 234 293 352 432
#     4  12  27  47  72 104 140 186 237 298 356 421
#     4  11  24  47  68 104 146 181 234 293 359 418
#
# _framework density 23.775600000000001
#
# number of rings (size 3 to 8) (size 9 to 14) (size 15 to 20)
#    0.000    1.000    2.500    3.000    3.500    2.000 
#   13.500    0.000    0.000    0.000    0.000    0.000 
#    0.000    0.000    0.000    0.000    0.000    0.000 
#
# Total GULP energy -198320.220450 kJ/mol
# GULP energy per Si atom -12395.013778 kJ/mol
# Density = 2.372149 g / cm^3
# Si number density = 23.775600 Si / 1000 Ang^3
#
#
#
# Elastic Constant Matrix: (Units=GPa)
#
#
# Indices 1 2 3 4 5 6 
#
# 1 102.0641 31.2748 42.2809 0.0000 -4.9449 0.0000
# 2 31.2748 89.3077 66.1701 0.0000 -6.0881 0.0000
# 3 42.2809 66.1701 180.1960 0.0000 -0.4911 0.0000
# 4 0.0000 0.0000 0.0000 37.8335 0.0000 -3.8075
# 5 -4.9449 -6.0881 -0.4911 0.0000 26.7486 0.0000
# 6 0.0000 0.0000 0.0000 -3.8075 0.0000 28.3984
#
#
#
# Elastic Compliance Matrix: (Units=1/GPa)
#
#
# Indices 1 2 3 4 5 6 
#
# 1 0.011378 -0.002622 -0.001703 0.000000 0.001475 0.000000
# 2 -0.002622 0.016302 -0.005362 0.000000 0.003127 0.000000
# 3 -0.001703 -0.005362 0.007914 0.000000 -0.001390 0.000000
# 4 0.000000 0.000000 0.000000 0.026793 0.000000 0.003592
# 5 0.001475 0.003127 -0.001390 0.000000 0.038344 0.000000
# 6 0.000000 0.000000 0.000000 0.003592 0.000000 0.035695
#
#
# Mechanical properties :
#
#
# Convention : Reuss Voigt Hill
#
# Bulk Modulus (GPa) = 61.65465 72.33551 66.99508
# Shear Modulus (GPa) = 31.01581 34.05223 32.53402
#
# Velocity S-wave (km/s) = 3.61574 3.78859 3.70317
# Velocity P-wave (km/s) = 6.58935 7.04473 6.82084
#
# Compressibility (1/GPa) = 0.01621938
#
# Stress axis : x y z
#
# Youngs Moduli (GPa) = 87.88746 61.34262 126.35187
#
# Poissons Ratio (x) = 0.16086 0.21515
# Poissons Ratio (y) = 0.23047 0.67755
# Poissons Ratio (z) = 0.14965 0.32894
#
# Static dielectric constant tensor:
#      x y z
#    x 4.246830 0.000000 0.056130 
#    y 0.000000 4.069860 0.000000 
#    z 0.056130 0.000000 4.198070 
# 
# 
# High freq. dielectric constant tensor:
#      x y z
#    x 1.943030 0.000000 0.005940 
#    y 0.000000 1.929250 0.000000 
#    z 0.005940 0.000000 1.951690 
# 
# From -- ./inp_files/2626.got.cif
#   From: 2010.03.12/outbox.cif.g09.slc.cpg/sg4_2_cif.got.tgz:2626.got - 2010.03.31 09:31:35.
