data_PCOD8046097
_publ_section_title
;
Structure prediction by ZEFSAII (Michael W. Deem and Ramdas Pophale) SiO2 
 PCOD8046097
Probable space group: P 21
;
_chemical_formula_sum "Si O2"
_cell_formula_units_Z 14
_cell_length_a 9.828094
_cell_length_b 11.978891
_cell_length_c 7.481908
_cell_angle_alpha 90.000000
_cell_angle_beta 48.942583
_cell_angle_gamma 90.000000
_cell_volume 664.200859
_symmetry_space_group_name_H-M "P 21"
_symmetry_group_IT_number 4
_symmetry_cell_setting 'monoclinic'
loop_
_space_group_symop_operation_xyz
x,y,z
-x,1/2+y,-z
loop_
_atom_site_type_symbol
_atom_site_label
_atom_site_fract_x
_atom_site_fract_y
_atom_site_fract_z
Si Si1 0.250711 0.709940 0.745998
Si Si2 0.222574 0.181259 0.293787
Si Si3 0.983672 0.353281 0.293768
Si Si4 0.101894 0.592310 0.215789
Si Si5 0.503268 0.824613 0.746022
Si Si6 0.817697 0.442238 0.784180
Si Si7 0.210986 0.517283 0.499973
O O1 0.111642 0.802591 0.797177
O O2 0.447892 0.767288 0.604206
O O3 0.260116 0.610931 0.598707
O O4 0.201773 0.667057 0.986071
O O5 0.408833 0.231942 0.202851
O O6 0.136019 0.267270 0.227993
O O7 0.083781 0.155838 0.575186
O O8 0.272609 0.064322 0.157190
O O9 0.841055 0.378701 0.575164
O O10 0.070242 0.470216 0.157170
O O11 0.217043 0.573945 0.298654
O O12 0.641148 0.923630 0.598789
O O13 0.312116 0.867477 0.986117
O O14 0.015712 0.460627 0.701310
#
# Coordination Sequence:
#
# PCOD8046097 Si02
#       7
#     2   2   2   2   2   2   2
#     4  12  26  40  71 108 131 177 230 281 339 391
#     4  10  20  43  69  95 135 181 224 278 334 405
#     4  10  20  43  69  95 135 181 224 278 334 405
#     4  10  23  43  72  93 138 183 223 268 342 408
#     4  12  26  40  71 108 131 177 230 281 339 391
#     4  10  23  43  72  93 138 183 223 268 342 408
#     4  10  24  50  62 100 142 176 228 280 326 428
#
# _framework density 21.077961999999999
#
# number of rings (size 3 to 8) (size 9 to 14) (size 15 to 20)
#    0.000    1.714    5.714    0.857    4.000    2.286 
#    0.000    2.857    0.000    0.000    0.000    0.000 
#    0.000    0.000    0.000    0.000    0.000    0.000 
#
# Total GULP energy -173542.993663 kJ/mol
# GULP energy per Si atom -12395.928119 kJ/mol
# Density = 2.102999 g / cm^3
# Si number density = 21.077962 Si / 1000 Ang^3
#
#
#
# Elastic Constant Matrix: (Units=GPa)
#
#
# Indices 1 2 3 4 5 6 
#
# 1 188.4864 85.5987 56.9182 0.0000 -11.8032 0.0000
# 2 85.5987 140.6799 52.9925 0.0000 -3.4819 0.0000
# 3 56.9182 52.9925 55.2659 0.0000 -2.5072 0.0000
# 4 0.0000 0.0000 0.0000 20.4026 0.0000 -3.3718
# 5 -11.8032 -3.4819 -2.5072 0.0000 11.8896 0.0000
# 6 0.0000 0.0000 0.0000 -3.3718 0.0000 51.7396
#
#
#
# Elastic Compliance Matrix: (Units=1/GPa)
#
#
# Indices 1 2 3 4 5 6 
#
# 1 0.008889 -0.002988 -0.005986 0.000000 0.006687 0.000000
# 2 -0.002988 0.012144 -0.008623 0.000000 -0.001228 0.000000
# 3 -0.005986 -0.008623 0.032454 0.000000 -0.001624 0.000000
# 4 0.000000 0.000000 0.000000 0.049547 0.000000 0.003229
# 5 0.006687 -0.001228 -0.001624 0.000000 0.090043 0.000000
# 6 0.000000 0.000000 0.000000 0.003229 0.000000 0.019538
#
#
# Mechanical properties :
#
#
# Convention : Reuss Voigt Hill
#
# Bulk Modulus (GPa) = 54.66636 86.16123 70.41380
# Shear Modulus (GPa) = 19.69229 29.40123 24.54676
#
# Velocity S-wave (km/s) = 3.05988 3.73886 3.41628
# Velocity P-wave (km/s) = 6.20286 7.72042 7.00287
#
# Compressibility (1/GPa) = 0.01829278
#
# Stress axis : x y z
#
# Youngs Moduli (GPa) = 112.50097 82.34318 30.81305
#
# Poissons Ratio (x) = 0.24606 0.18445
# Poissons Ratio (y) = 0.33617 0.26570
# Poissons Ratio (z) = 0.67342 0.71004
#
# Static dielectric constant tensor:
#      x y z
#    x 3.988260 0.000000 -0.055730 
#    y 0.000000 4.337580 0.000000 
#    z -0.055730 0.000000 3.471140 
# 
# 
# High freq. dielectric constant tensor:
#      x y z
#    x 1.827200 0.000000 -0.004230 
#    y 0.000000 1.862470 0.000000 
#    z -0.004230 0.000000 1.787950 
# 
# From -- ./inp_files/6356.got.cif
#   From: 2010.03.12/outbox.cif.g09.slc.cpg/sg4_4_cif.got.tgz:6356.got - 2010.03.31 09:31:35.
