data_PCOD8046572
_publ_section_title
;
Structure prediction by ZEFSAII (Michael W. Deem and Ramdas Pophale) SiO2 
 PCOD8046572
Probable space group: P 21
;
_chemical_formula_sum "Si O2"
_cell_formula_units_Z 16
_cell_length_a 5.209681
_cell_length_b 22.004478
_cell_length_c 6.023751
_cell_angle_alpha 90.000000
_cell_angle_beta 81.607399
_cell_angle_gamma 90.000000
_cell_volume 683.145724
_symmetry_space_group_name_H-M "P 21"
_symmetry_group_IT_number 4
_symmetry_cell_setting 'monoclinic'
loop_
_space_group_symop_operation_xyz
x,y,z
-x,1/2+y,-z
loop_
_atom_site_type_symbol
_atom_site_label
_atom_site_fract_x
_atom_site_fract_y
_atom_site_fract_z
Si Si1 0.770695 0.605440 0.663647
Si Si2 0.803548 0.408166 0.278293
Si Si3 0.242972 0.796358 0.005089
Si Si4 0.708926 0.055791 0.540837
Si Si5 0.237709 0.243844 0.205388
Si Si6 0.615203 0.938015 0.311361
Si Si7 0.911722 0.833515 0.428745
Si Si8 0.632512 0.511979 0.033082
O O1 0.501220 0.593773 0.573515
O O2 0.781637 0.672982 0.749165
O O3 0.020759 0.592624 0.475120
O O4 0.792653 0.560158 0.870603
O O5 0.688469 0.360609 0.116184
O O6 0.618605 0.418186 0.507093
O O7 0.054277 0.378969 0.363701
O O8 0.842467 0.474215 0.156638
O O9 0.502172 0.755901 0.968529
O O10 0.013018 0.762526 0.903839
O O11 0.165447 0.806117 0.274094
O O12 0.587434 0.046389 0.798265
O O13 0.774369 0.991559 0.414560
O O14 0.250133 0.277785 0.444494
O O15 0.777519 0.875441 0.255268
O O16 0.517025 0.960928 0.088342
#
# Coordination Sequence:
#
# PCOD8046572 Si02
#       8
#     2   2   2   2   2   2   2   2
#     4  11  25  49  69  99 141 183 235 288 336 410
#     4  10  22  42  63 100 140 177 227 282 352 417
#     4  11  25  41  72 100 134 182 230 283 350 408
#     4  10  25  42  69  99 133 178 228 284 347 405
#     4  11  26  47  69 102 139 183 238 283 338 415
#     4  10  22  41  64  99 140 175 223 286 349 416
#     4  11  25  41  69 101 141 183 225 290 353 412
#     4  10  24  43  69 102 136 183 228 286 353 413
#
# _framework density 23.421064000000001
#
# number of rings (size 3 to 8) (size 9 to 14) (size 15 to 20)
#    0.000    1.500    1.250    1.500   10.500    5.000 
#    2.250    0.000    0.000    0.000    0.000    0.000 
#    0.000    0.000    0.000    0.000    0.000    0.000 
#
# Total GULP energy -198352.879109 kJ/mol
# GULP energy per Si atom -12397.054944 kJ/mol
# Density = 2.336776 g / cm^3
# Si number density = 23.421064 Si / 1000 Ang^3
#
#
#
# Elastic Constant Matrix: (Units=GPa)
#
#
# Indices 1 2 3 4 5 6 
#
# 1 82.2435 46.3335 21.5524 0.0000 -16.9248 0.0000
# 2 46.3335 132.6954 42.4345 0.0000 -6.7340 0.0000
# 3 21.5524 42.4345 106.3993 0.0000 -15.7119 0.0000
# 4 0.0000 0.0000 0.0000 30.5298 0.0000 -5.8799
# 5 -16.9248 -6.7340 -15.7119 0.0000 18.7850 0.0000
# 6 0.0000 0.0000 0.0000 -5.8799 0.0000 33.5705
#
#
#
# Elastic Compliance Matrix: (Units=1/GPa)
#
#
# Indices 1 2 3 4 5 6 
#
# 1 0.018396 -0.005935 0.000883 0.000000 0.015186 0.000000
# 2 -0.005935 0.010554 -0.003694 0.000000 -0.004654 0.000000
# 3 0.000883 -0.003694 0.012111 0.000000 0.009601 0.000000
# 4 0.000000 0.000000 0.000000 0.033898 0.000000 0.005937
# 5 0.015186 -0.004654 0.009601 0.000000 0.073278 0.000000
# 6 0.000000 0.000000 0.000000 0.005937 0.000000 0.030828
#
#
# Mechanical properties :
#
#
# Convention : Reuss Voigt Hill
#
# Bulk Modulus (GPa) = 42.42964 60.21986 51.32475
# Shear Modulus (GPa) = 24.46028 30.64492 27.55260
#
# Velocity S-wave (km/s) = 3.23518 3.62115 3.43359
# Velocity P-wave (km/s) = 5.66661 6.57657 6.13848
#
# Compressibility (1/GPa) = 0.02356843
#
# Stress axis : x y z
#
# Youngs Moduli (GPa) = 54.35856 94.75425 82.57178
#
# Poissons Ratio (x) = 0.56239 -0.07293
# Poissons Ratio (y) = 0.32263 0.30502
# Poissons Ratio (z) = -0.04801 0.35002
#
# Static dielectric constant tensor:
#      x y z
#    x 4.078970 0.000000 -0.056190 
#    y 0.000000 4.466430 0.000000 
#    z -0.056190 0.000000 4.286670 
# 
# 
# High freq. dielectric constant tensor:
#      x y z
#    x 1.916170 0.000000 -0.008600 
#    y 0.000000 1.926460 0.000000 
#    z -0.008600 0.000000 1.932510 
# 
# From -- ./inp_files/484.got.cif
#   From: 2010.03.12/outbox.cif.g09.slc.cpg/sg4_1_cif.got.tgz:484.got - 2010.03.31 09:31:35.
