data_PCOD8046219
_publ_section_title
;
Structure prediction by ZEFSAII (Michael W. Deem and Ramdas Pophale) SiO2 
 PCOD8046219
Probable space group: P 21
;
_chemical_formula_sum "Si O2"
_cell_formula_units_Z 12
_cell_length_a 5.318557
_cell_length_b 17.204068
_cell_length_c 5.056036
_cell_angle_alpha 90.000000
_cell_angle_beta 61.544011
_cell_angle_gamma 90.000000
_cell_volume 406.737855
_symmetry_space_group_name_H-M "P 21"
_symmetry_group_IT_number 4
_symmetry_cell_setting 'monoclinic'
loop_
_space_group_symop_operation_xyz
x,y,z
-x,1/2+y,-z
loop_
_atom_site_type_symbol
_atom_site_label
_atom_site_fract_x
_atom_site_fract_y
_atom_site_fract_z
Si Si1 0.880025 0.794700 0.101686
Si Si2 0.170785 0.587697 0.745042
Si Si3 0.422014 0.460030 0.997160
Si Si4 0.019468 0.434840 0.618388
Si Si5 0.525846 0.743775 0.773296
Si Si6 0.425705 0.114460 0.875632
O O1 0.849830 0.888390 0.187686
O O2 0.668629 0.775840 0.969697
O O3 0.215523 0.780335 0.872748
O O4 0.755113 0.749763 0.422416
O O5 0.284535 0.518831 0.865010
O O6 0.021838 0.529417 0.601969
O O7 0.390116 0.644224 0.472391
O O8 0.909323 0.640605 0.992786
O O9 0.686972 0.408576 0.752800
O O10 0.201617 0.404744 0.272178
O O11 0.562755 0.520637 0.142983
O O12 0.457761 0.652060 0.900448
#
# Coordination Sequence:
#
# PCOD8046219 Si02
#       6
#     2   2   2   2   2   2
#     4  12  28  47  73 103 144 194 241 291 355 424
#     4  10  21  39  65  97 125 176 217 298 345 408
#     4  10  21  39  65  95 127 174 221 294 349 404
#     4  10  23  39  61  96 129 174 232 283 348 416
#     4  12  28  49  73 107 142 198 237 295 351 428
#     4  10  23  39  65  96 133 170 236 279 352 412
#
# _framework density 29.503028
#
# number of rings (size 3 to 8) (size 9 to 14) (size 15 to 20)
#    0.000    1.333    0.000    4.000    9.333    0.000 
#    0.000    0.000    0.000    0.000    0.000    0.000 
#    0.000    0.000    0.000    0.000    0.000    0.000 
#
# Total GULP energy -148697.571287 kJ/mol
# GULP energy per Si atom -12391.464274 kJ/mol
# Density = 2.943588 g / cm^3
# Si number density = 29.503028 Si / 1000 Ang^3
#
#
#
# Elastic Constant Matrix: (Units=GPa)
#
#
# Indices 1 2 3 4 5 6 
#
# 1 96.5049 -9.5073 57.1795 0.0000 -24.5291 0.0000
# 2 -9.5073 80.0254 -5.2986 0.0000 -12.7084 0.0000
# 3 57.1795 -5.2986 250.9639 0.0000 -47.8582 0.0000
# 4 0.0000 0.0000 0.0000 33.8041 0.0000 7.8180
# 5 -24.5291 -12.7084 -47.8582 0.0000 54.8524 0.0000
# 6 0.0000 0.0000 0.0000 7.8180 0.0000 52.7821
#
#
#
# Elastic Compliance Matrix: (Units=1/GPa)
#
#
# Indices 1 2 3 4 5 6 
#
# 1 0.012921 0.002112 -0.002044 0.000000 0.004484 0.000000
# 2 0.002112 0.013538 0.000699 0.000000 0.004691 0.000000
# 3 -0.002044 0.000699 0.005184 0.000000 0.003771 0.000000
# 4 0.000000 0.000000 0.000000 0.030632 0.000000 -0.004537
# 5 0.004484 0.004691 0.003771 0.000000 0.024613 0.000000
# 6 0.000000 0.000000 0.000000 -0.004537 0.000000 0.019618
#
#
# Mechanical properties :
#
#
# Convention : Reuss Voigt Hill
#
# Bulk Modulus (GPa) = 30.14139 56.91573 43.52856
# Shear Modulus (GPa) = 43.09177 53.96243 48.52710
#
# Velocity S-wave (km/s) = 3.82591 4.28138 4.06003
# Velocity P-wave (km/s) = 5.45484 6.61616 6.06337
#
# Compressibility (1/GPa) = 0.03317697
#
# Stress axis : x y z
#
# Youngs Moduli (GPa) = 77.39261 73.86524 192.88961
#
# Poissons Ratio (x) = -0.15599 0.39433
# Poissons Ratio (y) = -0.16343 -0.13488
# Poissons Ratio (z) = 0.15822 -0.05165
#
# Static dielectric constant tensor:
#      x y z
#    x 5.714440 0.000000 -0.658120 
#    y 0.000000 9.169190 0.000000 
#    z -0.658120 0.000000 6.463320 
# 
# 
# High freq. dielectric constant tensor:
#      x y z
#    x 2.214390 0.000000 -0.007620 
#    y 0.000000 2.230030 0.000000 
#    z -0.007620 0.000000 2.221000 
# 
# From -- ./inp_files/351.got.cif
#   From: 2010.03.12/outbox.cif.g09.slc.cpg/sg4_1_cif.got.tgz:351.got - 2010.03.31 09:31:35.
