data_PCOD8046210
_publ_section_title
;
Structure prediction by ZEFSAII (Michael W. Deem and Ramdas Pophale) SiO2 
 PCOD8046210
Probable space group: P 21
;
_chemical_formula_sum "Si O2"
_cell_formula_units_Z 16
_cell_length_a 8.456991
_cell_length_b 15.223477
_cell_length_c 7.113645
_cell_angle_alpha 90.000000
_cell_angle_beta 53.204427
_cell_angle_gamma 90.000000
_cell_volume 733.388097
_symmetry_space_group_name_H-M "P 21"
_symmetry_group_IT_number 4
_symmetry_cell_setting 'monoclinic'
loop_
_space_group_symop_operation_xyz
x,y,z
-x,1/2+y,-z
loop_
_atom_site_type_symbol
_atom_site_label
_atom_site_fract_x
_atom_site_fract_y
_atom_site_fract_z
Si Si1 0.384314 0.535700 0.979068
Si Si2 0.952594 0.892625 0.822743
Si Si3 0.283885 0.034453 0.974980
Si Si4 0.645585 0.460687 0.477160
Si Si5 0.368629 0.310724 0.518762
Si Si6 0.960076 0.374306 0.805378
Si Si7 0.712755 0.731559 0.033530
Si Si8 0.626430 0.234449 0.003891
O O1 0.543712 0.523127 0.700481
O O2 0.300828 0.634417 0.023327
O O3 0.203978 0.469872 0.090536
O O4 0.497251 0.519822 0.095508
O O5 0.860459 0.799659 0.823666
O O6 0.155370 0.917839 0.570827
O O7 0.014040 0.878160 0.991882
O O8 0.295338 0.018638 0.744515
O O9 0.208848 0.133531 0.065060
O O10 0.131376 0.968542 0.188302
O O11 0.497056 0.384980 0.524552
O O12 0.490461 0.259153 0.277381
O O13 0.174343 0.355720 0.559909
O O14 0.299222 0.245116 0.733487
O O15 0.814768 0.296000 0.852800
O O16 0.495893 0.745298 0.100819
#
# Coordination Sequence:
#
# PCOD8046210 Si02
#       8
#     2   2   2   2   2   2   2   2
#     4  11  23  41  64  89 124 161 199 251 303 354
#     4  10  21  39  64  89 121 160 200 247 301 357
#     4  10  22  41  62  91 125 158 201 251 297 359
#     4  11  22  41  63  90 118 163 201 244 307 352
#     4  11  22  41  63  90 118 163 201 244 307 352
#     4  10  21  39  64  89 121 160 200 247 301 357
#     4  10  22  41  62  91 125 158 201 251 297 359
#     4  11  23  41  64  89 124 161 199 251 303 354
#
# _framework density 21.816552000000001
#
# number of rings (size 3 to 8) (size 9 to 14) (size 15 to 20)
#    0.000    1.500    5.000    1.500    0.000    6.000 
#    0.000    0.000    0.000    0.000    0.000    0.000 
#    0.000    0.000    0.000    0.000    0.000    0.000 
#
# Total GULP energy -198374.725648 kJ/mol
# GULP energy per Si atom -12398.420353 kJ/mol
# Density = 2.176690 g / cm^3
# Si number density = 21.816552 Si / 1000 Ang^3
#
#
#
# Elastic Constant Matrix: (Units=GPa)
#
#
# Indices 1 2 3 4 5 6 
#
# 1 74.0550 57.3196 22.6178 0.0000 -30.6625 0.0000
# 2 57.3196 156.9682 22.1551 0.0000 -25.5354 0.0000
# 3 22.6178 22.1551 64.5757 0.0000 -16.8790 0.0000
# 4 0.0000 0.0000 0.0000 3.2163 0.0000 4.1495
# 5 -30.6625 -25.5354 -16.8790 0.0000 35.5695 0.0000
# 6 0.0000 0.0000 0.0000 4.1495 0.0000 33.6296
#
#
#
# Elastic Compliance Matrix: (Units=1/GPa)
#
#
# Indices 1 2 3 4 5 6 
#
# 1 0.026256 -0.006499 -0.002591 0.000000 0.016738 0.000000
# 2 -0.006499 0.008916 -0.000655 0.000000 0.000487 0.000000
# 3 -0.002591 -0.000655 0.018164 0.000000 0.005915 0.000000
# 4 0.000000 0.000000 0.000000 0.369778 0.000000 -0.045627
# 5 0.016738 0.000487 0.005915 0.000000 0.045700 0.000000
# 6 0.000000 0.000000 0.000000 -0.045627 0.000000 0.035366
#
#
# Mechanical properties :
#
#
# Convention : Reuss Voigt Hill
#
# Bulk Modulus (GPa) = 29.54671 55.53154 42.53912
# Shear Modulus (GPa) = 9.34664 27.38350 18.36507
#
# Velocity S-wave (km/s) = 2.07208 3.54668 2.90452
# Velocity P-wave (km/s) = 4.39287 6.50239 5.54880
#
# Compressibility (1/GPa) = 0.03384472
#
# Stress axis : x y z
#
# Youngs Moduli (GPa) = 38.08690 112.16191 55.05303
#
# Poissons Ratio (x) = 0.72894 0.14266
# Poissons Ratio (y) = 0.24753 0.03607
# Poissons Ratio (z) = 0.09869 0.07349
#
# Static dielectric constant tensor:
#      x y z
#    x 4.485200 0.000000 -0.153170 
#    y 0.000000 4.195960 0.000000 
#    z -0.153170 0.000000 3.954080 
# 
# 
# High freq. dielectric constant tensor:
#      x y z
#    x 1.875430 0.000000 -0.001730 
#    y 0.000000 1.865830 0.000000 
#    z -0.001730 0.000000 1.836220 
# 
# From -- ./inp_files/6728.got.cif
#   From: 2010.03.12/outbox.cif.g09.slc.cpg/sg4_4_cif.got.tgz:6728.got - 2010.03.31 09:31:35.
