data_PCOD8046083
_publ_section_title
;
Structure prediction by ZEFSAII (Michael W. Deem and Ramdas Pophale) SiO2 
 PCOD8046083
Probable space group: P 21
;
_chemical_formula_sum "Si O2"
_cell_formula_units_Z 16
_cell_length_a 19.160191
_cell_length_b 7.442419
_cell_length_c 9.585213
_cell_angle_alpha 90.000000
_cell_angle_beta 29.175257
_cell_angle_gamma 90.000000
_cell_volume 666.307770
_symmetry_space_group_name_H-M "P 21"
_symmetry_group_IT_number 4
_symmetry_cell_setting 'monoclinic'
loop_
_space_group_symop_operation_xyz
x,y,z
-x,1/2+y,-z
loop_
_atom_site_type_symbol
_atom_site_label
_atom_site_fract_x
_atom_site_fract_y
_atom_site_fract_z
Si Si1 0.256255 0.611850 0.267897
Si Si2 0.480346 0.447603 0.714113
Si Si3 0.254801 0.430289 0.682513
Si Si4 0.024209 0.012415 0.368308
Si Si5 0.328241 0.181089 0.797550
Si Si6 0.006708 0.615640 0.277525
Si Si7 0.737671 0.729957 0.599189
Si Si8 0.575702 0.215408 0.779956
O O1 0.267905 0.411771 0.304630
O O2 0.307847 0.749633 0.298617
O O3 0.093930 0.642551 0.500151
O O4 0.367522 0.609392 0.942992
O O5 0.399616 0.263490 0.811203
O O6 0.584848 0.509682 0.409210
O O7 0.569934 0.396708 0.697542
O O8 0.329125 0.339317 0.683873
O O9 0.209822 0.274043 0.650725
O O10 0.375083 0.551272 0.401740
O O11 0.121323 0.551760 0.963271
O O12 0.984393 0.988173 0.601335
O O13 0.037610 0.821352 0.269229
O O14 0.170032 0.120575 0.110007
O O15 0.851954 0.597604 0.473200
O O16 0.575896 0.652670 0.887902
#
# Coordination Sequence:
#
# PCOD8046083 Si02
#       8
#     2   2   2   2   2   2   2   2
#     4   9  20  39  63  91 126 168 216 270 327 393
#     4  11  23  42  67  95 131 171 222 278 334 401
#     4  11  23  41  65  98 135 174 227 281 336 406
#     4  11  23  43  67  97 138 182 226 276 340 403
#     4  12  25  42  65  99 136 176 224 278 340 404
#     4  11  23  43  69  99 137 180 228 281 336 400
#     4   9  21  40  63  93 131 171 216 272 333 397
#     4  10  20  42  67  94 130 172 223 278 336 398
#
# _framework density 24.012924000000002
#
# number of rings (size 3 to 8) (size 9 to 14) (size 15 to 20)
#    0.000    1.500    0.000    6.000    0.000    4.000 
#    0.000   20.000    0.000    0.000    0.000    0.000 
#    0.000    0.000    0.000    0.000    0.000    0.000 
#
# Total GULP energy -198394.268993 kJ/mol
# GULP energy per Si atom -12399.641812 kJ/mol
# Density = 2.395827 g / cm^3
# Si number density = 24.012924 Si / 1000 Ang^3
#
#
#
# Elastic Constant Matrix: (Units=GPa)
#
#
# Indices 1 2 3 4 5 6 
#
# 1 103.9985 21.8581 64.2129 0.0000 -1.4038 0.0000
# 2 21.8581 41.8910 39.2356 0.0000 -3.0171 0.0000
# 3 64.2129 39.2356 149.0308 0.0000 -5.3295 0.0000
# 4 0.0000 0.0000 0.0000 39.7750 0.0000 8.9151
# 5 -1.4038 -3.0171 -5.3295 0.0000 39.6919 0.0000
# 6 0.0000 0.0000 0.0000 8.9151 0.0000 40.2677
#
#
#
# Elastic Compliance Matrix: (Units=1/GPa)
#
#
# Indices 1 2 3 4 5 6 
#
# 1 0.013241 -0.002098 -0.005167 0.000000 -0.000385 0.000000
# 2 -0.002098 0.032083 -0.007494 0.000000 0.001358 0.000000
# 3 -0.005167 -0.007494 0.010935 0.000000 0.000716 0.000000
# 4 0.000000 0.000000 0.000000 0.026454 0.000000 -0.005857
# 5 -0.000385 0.001358 0.000716 0.000000 0.025380 0.000000
# 6 0.000000 0.000000 0.000000 -0.005857 0.000000 0.026130
#
#
# Mechanical properties :
#
#
# Convention : Reuss Voigt Hill
#
# Bulk Modulus (GPa) = 37.39438 60.61483 49.00460
# Shear Modulus (GPa) = 28.95952 35.25450 32.10701
#
# Velocity S-wave (km/s) = 3.47651 3.83580 3.66057
# Velocity P-wave (km/s) = 5.63217 6.70188 6.19017
#
# Compressibility (1/GPa) = 0.02674199
#
# Stress axis : x y z
#
# Youngs Moduli (GPa) = 75.52058 31.16928 91.45054
#
# Poissons Ratio (x) = 0.06538 0.47251
# Poissons Ratio (y) = 0.15841 0.68534
# Poissons Ratio (z) = 0.39021 0.23359
#
# Static dielectric constant tensor:
#      x y z
#    x 4.767180 0.000000 0.028330 
#    y 0.000000 3.978240 0.000000 
#    z 0.028330 0.000000 4.564840 
# 
# 
# High freq. dielectric constant tensor:
#      x y z
#    x 1.966850 0.000000 0.003000 
#    y 0.000000 1.933460 0.000000 
#    z 0.003000 0.000000 1.956260 
# 
# From -- ./inp_files/9666.got.cif
#   From: 2010.03.12/outbox.cif.g09.slc.cpg/sg4_5_cif.got.tgz:9666.got - 2010.03.31 09:31:35.
