data_PCOD8046100
_publ_section_title
;
Structure prediction by ZEFSAII (Michael W. Deem and Ramdas Pophale) SiO2 
 PCOD8046100
Probable space group: P 21
;
_chemical_formula_sum "Si O2"
_cell_formula_units_Z 16
_cell_length_a 12.617489
_cell_length_b 8.917786
_cell_length_c 6.409285
_cell_angle_alpha 90.000000
_cell_angle_beta 78.541483
_cell_angle_gamma 90.000000
_cell_volume 706.799324
_symmetry_space_group_name_H-M "P 21"
_symmetry_group_IT_number 4
_symmetry_cell_setting 'monoclinic'
loop_
_space_group_symop_operation_xyz
x,y,z
-x,1/2+y,-z
loop_
_atom_site_type_symbol
_atom_site_label
_atom_site_fract_x
_atom_site_fract_y
_atom_site_fract_z
Si Si1 0.630945 0.008770 0.053692
Si Si2 0.305533 0.713272 0.602103
Si Si3 0.091561 0.155696 0.079125
Si Si4 0.265538 0.909586 0.983002
Si Si5 0.556716 0.287553 0.832081
Si Si6 0.874572 0.220638 0.673355
Si Si7 0.170160 0.410532 0.306263
Si Si8 0.061118 0.399034 0.736506
O O1 0.685098 0.068140 0.247987
O O2 0.561185 0.861435 0.135766
O O3 0.559590 0.144167 0.985924
O O4 0.716304 0.950981 0.846031
O O5 0.304890 0.865245 0.737925
O O6 0.408827 0.728942 0.409825
O O7 0.196242 0.710559 0.509253
O O8 0.072249 0.279529 0.912838
O O9 0.197745 0.060452 0.986187
O O10 0.121637 0.249727 0.271349
O O11 0.983613 0.058046 0.159758
O O12 0.365515 0.920065 0.106327
O O13 0.193193 0.773885 0.099774
O O14 0.973619 0.334016 0.603593
O O15 0.911182 0.050185 0.716376
O O16 0.173101 0.413614 0.561565
#
# Coordination Sequence:
#
# PCOD8046100 Si02
#       8
#     2   2   2   2   2   2   2   2
#     4  11  25  45  71 101 137 178 226 286 338 411
#     4  10  20  43  72  97 128 183 225 279 340 403
#     4  11  26  43  66 101 139 176 235 276 336 411
#     4   9  21  43  67  96 132 175 220 289 331 399
#     4  10  23  45  69  99 136 177 227 279 349 403
#     4  10  21  42  70  92 134 177 228 272 340 393
#     4  12  24  43  66  99 134 182 222 283 340 400
#     4  11  26  44  69 101 136 188 223 284 336 410
#
# _framework density 22.637260000000001
#
# number of rings (size 3 to 8) (size 9 to 14) (size 15 to 20)
#    0.000    1.500    3.750    1.500    3.500   10.000 
#    0.000    0.000    0.000    0.000    0.000    0.000 
#    0.000    0.000    0.000    0.000    0.000    0.000 
#
# Total GULP energy -198209.790035 kJ/mol
# GULP energy per Si atom -12388.111877 kJ/mol
# Density = 2.258574 g / cm^3
# Si number density = 22.637260 Si / 1000 Ang^3
#
#
#
# Elastic Constant Matrix: (Units=GPa)
#
#
# Indices 1 2 3 4 5 6 
#
# 1 47.9238 20.4263 31.7676 0.0000 -1.9186 0.0000
# 2 20.4263 123.8704 44.1445 0.0000 5.1301 0.0000
# 3 31.7676 44.1445 102.6243 0.0000 -17.2074 0.0000
# 4 0.0000 0.0000 0.0000 31.5624 0.0000 3.4274
# 5 -1.9186 5.1301 -17.2074 0.0000 24.3040 0.0000
# 6 0.0000 0.0000 0.0000 3.4274 0.0000 45.1156
#
#
#
# Elastic Compliance Matrix: (Units=1/GPa)
#
#
# Indices 1 2 3 4 5 6 
#
# 1 0.026799 -0.001310 -0.008319 0.000000 -0.003498 0.000000
# 2 -0.001310 0.010315 -0.005009 0.000000 -0.005827 0.000000
# 3 -0.008319 -0.005009 0.016500 0.000000 0.012083 0.000000
# 4 0.000000 0.000000 0.000000 0.031947 0.000000 -0.002427
# 5 -0.003498 -0.005827 0.012083 0.000000 0.050654 0.000000
# 6 0.000000 0.000000 0.000000 -0.002427 0.000000 0.022350
#
#
# Mechanical properties :
#
#
# Convention : Reuss Voigt Hill
#
# Bulk Modulus (GPa) = 41.08538 51.89949 46.49243
# Shear Modulus (GPa) = 25.51642 32.06841 28.79242
#
# Velocity S-wave (km/s) = 3.36100 3.76789 3.57025
# Velocity P-wave (km/s) = 5.76634 6.47346 6.13010
#
# Compressibility (1/GPa) = 0.02433956
#
# Stress axis : x y z
#
# Youngs Moduli (GPa) = 37.31482 96.94384 60.60652
#
# Poissons Ratio (x) = 0.12697 0.50418
# Poissons Ratio (y) = 0.04887 0.30356
# Poissons Ratio (z) = 0.31042 0.48557
#
# Static dielectric constant tensor:
#      x y z
#    x 4.161230 0.000000 -0.073740 
#    y 0.000000 4.419850 0.000000 
#    z -0.073740 0.000000 4.223550 
# 
# 
# High freq. dielectric constant tensor:
#      x y z
#    x 1.866160 0.000000 -0.005390 
#    y 0.000000 1.901650 0.000000 
#    z -0.005390 0.000000 1.907290 
# 
# From -- ./inp_files/3700.got.cif
#   From: 2010.03.12/outbox.cif.g09.slc.cpg/sg4_2_cif.got.tgz:3700.got - 2010.03.31 09:31:35.
