data_PCOD8046832
_publ_section_title
;
Structure prediction by ZEFSAII (Michael W. Deem and Ramdas Pophale) SiO2 
 PCOD8046832
Probable space group: P 21
;
_chemical_formula_sum "Si O2"
_cell_formula_units_Z 16
_cell_length_a 10.468727
_cell_length_b 4.987661
_cell_length_c 14.017193
_cell_angle_alpha 90.000000
_cell_angle_beta 78.939590
_cell_angle_gamma 90.000000
_cell_volume 718.305472
_symmetry_space_group_name_H-M "P 21"
_symmetry_group_IT_number 4
_symmetry_cell_setting 'monoclinic'
loop_
_space_group_symop_operation_xyz
x,y,z
-x,1/2+y,-z
loop_
_atom_site_type_symbol
_atom_site_label
_atom_site_fract_x
_atom_site_fract_y
_atom_site_fract_z
Si Si1 0.225864 0.487160 0.659165
Si Si2 0.442497 0.511225 0.771514
Si Si3 0.414360 0.721991 0.498922
Si Si4 0.582991 0.996473 0.011877
Si Si5 0.954927 0.457138 0.761497
Si Si6 0.604773 0.029251 0.705902
Si Si7 0.022306 0.293249 0.557822
Si Si8 0.809025 0.960776 0.832075
O O1 0.337840 0.377625 0.713457
O O2 0.291719 0.730617 0.589447
O O3 0.104485 0.566747 0.745116
O O4 0.166585 0.279473 0.588092
O O5 0.380559 0.565167 0.884059
O O6 0.552162 0.287931 0.770046
O O7 0.500613 0.787143 0.721650
O O8 0.524851 0.515964 0.522241
O O9 0.361874 0.612011 0.406297
O O10 0.472992 0.198054 0.990075
O O11 0.714849 0.020659 0.933321
O O12 0.922206 0.407863 0.652969
O O13 0.927506 0.173409 0.816862
O O14 0.866965 0.664981 0.830901
O O15 0.735659 0.953987 0.741352
O O16 0.982538 0.996062 0.531148
#
# Coordination Sequence:
#
# PCOD8046832 Si02
#       8
#     2   2   2   2   2   2   2   2
#     4  10  26  43  66  93 143 170 225 259 337 393
#     4  12  23  46  64 100 131 175 212 278 348 395
#     4  12  24  39  60  94 132 171 215 263 322 391
#     4  12  23  43  71 101 129 169 222 283 343 401
#     4  10  26  40  65  91 137 177 218 264 330 384
#     4  12  24  39  66  97 135 168 222 272 334 385
#     4  10  23  42  62  90 125 181 228 254 311 385
#     4  12  23  44  64 100 128 169 228 275 323 402
#
# _framework density 22.274645
#
# number of rings (size 3 to 8) (size 9 to 14) (size 15 to 20)
#    0.750    0.000    5.000    2.250    3.500    4.000 
#    0.000    1.250    0.000    0.000    0.000    0.000 
#    0.000    0.000    0.000    0.000    0.000    0.000 
#
# Total GULP energy -198264.159050 kJ/mol
# GULP energy per Si atom -12391.509941 kJ/mol
# Density = 2.222395 g / cm^3
# Si number density = 22.274645 Si / 1000 Ang^3
#
#
#
# Elastic Constant Matrix: (Units=GPa)
#
#
# Indices 1 2 3 4 5 6 
#
# 1 59.7126 2.7455 23.7235 0.0000 -7.5868 0.0000
# 2 2.7455 89.7736 15.4932 0.0000 -12.1101 0.0000
# 3 23.7235 15.4932 83.4294 0.0000 -17.6092 0.0000
# 4 0.0000 0.0000 0.0000 27.6474 0.0000 -1.6177
# 5 -7.5868 -12.1101 -17.6092 0.0000 46.3663 0.0000
# 6 0.0000 0.0000 0.0000 -1.6177 0.0000 17.3581
#
#
#
# Elastic Compliance Matrix: (Units=1/GPa)
#
#
# Indices 1 2 3 4 5 6 
#
# 1 0.018956 0.000489 -0.005218 0.000000 0.001248 0.000000
# 2 0.000489 0.011768 -0.001803 0.000000 0.002469 0.000000
# 3 -0.005218 -0.001803 0.014704 0.000000 0.004260 0.000000
# 4 0.000000 0.000000 0.000000 0.036368 0.000000 0.003389
# 5 0.001248 0.002469 0.004260 0.000000 0.024034 0.000000
# 6 0.000000 0.000000 0.000000 0.003389 0.000000 0.057926
#
#
# Mechanical properties :
#
#
# Convention : Reuss Voigt Hill
#
# Bulk Modulus (GPa) = 30.89838 35.20443 33.05140
# Shear Modulus (GPa) = 26.65131 31.00459 28.82795
#
# Velocity S-wave (km/s) = 3.46278 3.73490 3.60141
# Velocity P-wave (km/s) = 5.46712 5.86841 5.67132
#
# Compressibility (1/GPa) = 0.03236416
#
# Stress axis : x y z
#
# Youngs Moduli (GPa) = 52.75409 84.97290 68.00967
#
# Poissons Ratio (x) = -0.04156 0.35485
# Poissons Ratio (y) = -0.02580 0.12265
# Poissons Ratio (z) = 0.27525 0.15324
#
# Static dielectric constant tensor:
#      x y z
#    x 3.830820 0.000000 -0.109200 
#    y 0.000000 3.824060 0.000000 
#    z -0.109200 0.000000 4.087200 
# 
# 
# High freq. dielectric constant tensor:
#      x y z
#    x 1.855350 0.000000 -0.010910 
#    y 0.000000 1.871020 0.000000 
#    z -0.010910 0.000000 1.881020 
# 
# From -- ./inp_files/13591.got.cif
#   From: 2010.03.12/outbox.cif.g09.slc.cpg/sg4_7_cif.got.tgz:13591.got - 2010.03.31 09:31:35.
