data_PCOD8046872
_publ_section_title
;
Structure prediction by ZEFSAII (Michael W. Deem and Ramdas Pophale) SiO2 
 PCOD8046872
Probable space group: P 21
;
_chemical_formula_sum "Si O2"
_cell_formula_units_Z 16
_cell_length_a 9.330841
_cell_length_b 8.739168
_cell_length_c 8.997824
_cell_angle_alpha 90.000000
_cell_angle_beta 90.921251
_cell_angle_gamma 90.000000
_cell_volume 733.621803
_symmetry_space_group_name_H-M "P 21"
_symmetry_group_IT_number 4
_symmetry_cell_setting 'monoclinic'
loop_
_space_group_symop_operation_xyz
x,y,z
-x,1/2+y,-z
loop_
_atom_site_type_symbol
_atom_site_label
_atom_site_fract_x
_atom_site_fract_y
_atom_site_fract_z
Si Si1 0.545641 0.481480 0.114749
Si Si2 0.326064 0.232853 0.078919
Si Si3 0.352989 0.208514 0.420539
Si Si4 0.151199 0.859666 0.853659
Si Si5 0.110880 0.003264 0.536386
Si Si6 0.975512 0.656887 0.032420
Si Si7 0.590493 0.055530 0.591129
Si Si8 0.882885 0.214223 0.652157
O O1 0.398462 0.398426 0.068987
O O2 0.679851 0.364742 0.110308
O O3 0.528314 0.544396 0.281223
O O4 0.568335 0.617095 0.001033
O O5 0.309368 0.180782 0.249299
O O6 0.173122 0.247317 0.997125
O O7 0.239556 0.124390 0.524426
O O8 0.511633 0.138959 0.451999
O O9 0.353131 0.389035 0.458367
O O10 0.125799 0.897777 0.682049
O O11 0.064070 0.978111 0.958790
O O12 0.085480 0.694378 0.898454
O O13 0.965551 0.100995 0.541249
O O14 0.107170 0.890220 0.397094
O O15 0.047315 0.711272 0.185413
O O16 0.718665 0.161404 0.652327
#
# Coordination Sequence:
#
# PCOD8046872 Si02
#       8
#     2   2   2   2   2   2   2   2
#     4  10  23  43  64  97 131 172 221 272 329 398
#     4  10  25  42  67  97 132 176 220 277 332 400
#     4  11  24  45  67  98 133 175 223 280 337 401
#     4  10  23  43  65  95 131 176 220 276 326 396
#     4  11  24  44  66  99 137 173 228 277 331 408
#     4  10  25  43  65  96 131 176 222 273 335 387
#     4  11  24  44  69  96 134 176 222 279 342 396
#     4  11  26  42  69 100 133 182 222 280 340 400
#
# _framework density 21.809604
#
# number of rings (size 3 to 8) (size 9 to 14) (size 15 to 20)
#    0.000    1.500    1.250    1.500   15.750    1.000 
#    2.250    0.000    0.000    0.000    0.000    0.000 
#    0.000    0.000    0.000    0.000    0.000    0.000 
#
# Total GULP energy -198423.449868 kJ/mol
# GULP energy per Si atom -12401.465617 kJ/mol
# Density = 2.175996 g / cm^3
# Si number density = 21.809604 Si / 1000 Ang^3
#
#
#
# Elastic Constant Matrix: (Units=GPa)
#
#
# Indices 1 2 3 4 5 6 
#
# 1 107.6016 24.2368 49.1877 0.0000 7.0892 0.0000
# 2 24.2368 50.8989 31.1535 0.0000 0.2355 0.0000
# 3 49.1877 31.1535 77.4581 0.0000 1.6022 0.0000
# 4 0.0000 0.0000 0.0000 32.6968 0.0000 -9.6996
# 5 7.0892 0.2355 1.6022 0.0000 38.4876 0.0000
# 6 0.0000 0.0000 0.0000 -9.6996 0.0000 32.2037
#
#
#
# Elastic Compliance Matrix: (Units=1/GPa)
#
#
# Indices 1 2 3 4 5 6 
#
# 1 0.013355 -0.001573 -0.007804 0.000000 -0.002125 0.000000
# 2 -0.001573 0.026251 -0.009570 0.000000 0.000527 0.000000
# 3 -0.007804 -0.009570 0.021703 0.000000 0.000593 0.000000
# 4 0.000000 0.000000 0.000000 0.033585 0.000000 0.010116
# 5 -0.002125 0.000527 0.000593 0.000000 0.026346 0.000000
# 6 0.000000 0.000000 0.000000 0.010116 0.000000 0.034099
#
#
# Mechanical properties :
#
#
# Convention : Reuss Voigt Hill
#
# Bulk Modulus (GPa) = 42.70870 49.45719 46.08295
# Shear Modulus (GPa) = 24.87076 29.43633 27.15355
#
# Velocity S-wave (km/s) = 3.38058 3.67781 3.53232
# Velocity P-wave (km/s) = 5.90447 6.38444 6.14914
#
# Compressibility (1/GPa) = 0.02341443
#
# Stress axis : x y z
#
# Youngs Moduli (GPa) = 74.87556 38.09397 46.07644
#
# Poissons Ratio (x) = 0.05992 0.35960
# Poissons Ratio (y) = 0.11777 0.44096
# Poissons Ratio (z) = 0.58436 0.36457
#
# Static dielectric constant tensor:
#      x y z
#    x 3.993000 0.000000 -0.042960 
#    y 0.000000 3.851520 0.000000 
#    z -0.042960 0.000000 3.855760 
# 
# 
# High freq. dielectric constant tensor:
#      x y z
#    x 1.870990 0.000000 0.002480 
#    y 0.000000 1.851580 0.000000 
#    z 0.002480 0.000000 1.853210 
# 
# From -- ./inp_files/5827.got.cif
#   From: 2010.03.12/outbox.cif.g09.slc.cpg/sg4_3_cif.got.tgz:5827.got - 2010.03.31 09:31:35.
