data_PCOD8046356
_publ_section_title
;
Structure prediction by ZEFSAII (Michael W. Deem and Ramdas Pophale) SiO2 
 PCOD8046356
Probable space group: P 21
;
_chemical_formula_sum "Si O2"
_cell_formula_units_Z 14
_cell_length_a 14.564299
_cell_length_b 5.088604
_cell_length_c 13.043045
_cell_angle_alpha 90.000000
_cell_angle_beta 45.005593
_cell_angle_gamma 90.000000
_cell_volume 683.588308
_symmetry_space_group_name_H-M "P 21"
_symmetry_group_IT_number 4
_symmetry_cell_setting 'monoclinic'
loop_
_space_group_symop_operation_xyz
x,y,z
-x,1/2+y,-z
loop_
_atom_site_type_symbol
_atom_site_label
_atom_site_fract_x
_atom_site_fract_y
_atom_site_fract_z
Si Si1 0.914251 0.405230 0.949573
Si Si2 0.287090 0.345736 0.152756
Si Si3 0.996400 0.895685 0.568972
Si Si4 0.083517 0.905929 0.815951
Si Si5 0.618592 0.844964 0.691154
Si Si6 0.339415 0.846470 0.986006
Si Si7 0.748552 0.338223 0.501819
O O1 0.978619 0.682670 0.872359
O O2 0.872640 0.387694 0.100952
O O3 0.786910 0.368336 0.983348
O O4 0.018394 0.182815 0.839714
O O5 0.322809 0.386572 0.242504
O O6 0.132102 0.361215 0.261670
O O7 0.352393 0.568537 0.032201
O O8 0.339826 0.066100 0.074001
O O9 0.117887 0.827732 0.542048
O O10 0.993295 0.696637 0.475650
O O11 0.214861 0.878013 0.646148
O O12 0.463698 0.875867 0.815084
O O13 0.654234 0.562869 0.617655
O O14 0.675520 0.063072 0.570387
#
# Coordination Sequence:
#
# PCOD8046356 Si02
#       7
#     2   2   2   2   2   2   2
#     4  10  21  42  64  94 115 147 202 251 296 348
#     4  12  23  40  60  86 118 164 201 245 290 341
#     4  12  21  36  57  83 115 146 190 244 286 342
#     4  10  22  40  68  90 118 149 191 256 308 350
#     4  12  25  40  56  86 128 162 198 240 282 364
#     4  12  24  40  62  85 118 163 207 238 288 349
#     4  12  22  40  59  88 122 159 193 240 312 342
#
# _framework density 20.480163000000001
#
# number of rings (size 3 to 8) (size 9 to 14) (size 15 to 20)
#    0.000    0.571    2.857    6.857    0.000    0.000 
#    0.000    1.429    0.000    0.000    0.000    0.000 
#    0.000    0.000    0.000    0.000    0.000    0.000 
#
# Total GULP energy -173713.178635 kJ/mol
# GULP energy per Si atom -12408.084188 kJ/mol
# Density = 2.043355 g / cm^3
# Si number density = 20.480163 Si / 1000 Ang^3
#
#
#
# Elastic Constant Matrix: (Units=GPa)
#
#
# Indices 1 2 3 4 5 6 
#
# 1 34.6787 11.3990 19.4058 0.0000 7.7791 0.0000
# 2 11.3990 78.2756 8.3965 0.0000 2.6269 0.0000
# 3 19.4058 8.3965 113.2122 0.0000 -2.1837 0.0000
# 4 0.0000 0.0000 0.0000 39.3414 0.0000 -2.0684
# 5 7.7791 2.6269 -2.1837 0.0000 24.6832 0.0000
# 6 0.0000 0.0000 0.0000 -2.0684 0.0000 16.6521
#
#
#
# Elastic Compliance Matrix: (Units=1/GPa)
#
#
# Indices 1 2 3 4 5 6 
#
# 1 0.036234 -0.004234 -0.006119 0.000000 -0.011510 0.000000
# 2 -0.004234 0.013425 -0.000272 0.000000 -0.000118 0.000000
# 3 -0.006119 -0.000272 0.009957 0.000000 0.002838 0.000000
# 4 0.000000 0.000000 0.000000 0.025586 0.000000 0.003178
# 5 -0.011510 -0.000118 0.002838 0.000000 0.044405 0.000000
# 6 0.000000 0.000000 0.000000 0.003178 0.000000 0.060447
#
#
# Mechanical properties :
#
#
# Convention : Reuss Voigt Hill
#
# Bulk Modulus (GPa) = 26.06501 33.84100 29.95300
# Shear Modulus (GPa) = 22.31231 28.59971 25.45601
#
# Velocity S-wave (km/s) = 3.30428 3.74098 3.52939
# Velocity P-wave (km/s) = 5.22611 5.93461 5.59159
#
# Compressibility (1/GPa) = 0.03836561
#
# Stress axis : x y z
#
# Youngs Moduli (GPa) = 27.59854 74.48721 100.43450
#
# Poissons Ratio (x) = 0.31537 0.61454
# Poissons Ratio (y) = 0.11685 0.02734
# Poissons Ratio (z) = 0.16887 0.02028
#
# Static dielectric constant tensor:
#      x y z
#    x 3.557050 0.000000 -0.005280 
#    y 0.000000 3.947460 0.000000 
#    z -0.005280 0.000000 3.987420 
# 
# 
# High freq. dielectric constant tensor:
#      x y z
#    x 1.778990 0.000000 -0.003010 
#    y 0.000000 1.821460 0.000000 
#    z -0.003010 0.000000 1.811970 
# 
# From -- ./inp_files/7127.got.cif
#   From: 2010.03.12/outbox.cif.g09.slc.cpg/sg4_4_cif.got.tgz:7127.got - 2010.03.31 09:31:35.
