data_PCOD8046565
_publ_section_title
;
Structure prediction by ZEFSAII (Michael W. Deem and Ramdas Pophale) SiO2 
 PCOD8046565
Probable space group: P 21
;
_chemical_formula_sum "Si O2"
_cell_formula_units_Z 12
_cell_length_a 9.027788
_cell_length_b 8.239618
_cell_length_c 7.211114
_cell_angle_alpha 90.000000
_cell_angle_beta 111.965784
_cell_angle_gamma 90.000000
_cell_volume 497.463644
_symmetry_space_group_name_H-M "P 21"
_symmetry_group_IT_number 4
_symmetry_cell_setting 'monoclinic'
loop_
_space_group_symop_operation_xyz
x,y,z
-x,1/2+y,-z
loop_
_atom_site_type_symbol
_atom_site_label
_atom_site_fract_x
_atom_site_fract_y
_atom_site_fract_z
Si Si1 0.545120 0.760840 0.545585
Si Si2 0.289925 0.671270 0.903356
Si Si3 0.272610 0.570797 0.308495
Si Si4 0.783920 0.645593 0.929899
Si Si5 0.982090 0.373354 0.173431
Si Si6 0.391057 0.322591 0.841551
O O1 0.354600 0.717561 0.464673
O O2 0.637280 0.628898 0.716404
O O3 0.608416 0.751801 0.364895
O O4 0.584285 0.937570 0.646952
O O5 0.230574 0.622382 0.081273
O O6 0.436093 0.799369 0.979758
O O7 0.130617 0.762194 0.743677
O O8 0.342692 0.512891 0.812715
O O9 0.111728 0.496726 0.331936
O O10 0.915521 0.765934 0.915127
O O11 0.854943 0.467956 0.987139
O O12 0.736151 0.716628 0.107071
#
# Coordination Sequence:
#
# PCOD8046565 Si02
#       6
#     2   2   2   2   2   2
#     4  10  24  39  67  98 131 174 226 277 330 404
#     4  11  22  40  68  98 133 184 222 277 342 401
#     4  10  22  41  63  99 131 172 226 265 343 393
#     4  11  22  43  68  96 137 180 227 278 337 407
#     4  11  21  42  71  95 136 185 218 280 349 393
#     4  11  23  41  65 102 134 175 235 273 337 406
#
# _framework density 24.122364999999999
#
# number of rings (size 3 to 8) (size 9 to 14) (size 15 to 20)
#    0.000    1.333    5.000    1.000    7.000    0.000 
#    0.000   10.000    0.000    0.000    0.000    0.000 
#    0.000    0.000    0.000    0.000    0.000    0.000 
#
# Total GULP energy -148694.590514 kJ/mol
# GULP energy per Si atom -12391.215876 kJ/mol
# Density = 2.406746 g / cm^3
# Si number density = 24.122365 Si / 1000 Ang^3
#
#
#
# Elastic Constant Matrix: (Units=GPa)
#
#
# Indices 1 2 3 4 5 6 
#
# 1 122.1250 44.4977 24.8113 0.0000 12.3410 0.0000
# 2 44.4977 67.8867 26.7810 0.0000 17.0263 0.0000
# 3 24.8113 26.7810 58.5646 0.0000 11.4892 0.0000
# 4 0.0000 0.0000 0.0000 35.4503 0.0000 18.7514
# 5 12.3410 17.0263 11.4892 0.0000 28.1672 0.0000
# 6 0.0000 0.0000 0.0000 18.7514 0.0000 61.0588
#
#
#
# Elastic Compliance Matrix: (Units=1/GPa)
#
#
# Indices 1 2 3 4 5 6 
#
# 1 0.010887 -0.006442 -0.001625 0.000000 -0.000213 0.000000
# 2 -0.006442 0.023695 -0.006359 0.000000 -0.008907 0.000000
# 3 -0.001625 -0.006359 0.021498 0.000000 -0.004213 0.000000
# 4 0.000000 0.000000 0.000000 0.033679 0.000000 -0.010343
# 5 -0.000213 -0.008907 -0.004213 0.000000 0.042698 0.000000
# 6 0.000000 0.000000 0.000000 -0.010343 0.000000 0.019554
#
#
# Mechanical properties :
#
#
# Convention : Reuss Voigt Hill
#
# Bulk Modulus (GPa) = 36.72540 48.97293 42.84916
# Shear Modulus (GPa) = 26.32412 35.10103 30.71257
#
# Velocity S-wave (km/s) = 3.30703 3.81875 3.57206
# Velocity P-wave (km/s) = 5.46256 6.30791 5.90039
#
# Compressibility (1/GPa) = 0.02722911
#
# Stress axis : x y z
#
# Youngs Moduli (GPa) = 91.85182 42.20244 46.51593
#
# Poissons Ratio (x) = 0.27185 0.07558
# Poissons Ratio (y) = 0.59168 0.29580
# Poissons Ratio (z) = 0.14924 0.26837
#
# Static dielectric constant tensor:
#      x y z
#    x 4.616000 0.000000 0.415660 
#    y 0.000000 4.785520 0.000000 
#    z 0.415660 0.000000 4.297570 
# 
# 
# High freq. dielectric constant tensor:
#      x y z
#    x 1.960700 0.000000 0.019140 
#    y 0.000000 1.967880 0.000000 
#    z 0.019140 0.000000 1.925280 
# 
# From -- ./inp_files/5456.got.cif
#   From: 2010.03.12/outbox.cif.g09.slc.cpg/sg4_3_cif.got.tgz:5456.got - 2010.03.31 09:31:35.
