data_PCOD8046933
_publ_section_title
;
Structure prediction by ZEFSAII (Michael W. Deem and Ramdas Pophale) SiO2 
 PCOD8046933
Probable space group: P 21
;
_chemical_formula_sum "Si O2"
_cell_formula_units_Z 16
_cell_length_a 11.706650
_cell_length_b 8.928103
_cell_length_c 17.477165
_cell_angle_alpha 90.000000
_cell_angle_beta 157.985626
_cell_angle_gamma 90.000000
_cell_volume 684.711781
_symmetry_space_group_name_H-M "P 21"
_symmetry_group_IT_number 4
_symmetry_cell_setting 'monoclinic'
loop_
_space_group_symop_operation_xyz
x,y,z
-x,1/2+y,-z
loop_
_atom_site_type_symbol
_atom_site_label
_atom_site_fract_x
_atom_site_fract_y
_atom_site_fract_z
Si Si1 0.568084 0.525910 0.009281
Si Si2 0.845573 0.834462 0.359330
Si Si3 0.427606 0.718924 0.662602
Si Si4 0.782391 0.699652 0.739977
Si Si5 0.615714 0.090982 0.947773
Si Si6 0.224715 0.254599 0.979566
Si Si7 0.424862 0.860317 0.393864
Si Si8 0.874852 0.919090 0.553673
O O1 0.740873 0.669059 0.079580
O O2 0.803847 0.414848 0.200324
O O3 0.389615 0.441481 0.830881
O O4 0.334328 0.589003 0.928569
O O5 0.904611 0.869824 0.484760
O O6 0.174187 0.847298 0.521508
O O7 0.717115 0.662904 0.276167
O O8 0.698861 0.763673 0.772461
O O9 0.239128 0.586951 0.508122
O O10 0.587774 0.664103 0.839997
O O11 0.642926 0.823750 0.599090
O O12 0.657476 0.533836 0.647873
O O13 0.143522 0.695672 0.947567
O O14 0.632840 0.920609 0.930526
O O15 0.873206 0.257420 0.786038
O O16 0.612924 0.820825 0.433303
#
# Coordination Sequence:
#
# PCOD8046933 Si02
#       8
#     2   2   2   2   2   2   2   2
#     4  12  24  47  78 103 142 189 242 300 368 427
#     4  12  26  45  74 105 144 187 237 304 363 425
#     4  11  24  45  68 100 147 187 231 295 360 423
#     4  10  24  45  67  99 143 183 242 288 355 430
#     4  11  25  42  71 108 138 183 242 295 357 437
#     4  11  24  44  71 103 143 191 234 298 366 424
#     4  10  23  44  69  99 140 190 233 291 356 428
#     4  11  24  48  70 107 141 184 247 297 355 432
#
# _framework density 23.367495999999999
#
# number of rings (size 3 to 8) (size 9 to 14) (size 15 to 20)
#    0.000    1.000    2.500    3.750    5.250    1.000 
#    2.250    0.000    0.000    0.000    0.000    0.000 
#    0.000    0.000    0.000    0.000    0.000    0.000 
#
# Total GULP energy -198308.948516 kJ/mol
# GULP energy per Si atom -12394.309282 kJ/mol
# Density = 2.331431 g / cm^3
# Si number density = 23.367496 Si / 1000 Ang^3
#
#
#
# Elastic Constant Matrix: (Units=GPa)
#
#
# Indices 1 2 3 4 5 6 
#
# 1 194.1015 27.8665 71.4843 0.0000 20.6889 0.0000
# 2 27.8665 36.9260 18.7381 0.0000 2.2125 0.0000
# 3 71.4843 18.7381 97.6147 0.0000 6.0167 0.0000
# 4 0.0000 0.0000 0.0000 30.4794 0.0000 -0.5513
# 5 20.6889 2.2125 6.0167 0.0000 49.4849 0.0000
# 6 0.0000 0.0000 0.0000 -0.5513 0.0000 34.4338
#
#
#
# Elastic Compliance Matrix: (Units=1/GPa)
#
#
# Indices 1 2 3 4 5 6 
#
# 1 0.007655 -0.003170 -0.004845 0.000000 -0.002469 0.000000
# 2 -0.003170 0.031337 -0.003717 0.000000 0.000376 0.000000
# 3 -0.004845 -0.003717 0.014479 0.000000 0.000431 0.000000
# 4 0.000000 0.000000 0.000000 0.032819 0.000000 0.000525
# 5 -0.002469 0.000376 0.000431 0.000000 0.021171 0.000000
# 6 0.000000 0.000000 0.000000 0.000525 0.000000 0.029050
#
#
# Mechanical properties :
#
#
# Convention : Reuss Voigt Hill
#
# Bulk Modulus (GPa) = 33.32565 62.75778 48.04172
# Shear Modulus (GPa) = 29.41574 36.91650 33.16612
#
# Velocity S-wave (km/s) = 3.55185 3.97901 3.77148
# Velocity P-wave (km/s) = 5.57794 6.93002 6.29041
#
# Compressibility (1/GPa) = 0.03000691
#
# Stress axis : x y z
#
# Youngs Moduli (GPa) = 130.64183 31.91085 69.06467
#
# Poissons Ratio (x) = 0.10116 0.33460
# Poissons Ratio (y) = 0.41415 0.25673
# Poissons Ratio (z) = 0.63293 0.11862
#
# Static dielectric constant tensor:
#      x y z
#    x 4.851740 0.000000 0.554430 
#    y 0.000000 3.956070 0.000000 
#    z 0.554430 0.000000 4.387210 
# 
# 
# High freq. dielectric constant tensor:
#      x y z
#    x 1.947010 0.000000 0.013530 
#    y 0.000000 1.902980 0.000000 
#    z 0.013530 0.000000 1.924450 
# 
# From -- ./inp_files/15184.got.cif
#   From: 2010.03.12/outbox.cif.g09.slc.cpg/sg4_8_cif.got.tgz:15184.got - 2010.03.31 09:31:35.
