data_PCOD8046275
_publ_section_title
;
Structure prediction by ZEFSAII (Michael W. Deem and Ramdas Pophale) SiO2 
 PCOD8046275
Probable space group: P 21
;
_chemical_formula_sum "Si O2"
_cell_formula_units_Z 14
_cell_length_a 11.422581
_cell_length_b 9.154496
_cell_length_c 7.929850
_cell_angle_alpha 90.000000
_cell_angle_beta 43.192321
_cell_angle_gamma 90.000000
_cell_volume 567.551147
_symmetry_space_group_name_H-M "P 21"
_symmetry_group_IT_number 4
_symmetry_cell_setting 'monoclinic'
loop_
_space_group_symop_operation_xyz
x,y,z
-x,1/2+y,-z
loop_
_atom_site_type_symbol
_atom_site_label
_atom_site_fract_x
_atom_site_fract_y
_atom_site_fract_z
Si Si1 0.639221 0.647730 0.995123
Si Si2 0.355547 0.841615 0.173388
Si Si3 0.981324 0.169080 0.853317
Si Si4 0.478065 0.499065 0.458722
Si Si5 0.895740 0.981146 0.247716
Si Si6 0.399468 0.720639 0.775847
Si Si7 0.010599 0.668050 0.539327
O O1 0.628998 0.517282 0.861926
O O2 0.821238 0.731308 0.781922
O O3 0.489582 0.770381 0.163255
O O4 0.630823 0.563028 0.182411
O O5 0.158051 0.791128 0.411032
O O6 0.437067 0.760300 0.926345
O O7 0.995035 0.106483 0.647341
O O8 0.108514 0.304770 0.751770
O O9 0.796674 0.240124 0.065476
O O10 0.005327 0.044419 0.972072
O O11 0.297934 0.537130 0.559191
O O12 0.476840 0.562006 0.650270
O O13 0.501947 0.327714 0.456053
O O14 0.964951 0.032967 0.357297
#
# Coordination Sequence:
#
# PCOD8046275 Si02
#       7
#     2   2   2   2   2   2   2
#     4  11  24  41  68  97 132 179 220 285 342 404
#     4  10  23  43  64  97 133 171 231 274 343 414
#     4  10  25  43  68  99 137 183 231 285 344 416
#     4  10  21  40  65  96 130 172 220 277 341 403
#     4  11  23  44  69 100 140 178 234 287 340 420
#     4   9  21  41  61  93 132 168 220 277 334 402
#     4  11  23  44  69  98 142 181 226 287 348 409
#
# _framework density 24.667380000000001
#
# number of rings (size 3 to 8) (size 9 to 14) (size 15 to 20)
#    0.000    1.714    1.429    2.571    4.000    6.857 
#    0.000    4.286    0.000    0.000    0.000    0.000 
#    0.000    0.000    0.000    0.000    0.000    0.000 
#
# Total GULP energy -173447.931975 kJ/mol
# GULP energy per Si atom -12389.137998 kJ/mol
# Density = 2.461124 g / cm^3
# Si number density = 24.667380 Si / 1000 Ang^3
#
#
#
# Elastic Constant Matrix: (Units=GPa)
#
#
# Indices 1 2 3 4 5 6 
#
# 1 58.0019 7.0064 30.1954 0.0000 14.2897 0.0000
# 2 7.0064 51.9724 18.7351 0.0000 -1.7496 0.0000
# 3 30.1954 18.7351 110.0934 0.0000 -8.6649 0.0000
# 4 0.0000 0.0000 0.0000 39.3865 0.0000 0.8958
# 5 14.2897 -1.7496 -8.6649 0.0000 41.6209 0.0000
# 6 0.0000 0.0000 0.0000 0.8958 0.0000 22.8213
#
#
#
# Elastic Compliance Matrix: (Units=1/GPa)
#
#
# Indices 1 2 3 4 5 6 
#
# 1 0.023334 -0.000947 -0.006987 0.000000 -0.009506 0.000000
# 2 -0.000947 0.020538 -0.003194 0.000000 0.000524 0.000000
# 3 -0.006987 -0.003194 0.011917 0.000000 0.004745 0.000000
# 4 0.000000 0.000000 0.000000 0.025412 0.000000 -0.000997
# 5 -0.009506 0.000524 0.004745 0.000000 0.028300 0.000000
# 6 0.000000 0.000000 0.000000 -0.000997 0.000000 0.043858
#
#
# Mechanical properties :
#
#
# Convention : Reuss Voigt Hill
#
# Bulk Modulus (GPa) = 29.82173 36.88239 33.35206
# Shear Modulus (GPa) = 26.76770 31.70778 29.23774
#
# Velocity S-wave (km/s) = 3.29773 3.58916 3.44652
# Velocity P-wave (km/s) = 5.15905 5.67101 5.42108
#
# Compressibility (1/GPa) = 0.03353259
#
# Stress axis : x y z
#
# Youngs Moduli (GPa) = 42.85507 48.69096 83.91700
#
# Poissons Ratio (x) = 0.04611 0.58632
# Poissons Ratio (y) = 0.04059 0.26803
# Poissons Ratio (z) = 0.29943 0.15552
#
# Static dielectric constant tensor:
#      x y z
#    x 4.205990 0.000000 0.051810 
#    y 0.000000 4.271650 0.000000 
#    z 0.051810 0.000000 4.669650 
# 
# 
# High freq. dielectric constant tensor:
#      x y z
#    x 1.964520 0.000000 -0.001720 
#    y 0.000000 1.965470 0.000000 
#    z -0.001720 0.000000 1.991320 
# 
# From -- ./inp_files/5567.got.cif
#   From: 2010.03.12/outbox.cif.g09.slc.cpg/sg4_3_cif.got.tgz:5567.got - 2010.03.31 09:31:35.
