data_PCOD8046199
_publ_section_title
;
Structure prediction by ZEFSAII (Michael W. Deem and Ramdas Pophale) SiO2 
 PCOD8046199
Probable space group: P 21
;
_chemical_formula_sum "Si O2"
_cell_formula_units_Z 14
_cell_length_a 11.010176
_cell_length_b 8.899758
_cell_length_c 13.004532
_cell_angle_alpha 90.000000
_cell_angle_beta 145.668996
_cell_angle_gamma 90.000000
_cell_volume 718.663336
_symmetry_space_group_name_H-M "P 21"
_symmetry_group_IT_number 4
_symmetry_cell_setting 'monoclinic'
loop_
_space_group_symop_operation_xyz
x,y,z
-x,1/2+y,-z
loop_
_atom_site_type_symbol
_atom_site_label
_atom_site_fract_x
_atom_site_fract_y
_atom_site_fract_z
Si Si1 0.487051 0.208580 0.871555
Si Si2 0.464979 0.793236 0.744877
Si Si3 0.370200 0.539688 0.826432
Si Si4 0.597439 0.888697 0.630775
Si Si5 0.783214 0.035022 0.945429
Si Si6 0.229069 0.106691 0.350927
Si Si7 0.867636 0.539929 0.481784
O O1 0.488542 0.380988 0.905061
O O2 0.244235 0.159042 0.673330
O O3 0.582791 0.115646 0.032866
O O4 0.646504 0.182087 0.885202
O O5 0.472857 0.634123 0.805151
O O6 0.482740 0.776712 0.633398
O O7 0.241778 0.878360 0.614605
O O8 0.669061 0.894932 0.926356
O O9 0.116534 0.525335 0.630267
O O10 0.718338 0.782333 0.634016
O O11 0.422627 0.995479 0.453851
O O12 0.758668 0.002591 0.805602
O O13 0.031666 0.052312 0.143526
O O14 0.172570 0.095631 0.430612
#
# Coordination Sequence:
#
# PCOD8046199 Si02
#       7
#     2   2   2   2   2   2   2
#     4  11  22  37  62  91 122 160 201 247 294 367
#     4   8  20  42  54  90 123 152 203 247 290 359
#     4  12  22  37  64  90 125 164 196 245 305 354
#     4   9  23  40  62  89 117 156 207 245 300 364
#     4   9  20  43  58  85 126 154 197 252 294 354
#     4  11  20  42  66  81 123 161 192 260 305 342
#     4  10  21  39  62  86 124 159 200 248 300 352
#
# _framework density 19.480611
#
# number of rings (size 3 to 8) (size 9 to 14) (size 15 to 20)
#    0.857    1.143    2.857    2.571    0.000    2.286 
#    2.571    0.000    0.000    0.000    0.000    0.000 
#    0.000    0.000    0.000    0.000    0.000    0.000 
#
# Total GULP energy -173504.440733 kJ/mol
# GULP energy per Si atom -12393.174338 kJ/mol
# Density = 1.943627 g / cm^3
# Si number density = 19.480611 Si / 1000 Ang^3
#
#
#
# Elastic Constant Matrix: (Units=GPa)
#
#
# Indices 1 2 3 4 5 6 
#
# 1 24.9919 22.8214 8.4863 0.0000 -0.5991 0.0000
# 2 22.8214 107.9421 38.9955 0.0000 2.8293 0.0000
# 3 8.4863 38.9955 134.1315 0.0000 14.2967 0.0000
# 4 0.0000 0.0000 0.0000 23.7133 0.0000 -7.4841
# 5 -0.5991 2.8293 14.2967 0.0000 19.4718 0.0000
# 6 0.0000 0.0000 0.0000 -7.4841 0.0000 34.0801
#
#
#
# Elastic Compliance Matrix: (Units=1/GPa)
#
#
# Indices 1 2 3 4 5 6 
#
# 1 0.049794 -0.010445 -0.000476 0.000000 0.003399 0.000000
# 2 -0.010445 0.012553 -0.002994 0.000000 0.000053 0.000000
# 3 -0.000476 -0.002994 0.009017 0.000000 -0.006200 0.000000
# 4 0.000000 0.000000 0.000000 0.045311 0.000000 0.009950
# 5 0.003399 0.000053 -0.006200 0.000000 0.056005 0.000000
# 6 0.000000 0.000000 0.000000 0.009950 0.000000 0.031528
#
#
# Mechanical properties :
#
#
# Convention : Reuss Voigt Hill
#
# Bulk Modulus (GPa) = 22.97095 45.29688 34.13391
# Shear Modulus (GPa) = 20.27998 28.57053 24.42526
#
# Velocity S-wave (km/s) = 3.23001 3.83379 3.54478
# Velocity P-wave (km/s) = 5.07227 6.54981 5.85781
#
# Compressibility (1/GPa) = 0.04353325
#
# Stress axis : x y z
#
# Youngs Moduli (GPa) = 20.08285 79.66363 110.90358
#
# Poissons Ratio (x) = 0.83206 0.05281
# Poissons Ratio (y) = 0.20976 0.33208
# Poissons Ratio (z) = 0.00956 0.23853
#
# Static dielectric constant tensor:
#      x y z
#    x 3.295110 0.000000 -0.057130 
#    y 0.000000 3.417250 0.000000 
#    z -0.057130 0.000000 3.642170 
# 
# 
# High freq. dielectric constant tensor:
#      x y z
#    x 1.737460 0.000000 -0.004800 
#    y 0.000000 1.747690 0.000000 
#    z -0.004800 0.000000 1.765300 
# 
# From -- ./inp_files/13882.got.cif
#   From: 2010.03.12/outbox.cif.g09.slc.cpg/sg4_7_cif.got.tgz:13882.got - 2010.03.31 09:31:35.
