data_PCOD8046852
_publ_section_title
;
Structure prediction by ZEFSAII (Michael W. Deem and Ramdas Pophale) SiO2 
 PCOD8046852
Probable space group: P 21
;
_chemical_formula_sum "Si O2"
_cell_formula_units_Z 14
_cell_length_a 6.114872
_cell_length_b 10.325101
_cell_length_c 12.062663
_cell_angle_alpha 90.000000
_cell_angle_beta 129.087740
_cell_angle_gamma 90.000000
_cell_volume 591.136903
_symmetry_space_group_name_H-M "P 21"
_symmetry_group_IT_number 4
_symmetry_cell_setting 'monoclinic'
loop_
_space_group_symop_operation_xyz
x,y,z
-x,1/2+y,-z
loop_
_atom_site_type_symbol
_atom_site_label
_atom_site_fract_x
_atom_site_fract_y
_atom_site_fract_z
Si Si1 0.155075 0.861630 0.287639
Si Si2 0.438372 0.580895 0.632767
Si Si3 0.780952 0.953126 0.992721
Si Si4 0.943198 0.720472 0.890668
Si Si5 0.143216 0.882808 0.764107
Si Si6 0.124611 0.954021 0.519261
Si Si7 0.673191 0.089012 0.650702
O O1 0.150747 0.864350 0.419883
O O2 0.201574 0.718132 0.255568
O O3 0.864025 0.918734 0.146053
O O4 0.409502 0.942633 0.317357
O O5 0.614364 0.683140 0.762911
O O6 0.430542 0.629684 0.504423
O O7 0.124894 0.558088 0.578846
O O8 0.940646 0.848102 0.965971
O O9 0.447631 0.945628 0.878576
O O10 0.890202 0.099340 0.999895
O O11 0.098683 0.752796 0.822600
O O12 0.081294 0.860733 0.612716
O O13 0.915046 0.983683 0.734851
O O14 0.408078 0.035401 0.634609
#
# Coordination Sequence:
#
# PCOD8046852 Si02
#       7
#     2   2   2   2   2   2   2
#     4  10  24  45  68 107 144 180 246 303 358 439
#     4   9  23  43  69 104 139 190 233 302 358 430
#     4  11  28  47  77 101 151 198 234 311 364 440
#     4  11  27  49  72 110 146 193 252 300 363 441
#     4  11  26  45  75 106 142 191 248 297 374 429
#     4  10  23  47  72 107 138 193 238 307 369 428
#     4  10  23  42  69 107 144 177 245 296 360 437
#
# _framework density 23.683178000000002
#
# number of rings (size 3 to 8) (size 9 to 14) (size 15 to 20)
#    0.000    1.714    0.000    0.857   14.000    8.000 
#    5.143    0.000    0.000    0.000    0.000    0.000 
#    0.000    0.000    0.000    0.000    0.000    0.000 
#
# Total GULP energy -173585.804390 kJ/mol
# GULP energy per Si atom -12398.986028 kJ/mol
# Density = 2.362927 g / cm^3
# Si number density = 23.683178 Si / 1000 Ang^3
#
#
#
# Elastic Constant Matrix: (Units=GPa)
#
#
# Indices 1 2 3 4 5 6 
#
# 1 117.7241 51.0124 48.8118 0.0000 14.3994 0.0000
# 2 51.0124 132.5797 46.7480 0.0000 -11.3152 0.0000
# 3 48.8118 46.7480 95.5123 0.0000 21.6308 0.0000
# 4 0.0000 0.0000 0.0000 35.1593 0.0000 -3.6481
# 5 14.3994 -11.3152 21.6308 0.0000 39.4058 0.0000
# 6 0.0000 0.0000 0.0000 -3.6481 0.0000 20.2861
#
#
#
# Elastic Compliance Matrix: (Units=1/GPa)
#
#
# Indices 1 2 3 4 5 6 
#
# 1 0.011972 -0.003655 -0.003541 0.000000 -0.003480 0.000000
# 2 -0.003655 0.011554 -0.005529 0.000000 0.007688 0.000000
# 3 -0.003541 -0.005529 0.017189 0.000000 -0.009729 0.000000
# 4 0.000000 0.000000 0.000000 0.028983 0.000000 0.005212
# 5 -0.003480 0.007688 -0.009729 0.000000 0.034197 0.000000
# 6 0.000000 0.000000 0.000000 0.005212 0.000000 0.050232
#
#
# Mechanical properties :
#
#
# Convention : Reuss Voigt Hill
#
# Bulk Modulus (GPa) = 65.50523 70.99562 68.25042
# Shear Modulus (GPa) = 27.07598 32.25318 29.66458
#
# Velocity S-wave (km/s) = 3.38488 3.69434 3.54299
# Velocity P-wave (km/s) = 6.55710 6.94549 6.75409
#
# Compressibility (1/GPa) = 0.01526596
#
# Stress axis : x y z
#
# Youngs Moduli (GPa) = 83.52662 86.54668 58.17701
#
# Poissons Ratio (x) = 0.31632 0.20603
# Poissons Ratio (y) = 0.30528 0.32164
# Poissons Ratio (z) = 0.29580 0.47848
#
# Static dielectric constant tensor:
#      x y z
#    x 4.161950 0.000000 0.035850 
#    y 0.000000 4.137520 0.000000 
#    z 0.035850 0.000000 4.583540 
# 
# 
# High freq. dielectric constant tensor:
#      x y z
#    x 1.927240 0.000000 0.005700 
#    y 0.000000 1.937980 0.000000 
#    z 0.005700 0.000000 1.952040 
# 
# From -- ./inp_files/10442.got.cif
#   From: 2010.03.12/outbox.cif.g09.slc.cpg/sg4_6_cif.got.tgz:10442.got - 2010.03.31 09:31:35.
