data_PCOD8046047
_publ_section_title
;
Structure prediction by ZEFSAII (Michael W. Deem and Ramdas Pophale) SiO2 
 PCOD8046047
Probable space group: P 21
;
_chemical_formula_sum "Si O2"
_cell_formula_units_Z 12
_cell_length_a 27.583038
_cell_length_b 4.887618
_cell_length_c 21.695851
_cell_angle_alpha 90.000000
_cell_angle_beta 11.148377
_cell_angle_gamma 90.000000
_cell_volume 565.537241
_symmetry_space_group_name_H-M "P 21"
_symmetry_group_IT_number 4
_symmetry_cell_setting 'monoclinic'
loop_
_space_group_symop_operation_xyz
x,y,z
-x,1/2+y,-z
loop_
_atom_site_type_symbol
_atom_site_label
_atom_site_fract_x
_atom_site_fract_y
_atom_site_fract_z
Si Si1 0.524549 0.334610 0.928285
Si Si2 0.339907 0.902980 0.715457
Si Si3 0.073319 0.395118 0.236983
Si Si4 0.347848 0.899234 0.845931
Si Si5 0.063596 0.036944 0.456056
Si Si6 0.929279 0.854503 0.127213
O O1 0.790598 0.380861 0.562418
O O2 0.422573 0.626144 0.080373
O O3 0.329827 0.194015 0.125345
O O4 0.532919 0.105986 0.441338
O O5 0.298560 0.996546 0.837362
O O6 0.077596 0.899273 0.006052
O O7 0.061896 0.501473 0.321082
O O8 0.240362 0.595779 0.987594
O O9 0.199976 0.098288 0.076545
O O10 0.638290 0.910275 0.502315
O O11 0.889130 0.242876 0.634409
O O12 0.966585 0.546409 0.057116
#
# Coordination Sequence:
#
# PCOD8046047 Si02
#       6
#     2   2   2   2   2   2
#     4  10  20  40  67  86 119 173 209 243 314 400
#     4  12  23  43  70  94 126 176 226 257 316 404
#     4  11  24  43  64  94 132 165 208 272 333 364
#     4  12  24  42  67  97 137 165 214 283 324 367
#     4  11  22  41  68  94 125 167 217 261 313 398
#     4  12  23  43  70  95 127 176 220 262 320 395
#
# _framework density 21.218765000000001
#
# number of rings (size 3 to 8) (size 9 to 14) (size 15 to 20)
#    0.000    0.667    3.333    7.000    0.000    0.000 
#    9.000    0.000    0.000    0.000    0.000    0.000 
#    0.000    0.000    0.000    0.000    0.000    0.000 
#
# Total GULP energy -148855.611521 kJ/mol
# GULP energy per Si atom -12404.634293 kJ/mol
# Density = 2.117047 g / cm^3
# Si number density = 21.218765 Si / 1000 Ang^3
#
#
#
# Elastic Constant Matrix: (Units=GPa)
#
#
# Indices 1 2 3 4 5 6 
#
# 1 101.4662 17.0640 48.9364 0.0000 -16.4086 0.0000
# 2 17.0640 69.7402 5.0253 0.0000 5.8747 0.0000
# 3 48.9364 5.0253 118.7488 0.0000 -14.2102 0.0000
# 4 0.0000 0.0000 0.0000 39.8414 0.0000 6.5109
# 5 -16.4086 5.8747 -14.2102 0.0000 31.5734 0.0000
# 6 0.0000 0.0000 0.0000 6.5109 0.0000 38.8745
#
#
#
# Elastic Compliance Matrix: (Units=1/GPa)
#
#
# Indices 1 2 3 4 5 6 
#
# 1 0.013663 -0.003466 -0.004817 0.000000 0.005578 0.000000
# 2 -0.003466 0.015558 0.000220 0.000000 -0.004597 0.000000
# 3 -0.004817 0.000220 0.010667 0.000000 0.002257 0.000000
# 4 0.000000 0.000000 0.000000 0.025806 0.000000 -0.004322
# 5 0.005578 -0.004597 0.002257 0.000000 0.036442 0.000000
# 6 0.000000 0.000000 0.000000 -0.004322 0.000000 0.026448
#
#
# Mechanical properties :
#
#
# Convention : Reuss Voigt Hill
#
# Bulk Modulus (GPa) = 42.08189 48.00073 45.04131
# Shear Modulus (GPa) = 32.75884 36.65318 34.70601
#
# Velocity S-wave (km/s) = 3.93346 4.16070 4.04868
# Velocity P-wave (km/s) = 6.36435 6.76409 6.56726
#
# Compressibility (1/GPa) = 0.02376319
#
# Stress axis : x y z
#
# Youngs Moduli (GPa) = 73.18832 64.27401 93.74902
#
# Poissons Ratio (x) = 0.22277 0.45154
# Poissons Ratio (y) = 0.25367 -0.02060
# Poissons Ratio (z) = 0.35251 -0.01413
#
# Static dielectric constant tensor:
#      x y z
#    x 3.679470 0.000000 -0.239040 
#    y 0.000000 4.041880 0.000000 
#    z -0.239040 0.000000 3.761540 
# 
# 
# High freq. dielectric constant tensor:
#      x y z
#    x 1.818620 0.000000 -0.015980 
#    y 0.000000 1.858240 0.000000 
#    z -0.015980 0.000000 1.829600 
# 
# From -- ./inp_files/15952.got.cif
#   From: 2010.03.12/outbox.cif.g09.slc.cpg/sg4_8_cif.got.tgz:15952.got - 2010.03.31 09:31:35.
