data_PCOD8046786
_publ_section_title
;
Structure prediction by ZEFSAII (Michael W. Deem and Ramdas Pophale) SiO2 
 PCOD8046786
Probable space group: P 21
;
_chemical_formula_sum "Si O2"
_cell_formula_units_Z 16
_cell_length_a 10.016162
_cell_length_b 8.089233
_cell_length_c 9.066276
_cell_angle_alpha 90.000000
_cell_angle_beta 54.026235
_cell_angle_gamma 90.000000
_cell_volume 594.483321
_symmetry_space_group_name_H-M "P 21"
_symmetry_group_IT_number 4
_symmetry_cell_setting 'monoclinic'
loop_
_space_group_symop_operation_xyz
x,y,z
-x,1/2+y,-z
loop_
_atom_site_type_symbol
_atom_site_label
_atom_site_fract_x
_atom_site_fract_y
_atom_site_fract_z
Si Si1 0.238539 0.959110 0.557316
Si Si2 0.322802 0.681960 0.020949
Si Si3 0.195716 0.463662 0.523837
Si Si4 0.527946 0.499349 0.154461
Si Si5 0.015594 0.659567 0.416462
Si Si6 0.211443 0.169944 0.845351
Si Si7 0.465439 0.366212 0.843569
Si Si8 0.164909 0.656627 0.817287
O O1 0.394369 0.943417 0.349770
O O2 0.217597 0.801926 0.673600
O O3 0.246163 0.130609 0.649905
O O4 0.078216 0.986483 0.558502
O O5 0.434822 0.845984 0.980688
O O6 0.411938 0.503640 0.004320
O O7 0.298587 0.656146 0.860652
O O8 0.147086 0.703639 0.207022
O O9 0.389370 0.453741 0.363507
O O10 0.111286 0.629683 0.508099
O O11 0.171087 0.484044 0.716904
O O12 0.115993 0.306423 0.495676
O O13 0.705823 0.516231 0.119867
O O14 0.478283 0.685528 0.123078
O O15 0.305364 0.334255 0.842657
O O16 0.018298 0.183357 0.002602
#
# Coordination Sequence:
#
# PCOD8046786 Si02
#       8
#     2   2   2   2   2   2   2   2
#     4  12  23  43  72 105 153 191 247 300 385 439
#     4  12  25  47  79 112 150 190 252 313 376 442
#     4  12  28  50  73 103 156 196 254 299 372 454
#     4  10  24  48  67 115 141 199 240 311 369 446
#     4  12  29  50  74 108 145 207 251 303 376 445
#     4  10  23  38  66 111 145 188 236 306 367 430
#     4  10  25  41  71 107 154 186 240 305 383 429
#     4  12  23  43  74 109 150 187 244 315 364 443
#
# _framework density 26.914124999999999
#
# number of rings (size 3 to 8) (size 9 to 14) (size 15 to 20)
#    0.750    0.000    3.750    3.000    5.250    0.000 
#    2.250    1.250    0.000    0.000    0.000    0.000 
#    0.000    0.000    0.000    0.000    0.000    0.000 
#
# Total GULP energy -198416.666863 kJ/mol
# GULP energy per Si atom -12401.041679 kJ/mol
# Density = 2.685287 g / cm^3
# Si number density = 26.914125 Si / 1000 Ang^3
#
#
#
# Elastic Constant Matrix: (Units=GPa)
#
#
# Indices 1 2 3 4 5 6 
#
# 1 102.4253 30.3633 25.1169 0.0000 -7.9342 0.0000
# 2 30.3633 79.9421 34.2473 0.0000 -13.4633 0.0000
# 3 25.1169 34.2473 125.2652 0.0000 -21.8476 0.0000
# 4 0.0000 0.0000 0.0000 51.2844 0.0000 -0.8638
# 5 -7.9342 -13.4633 -21.8476 0.0000 39.6702 0.0000
# 6 0.0000 0.0000 0.0000 -0.8638 0.0000 52.3092
#
#
#
# Elastic Compliance Matrix: (Units=1/GPa)
#
#
# Indices 1 2 3 4 5 6 
#
# 1 0.011169 -0.003682 -0.001174 0.000000 0.000338 0.000000
# 2 -0.003682 0.015704 -0.003047 0.000000 0.002915 0.000000
# 3 -0.001174 -0.003047 0.009768 0.000000 0.004111 0.000000
# 4 0.000000 0.000000 0.000000 0.019505 0.000000 0.000322
# 5 0.000338 0.002915 0.004111 0.000000 0.028529 0.000000
# 6 0.000000 0.000000 0.000000 0.000322 0.000000 0.019122
#
#
# Mechanical properties :
#
#
# Convention : Reuss Voigt Hill
#
# Bulk Modulus (GPa) = 47.99521 54.12084 51.05802
# Shear Modulus (GPa) = 39.51089 43.17978 41.34533
#
# Velocity S-wave (km/s) = 3.83565 4.00978 3.92368
# Velocity P-wave (km/s) = 6.12272 6.44905 6.28800
#
# Compressibility (1/GPa) = 0.02083541
#
# Stress axis : x y z
#
# Youngs Moduli (GPa) = 89.53497 63.67889 102.37125
#
# Poissons Ratio (x) = 0.23449 0.12016
# Poissons Ratio (y) = 0.32970 0.31188
# Poissons Ratio (z) = 0.10510 0.19400
#
# Static dielectric constant tensor:
#      x y z
#    x 5.448590 0.000000 0.243110 
#    y 0.000000 5.226390 0.000000 
#    z 0.243110 0.000000 4.407180 
# 
# 
# High freq. dielectric constant tensor:
#      x y z
#    x 2.138160 0.000000 0.012320 
#    y 0.000000 2.118890 0.000000 
#    z 0.012320 0.000000 2.062000 
# 
# From -- ./inp_files/11986.got.cif
#   From: 2010.03.12/outbox.cif.g09.slc.cpg/sg4_6_cif.got.tgz:11986.got - 2010.03.31 09:31:35.
