data_PCOD8046768
_publ_section_title
;
Structure prediction by ZEFSAII (Michael W. Deem and Ramdas Pophale) SiO2 
 PCOD8046768
Probable space group: P 21
;
_chemical_formula_sum "Si O2"
_cell_formula_units_Z 14
_cell_length_a 8.771153
_cell_length_b 12.472188
_cell_length_c 5.100522
_cell_angle_alpha 90.000000
_cell_angle_beta 90.333891
_cell_angle_gamma 90.000000
_cell_volume 557.964523
_symmetry_space_group_name_H-M "P 21"
_symmetry_group_IT_number 4
_symmetry_cell_setting 'monoclinic'
loop_
_space_group_symop_operation_xyz
x,y,z
-x,1/2+y,-z
loop_
_atom_site_type_symbol
_atom_site_label
_atom_site_fract_x
_atom_site_fract_y
_atom_site_fract_z
Si Si1 0.790803 0.830380 0.205382
Si Si2 0.545755 0.329164 0.954669
Si Si3 0.126598 0.539307 0.534486
Si Si4 0.712509 0.527123 0.043431
Si Si5 0.189394 0.141421 0.432937
Si Si6 0.280819 0.753755 0.552398
Si Si7 0.029865 0.879987 0.829453
O O1 0.630514 0.799339 0.076476
O O2 0.814553 0.766468 0.481288
O O3 0.803314 0.957590 0.252497
O O4 0.927709 0.797911 0.004746
O O5 0.558761 0.455882 0.028768
O O6 0.630470 0.309791 0.681203
O O7 0.616280 0.255869 0.184522
O O8 0.251529 0.630244 0.472682
O O9 0.083615 0.471058 0.279297
O O10 0.977634 0.599333 0.641307
O O11 0.710264 0.621549 0.826870
O O12 0.732140 0.576033 0.330490
O O13 0.846609 0.440051 0.985624
O O14 0.120317 0.815456 0.603260
#
# Coordination Sequence:
#
# PCOD8046768 Si02
#       7
#     2   2   2   2   2   2   2
#     4  12  28  43  75 108 147 180 250 304 344 430
#     4  11  27  48  70 106 147 192 230 292 365 430
#     4  11  25  44  74 107 141 185 247 296 357 417
#     4  10  22  47  69  96 142 189 227 282 366 423
#     4  11  25  42  73 103 138 185 238 294 351 411
#     4  11  27  48  75  98 151 192 232 287 370 431
#     4  10  24  46  76 106 138 187 248 301 347 424
#
# _framework density 25.091199
#
# number of rings (size 3 to 8) (size 9 to 14) (size 15 to 20)
#    0.000    1.143    1.429    3.429   14.000    2.286 
#    0.000    0.000    0.000    0.000    0.000    0.000 
#    0.000    0.000    0.000    0.000    0.000    0.000 
#
# Total GULP energy -173607.533682 kJ/mol
# GULP energy per Si atom -12400.538120 kJ/mol
# Density = 2.503409 g / cm^3
# Si number density = 25.091199 Si / 1000 Ang^3
#
#
#
# Elastic Constant Matrix: (Units=GPa)
#
#
# Indices 1 2 3 4 5 6 
#
# 1 80.5500 33.9138 33.9500 0.0000 9.6018 0.0000
# 2 33.9138 125.3989 17.1149 0.0000 7.3198 0.0000
# 3 33.9500 17.1149 108.7033 0.0000 2.2028 0.0000
# 4 0.0000 0.0000 0.0000 44.6678 0.0000 4.5764
# 5 9.6018 7.3198 2.2028 0.0000 29.3104 0.0000
# 6 0.0000 0.0000 0.0000 4.5764 0.0000 27.5205
#
#
#
# Elastic Compliance Matrix: (Units=1/GPa)
#
#
# Indices 1 2 3 4 5 6 
#
# 1 0.016272 -0.003555 -0.004439 0.000000 -0.004109 0.000000
# 2 -0.003555 0.009038 -0.000291 0.000000 -0.001071 0.000000
# 3 -0.004439 -0.000291 0.010617 0.000000 0.000729 0.000000
# 4 0.000000 0.000000 0.000000 0.022776 0.000000 -0.003787
# 5 -0.004109 -0.001071 0.000729 0.000000 0.035676 0.000000
# 6 0.000000 0.000000 0.000000 -0.003787 0.000000 0.036966
#
#
# Mechanical properties :
#
#
# Convention : Reuss Voigt Hill
#
# Bulk Modulus (GPa) = 51.66121 53.84552 52.75337
# Shear Modulus (GPa) = 32.39009 35.61130 34.00070
#
# Velocity S-wave (km/s) = 3.59680 3.77141 3.68514
# Velocity P-wave (km/s) = 6.15495 6.36170 6.25918
#
# Compressibility (1/GPa) = 0.01935688
#
# Stress axis : x y z
#
# Youngs Moduli (GPa) = 61.45432 110.64120 94.19015
#
# Poissons Ratio (x) = 0.39334 0.41812
# Poissons Ratio (y) = 0.21847 0.02741
# Poissons Ratio (z) = 0.27280 0.03220
#
# Static dielectric constant tensor:
#      x y z
#    x 4.386960 0.000000 0.190790 
#    y 0.000000 4.688230 0.000000 
#    z 0.190790 0.000000 4.396470 
# 
# 
# High freq. dielectric constant tensor:
#      x y z
#    x 1.982330 0.000000 0.012810 
#    y 0.000000 2.008880 0.000000 
#    z 0.012810 0.000000 2.003200 
# 
# From -- ./inp_files/1435.got.cif
#   From: 2010.03.12/outbox.cif.g09.slc.cpg/sg4_1_cif.got.tgz:1435.got - 2010.03.31 09:31:35.
