data_PCOD8046041
_publ_section_title
;
Structure prediction by ZEFSAII (Michael W. Deem and Ramdas Pophale) SiO2 
 PCOD8046041
Probable space group: P 21
;
_chemical_formula_sum "Si O2"
_cell_formula_units_Z 14
_cell_length_a 15.080689
_cell_length_b 5.213188
_cell_length_c 20.871487
_cell_angle_alpha 90.000000
_cell_angle_beta 158.602939
_cell_angle_gamma 90.000000
_cell_volume 598.642223
_symmetry_space_group_name_H-M "P 21"
_symmetry_group_IT_number 4
_symmetry_cell_setting 'monoclinic'
loop_
_space_group_symop_operation_xyz
x,y,z
-x,1/2+y,-z
loop_
_atom_site_type_symbol
_atom_site_label
_atom_site_fract_x
_atom_site_fract_y
_atom_site_fract_z
Si Si1 0.204433 0.876860 0.288762
Si Si2 0.714556 0.090825 0.986347
Si Si3 0.017256 0.598085 0.392967
Si Si4 0.570474 0.653317 0.450016
Si Si5 0.484651 0.901811 0.948465
Si Si6 0.316055 0.088073 0.609881
Si Si7 0.974471 0.495164 0.224045
O O1 0.337893 0.833759 0.310263
O O2 0.077578 0.624707 0.230211
O O3 0.414413 0.949970 0.481570
O O4 0.979415 0.073530 0.129987
O O5 0.670505 0.870822 0.012110
O O6 0.506511 0.085454 0.794793
O O7 0.723670 0.354564 0.033866
O O8 0.211706 0.374814 0.536041
O O9 0.941699 0.660149 0.267408
O O10 0.762690 0.507612 0.252504
O O11 0.115730 0.866205 0.488030
O O12 0.538275 0.523404 0.358454
O O13 0.829401 0.787800 0.620364
O O14 0.570608 0.126538 0.055994
#
# Coordination Sequence:
#
# PCOD8046041 Si02
#       7
#     2   2   2   2   2   2   2
#     4  11  20  40  67  93 128 178 232 285 328 411
#     4  11  27  42  65 101 139 180 228 291 354 410
#     4  11  23  44  70  97 136 182 224 277 347 414
#     4  10  21  38  65  96 124 172 232 276 338 401
#     4  12  25  43  74 105 132 176 234 289 336 414
#     4  11  26  45  66 100 143 180 217 288 352 417
#     4  10  20  40  65  92 128 170 227 280 333 397
#
# _framework density 23.386255999999999
#
# number of rings (size 3 to 8) (size 9 to 14) (size 15 to 20)
#    0.000    1.143    4.286    1.714    4.000    1.143 
#    2.571    0.000    0.000    0.000    0.000    0.000 
#    0.000    0.000    0.000    0.000    0.000    0.000 
#
# Total GULP energy -173466.519230 kJ/mol
# GULP energy per Si atom -12390.465659 kJ/mol
# Density = 2.333303 g / cm^3
# Si number density = 23.386256 Si / 1000 Ang^3
#
#
#
# Elastic Constant Matrix: (Units=GPa)
#
#
# Indices 1 2 3 4 5 6 
#
# 1 66.4941 -9.9495 25.6950 0.0000 5.2828 0.0000
# 2 -9.9495 66.6592 5.2751 0.0000 -17.5977 0.0000
# 3 25.6950 5.2751 110.4952 0.0000 -20.0079 0.0000
# 4 0.0000 0.0000 0.0000 31.7906 0.0000 2.0249
# 5 5.2828 -17.5977 -20.0079 0.0000 42.1428 0.0000
# 6 0.0000 0.0000 0.0000 2.0249 0.0000 28.4659
#
#
#
# Elastic Compliance Matrix: (Units=1/GPa)
#
#
# Indices 1 2 3 4 5 6 
#
# 1 0.017496 0.002034 -0.004824 0.000000 -0.003634 0.000000
# 2 0.002034 0.017123 -0.000046 0.000000 0.006874 0.000000
# 3 -0.004824 -0.000046 0.011247 0.000000 0.005925 0.000000
# 4 0.000000 0.000000 0.000000 0.031599 0.000000 -0.002248
# 5 -0.003634 0.006874 0.005925 0.000000 0.029868 0.000000
# 6 0.000000 0.000000 0.000000 -0.002248 0.000000 0.035290
#
#
# Mechanical properties :
#
#
# Convention : Reuss Voigt Hill
#
# Bulk Modulus (GPa) = 24.87872 31.74329 28.31100
# Shear Modulus (GPa) = 30.92287 35.32171 33.12229
#
# Velocity S-wave (km/s) = 3.64024 3.89055 3.76748
# Velocity P-wave (km/s) = 5.32257 5.81247 5.57291
#
# Compressibility (1/GPa) = 0.04019500
#
# Stress axis : x y z
#
# Youngs Moduli (GPa) = 57.15601 58.39942 88.91267
#
# Poissons Ratio (x) = -0.11877 0.42889
# Poissons Ratio (y) = -0.11624 0.00407
# Poissons Ratio (z) = 0.27570 0.00267
#
# Static dielectric constant tensor:
#      x y z
#    x 4.432810 0.000000 0.320960 
#    y 0.000000 4.210720 0.000000 
#    z 0.320960 0.000000 4.252390 
# 
# 
# High freq. dielectric constant tensor:
#      x y z
#    x 1.915530 0.000000 0.019740 
#    y 0.000000 1.928330 0.000000 
#    z 0.019740 0.000000 1.916410 
# 
# From -- ./inp_files/10042.got.cif
#   From: 2010.03.12/outbox.cif.g09.slc.cpg/sg4_6_cif.got.tgz:10042.got - 2010.03.31 09:31:35.
