data_PCOD8046458
_publ_section_title
;
Structure prediction by ZEFSAII (Michael W. Deem and Ramdas Pophale) SiO2 
 PCOD8046458
Probable space group: P 21
;
_chemical_formula_sum "Si O2"
_cell_formula_units_Z 14
_cell_length_a 15.770572
_cell_length_b 5.072437
_cell_length_c 11.511307
_cell_angle_alpha 90.000000
_cell_angle_beta 137.937803
_cell_angle_gamma 90.000000
_cell_volume 616.911208
_symmetry_space_group_name_H-M "P 21"
_symmetry_group_IT_number 4
_symmetry_cell_setting 'monoclinic'
loop_
_space_group_symop_operation_xyz
x,y,z
-x,1/2+y,-z
loop_
_atom_site_type_symbol
_atom_site_label
_atom_site_fract_x
_atom_site_fract_y
_atom_site_fract_z
Si Si1 0.424744 0.669030 0.890037
Si Si2 0.247092 0.240673 0.048507
Si Si3 0.587884 0.777286 0.568495
Si Si4 0.626702 0.802140 0.346351
Si Si5 0.655310 0.241975 0.965073
Si Si6 0.868948 0.609257 0.465551
Si Si7 0.975628 0.611550 0.325244
O O1 0.378492 0.601793 0.712374
O O2 0.468741 0.388090 0.990847
O O3 0.308115 0.745596 0.859356
O O4 0.289140 0.234706 0.225249
O O5 0.256922 0.540211 0.013708
O O6 0.340081 0.037745 0.078403
O O7 0.103970 0.147075 0.875685
O O8 0.493268 0.529154 0.473575
O O9 0.654127 0.820625 0.510987
O O10 0.491932 0.656374 0.194099
O O11 0.727146 0.635514 0.372053
O O12 0.877929 0.636650 0.334604
O O13 0.915286 0.326523 0.555598
O O14 0.959310 0.828105 0.615357
#
# Coordination Sequence:
#
# PCOD8046458 Si02
#       7
#     2   2   2   2   2   2   2
#     4  10  22  35  56  94 132 163 202 267 333 395
#     4  12  22  42  65  91 130 178 214 269 315 396
#     4  12  25  43  63  96 135 178 218 263 328 392
#     4  11  23  41  64  96 134 166 218 266 332 390
#     4  11  22  37  64  95 130 165 212 265 339 393
#     4  10  23  41  65  92 124 170 212 276 323 388
#     4  10  23  43  63  90 127 168 220 262 332 382
#
# _framework density 22.693704
#
# number of rings (size 3 to 8) (size 9 to 14) (size 15 to 20)
#    0.000    1.143    2.857    3.429    0.000    9.143 
#    0.000    1.429    0.000    0.000    0.000    0.000 
#    0.000    0.000    0.000    0.000    0.000    0.000 
#
# Total GULP energy -173487.409982 kJ/mol
# GULP energy per Si atom -12391.957856 kJ/mol
# Density = 2.264205 g / cm^3
# Si number density = 22.693704 Si / 1000 Ang^3
#
#
#
# Elastic Constant Matrix: (Units=GPa)
#
#
# Indices 1 2 3 4 5 6 
#
# 1 69.1125 11.5784 -0.6584 0.0000 -10.3960 0.0000
# 2 11.5784 92.3031 -1.5226 0.0000 -4.5889 0.0000
# 3 -0.6584 -1.5226 72.8407 0.0000 -9.3408 0.0000
# 4 0.0000 0.0000 0.0000 22.1410 0.0000 2.3037
# 5 -10.3960 -4.5889 -9.3408 0.0000 50.8541 0.0000
# 6 0.0000 0.0000 0.0000 2.3037 0.0000 30.8936
#
#
#
# Elastic Compliance Matrix: (Units=1/GPa)
#
#
# Indices 1 2 3 4 5 6 
#
# 1 0.015225 -0.001750 0.000491 0.000000 0.003045 0.000000
# 2 -0.001750 0.011093 0.000306 0.000000 0.000699 0.000000
# 3 0.000491 0.000306 0.014088 0.000000 0.002716 0.000000
# 4 0.000000 0.000000 0.000000 0.045518 0.000000 -0.003394
# 5 0.003045 0.000699 0.002716 0.000000 0.020848 0.000000
# 6 0.000000 0.000000 0.000000 -0.003394 0.000000 0.032622
#
#
# Mechanical properties :
#
#
# Convention : Reuss Voigt Hill
#
# Bulk Modulus (GPa) = 25.97421 28.11681 27.04551
# Shear Modulus (GPa) = 32.43919 35.76832 34.10375
#
# Velocity S-wave (km/s) = 3.78489 3.97436 3.88078
# Velocity P-wave (km/s) = 5.52910 5.78596 5.65899
#
# Compressibility (1/GPa) = 0.03849973
#
# Stress axis : x y z
#
# Youngs Moduli (GPa) = 65.68116 90.14494 70.98403
#
# Poissons Ratio (x) = 0.15778 -0.03489
# Poissons Ratio (y) = 0.11496 -0.02170
# Poissons Ratio (z) = -0.03228 -0.02756
#
# Static dielectric constant tensor:
#      x y z
#    x 3.987590 0.000000 -0.295730 
#    y 0.000000 4.316270 0.000000 
#    z -0.295730 0.000000 4.163600 
# 
# 
# High freq. dielectric constant tensor:
#      x y z
#    x 1.861570 0.000000 -0.008110 
#    y 0.000000 1.920140 0.000000 
#    z -0.008110 0.000000 1.890710 
# 
# From -- ./inp_files/12509.got.cif
#   From: 2010.03.12/outbox.cif.g09.slc.cpg/sg4_7_cif.got.tgz:12509.got - 2010.03.31 09:31:35.
