data_PCOD8046220
_publ_section_title
;
Structure prediction by ZEFSAII (Michael W. Deem and Ramdas Pophale) SiO2 
 PCOD8046220
Probable space group: P 21
;
_chemical_formula_sum "Si O2"
_cell_formula_units_Z 12
_cell_length_a 21.121244
_cell_length_b 5.150422
_cell_length_c 15.664969
_cell_angle_alpha 90.000000
_cell_angle_beta 17.151557
_cell_angle_gamma 90.000000
_cell_volume 502.535808
_symmetry_space_group_name_H-M "P 21"
_symmetry_group_IT_number 4
_symmetry_cell_setting 'monoclinic'
loop_
_space_group_symop_operation_xyz
x,y,z
-x,1/2+y,-z
loop_
_atom_site_type_symbol
_atom_site_label
_atom_site_fract_x
_atom_site_fract_y
_atom_site_fract_z
Si Si1 0.592947 0.601650 0.922529
Si Si2 0.334742 0.083593 0.981753
Si Si3 0.085968 0.604780 0.256297
Si Si4 0.838620 0.005860 0.025892
Si Si5 0.889846 0.516562 0.175676
Si Si6 0.469828 0.713465 0.430604
O O1 0.534553 0.595048 0.098244
O O2 0.842257 0.538016 0.590638
O O3 0.454123 0.386446 0.053167
O O4 0.226972 0.360633 0.102781
O O5 0.156900 0.857744 0.217684
O O6 0.498832 0.019962 0.691131
O O7 0.113703 0.673990 0.119774
O O8 0.707674 0.753249 0.163122
O O9 0.683221 0.132907 0.295982
O O10 0.065485 0.951679 0.781058
O O11 0.642652 0.470854 0.466915
O O12 0.953269 0.813464 0.075681
#
# Coordination Sequence:
#
# PCOD8046220 Si02
#       6
#     2   2   2   2   2   2
#     4  12  26  46  70 100 132 170 222 284 338 394
#     4  11  24  44  70  97 132 177 222 272 331 401
#     4  11  24  44  70  97 132 177 222 272 331 401
#     4  10  21  39  65  96 135 176 219 265 330 398
#     4  10  22  38  58  92 130 178 220 270 318 384
#     4  10  21  39  65  96 135 176 219 265 330 398
#
# _framework density 23.878898
#
# number of rings (size 3 to 8) (size 9 to 14) (size 15 to 20)
#    0.000    1.333    0.000    5.000    2.333    8.000 
#   12.000    0.000    0.000    0.000    0.000    0.000 
#    0.000    0.000    0.000    0.000    0.000    0.000 
#
# Total GULP energy -148690.173953 kJ/mol
# GULP energy per Si atom -12390.847829 kJ/mol
# Density = 2.382455 g / cm^3
# Si number density = 23.878898 Si / 1000 Ang^3
#
#
#
# Elastic Constant Matrix: (Units=GPa)
#
#
# Indices 1 2 3 4 5 6 
#
# 1 164.8684 31.5539 6.1485 0.0000 13.8511 0.0000
# 2 31.5539 83.8957 2.4586 0.0000 4.6487 0.0000
# 3 6.1485 2.4586 45.5364 0.0000 15.8945 0.0000
# 4 0.0000 0.0000 0.0000 25.2837 0.0000 -6.8650
# 5 13.8511 4.6487 15.8945 0.0000 34.7824 0.0000
# 6 0.0000 0.0000 0.0000 -6.8650 0.0000 37.6647
#
#
#
# Elastic Compliance Matrix: (Units=1/GPa)
#
#
# Indices 1 2 3 4 5 6 
#
# 1 0.006722 -0.002398 0.000053 0.000000 -0.002381 0.000000
# 2 -0.002398 0.012864 -0.000124 0.000000 -0.000708 0.000000
# 3 0.000053 -0.000124 0.026129 0.000000 -0.011945 0.000000
# 4 0.000000 0.000000 0.000000 0.041610 0.000000 0.007584
# 5 -0.002381 -0.000708 -0.011945 0.000000 0.035251 0.000000
# 6 0.000000 0.000000 0.000000 0.007584 0.000000 0.027932
#
#
# Mechanical properties :
#
#
# Convention : Reuss Voigt Hill
#
# Bulk Modulus (GPa) = 24.52289 41.62470 33.07380
# Shear Modulus (GPa) = 29.57867 36.48880 33.03373
#
# Velocity S-wave (km/s) = 3.52333 3.91330 3.72342
# Velocity P-wave (km/s) = 5.18110 6.15532 5.68910
#
# Compressibility (1/GPa) = 0.04077822
#
# Stress axis : x y z
#
# Youngs Moduli (GPa) = 148.75572 77.73441 38.27113
#
# Poissons Ratio (x) = 0.18641 -0.00202
# Poissons Ratio (y) = 0.35672 0.00473
# Poissons Ratio (z) = -0.00785 0.00961
#
# Static dielectric constant tensor:
#      x y z
#    x 5.186860 0.000000 -0.065660 
#    y 0.000000 4.015560 0.000000 
#    z -0.065660 0.000000 4.376470 
# 
# 
# High freq. dielectric constant tensor:
#      x y z
#    x 1.975910 0.000000 0.000140 
#    y 0.000000 1.929790 0.000000 
#    z 0.000140 0.000000 1.934510 
# 
# From -- ./inp_files/14378.got.cif
#   From: 2010.03.12/outbox.cif.g09.slc.cpg/sg4_8_cif.got.tgz:14378.got - 2010.03.31 09:31:35.
