data_PCOD8046209
_publ_section_title
;
Structure prediction by ZEFSAII (Michael W. Deem and Ramdas Pophale) SiO2 
 PCOD8046209
Probable space group: P 21
;
_chemical_formula_sum "Si O2"
_cell_formula_units_Z 12
_cell_length_a 16.092167
_cell_length_b 5.021491
_cell_length_c 16.145537
_cell_angle_alpha 90.000000
_cell_angle_beta 153.357120
_cell_angle_gamma 90.000000
_cell_volume 585.049451
_symmetry_space_group_name_H-M "P 21"
_symmetry_group_IT_number 4
_symmetry_cell_setting 'monoclinic'
loop_
_space_group_symop_operation_xyz
x,y,z
-x,1/2+y,-z
loop_
_atom_site_type_symbol
_atom_site_label
_atom_site_fract_x
_atom_site_fract_y
_atom_site_fract_z
Si Si1 0.100813 0.471640 0.905963
Si Si2 0.071577 0.516320 0.517334
Si Si3 0.263809 0.974800 0.318991
Si Si4 0.517947 0.944094 0.070977
Si Si5 0.845519 0.471621 0.153377
Si Si6 0.322477 0.474878 0.266335
O O1 0.251414 0.524390 0.111002
O O2 0.118579 0.170793 0.890175
O O3 0.895558 0.523929 0.756727
O O4 0.139802 0.670200 0.865195
O O5 0.287458 0.442399 0.707866
O O6 0.953457 0.306502 0.465186
O O7 0.000923 0.521288 0.360818
O O8 0.236757 0.688568 0.253122
O O9 0.456017 0.999306 0.539578
O O10 0.254446 0.188704 0.236949
O O11 0.477301 0.649944 0.000750
O O12 0.358514 0.026109 0.992801
#
# Coordination Sequence:
#
# PCOD8046209 Si02
#       6
#     2   2   2   2   2   2
#     4  12  24  39  60  92 134 156 204 260 320 369
#     4  12  23  43  68  89 121 162 215 265 313 380
#     4  10  21  39  64  89 120 167 211 247 301 372
#     4  12  23  43  68  89 121 162 215 265 313 380
#     4  12  26  39  62  96 124 166 204 264 326 373
#     4  10  21  39  64  89 120 167 211 247 301 372
#
# _framework density 20.511085000000001
#
# number of rings (size 3 to 8) (size 9 to 14) (size 15 to 20)
#    0.000    0.667    3.333    5.000    0.000    2.667 
#    0.000    0.000    0.000    0.000    0.000    0.000 
#    0.000    0.000    0.000    0.000    0.000    0.000 
#
# Total GULP energy -148917.359197 kJ/mol
# GULP energy per Si atom -12409.779933 kJ/mol
# Density = 2.046440 g / cm^3
# Si number density = 20.511085 Si / 1000 Ang^3
#
#
#
# Elastic Constant Matrix: (Units=GPa)
#
#
# Indices 1 2 3 4 5 6 
#
# 1 85.4840 11.9788 53.1737 0.0000 -1.5480 0.0000
# 2 11.9788 80.9156 18.2891 0.0000 -0.9852 0.0000
# 3 53.1737 18.2891 124.1912 0.0000 9.0628 0.0000
# 4 0.0000 0.0000 0.0000 26.7219 0.0000 -3.3252
# 5 -1.5480 -0.9852 9.0628 0.0000 23.8218 0.0000
# 6 0.0000 0.0000 0.0000 -3.3252 0.0000 37.0512
#
#
#
# Elastic Compliance Matrix: (Units=1/GPa)
#
#
# Indices 1 2 3 4 5 6 
#
# 1 0.016319 -0.000754 -0.007150 0.000000 0.003749 0.000000
# 2 -0.000754 0.012857 -0.001652 0.000000 0.001111 0.000000
# 3 -0.007150 -0.001652 0.011721 0.000000 -0.004992 0.000000
# 4 0.000000 0.000000 0.000000 0.037845 0.000000 0.003396
# 5 0.003749 0.001111 -0.004992 0.000000 0.044167 0.000000
# 6 0.000000 0.000000 0.000000 0.003396 0.000000 0.027294
#
#
# Mechanical properties :
#
#
# Convention : Reuss Voigt Hill
#
# Bulk Modulus (GPa) = 45.90110 50.83044 48.36577
# Shear Modulus (GPa) = 28.31635 31.32893 29.82264
#
# Velocity S-wave (km/s) = 3.71959 3.91245 3.81724
# Velocity P-wave (km/s) = 6.39331 6.72648 6.56201
#
# Compressibility (1/GPa) = 0.02178597
#
# Stress axis : x y z
#
# Youngs Moduli (GPa) = 61.27829 77.77841 85.31836
#
# Poissons Ratio (x) = 0.05866 0.61000
# Poissons Ratio (y) = 0.04622 0.14091
# Poissons Ratio (z) = 0.43812 0.12846
#
# Static dielectric constant tensor:
#      x y z
#    x 3.461430 0.000000 0.090960 
#    y 0.000000 3.839900 0.000000 
#    z 0.090960 0.000000 3.878390 
# 
# 
# High freq. dielectric constant tensor:
#      x y z
#    x 1.792490 0.000000 0.005380 
#    y 0.000000 1.820750 0.000000 
#    z 0.005380 0.000000 1.816780 
# 
# From -- ./inp_files/14083.got.cif
#   From: 2010.03.12/outbox.cif.g09.slc.cpg/sg4_8_cif.got.tgz:14083.got - 2010.03.31 09:31:35.
