data_PCOD8046185
_publ_section_title
;
Structure prediction by ZEFSAII (Michael W. Deem and Ramdas Pophale) SiO2 
 PCOD8046185
Probable space group: P 21
;
_chemical_formula_sum "Si O2"
_cell_formula_units_Z 16
_cell_length_a 9.127130
_cell_length_b 8.150174
_cell_length_c 12.297403
_cell_angle_alpha 90.000000
_cell_angle_beta 46.786324
_cell_angle_gamma 90.000000
_cell_volume 666.693149
_symmetry_space_group_name_H-M "P 21"
_symmetry_group_IT_number 4
_symmetry_cell_setting 'monoclinic'
loop_
_space_group_symop_operation_xyz
x,y,z
-x,1/2+y,-z
loop_
_atom_site_type_symbol
_atom_site_label
_atom_site_fract_x
_atom_site_fract_y
_atom_site_fract_z
Si Si1 0.267994 0.111440 0.789146
Si Si2 0.954724 0.587057 0.756590
Si Si3 0.687761 0.093915 0.681940
Si Si4 0.292761 0.647928 0.995153
Si Si5 0.899497 0.736566 0.329135
Si Si6 0.942933 0.769538 0.540498
Si Si7 0.934072 0.262847 0.088355
Si Si8 0.472670 0.958697 0.983132
O O1 0.499480 0.077397 0.697083
O O2 0.276979 0.171263 0.659133
O O3 0.129984 0.951482 0.877815
O O4 0.156092 0.249288 0.920325
O O5 0.101781 0.434615 0.659248
O O6 0.890964 0.682888 0.680213
O O7 0.065355 0.702690 0.787720
O O8 0.754917 0.515713 0.910412
O O9 0.810744 0.263956 0.598741
O O10 0.601715 0.088314 0.846575
O O11 0.853307 0.950741 0.581592
O O12 0.227868 0.661631 0.902552
O O13 0.473286 0.778099 0.931071
O O14 0.409098 0.473879 0.960569
O O15 0.104237 0.670236 0.170845
O O16 0.866973 0.671490 0.469477
#
# Coordination Sequence:
#
# PCOD8046185 Si02
#       8
#     2   2   2   2   2   2   2   2
#     4  11  24  46  74 105 157 188 248 308 370 447
#     4  11  24  44  71 108 146 191 252 302 377 442
#     4  12  25  50  68 107 146 195 247 301 370 439
#     4  10  21  38  66 105 140 175 238 300 361 424
#     4  10  23  45  66 102 149 192 235 305 370 449
#     4  12  26  47  75 103 150 198 247 309 367 450
#     4  11  22  42  71 111 144 195 239 315 373 434
#     4  11  21  42  69 103 134 184 240 306 350 425
#
# _framework density 23.999048999999999
#
# number of rings (size 3 to 8) (size 9 to 14) (size 15 to 20)
#    0.000    1.000    5.000    2.250    1.750    2.000 
#    4.500    2.500    0.000    0.000    0.000    0.000 
#    0.000    0.000    0.000    0.000    0.000    0.000 
#
# Total GULP energy -198221.275715 kJ/mol
# GULP energy per Si atom -12388.829732 kJ/mol
# Density = 2.394443 g / cm^3
# Si number density = 23.999049 Si / 1000 Ang^3
#
#
#
# Elastic Constant Matrix: (Units=GPa)
#
#
# Indices 1 2 3 4 5 6 
#
# 1 164.1824 82.1139 57.3928 0.0000 27.5423 0.0000
# 2 82.1139 64.5249 24.1287 0.0000 -7.2561 0.0000
# 3 57.3928 24.1287 86.2790 0.0000 17.3283 0.0000
# 4 0.0000 0.0000 0.0000 25.9851 0.0000 -5.8050
# 5 27.5423 -7.2561 17.3283 0.0000 48.7467 0.0000
# 6 0.0000 0.0000 0.0000 -5.8050 0.0000 46.1542
#
#
#
# Elastic Compliance Matrix: (Units=1/GPa)
#
#
# Indices 1 2 3 4 5 6 
#
# 1 0.033772 -0.043558 -0.005545 0.000000 -0.023594 0.000000
# 2 -0.043558 0.074513 0.001040 0.000000 0.035332 0.000000
# 3 -0.005545 0.001040 0.015429 0.000000 -0.002197 0.000000
# 4 0.000000 0.000000 0.000000 0.039596 0.000000 0.004980
# 5 -0.023594 0.035332 -0.002197 0.000000 0.039885 0.000000
# 6 0.000000 0.000000 0.000000 0.004980 0.000000 0.022293
#
#
# Mechanical properties :
#
#
# Convention : Reuss Voigt Hill
#
# Bulk Modulus (GPa) = 36.24622 71.36191 53.80407
# Shear Modulus (GPa) = 15.11436 34.26727 24.69082
#
# Velocity S-wave (km/s) = 2.51228 3.78280 3.21101
# Velocity P-wave (km/s) = 4.85298 6.99137 6.01792
#
# Compressibility (1/GPa) = 0.02758908
#
# Stress axis : x y z
#
# Youngs Moduli (GPa) = 29.61025 13.42041 64.81151
#
# Poissons Ratio (x) = 0.58456 0.35940
# Poissons Ratio (y) = 1.28975 -0.06741
# Poissons Ratio (z) = 0.16420 -0.01396
#
# Static dielectric constant tensor:
#      x y z
#    x 4.711470 0.000000 0.189740 
#    y 0.000000 4.307960 0.000000 
#    z 0.189740 0.000000 4.280300 
# 
# 
# High freq. dielectric constant tensor:
#      x y z
#    x 1.968500 0.000000 0.016530 
#    y 0.000000 1.938570 0.000000 
#    z 0.016530 0.000000 1.933390 
# 
# From -- ./inp_files/11031.got.cif
#   From: 2010.03.12/outbox.cif.g09.slc.cpg/sg4_6_cif.got.tgz:11031.got - 2010.03.31 09:31:35.
