data_PCOD8046874
_publ_section_title
;
Structure prediction by ZEFSAII (Michael W. Deem and Ramdas Pophale) SiO2 
 PCOD8046874
Probable space group: P 21
;
_chemical_formula_sum "Si O2"
_cell_formula_units_Z 14
_cell_length_a 10.696890
_cell_length_b 9.229554
_cell_length_c 12.821524
_cell_angle_alpha 90.000000
_cell_angle_beta 145.950657
_cell_angle_gamma 90.000000
_cell_volume 708.750746
_symmetry_space_group_name_H-M "P 21"
_symmetry_group_IT_number 4
_symmetry_cell_setting 'monoclinic'
loop_
_space_group_symop_operation_xyz
x,y,z
-x,1/2+y,-z
loop_
_atom_site_type_symbol
_atom_site_label
_atom_site_fract_x
_atom_site_fract_y
_atom_site_fract_z
Si Si1 0.508407 0.007140 0.271280
Si Si2 0.862959 0.271651 0.000844
Si Si3 0.707274 0.002936 0.006746
Si Si4 0.826925 0.097827 0.315426
Si Si5 0.066822 0.478609 0.296047
Si Si6 0.873853 0.721149 0.022017
Si Si7 0.804478 0.436537 0.319423
O O1 0.634548 0.019997 0.248705
O O2 0.361267 0.864481 0.161494
O O3 0.681795 0.989623 0.486461
O O4 0.352109 0.147769 0.178970
O O5 0.991790 0.285275 0.981660
O O6 0.026732 0.328618 0.206194
O O7 0.785128 0.107495 0.967057
O O8 0.819477 0.847883 0.066060
O O9 0.782493 0.080067 0.163756
O O10 0.445038 0.982635 0.831044
O O11 0.842004 0.265537 0.356921
O O12 0.059526 0.019138 0.497618
O O13 0.029268 0.608835 0.190091
O O14 0.884802 0.491453 0.261985
#
# Coordination Sequence:
#
# PCOD8046874 Si02
#       7
#     2   2   2   2   2   2   2
#     4  10  23  43  65  89 131 165 203 265 320 363
#     4  11  24  43  64  93 126 169 217 256 303 376
#     4  12  24  38  68  94 126 166 210 256 320 370
#     4  11  25  41  66  98 127 161 209 261 319 381
#     4  10  23  43  65  89 131 165 203 265 320 363
#     4  11  24  43  64  93 126 169 217 256 303 376
#     4  11  25  41  66  98 127 161 209 261 319 381
#
# _framework density 19.753064999999999
#
# number of rings (size 3 to 8) (size 9 to 14) (size 15 to 20)
#    0.000    1.143    2.857    3.429    8.000    1.143 
#    0.000    2.857    0.000    0.000    0.000    0.000 
#    0.000    0.000    0.000    0.000    0.000    0.000 
#
# Total GULP energy -173652.542385 kJ/mol
# GULP energy per Si atom -12403.753028 kJ/mol
# Density = 1.970811 g / cm^3
# Si number density = 19.753065 Si / 1000 Ang^3
#
#
#
# Elastic Constant Matrix: (Units=GPa)
#
#
# Indices 1 2 3 4 5 6 
#
# 1 74.9474 10.6741 29.7558 0.0000 -3.5213 0.0000
# 2 10.6741 105.1799 46.0357 0.0000 -2.6519 0.0000
# 3 29.7558 46.0357 117.8618 0.0000 -12.0049 0.0000
# 4 0.0000 0.0000 0.0000 -92.1298 0.0000 -35.6457
# 5 -3.5213 -2.6519 -12.0049 0.0000 -15.1728 0.0000
# 6 0.0000 0.0000 0.0000 -35.6457 0.0000 27.6086
#
#
#
# Elastic Compliance Matrix: (Units=1/GPa)
#
#
# Indices 1 2 3 4 5 6 
#
# 1 0.014828 0.000171 -0.003853 0.000000 -0.000422 0.000000
# 2 0.000171 0.011437 -0.004366 0.000000 0.001416 0.000000
# 3 -0.003853 -0.004366 0.010486 0.000000 -0.006640 0.000000
# 4 0.000000 0.000000 0.000000 -0.007238 0.000000 -0.009346
# 5 -0.000422 0.001416 -0.006640 0.000000 -0.060803 0.000000
# 6 0.000000 0.000000 0.000000 -0.009346 0.000000 0.024155
#
#
# Mechanical properties :
#
#
# Convention : Reuss Voigt Hill
#
# Bulk Modulus (GPa) = 48.41504 52.32448 50.36976
# Shear Modulus (GPa) = 315.53256 -1.83723 156.84766
#
# Velocity S-wave (km/s) = 12.65248 -0.96546 8.92057
# Velocity P-wave (km/s) = 15.42759 5.03031 11.47420
#
# Compressibility (1/GPa) = 0.02065474
#
# Stress axis : x y z
#
# Youngs Moduli (GPa) = 67.43825 87.43676 95.36103
#
# Poissons Ratio (x) = -0.01496 0.36747
# Poissons Ratio (y) = -0.01154 0.41636
# Poissons Ratio (z) = 0.25987 0.38176
#
# Static dielectric constant tensor:
#      x y z
#    x 3.583610 0.000000 -0.043510 
#    y 0.000000 3.726910 0.000000 
#    z -0.043510 0.000000 4.588950 
# 
# 
# High freq. dielectric constant tensor:
#      x y z
#    x 1.773990 0.000000 0.002800 
#    y 0.000000 1.782840 0.000000 
#    z 0.002800 0.000000 1.772170 
# 
# From -- ./inp_files/7459.got.cif
#   From: 2010.03.12/outbox.cif.g09.slc.cpg/sg4_4_cif.got.tgz:7459.got - 2010.03.31 09:31:35.
