data_PCOD8046554
_publ_section_title
;
Structure prediction by ZEFSAII (Michael W. Deem and Ramdas Pophale) SiO2 
 PCOD8046554
Probable space group: P 21
;
_chemical_formula_sum "Si O2"
_cell_formula_units_Z 16
_cell_length_a 10.567932
_cell_length_b 13.041103
_cell_length_c 8.332188
_cell_angle_alpha 90.000000
_cell_angle_beta 37.958628
_cell_angle_gamma 90.000000
_cell_volume 706.323560
_symmetry_space_group_name_H-M "P 21"
_symmetry_group_IT_number 4
_symmetry_cell_setting 'monoclinic'
loop_
_space_group_symop_operation_xyz
x,y,z
-x,1/2+y,-z
loop_
_atom_site_type_symbol
_atom_site_label
_atom_site_fract_x
_atom_site_fract_y
_atom_site_fract_z
Si Si1 0.477737 0.630980 0.895711
Si Si2 0.411644 0.934741 0.749162
Si Si3 0.977738 0.486247 0.648813
Si Si4 0.661686 0.110489 0.617745
Si Si5 0.749995 0.308614 0.374030
Si Si6 0.911636 0.182485 0.927558
Si Si7 0.750000 0.808614 0.586440
Si Si8 0.161683 0.006737 0.558886
O O1 0.393462 0.582597 0.143242
O O2 0.298300 0.678943 0.965023
O O3 0.637943 0.718962 0.797150
O O4 0.600316 0.545478 0.667426
O O5 0.373757 0.891351 0.608614
O O6 0.571799 0.855304 0.657436
O O7 0.514257 0.047717 0.643333
O O8 0.201704 0.938281 0.061622
O O9 0.893463 0.534628 0.569833
O O10 0.100310 0.571749 0.631949
O O11 0.137951 0.398266 0.426956
O O12 0.626559 0.231255 0.615153
O O13 0.873437 0.385972 0.368268
O O14 0.873748 0.225875 0.143881
O O15 0.071787 0.261923 0.698973
O O16 0.014247 0.069509 0.828164
#
# Coordination Sequence:
#
# PCOD8046554 Si02
#       8
#     2   2   2   2   2   2   2   2
#     4  11  22  46  71 103 136 185 236 296 341 419
#     4  11  24  47  67 102 145 180 230 294 359 418
#     4  11  22  46  71 103 136 185 236 296 341 419
#     4  11  27  44  72 103 140 186 244 290 354 420
#     4  12  28  44  70 106 146 188 230 292 368 440
#     4  11  24  47  67 102 145 180 230 294 359 418
#     4  10  22  40  76  94 138 184 230 286 352 412
#     4  11  27  44  72 103 140 186 244 290 354 420
#
# _framework density 22.652505999999999
#
# number of rings (size 3 to 8) (size 9 to 14) (size 15 to 20)
#    0.000    1.000    5.000    0.000    7.000    0.000 
#    0.000    0.000    0.000    0.000    0.000    0.000 
#    0.000    0.000    0.000    0.000    0.000    0.000 
#
# Total GULP energy -198216.967334 kJ/mol
# GULP energy per Si atom -12388.560458 kJ/mol
# Density = 2.260095 g / cm^3
# Si number density = 22.652506 Si / 1000 Ang^3
#
#
#
# Elastic Constant Matrix: (Units=GPa)
#
#
# Indices 1 2 3 4 5 6 
#
# 1 75.6842 41.6350 48.5809 0.0000 -5.9212 0.0000
# 2 41.6350 161.1468 44.9640 0.0000 -5.1927 0.0000
# 3 48.5809 44.9640 88.9940 0.0000 -14.8253 0.0000
# 4 0.0000 0.0000 0.0000 42.1664 0.0000 -1.5123
# 5 -5.9212 -5.1927 -14.8253 0.0000 29.3229 0.0000
# 6 0.0000 0.0000 0.0000 -1.5123 0.0000 41.2014
#
#
#
# Elastic Compliance Matrix: (Units=1/GPa)
#
#
# Indices 1 2 3 4 5 6 
#
# 1 0.021312 -0.002606 -0.010567 0.000000 -0.001501 0.000000
# 2 -0.002606 0.007553 -0.002466 0.000000 -0.000436 0.000000
# 3 -0.010567 -0.002466 0.019462 0.000000 0.007269 0.000000
# 4 0.000000 0.000000 0.000000 0.023747 0.000000 0.000872
# 5 -0.001501 -0.000436 0.007269 0.000000 0.037398 0.000000
# 6 0.000000 0.000000 0.000000 0.000872 0.000000 0.024303
#
#
# Mechanical properties :
#
#
# Convention : Reuss Voigt Hill
#
# Bulk Modulus (GPa) = 58.65662 66.24276 62.44969
# Shear Modulus (GPa) = 29.28484 35.24781 32.26632
#
# Velocity S-wave (km/s) = 3.59943 3.94892 3.77822
# Velocity P-wave (km/s) = 6.57456 7.07803 6.83094
#
# Compressibility (1/GPa) = 0.01704837
#
# Stress axis : x y z
#
# Youngs Moduli (GPa) = 46.92162 132.39951 51.38171
#
# Poissons Ratio (x) = 0.34506 0.54297
# Poissons Ratio (y) = 0.12229 0.12670
# Poissons Ratio (z) = 0.49583 0.32649
#
# Static dielectric constant tensor:
#      x y z
#    x 3.990930 0.000000 -0.310710 
#    y 0.000000 4.362610 0.000000 
#    z -0.310710 0.000000 4.190260 
# 
# 
# High freq. dielectric constant tensor:
#      x y z
#    x 1.878750 0.000000 -0.014120 
#    y 0.000000 1.914440 0.000000 
#    z -0.014120 0.000000 1.887810 
# 
# From -- ./inp_files/8502.got.cif
#   From: 2010.03.12/outbox.cif.g09.slc.cpg/sg4_5_cif.got.tgz:8502.got - 2010.03.31 09:31:35.
