data_PCOD8046405
_publ_section_title
;
Structure prediction by ZEFSAII (Michael W. Deem and Ramdas Pophale) SiO2 
 PCOD8046405
Probable space group: P 21
;
_chemical_formula_sum "Si O2"
_cell_formula_units_Z 16
_cell_length_a 10.826709
_cell_length_b 12.495842
_cell_length_c 7.715761
_cell_angle_alpha 90.000000
_cell_angle_beta 137.635057
_cell_angle_gamma 90.000000
_cell_volume 703.403080
_symmetry_space_group_name_H-M "P 21"
_symmetry_group_IT_number 4
_symmetry_cell_setting 'monoclinic'
loop_
_space_group_symop_operation_xyz
x,y,z
-x,1/2+y,-z
loop_
_atom_site_type_symbol
_atom_site_label
_atom_site_fract_x
_atom_site_fract_y
_atom_site_fract_z
Si Si1 0.599271 0.828270 0.840113
Si Si2 0.328508 0.491766 0.383022
Si Si3 0.834667 0.503857 0.218357
Si Si4 0.207438 0.839557 0.559219
Si Si5 0.783950 0.899362 0.389103
Si Si6 0.027373 0.033707 0.177028
Si Si7 0.323720 0.112615 0.247824
Si Si8 0.967831 0.690332 0.535183
O O1 0.599524 0.912877 0.688056
O O2 0.387433 0.796784 0.650823
O O3 0.709734 0.725136 0.883875
O O4 0.688011 0.880484 0.103693
O O5 0.350345 0.439608 0.597542
O O6 0.458679 0.595785 0.501873
O O7 0.116741 0.522173 0.129067
O O8 0.726797 0.411245 0.208878
O O9 0.806133 0.619860 0.279273
O O10 0.053545 0.485237 0.458337
O O11 0.753609 0.511493 0.942902
O O12 0.100728 0.735931 0.521364
O O13 0.078698 0.915419 0.304254
O O14 0.874893 0.787645 0.542848
O O15 0.208556 0.099939 0.305245
O O16 0.932993 0.110426 0.224552
#
# Coordination Sequence:
#
# PCOD8046405 Si02
#       8
#     2   2   2   2   2   2   2   2
#     4  12  25  46  72 108 148 183 243 302 354 438
#     4  12  26  47  71 107 141 192 238 293 372 420
#     4  10  21  43  71  99 140 184 238 291 357 424
#     4  10  23  44  71 103 143 189 234 300 359 429
#     4  11  23  44  73  99 140 192 232 297 360 423
#     4  11  24  49  73  99 151 185 239 303 356 435
#     4  12  25  46  71 106 142 186 239 301 360 431
#     4  10  21  43  70 101 131 195 235 283 364 420
#
# _framework density 22.746559000000001
#
# number of rings (size 3 to 8) (size 9 to 14) (size 15 to 20)
#    0.000    1.000    3.750    3.750    1.750    0.000 
#   13.500    0.000    0.000    0.000    0.000    0.000 
#    0.000    0.000    0.000    0.000    0.000    0.000 
#
# Total GULP energy -198295.819202 kJ/mol
# GULP energy per Si atom -12393.488700 kJ/mol
# Density = 2.269479 g / cm^3
# Si number density = 22.746559 Si / 1000 Ang^3
#
#
#
# Elastic Constant Matrix: (Units=GPa)
#
#
# Indices 1 2 3 4 5 6 
#
# 1 117.6157 33.4522 26.7649 0.0000 -2.6268 0.0000
# 2 33.4522 83.1466 16.2879 0.0000 -4.5322 0.0000
# 3 26.7649 16.2879 81.3019 0.0000 -8.4049 0.0000
# 4 0.0000 0.0000 0.0000 24.9980 0.0000 -4.5947
# 5 -2.6268 -4.5322 -8.4049 0.0000 40.1602 0.0000
# 6 0.0000 0.0000 0.0000 -4.5947 0.0000 42.3441
#
#
#
# Elastic Compliance Matrix: (Units=1/GPa)
#
#
# Indices 1 2 3 4 5 6 
#
# 1 0.010112 -0.003566 -0.002645 0.000000 -0.000295 0.000000
# 2 -0.003566 0.013808 -0.001488 0.000000 0.001014 0.000000
# 3 -0.002645 -0.001488 0.013730 0.000000 0.002533 0.000000
# 4 0.000000 0.000000 0.000000 0.040817 0.000000 0.004429
# 5 -0.000295 0.001014 0.002533 0.000000 0.025525 0.000000
# 6 0.000000 0.000000 0.000000 0.004429 0.000000 0.024097
#
#
# Mechanical properties :
#
#
# Convention : Reuss Voigt Hill
#
# Bulk Modulus (GPa) = 44.93700 48.34156 46.63928
# Shear Modulus (GPa) = 33.13341 35.20441 34.16891
#
# Velocity S-wave (km/s) = 3.82073 3.93833 3.87997
# Velocity P-wave (km/s) = 6.26597 6.47911 6.37343
#
# Compressibility (1/GPa) = 0.02225338
#
# Stress axis : x y z
#
# Youngs Moduli (GPa) = 98.89372 72.41969 72.83123
#
# Poissons Ratio (x) = 0.25827 0.19263
# Poissons Ratio (y) = 0.35268 0.10834
# Poissons Ratio (z) = 0.26156 0.10773
#
# Static dielectric constant tensor:
#      x y z
#    x 4.159380 0.000000 -0.145080 
#    y 0.000000 4.028040 0.000000 
#    z -0.145080 0.000000 3.931640 
# 
# 
# High freq. dielectric constant tensor:
#      x y z
#    x 1.903530 0.000000 -0.012930 
#    y 0.000000 1.899320 0.000000 
#    z -0.012930 0.000000 1.882880 
# 
# From -- ./inp_files/8405.got.cif
#   From: 2010.03.12/outbox.cif.g09.slc.cpg/sg4_5_cif.got.tgz:8405.got - 2010.03.31 09:31:35.
