data_PCOD8046131
_publ_section_title
;
Structure prediction by ZEFSAII (Michael W. Deem and Ramdas Pophale) SiO2 
 PCOD8046131
Probable space group: P 21
;
_chemical_formula_sum "Si O2"
_cell_formula_units_Z 14
_cell_length_a 8.704626
_cell_length_b 4.907652
_cell_length_c 15.811225
_cell_angle_alpha 90.000000
_cell_angle_beta 110.163583
_cell_angle_gamma 90.000000
_cell_volume 634.047661
_symmetry_space_group_name_H-M "P 21"
_symmetry_group_IT_number 4
_symmetry_cell_setting 'monoclinic'
loop_
_space_group_symop_operation_xyz
x,y,z
-x,1/2+y,-z
loop_
_atom_site_type_symbol
_atom_site_label
_atom_site_fract_x
_atom_site_fract_y
_atom_site_fract_z
Si Si1 0.116934 0.914430 0.812072
Si Si2 0.283637 0.166078 0.448319
Si Si3 0.423301 0.771940 0.761620
Si Si4 0.099256 0.885616 0.998180
Si Si5 0.640669 0.287177 0.818232
Si Si6 0.366529 0.674388 0.564364
Si Si7 0.092529 0.922107 0.265463
O O1 0.285769 0.901156 0.794295
O O2 0.154487 0.992822 0.916373
O O3 0.036073 0.618757 0.803288
O O4 0.994442 0.127734 0.743207
O O5 0.261411 0.462948 0.486779
O O6 0.442627 0.144069 0.419757
O O7 0.301090 0.972270 0.531878
O O8 0.131588 0.062045 0.363467
O O9 0.508178 0.512551 0.821416
O O10 0.344498 0.649362 0.660643
O O11 0.558165 0.006102 0.772521
O O12 0.244804 0.742442 0.078571
O O13 0.959986 0.654090 0.962955
O O14 0.742479 0.392041 0.756990
#
# Coordination Sequence:
#
# PCOD8046131 Si02
#       7
#     2   2   2   2   2   2   2
#     4  12  26  44  67  99 143 179 218 290 350 402
#     4  10  21  36  66  97 123 166 227 275 320 393
#     4  12  26  43  66 102 139 177 222 283 357 398
#     4  12  23  43  68 101 136 178 236 284 334 394
#     4  12  24  41  72  98 132 181 234 279 325 418
#     4  10  21  38  61  98 130 163 213 289 329 384
#     4  12  23  43  70 101 127 182 234 274 333 415
#
# _framework density 22.080358
#
# number of rings (size 3 to 8) (size 9 to 14) (size 15 to 20)
#    0.000    0.571    4.286    4.286    4.000    1.143 
#    0.000    2.857    0.000    0.000    0.000    0.000 
#    0.000    0.000    0.000    0.000    0.000    0.000 
#
# Total GULP energy -173614.825786 kJ/mol
# GULP energy per Si atom -12401.058985 kJ/mol
# Density = 2.203010 g / cm^3
# Si number density = 22.080358 Si / 1000 Ang^3
#
#
#
# Elastic Constant Matrix: (Units=GPa)
#
#
# Indices 1 2 3 4 5 6 
#
# 1 78.5533 22.6959 37.1200 0.0000 -7.8667 0.0000
# 2 22.6959 97.6437 11.3012 0.0000 -1.8953 0.0000
# 3 37.1200 11.3012 120.2552 0.0000 -6.7616 0.0000
# 4 0.0000 0.0000 0.0000 34.6637 0.0000 9.0217
# 5 -7.8667 -1.8953 -6.7616 0.0000 21.7369 0.0000
# 6 0.0000 0.0000 0.0000 9.0217 0.0000 32.3008
#
#
#
# Elastic Compliance Matrix: (Units=1/GPa)
#
#
# Indices 1 2 3 4 5 6 
#
# 1 0.016170 -0.003161 -0.004459 0.000000 0.004189 0.000000
# 2 -0.003161 0.010980 -0.000068 0.000000 -0.000208 0.000000
# 3 -0.004459 -0.000068 0.009778 0.000000 0.001422 0.000000
# 4 0.000000 0.000000 0.000000 0.031110 0.000000 -0.008689
# 5 0.004189 -0.000208 0.001422 0.000000 0.047945 0.000000
# 6 0.000000 0.000000 0.000000 -0.008689 0.000000 0.033386
#
#
# Mechanical properties :
#
#
# Convention : Reuss Voigt Hill
#
# Bulk Modulus (GPa) = 46.39721 48.74294 47.57007
# Shear Modulus (GPa) = 29.08182 32.76262 30.92222
#
# Velocity S-wave (km/s) = 3.63311 3.85618 3.74631
# Velocity P-wave (km/s) = 6.21754 6.47688 6.34854
#
# Compressibility (1/GPa) = 0.02155302
#
# Stress axis : x y z
#
# Youngs Moduli (GPa) = 61.84287 91.07559 102.26750
#
# Poissons Ratio (x) = 0.28790 0.45598
# Poissons Ratio (y) = 0.19549 0.00693
# Poissons Ratio (z) = 0.27574 0.00617
#
# Static dielectric constant tensor:
#      x y z
#    x 3.656210 0.000000 0.085990 
#    y 0.000000 4.114350 0.000000 
#    z 0.085990 0.000000 3.882630 
# 
# 
# High freq. dielectric constant tensor:
#      x y z
#    x 1.835130 0.000000 0.003760 
#    y 0.000000 1.886870 0.000000 
#    z 0.003760 0.000000 1.876500 
# 
# From -- ./inp_files/13559.got.cif
#   From: 2010.03.12/outbox.cif.g09.slc.cpg/sg4_7_cif.got.tgz:13559.got - 2010.03.31 09:31:35.
