data_PCOD8046285
_publ_section_title
;
Structure prediction by ZEFSAII (Michael W. Deem and Ramdas Pophale) SiO2 
 PCOD8046285
Probable space group: P 21
;
_chemical_formula_sum "Si O2"
_cell_formula_units_Z 14
_cell_length_a 14.198908
_cell_length_b 9.685216
_cell_length_c 5.079187
_cell_angle_alpha 90.000000
_cell_angle_beta 70.597702
_cell_angle_gamma 90.000000
_cell_volume 658.819657
_symmetry_space_group_name_H-M "P 21"
_symmetry_group_IT_number 4
_symmetry_cell_setting 'monoclinic'
loop_
_space_group_symop_operation_xyz
x,y,z
-x,1/2+y,-z
loop_
_atom_site_type_symbol
_atom_site_label
_atom_site_fract_x
_atom_site_fract_y
_atom_site_fract_z
Si Si1 0.073692 0.850640 0.406160
Si Si2 0.950960 0.070857 0.296780
Si Si3 0.438356 0.247050 0.037391
Si Si4 0.381495 0.554328 0.124958
Si Si5 0.314217 0.202602 0.655611
Si Si6 0.743272 0.008518 0.257249
Si Si7 0.858882 0.490803 0.137816
O O1 0.051532 0.692934 0.488504
O O2 0.132677 0.922147 0.587598
O O3 0.143099 0.868510 0.081145
O O4 0.967879 0.929806 0.449776
O O5 0.852760 0.066532 0.210924
O O6 0.046227 0.091307 0.013274
O O7 0.445381 0.413219 0.042047
O O8 0.359776 0.190145 0.322872
O O9 0.403790 0.198476 0.781817
O O10 0.547209 0.184632 0.990419
O O11 0.333956 0.566980 0.456914
O O12 0.291963 0.558944 0.996590
O O13 0.251455 0.343017 0.740545
O O14 0.242747 0.074989 0.778362
#
# Coordination Sequence:
#
# PCOD8046285 Si02
#       7
#     2   2   2   2   2   2   2
#     4  10  25  38  62  87 129 166 208 253 308 355
#     4  10  26  40  65  89 135 162 213 256 308 367
#     4  10  21  41  66  89 124 157 211 257 314 370
#     4  10  22  42  62  95 118 164 206 258 316 373
#     4  10  21  40  67  90 119 173 204 248 312 385
#     4  10  23  38  67  90 126 164 210 246 318 373
#     4  10  24  39  63  92 127 158 220 246 304 371
#
# _framework density 21.250126000000002
#
# number of rings (size 3 to 8) (size 9 to 14) (size 15 to 20)
#    0.857    1.143    0.000    1.714    8.000    1.143 
#    7.714    0.000    0.000    0.000    0.000    0.000 
#    0.000    0.000    0.000    0.000    0.000    0.000 
#
# Total GULP energy -173595.722984 kJ/mol
# GULP energy per Si atom -12399.694499 kJ/mol
# Density = 2.120176 g / cm^3
# Si number density = 21.250126 Si / 1000 Ang^3
#
#
#
# Elastic Constant Matrix: (Units=GPa)
#
#
# Indices 1 2 3 4 5 6 
#
# 1 73.7332 33.8910 11.6045 0.0000 11.9413 0.0000
# 2 33.8910 57.8327 4.9468 0.0000 4.8825 0.0000
# 3 11.6045 4.9468 63.4283 0.0000 21.1546 0.0000
# 4 0.0000 0.0000 0.0000 22.9944 0.0000 5.4509
# 5 11.9413 4.8825 21.1546 0.0000 24.7118 0.0000
# 6 0.0000 0.0000 0.0000 5.4509 0.0000 26.4523
#
#
#
# Elastic Compliance Matrix: (Units=1/GPa)
#
#
# Indices 1 2 3 4 5 6 
#
# 1 0.019818 -0.010983 -0.000418 0.000000 -0.007048 0.000000
# 2 -0.010983 0.023675 -0.000066 0.000000 0.000686 0.000000
# 3 -0.000418 -0.000066 0.022080 0.000000 -0.018686 0.000000
# 4 0.000000 0.000000 0.000000 0.045722 0.000000 -0.009422
# 5 -0.007048 0.000686 -0.018686 0.000000 0.059733 0.000000
# 6 0.000000 0.000000 0.000000 -0.009422 0.000000 0.039745
#
#
# Mechanical properties :
#
#
# Convention : Reuss Voigt Hill
#
# Bulk Modulus (GPa) = 23.45296 32.87542 28.16419
# Shear Modulus (GPa) = 20.16775 24.46851 22.31813
#
# Velocity S-wave (km/s) = 3.08403 3.39699 3.24429
# Velocity P-wave (km/s) = 4.87260 5.55790 5.22650
#
# Compressibility (1/GPa) = 0.04263855
#
# Stress axis : x y z
#
# Youngs Moduli (GPa) = 50.45932 42.23848 45.29043
#
# Poissons Ratio (x) = 0.46390 0.01895
# Poissons Ratio (y) = 0.55419 0.00298
# Poissons Ratio (z) = 0.02112 0.00278
#
# Static dielectric constant tensor:
#      x y z
#    x 3.561080 0.000000 0.193290 
#    y 0.000000 3.775910 0.000000 
#    z 0.193290 0.000000 3.874120 
# 
# 
# High freq. dielectric constant tensor:
#      x y z
#    x 1.823990 0.000000 0.015990 
#    y 0.000000 1.823280 0.000000 
#    z 0.015990 0.000000 1.843440 
# 
# From -- ./inp_files/3693.got.cif
#   From: 2010.03.12/outbox.cif.g09.slc.cpg/sg4_2_cif.got.tgz:3693.got - 2010.03.31 09:31:35.
