data_PCOD8046441
_publ_section_title
;
Structure prediction by ZEFSAII (Michael W. Deem and Ramdas Pophale) SiO2 
 PCOD8046441
Probable space group: P 21
;
_chemical_formula_sum "Si O2"
_cell_formula_units_Z 12
_cell_length_a 6.274228
_cell_length_b 13.040135
_cell_length_c 7.409429
_cell_angle_alpha 90.000000
_cell_angle_beta 120.064202
_cell_angle_gamma 90.000000
_cell_volume 524.658157
_symmetry_space_group_name_H-M "P 21"
_symmetry_group_IT_number 4
_symmetry_cell_setting 'monoclinic'
loop_
_space_group_symop_operation_xyz
x,y,z
-x,1/2+y,-z
loop_
_atom_site_type_symbol
_atom_site_label
_atom_site_fract_x
_atom_site_fract_y
_atom_site_fract_z
Si Si1 0.217943 0.143500 0.931657
Si Si2 0.639326 0.460360 0.764779
Si Si3 0.347311 0.272499 0.668669
Si Si4 0.505013 0.759060 0.674254
Si Si5 0.806912 0.078208 0.537400
Si Si6 0.890572 0.416345 0.530938
O O1 0.352316 0.172673 0.799490
O O2 0.923852 0.125001 0.772583
O O3 0.269795 0.238662 0.090883
O O4 0.322922 0.037696 0.055108
O O5 0.563802 0.351254 0.818618
O O6 0.415414 0.497199 0.535748
O O7 0.876914 0.446693 0.737827
O O8 0.385079 0.238658 0.478127
O O9 0.085659 0.326654 0.586313
O O10 0.295024 0.672939 0.623927
O O11 0.377713 0.870428 0.643057
O O12 0.039155 0.019963 0.543882
#
# Coordination Sequence:
#
# PCOD8046441 Si02
#       6
#     2   2   2   2   2   2
#     4  11  23  41  69  97 125 177 217 260 332 384
#     4   9  23  44  62  96 137 168 217 274 320 387
#     4  10  22  46  66  94 134 170 218 272 322 388
#     4  10  23  44  64  96 135 172 220 270 317 388
#     4  10  22  41  64  97 130 171 215 269 319 382
#     4  10  21  46  67  90 141 170 211 279 324 375
#
# _framework density 22.872036000000001
#
# number of rings (size 3 to 8) (size 9 to 14) (size 15 to 20)
#    0.000    2.000    1.667    0.000    7.000    0.000 
#   21.000    0.000    0.000    0.000    0.000    0.000 
#    0.000    0.000    0.000    0.000    0.000    0.000 
#
# Total GULP energy -148658.022191 kJ/mol
# GULP energy per Si atom -12388.168516 kJ/mol
# Density = 2.281998 g / cm^3
# Si number density = 22.872036 Si / 1000 Ang^3
#
#
#
# Elastic Constant Matrix: (Units=GPa)
#
#
# Indices 1 2 3 4 5 6 
#
# 1 83.3181 31.3176 38.8337 0.0000 -9.6918 0.0000
# 2 31.3176 81.8508 25.3044 0.0000 -4.0273 0.0000
# 3 38.8337 25.3044 104.6993 0.0000 3.9259 0.0000
# 4 0.0000 0.0000 0.0000 47.2196 0.0000 -1.3622
# 5 -9.6918 -4.0273 3.9259 0.0000 30.0726 0.0000
# 6 0.0000 0.0000 0.0000 -1.3622 0.0000 28.4630
#
#
#
# Elastic Compliance Matrix: (Units=1/GPa)
#
#
# Indices 1 2 3 4 5 6 
#
# 1 0.016841 -0.004514 -0.005362 0.000000 0.005523 0.000000
# 2 -0.004514 0.014560 -0.001872 0.000000 0.000740 0.000000
# 3 -0.005362 -0.001872 0.012126 0.000000 -0.003562 0.000000
# 4 0.000000 0.000000 0.000000 0.021207 0.000000 0.001015
# 5 0.005523 0.000740 -0.003562 0.000000 0.035597 0.000000
# 6 0.000000 0.000000 0.000000 0.001015 0.000000 0.035182
#
#
# Mechanical properties :
#
#
# Convention : Reuss Voigt Hill
#
# Bulk Modulus (GPa) = 49.92747 51.19774 50.56260
# Shear Modulus (GPa) = 30.17750 32.77855 31.47803
#
# Velocity S-wave (km/s) = 3.63630 3.78977 3.71383
# Velocity P-wave (km/s) = 6.28544 6.44848 6.36748
#
# Compressibility (1/GPa) = 0.02002906
#
# Stress axis : x y z
#
# Youngs Moduli (GPa) = 59.37976 68.68260 82.46587
#
# Poissons Ratio (x) = 0.31003 0.44222
# Poissons Ratio (y) = 0.26804 0.15440
# Poissons Ratio (z) = 0.31842 0.12860
#
# Static dielectric constant tensor:
#      x y z
#    x 4.099260 0.000000 0.128160 
#    y 0.000000 4.344680 0.000000 
#    z 0.128160 0.000000 3.995850 
# 
# 
# High freq. dielectric constant tensor:
#      x y z
#    x 1.890400 0.000000 0.004770 
#    y 0.000000 1.920950 0.000000 
#    z 0.004770 0.000000 1.874930 
# 
# From -- ./inp_files/269.got.cif
#   From: 2010.03.12/outbox.cif.g09.slc.cpg/sg4_1_cif.got.tgz:269.got - 2010.03.31 09:31:35.
