data_PCOD8046076
_publ_section_title
;
Structure prediction by ZEFSAII (Michael W. Deem and Ramdas Pophale) SiO2 
 PCOD8046076
Probable space group: P 21
;
_chemical_formula_sum "Si O2"
_cell_formula_units_Z 16
_cell_length_a 8.121987
_cell_length_b 9.225290
_cell_length_c 16.352242
_cell_angle_alpha 90.000000
_cell_angle_beta 41.447267
_cell_angle_gamma 90.000000
_cell_volume 811.020789
_symmetry_space_group_name_H-M "P 21"
_symmetry_group_IT_number 4
_symmetry_cell_setting 'monoclinic'
loop_
_space_group_symop_operation_xyz
x,y,z
-x,1/2+y,-z
loop_
_atom_site_type_symbol
_atom_site_label
_atom_site_fract_x
_atom_site_fract_y
_atom_site_fract_z
Si Si1 0.300511 0.218290 0.331351
Si Si2 0.883138 0.097356 0.948663
Si Si3 0.161882 0.803379 0.888375
Si Si4 0.075010 0.681743 0.750272
Si Si5 0.368786 0.142295 0.490638
Si Si6 0.673336 0.499148 0.818096
Si Si7 0.005189 0.919426 0.655429
Si Si8 0.922451 0.205777 0.751647
O O1 0.540839 0.311847 0.216450
O O2 0.284677 0.188959 0.432000
O O3 0.284949 0.066459 0.287482
O O4 0.071625 0.321455 0.392530
O O5 0.946234 0.168667 0.838472
O O6 0.936243 0.227835 0.992603
O O7 0.602001 0.038327 0.050151
O O8 0.055936 0.962839 0.911091
O O9 0.098953 0.692759 0.838264
O O10 0.336800 0.650922 0.606939
O O11 0.977517 0.832617 0.750469
O O12 0.876316 0.557516 0.806703
O O13 0.206286 0.242580 0.614285
O O14 0.288711 0.973897 0.534465
O O15 0.719062 0.326773 0.803682
O O16 0.834014 0.062495 0.733939
#
# Coordination Sequence:
#
# PCOD8046076 Si02
#       8
#     2   2   2   2   2   2   2   2
#     4   9  20  41  60  89 118 165 194 245 316 358
#     4  11  24  42  60  92 120 163 205 250 307 356
#     4  10  22  40  62  85 122 158 206 249 304 361
#     4  10  20  42  62  85 121 163 194 252 310 362
#     4   9  21  35  65  87 123 147 203 246 301 361
#     4  10  24  38  65  87 122 158 206 247 302 360
#     4   9  20  37  61  86 120 159 193 245 304 363
#     4  10  23  37  61  93 116 151 207 250 292 365
#
# _framework density 19.728224000000001
#
# number of rings (size 3 to 8) (size 9 to 14) (size 15 to 20)
#    0.750    1.500    1.250    0.000    7.000    2.000 
#    0.000    0.000    0.000    0.000    0.000    0.000 
#    0.000    0.000    0.000    0.000    0.000    0.000 
#
# Total GULP energy -198244.234774 kJ/mol
# GULP energy per Si atom -12390.264673 kJ/mol
# Density = 1.968332 g / cm^3
# Si number density = 19.728224 Si / 1000 Ang^3
#
#
#
# Elastic Constant Matrix: (Units=GPa)
#
#
# Indices 1 2 3 4 5 6 
#
# 1 73.6557 36.3460 30.7057 0.0000 0.1392 0.0000
# 2 36.3460 106.8201 33.6162 0.0000 4.6367 0.0000
# 3 30.7057 33.6162 91.6147 0.0000 14.2454 0.0000
# 4 0.0000 0.0000 0.0000 22.3229 0.0000 -6.2462
# 5 0.1392 4.6367 14.2454 0.0000 27.5681 0.0000
# 6 0.0000 0.0000 0.0000 -6.2462 0.0000 34.0803
#
#
#
# Elastic Compliance Matrix: (Units=1/GPa)
#
#
# Indices 1 2 3 4 5 6 
#
# 1 0.017884 -0.004727 -0.004751 0.000000 0.003160 0.000000
# 2 -0.004727 0.011835 -0.002667 0.000000 -0.000589 0.000000
# 3 -0.004751 -0.002667 0.014584 0.000000 -0.007064 0.000000
# 4 0.000000 0.000000 0.000000 0.047219 0.000000 0.008654
# 5 0.003160 -0.000589 -0.007064 0.000000 0.040007 0.000000
# 6 0.000000 0.000000 0.000000 0.008654 0.000000 0.030929
#
#
# Mechanical properties :
#
#
# Convention : Reuss Voigt Hill
#
# Bulk Modulus (GPa) = 49.96529 52.60295 51.28412
# Shear Modulus (GPa) = 25.85083 28.22245 27.03664
#
# Velocity S-wave (km/s) = 3.62380 3.78638 3.70598
# Velocity P-wave (km/s) = 6.54912 6.77032 6.66064
#
# Compressibility (1/GPa) = 0.02001389
#
# Stress axis : x y z
#
# Youngs Moduli (GPa) = 55.91632 84.49730 68.56653
#
# Poissons Ratio (x) = 0.39943 0.32574
# Poissons Ratio (y) = 0.26433 0.18284
# Poissons Ratio (z) = 0.26564 0.22532
#
# Static dielectric constant tensor:
#      x y z
#    x 3.518410 0.000000 0.015890 
#    y 0.000000 3.508030 0.000000 
#    z 0.015890 0.000000 3.571040 
# 
# 
# High freq. dielectric constant tensor:
#      x y z
#    x 1.765790 0.000000 0.006540 
#    y 0.000000 1.766450 0.000000 
#    z 0.006540 0.000000 1.765340 
# 
# From -- ./inp_files/14876.got.cif
#   From: 2010.03.12/outbox.cif.g09.slc.cpg/sg4_8_cif.got.tgz:14876.got - 2010.03.31 09:31:35.
