data_PCOD8046073
_publ_section_title
;
Structure prediction by ZEFSAII (Michael W. Deem and Ramdas Pophale) SiO2 
 PCOD8046073
Probable space group: P 21
;
_chemical_formula_sum "Si O2"
_cell_formula_units_Z 8
_cell_length_a 6.878456
_cell_length_b 5.065381
_cell_length_c 10.196627
_cell_angle_alpha 90.000000
_cell_angle_beta 80.671139
_cell_angle_gamma 90.000000
_cell_volume 350.572136
_symmetry_space_group_name_H-M "P 21"
_symmetry_group_IT_number 4
_symmetry_cell_setting 'monoclinic'
loop_
_space_group_symop_operation_xyz
x,y,z
-x,1/2+y,-z
loop_
_atom_site_type_symbol
_atom_site_label
_atom_site_fract_x
_atom_site_fract_y
_atom_site_fract_z
Si Si1 0.131688 0.675540 0.306391
Si Si2 0.483489 0.659276 0.084388
Si Si3 0.226239 0.461042 0.564579
Si Si4 0.734197 0.469935 0.293047
O O1 0.288924 0.759787 0.180767
O O2 0.251749 0.525784 0.408857
O O3 0.011463 0.926960 0.380061
O O4 0.972345 0.482278 0.255383
O O5 0.644582 0.528693 0.161685
O O6 0.427007 0.422798 0.990806
O O7 0.676531 0.183494 0.353192
O O8 0.337636 0.189356 0.591443
#
# Coordination Sequence:
#
# PCOD8046073 Si02
#       4
#     2   2   2   2
#     4  10  23  42  71  94 135 159 219 273 325 399
#     4  12  29  43  63  96 135 182 222 258 318 394
#     4  10  20  41  71  99 121 163 211 274 346 359
#     4  10  22  42  65  99 125 170 212 273 329 374
#
# _framework density 22.819839000000002
#
# number of rings (size 3 to 8) (size 9 to 14) (size 15 to 20)
#    1.500    0.000    2.500    1.500    3.500    4.000 
#    0.000    0.000    0.000    0.000    0.000    0.000 
#    0.000    0.000    0.000    0.000    0.000    0.000 
#
# Total GULP energy -99152.235569 kJ/mol
# GULP energy per Si atom -12394.029446 kJ/mol
# Density = 2.276790 g / cm^3
# Si number density = 22.819839 Si / 1000 Ang^3
#
#
#
# Elastic Constant Matrix: (Units=GPa)
#
#
# Indices 1 2 3 4 5 6 
#
# 1 38.3118 -10.0563 16.8461 0.0000 11.6372 0.0000
# 2 -10.0563 114.0742 19.4258 0.0000 -2.1213 0.0000
# 3 16.8461 19.4258 107.6167 0.0000 -7.7172 0.0000
# 4 0.0000 0.0000 0.0000 26.8420 0.0000 12.7388
# 5 11.6372 -2.1213 -7.7172 0.0000 28.8369 0.0000
# 6 0.0000 0.0000 0.0000 12.7388 0.0000 28.6147
#
#
#
# Elastic Compliance Matrix: (Units=1/GPa)
#
#
# Indices 1 2 3 4 5 6 
#
# 1 0.035253 0.004071 -0.007394 0.000000 -0.015905 0.000000
# 2 0.004071 0.009516 -0.002470 0.000000 -0.001604 0.000000
# 3 -0.007394 -0.002470 0.011314 0.000000 0.005830 0.000000
# 4 0.000000 0.000000 0.000000 0.047235 0.000000 -0.021028
# 5 -0.015905 -0.001604 0.005830 0.000000 0.042539 0.000000
# 6 0.000000 0.000000 0.000000 -0.021028 0.000000 0.044308
#
#
# Mechanical properties :
#
#
# Convention : Reuss Voigt Hill
#
# Bulk Modulus (GPa) = 22.47367 34.71489 28.59428
# Shear Modulus (GPa) = 23.08600 32.44450 27.76525
#
# Velocity S-wave (km/s) = 3.18412 3.77472 3.49193
# Velocity P-wave (km/s) = 4.83609 5.85181 5.36803
#
# Compressibility (1/GPa) = 0.04449651
#
# Stress axis : x y z
#
# Youngs Moduli (GPa) = 28.36671 105.08722 88.38949
#
# Poissons Ratio (x) = -0.42781 0.65354
# Poissons Ratio (y) = -0.11548 0.21832
# Poissons Ratio (z) = 0.20974 0.25957
#
# Static dielectric constant tensor:
#      x y z
#    x 3.869150 0.000000 0.127960 
#    y 0.000000 3.948330 0.000000 
#    z 0.127960 0.000000 3.777390 
# 
# 
# High freq. dielectric constant tensor:
#      x y z
#    x 1.895910 0.000000 0.012430 
#    y 0.000000 1.899230 0.000000 
#    z 0.012430 0.000000 1.883090 
# 
# From -- ./inp_files/10222.got.cif
#   From: 2010.03.12/outbox.cif.g09.slc.cpg/sg4_6_cif.got.tgz:10222.got - 2010.03.31 09:31:35.
