data_PCOD8046604
_publ_section_title
;
Structure prediction by ZEFSAII (Michael W. Deem and Ramdas Pophale) SiO2 
 PCOD8046604
Probable space group: P 21
;
_chemical_formula_sum "Si O2"
_cell_formula_units_Z 14
_cell_length_a 8.948590
_cell_length_b 9.446706
_cell_length_c 7.211320
_cell_angle_alpha 90.000000
_cell_angle_beta 67.070894
_cell_angle_gamma 90.000000
_cell_volume 561.440279
_symmetry_space_group_name_H-M "P 21"
_symmetry_group_IT_number 4
_symmetry_cell_setting 'monoclinic'
loop_
_space_group_symop_operation_xyz
x,y,z
-x,1/2+y,-z
loop_
_atom_site_type_symbol
_atom_site_label
_atom_site_fract_x
_atom_site_fract_y
_atom_site_fract_z
Si Si1 0.428210 0.267020 0.367846
Si Si2 0.372284 0.029189 0.682547
Si Si3 0.492493 0.235670 0.906770
Si Si4 0.871121 0.945179 0.556935
Si Si5 0.183924 0.381386 0.003729
Si Si6 0.858445 0.243370 0.664468
Si Si7 0.023895 0.120917 0.940959
O O1 0.432532 0.123066 0.480922
O O2 0.576148 0.365817 0.366102
O O3 0.259075 0.350825 0.493017
O O4 0.445825 0.224617 0.144568
O O5 0.463857 0.082310 0.826312
O O6 0.178439 0.033273 0.791109
O O7 0.673754 0.290180 0.789335
O O8 0.369115 0.343993 0.857829
O O9 0.814259 0.951457 0.797030
O O10 0.051314 0.881647 0.457630
O O11 0.872210 0.113267 0.508730
O O12 0.101359 0.502862 0.911780
O O13 0.080890 0.235551 0.063940
O O14 0.942939 0.208757 0.816845
#
# Coordination Sequence:
#
# PCOD8046604 Si02
#       7
#     2   2   2   2   2   2   2
#     4  11  24  48  71 106 144 187 240 299 354 433
#     4  11  24  46  73 105 143 190 239 296 365 422
#     4  10  24  46  72 101 143 188 238 292 353 427
#     4  10  22  45  67  97 142 180 229 289 352 430
#     4   9  22  43  67  95 136 177 231 284 349 411
#     4  11  22  44  70  99 139 181 233 290 357 414
#     4  10  22  42  66 101 133 173 228 290 340 425
#
# _framework density 24.935867999999999
#
# number of rings (size 3 to 8) (size 9 to 14) (size 15 to 20)
#    0.000    1.714    2.857    0.000    2.000    4.571 
#   10.286    0.000    0.000    0.000    0.000    0.000 
#    0.000    0.000    0.000    0.000    0.000    0.000 
#
# Total GULP energy -173571.688186 kJ/mol
# GULP energy per Si atom -12397.977728 kJ/mol
# Density = 2.487911 g / cm^3
# Si number density = 24.935868 Si / 1000 Ang^3
#
#
#
# Elastic Constant Matrix: (Units=GPa)
#
#
# Indices 1 2 3 4 5 6 
#
# 1 123.2357 23.9402 24.0452 0.0000 -24.4729 0.0000
# 2 23.9402 86.3816 23.2518 0.0000 -2.1016 0.0000
# 3 24.0452 23.2518 43.1071 0.0000 -13.6597 0.0000
# 4 0.0000 0.0000 0.0000 33.3215 0.0000 -7.1519
# 5 -24.4729 -2.1016 -13.6597 0.0000 38.3661 0.0000
# 6 0.0000 0.0000 0.0000 -7.1519 0.0000 39.8958
#
#
#
# Elastic Compliance Matrix: (Units=1/GPa)
#
#
# Indices 1 2 3 4 5 6 
#
# 1 0.010106 -0.001879 -0.002946 0.000000 0.005294 0.000000
# 2 -0.001879 0.014043 -0.007510 0.000000 -0.003103 0.000000
# 3 -0.002946 -0.007510 0.031748 0.000000 0.009013 0.000000
# 4 0.000000 0.000000 0.000000 0.031212 0.000000 0.005595
# 5 0.005294 -0.003103 0.009013 0.000000 0.032481 0.000000
# 6 0.000000 0.000000 0.000000 0.005595 0.000000 0.026068
#
#
# Mechanical properties :
#
#
# Convention : Reuss Voigt Hill
#
# Bulk Modulus (GPa) = 32.02314 43.91099 37.96706
# Shear Modulus (GPa) = 27.66450 34.41583 31.04017
#
# Velocity S-wave (km/s) = 3.33442 3.71910 3.53200
# Velocity P-wave (km/s) = 5.26256 6.00750 5.64733
#
# Compressibility (1/GPa) = 0.03122742
#
# Stress axis : x y z
#
# Youngs Moduli (GPa) = 98.95380 71.20810 31.49785
#
# Poissons Ratio (x) = 0.13380 0.09278
# Poissons Ratio (y) = 0.18594 0.23655
# Poissons Ratio (z) = 0.29149 0.53478
#
# Static dielectric constant tensor:
#      x y z
#    x 4.840800 0.000000 -0.163400 
#    y 0.000000 4.704660 0.000000 
#    z -0.163400 0.000000 4.120100 
# 
# 
# High freq. dielectric constant tensor:
#      x y z
#    x 2.008440 0.000000 -0.006820 
#    y 0.000000 1.993550 0.000000 
#    z -0.006820 0.000000 1.967450 
# 
# From -- ./inp_files/5240.got.cif
#   From: 2010.03.12/outbox.cif.g09.slc.cpg/sg4_3_cif.got.tgz:5240.got - 2010.03.31 09:31:35.
