data_PCOD8046775
_publ_section_title
;
Structure prediction by ZEFSAII (Michael W. Deem and Ramdas Pophale) SiO2 
 PCOD8046775
Probable space group: P 21
;
_chemical_formula_sum "Si O2"
_cell_formula_units_Z 14
_cell_length_a 13.658368
_cell_length_b 7.545811
_cell_length_c 9.119746
_cell_angle_alpha 90.000000
_cell_angle_beta 42.571624
_cell_angle_gamma 90.000000
_cell_volume 635.861530
_symmetry_space_group_name_H-M "P 21"
_symmetry_group_IT_number 4
_symmetry_cell_setting 'monoclinic'
loop_
_space_group_symop_operation_xyz
x,y,z
-x,1/2+y,-z
loop_
_atom_site_type_symbol
_atom_site_label
_atom_site_fract_x
_atom_site_fract_y
_atom_site_fract_z
Si Si1 0.709001 0.651980 0.653259
Si Si2 0.331827 0.689579 0.658038
Si Si3 0.097625 0.830646 0.486472
Si Si4 0.846454 0.994747 0.376102
Si Si5 0.232995 0.268639 0.101715
Si Si6 0.491349 0.472108 0.693719
Si Si7 0.157369 0.902539 0.084912
O O1 0.834701 0.501013 0.504647
O O2 0.679782 0.699508 0.853401
O O3 0.558730 0.585847 0.750891
O O4 0.744644 0.833402 0.532268
O O5 0.210353 0.569917 0.715033
O O6 0.468896 0.580073 0.567955
O O7 0.394818 0.817214 0.463950
O O8 0.263315 0.783193 0.874247
O O9 0.148028 0.646714 0.504375
O O10 0.146199 0.828948 0.263338
O O11 0.923472 0.850170 0.683276
O O12 0.002403 0.908343 0.176903
O O13 0.216251 0.102493 0.012789
O O14 0.330285 0.414037 0.916104
#
# Coordination Sequence:
#
# PCOD8046775 Si02
#       7
#     2   2   2   2   2   2   2
#     4  11  24  43  76 106 138 181 238 296 343 412
#     4  12  27  45  67 101 149 193 226 283 351 430
#     4  10  22  48  76 104 138 176 244 302 334 404
#     4  11  24  43  76 106 138 181 238 296 343 412
#     4  10  24  44  74 105 136 185 237 294 349 406
#     4  12  27  45  67 101 149 193 226 283 351 430
#     4  10  24  44  74 105 136 185 237 294 349 406
#
# _framework density 22.017372999999999
#
# number of rings (size 3 to 8) (size 9 to 14) (size 15 to 20)
#    0.000    1.143    2.857    1.714    4.000    6.857 
#    0.000    0.000    0.000    0.000    0.000    0.000 
#    0.000    0.000    0.000    0.000    0.000    0.000 
#
# Total GULP energy -173630.156841 kJ/mol
# GULP energy per Si atom -12402.154060 kJ/mol
# Density = 2.196726 g / cm^3
# Si number density = 22.017373 Si / 1000 Ang^3
#
#
#
# Elastic Constant Matrix: (Units=GPa)
#
#
# Indices 1 2 3 4 5 6 
#
# 1 101.8314 9.3714 12.2295 0.0000 -13.6411 0.0000
# 2 9.3714 85.9211 29.7672 0.0000 -6.2887 0.0000
# 3 12.2295 29.7672 89.6125 0.0000 -5.5935 0.0000
# 4 0.0000 0.0000 0.0000 27.5452 0.0000 -3.6731
# 5 -13.6411 -6.2887 -5.5935 0.0000 19.5956 0.0000
# 6 0.0000 0.0000 0.0000 -3.6731 0.0000 44.4565
#
#
#
# Elastic Compliance Matrix: (Units=1/GPa)
#
#
# Indices 1 2 3 4 5 6 
#
# 1 0.010932 -0.000342 -0.000927 0.000000 0.007236 0.000000
# 2 -0.000342 0.013342 -0.004208 0.000000 0.002843 0.000000
# 3 -0.000927 -0.004208 0.012787 0.000000 0.001654 0.000000
# 4 0.000000 0.000000 0.000000 0.036708 0.000000 0.003033
# 5 0.007236 0.002843 0.001654 0.000000 0.057454 0.000000
# 6 0.000000 0.000000 0.000000 0.003033 0.000000 0.022745
#
#
# Mechanical properties :
#
#
# Convention : Reuss Voigt Hill
#
# Bulk Modulus (GPa) = 38.30221 42.23345 40.26783
# Shear Modulus (GPa) = 28.79818 33.38591 31.09205
#
# Velocity S-wave (km/s) = 3.62052 3.89825 3.76195
# Velocity P-wave (km/s) = 5.90861 6.28374 6.09906
#
# Compressibility (1/GPa) = 0.02610816
#
# Stress axis : x y z
#
# Youngs Moduli (GPa) = 91.47270 74.95309 78.20686
#
# Poissons Ratio (x) = 0.02561 0.07248
# Poissons Ratio (y) = 0.03125 0.32907
# Poissons Ratio (z) = 0.08477 0.31538
#
# Static dielectric constant tensor:
#      x y z
#    x 4.029430 0.000000 -0.076420 
#    y 0.000000 4.190020 0.000000 
#    z -0.076420 0.000000 3.615200 
# 
# 
# High freq. dielectric constant tensor:
#      x y z
#    x 1.880220 0.000000 -0.005590 
#    y 0.000000 1.882990 0.000000 
#    z -0.005590 0.000000 1.845520 
# 
# From -- ./inp_files/7920.got.cif
#   From: 2010.03.12/outbox.cif.g09.slc.cpg/sg4_4_cif.got.tgz:7920.got - 2010.03.31 09:31:35.
