data_PCOD8046539
_publ_section_title
;
Structure prediction by ZEFSAII (Michael W. Deem and Ramdas Pophale) SiO2 
 PCOD8046539
Probable space group: P 21
;
_chemical_formula_sum "Si O2"
_cell_formula_units_Z 14
_cell_length_a 6.258219
_cell_length_b 7.456727
_cell_length_c 13.971365
_cell_angle_alpha 90.000000
_cell_angle_beta 105.009933
_cell_angle_gamma 90.000000
_cell_volume 629.740226
_symmetry_space_group_name_H-M "P 21"
_symmetry_group_IT_number 4
_symmetry_cell_setting 'monoclinic'
loop_
_space_group_symop_operation_xyz
x,y,z
-x,1/2+y,-z
loop_
_atom_site_type_symbol
_atom_site_label
_atom_site_fract_x
_atom_site_fract_y
_atom_site_fract_z
Si Si1 0.323986 0.725010 0.399871
Si Si2 0.461077 0.919958 0.919839
Si Si3 0.775004 0.871689 0.501436
Si Si4 0.229628 0.586667 0.187082
Si Si5 0.153541 0.172267 0.992942
Si Si6 0.981577 0.549946 0.624114
Si Si7 0.964675 0.226452 0.173139
O O1 0.565001 0.743195 0.472677
O O2 0.221980 0.543078 0.429297
O O3 0.309604 0.707481 0.283843
O O4 0.216362 0.912196 0.418048
O O5 0.298365 0.770297 0.856397
O O6 0.544393 0.056287 0.847523
O O7 0.313377 0.007004 0.986153
O O8 0.690366 0.846468 0.990671
O O9 0.960745 0.738008 0.565012
O O10 0.810848 0.944501 0.397612
O O11 0.119327 0.399952 0.209242
O O12 0.043554 0.695360 0.106050
O O13 0.043316 0.136139 0.083141
O O14 0.006291 0.582739 0.739579
#
# Coordination Sequence:
#
# PCOD8046539 Si02
#       7
#     2   2   2   2   2   2   2
#     4  12  26  45  73 105 139 186 235 297 357 424
#     4  10  22  40  67  96 142 190 233 284 342 418
#     4  12  26  46  73 102 140 180 241 298 358 426
#     4  10  23  42  68  99 142 187 238 289 344 423
#     4  10  22  42  66 100 144 188 224 294 342 414
#     4  12  26  45  73 105 139 186 235 297 357 424
#     4  10  23  42  68  99 142 187 238 289 344 423
#
# _framework density 22.231387000000002
#
# number of rings (size 3 to 8) (size 9 to 14) (size 15 to 20)
#    0.000    1.143    4.286    0.857    0.000   12.571 
#    0.000    1.429    0.000    0.000    0.000    0.000 
#    0.000    0.000    0.000    0.000    0.000    0.000 
#
# Total GULP energy -173528.571712 kJ/mol
# GULP energy per Si atom -12394.897979 kJ/mol
# Density = 2.218079 g / cm^3
# Si number density = 22.231387 Si / 1000 Ang^3
#
#
#
# Elastic Constant Matrix: (Units=GPa)
#
#
# Indices 1 2 3 4 5 6 
#
# 1 110.5606 30.3634 34.0703 0.0000 -7.0369 0.0000
# 2 30.3634 99.7210 36.6352 0.0000 -9.4529 0.0000
# 3 34.0703 36.6352 102.2279 0.0000 -15.8060 0.0000
# 4 0.0000 0.0000 0.0000 45.7831 0.0000 -3.6570
# 5 -7.0369 -9.4529 -15.8060 0.0000 30.2766 0.0000
# 6 0.0000 0.0000 0.0000 -3.6570 0.0000 40.7495
#
#
#
# Elastic Compliance Matrix: (Units=1/GPa)
#
#
# Indices 1 2 3 4 5 6 
#
# 1 0.010486 -0.002182 -0.002656 0.000000 0.000369 0.000000
# 2 -0.002182 0.012072 -0.003366 0.000000 0.001504 0.000000
# 3 -0.002656 -0.003366 0.012635 0.000000 0.004928 0.000000
# 4 0.000000 0.000000 0.000000 0.022000 0.000000 0.001974
# 5 0.000369 0.001504 0.004928 0.000000 0.036157 0.000000
# 6 0.000000 0.000000 0.000000 0.001974 0.000000 0.024717
#
#
# Mechanical properties :
#
#
# Convention : Reuss Voigt Hill
#
# Bulk Modulus (GPa) = 53.23362 57.18303 55.20833
# Shear Modulus (GPa) = 35.52722 37.45789 36.49255
#
# Velocity S-wave (km/s) = 4.00192 4.10922 4.05592
# Velocity P-wave (km/s) = 6.73432 6.94923 6.84262
#
# Compressibility (1/GPa) = 0.01878512
#
# Stress axis : x y z
#
# Youngs Moduli (GPa) = 95.36560 82.83837 79.14248
#
# Poissons Ratio (x) = 0.18077 0.21017
# Poissons Ratio (y) = 0.20810 0.26641
# Poissons Ratio (z) = 0.25325 0.27885
#
# Static dielectric constant tensor:
#      x y z
#    x 4.184790 0.000000 -0.119140 
#    y 0.000000 3.948380 0.000000 
#    z -0.119140 0.000000 3.836160 
# 
# 
# High freq. dielectric constant tensor:
#      x y z
#    x 1.881040 0.000000 -0.005770 
#    y 0.000000 1.879890 0.000000 
#    z -0.005770 0.000000 1.867040 
# 
# From -- ./inp_files/2475.got.cif
#   From: 2010.03.12/outbox.cif.g09.slc.cpg/sg4_2_cif.got.tgz:2475.got - 2010.03.31 09:31:35.
