data_PCOD8046306
_publ_section_title
;
Structure prediction by ZEFSAII (Michael W. Deem and Ramdas Pophale) SiO2 
 PCOD8046306
Probable space group: P 21
;
_chemical_formula_sum "Si O2"
_cell_formula_units_Z 16
_cell_length_a 11.698172
_cell_length_b 8.608771
_cell_length_c 9.714097
_cell_angle_alpha 90.000000
_cell_angle_beta 52.527350
_cell_angle_gamma 90.000000
_cell_volume 776.403070
_symmetry_space_group_name_H-M "P 21"
_symmetry_group_IT_number 4
_symmetry_cell_setting 'monoclinic'
loop_
_space_group_symop_operation_xyz
x,y,z
-x,1/2+y,-z
loop_
_atom_site_type_symbol
_atom_site_label
_atom_site_fract_x
_atom_site_fract_y
_atom_site_fract_z
Si Si1 0.613859 0.455220 0.272324
Si Si2 0.393292 0.459660 0.197838
Si Si3 0.571612 0.598492 0.844837
Si Si4 0.853868 0.412928 0.693178
Si Si5 0.879451 0.124531 0.484066
Si Si6 0.903054 0.340920 0.962631
Si Si7 0.529571 0.106479 0.381734
Si Si8 0.157073 0.562172 0.799704
O O1 0.518689 0.503567 0.212328
O O2 0.569124 0.286185 0.357647
O O3 0.588068 0.575401 0.414519
O O4 0.781813 0.459043 0.109289
O O5 0.387288 0.277861 0.167019
O O6 0.240750 0.507729 0.370950
O O7 0.426765 0.559739 0.036606
O O8 0.696467 0.487817 0.809467
O O9 0.540219 0.556194 0.710386
O O10 0.867752 0.294137 0.557432
O O11 0.879778 0.320430 0.816299
O O12 0.967142 0.551391 0.590258
O O13 0.863659 0.146804 0.331789
O O14 0.060608 0.408242 0.878448
O O15 0.890966 0.174140 0.041528
O O16 0.676817 0.010379 0.302416
#
# Coordination Sequence:
#
# PCOD8046306 Si02
#       8
#     2   2   2   2   2   2   2   2
#     4  10  21  41  61  91 124 159 204 255 305 366
#     4  11  22  41  64  93 127 164 207 257 310 370
#     4  11  24  41  64  95 126 166 207 253 318 368
#     4  11  24  44  64  93 128 165 209 261 311 372
#     4  11  24  42  67  91 128 165 209 261 310 374
#     4  10  23  43  63  89 126 162 206 257 307 370
#     4  10  23  39  63  92 123 160 206 250 308 368
#     4  10  23  43  62  92 122 165 206 254 313 364
#
# _framework density 20.607851
#
# number of rings (size 3 to 8) (size 9 to 14) (size 15 to 20)
#    0.000    1.500    2.500    1.500    7.000    3.000 
#    6.750    0.000    0.000    0.000    0.000    0.000 
#    0.000    0.000    0.000    0.000    0.000    0.000 
#
# Total GULP energy -198485.920296 kJ/mol
# GULP energy per Si atom -12405.370019 kJ/mol
# Density = 2.056095 g / cm^3
# Si number density = 20.607851 Si / 1000 Ang^3
#
#
#
# Elastic Constant Matrix: (Units=GPa)
#
#
# Indices 1 2 3 4 5 6 
#
# 1 67.1715 19.0918 3.1658 0.0000 -3.3752 0.0000
# 2 19.0918 41.2836 16.4728 0.0000 13.4215 0.0000
# 3 3.1658 16.4728 76.5507 0.0000 4.4375 0.0000
# 4 0.0000 0.0000 0.0000 39.5841 0.0000 -1.3675
# 5 -3.3752 13.4215 4.4375 0.0000 33.3716 0.0000
# 6 0.0000 0.0000 0.0000 -1.3675 0.0000 24.2480
#
#
#
# Elastic Compliance Matrix: (Units=1/GPa)
#
#
# Indices 1 2 3 4 5 6 
#
# 1 0.018230 -0.010896 0.001239 0.000000 0.006061 0.000000
# 2 -0.010896 0.036773 -0.006592 0.000000 -0.015015 0.000000
# 3 0.001239 -0.006592 0.014380 0.000000 0.000864 0.000000
# 4 0.000000 0.000000 0.000000 0.025312 0.000000 0.001427
# 5 0.006061 -0.015015 0.000864 0.000000 0.036502 0.000000
# 6 0.000000 0.000000 0.000000 0.001427 0.000000 0.041321
#
#
# Mechanical properties :
#
#
# Convention : Reuss Voigt Hill
#
# Bulk Modulus (GPa) = 27.10989 29.16298 28.13643
# Shear Modulus (GPa) = 23.00842 29.19245 26.10044
#
# Velocity S-wave (km/s) = 3.34501 3.76782 3.56269
# Velocity P-wave (km/s) = 5.30118 5.75419 5.53232
#
# Compressibility (1/GPa) = 0.03688691
#
# Stress axis : x y z
#
# Youngs Moduli (GPa) = 54.85405 27.19373 69.53892
#
# Poissons Ratio (x) = 0.29629 -0.08618
# Poissons Ratio (y) = 0.59767 0.45841
# Poissons Ratio (z) = -0.06798 0.17927
#
# Static dielectric constant tensor:
#      x y z
#    x 3.869450 0.000000 -0.056760 
#    y 0.000000 3.429480 0.000000 
#    z -0.056760 0.000000 3.900380 
# 
# 
# High freq. dielectric constant tensor:
#      x y z
#    x 1.813430 0.000000 -0.000390 
#    y 0.000000 1.789530 0.000000 
#    z -0.000390 0.000000 1.823800 
# 
# From -- ./inp_files/5407.got.cif
#   From: 2010.03.12/outbox.cif.g09.slc.cpg/sg4_3_cif.got.tgz:5407.got - 2010.03.31 09:31:35.
