data_PCOD8046155
_publ_section_title
;
Structure prediction by ZEFSAII (Michael W. Deem and Ramdas Pophale) SiO2 
 PCOD8046155
Probable space group: P 21
;
_chemical_formula_sum "Si O2"
_cell_formula_units_Z 16
_cell_length_a 13.283109
_cell_length_b 12.276679
_cell_length_c 11.269918
_cell_angle_alpha 90.000000
_cell_angle_beta 158.139544
_cell_angle_gamma 90.000000
_cell_volume 684.304873
_symmetry_space_group_name_H-M "P 21"
_symmetry_group_IT_number 4
_symmetry_cell_setting 'monoclinic'
loop_
_space_group_symop_operation_xyz
x,y,z
-x,1/2+y,-z
loop_
_atom_site_type_symbol
_atom_site_label
_atom_site_fract_x
_atom_site_fract_y
_atom_site_fract_z
Si Si1 0.938468 0.895130 0.702412
Si Si2 0.375942 0.456501 0.318873
Si Si3 0.573641 0.137580 0.172894
Si Si4 0.628818 0.715067 0.274961
Si Si5 0.711496 0.105629 0.572958
Si Si6 0.886616 0.322528 0.874128
Si Si7 0.057697 0.006463 0.608760
Si Si8 0.158713 0.573739 0.857200
O O1 0.654027 0.830995 0.370050
O O2 0.898127 0.014094 0.715925
O O3 0.066259 0.905185 0.709686
O O4 0.133163 0.826017 0.003249
O O5 0.465037 0.544539 0.518242
O O6 0.640464 0.396862 0.555095
O O7 0.196816 0.512721 0.022263
O O8 0.180839 0.366632 0.162504
O O9 0.546610 0.164586 0.284732
O O10 0.879091 0.103298 0.473961
O O11 0.478138 0.233601 0.978509
O O12 0.366970 0.038534 0.922914
O O13 0.929498 0.665227 0.607688
O O14 0.439834 0.632203 0.137422
O O15 0.882561 0.199029 0.824708
O O16 0.916902 0.983300 0.326975
#
# Coordination Sequence:
#
# PCOD8046155 Si02
#       8
#     2   2   2   2   2   2   2   2
#     4  10  22  41  63  91 122 166 210 251 312 368
#     4  11  24  41  63  91 124 163 203 253 310 371
#     4   9  19  37  58  85 115 155 198 246 304 354
#     4  10  21  37  64  91 120 158 206 253 303 373
#     4  10  23  42  64  89 129 164 203 258 309 367
#     4  11  25  40  61  91 120 161 211 250 302 373
#     4   9  19  36  59  84 118 156 198 248 300 360
#     4  10  21  40  62  92 126 157 199 259 312 360
#
# _framework density 23.381392000000002
#
# number of rings (size 3 to 8) (size 9 to 14) (size 15 to 20)
#    0.000    2.000    0.000    2.250    0.000   12.000 
#    0.000    6.250    0.000    0.000    0.000    0.000 
#    0.000    0.000    0.000    0.000    0.000    0.000 
#
# Total GULP energy -198224.037292 kJ/mol
# GULP energy per Si atom -12389.002331 kJ/mol
# Density = 2.332817 g / cm^3
# Si number density = 23.381392 Si / 1000 Ang^3
#
#
#
# Elastic Constant Matrix: (Units=GPa)
#
#
# Indices 1 2 3 4 5 6 
#
# 1 88.1753 30.4548 32.8799 0.0000 -24.9961 0.0000
# 2 30.4548 92.1079 36.6991 0.0000 -20.9639 0.0000
# 3 32.8799 36.6991 89.4379 0.0000 -15.4456 0.0000
# 4 0.0000 0.0000 0.0000 29.4066 0.0000 -12.5710
# 5 -24.9961 -20.9639 -15.4456 0.0000 50.0177 0.0000
# 6 0.0000 0.0000 0.0000 -12.5710 0.0000 26.6075
#
#
#
# Elastic Compliance Matrix: (Units=1/GPa)
#
#
# Indices 1 2 3 4 5 6 
#
# 1 0.015029 -0.002278 -0.003653 0.000000 0.005428 0.000000
# 2 -0.002278 0.014133 -0.004368 0.000000 0.003436 0.000000
# 3 -0.003653 -0.004368 0.014456 0.000000 0.000808 0.000000
# 4 0.000000 0.000000 0.000000 0.042613 0.000000 0.020133
# 5 0.005428 0.003436 0.000808 0.000000 0.024395 0.000000
# 6 0.000000 0.000000 0.000000 0.020133 0.000000 0.047095
#
#
# Mechanical properties :
#
#
# Convention : Reuss Voigt Hill
#
# Bulk Modulus (GPa) = 43.44336 52.19874 47.82105
# Shear Modulus (GPa) = 26.88305 32.51884 29.70094
#
# Velocity S-wave (km/s) = 3.39449 3.73339 3.56797
# Velocity P-wave (km/s) = 5.82959 6.39981 6.12134
#
# Compressibility (1/GPa) = 0.02301848
#
# Stress axis : x y z
#
# Youngs Moduli (GPa) = 66.53946 70.75853 69.17725
#
# Poissons Ratio (x) = 0.16122 0.25269
# Poissons Ratio (y) = 0.15160 0.30217
# Poissons Ratio (z) = 0.24305 0.30908
#
# Static dielectric constant tensor:
#      x y z
#    x 4.538300 0.000000 -0.533000 
#    y 0.000000 3.936630 0.000000 
#    z -0.533000 0.000000 4.284230 
# 
# 
# High freq. dielectric constant tensor:
#      x y z
#    x 1.933120 0.000000 -0.020490 
#    y 0.000000 1.891300 0.000000 
#    z -0.020490 0.000000 1.931990 
# 
# From -- ./inp_files/2956.got.cif
#   From: 2010.03.12/outbox.cif.g09.slc.cpg/sg4_2_cif.got.tgz:2956.got - 2010.03.31 09:31:35.
