data_PCOD8046533
_publ_section_title
;
Structure prediction by ZEFSAII (Michael W. Deem and Ramdas Pophale) SiO2 
 PCOD8046533
Probable space group: P 21
;
_chemical_formula_sum "Si O2"
_cell_formula_units_Z 16
_cell_length_a 20.137365
_cell_length_b 6.541051
_cell_length_c 7.589756
_cell_angle_alpha 90.000000
_cell_angle_beta 48.976846
_cell_angle_gamma 90.000000
_cell_volume 754.232476
_symmetry_space_group_name_H-M "P 21"
_symmetry_group_IT_number 4
_symmetry_cell_setting 'monoclinic'
loop_
_space_group_symop_operation_xyz
x,y,z
-x,1/2+y,-z
loop_
_atom_site_type_symbol
_atom_site_label
_atom_site_fract_x
_atom_site_fract_y
_atom_site_fract_z
Si Si1 0.977905 0.053990 0.288687
Si Si2 0.296262 0.258265 0.622097
Si Si3 0.593289 0.135108 0.491991
Si Si4 0.552934 0.384774 0.150192
Si Si5 0.706531 0.432807 0.076141
Si Si6 0.891342 0.886415 0.089551
Si Si7 0.109327 0.719868 0.208529
Si Si8 0.546650 0.518981 0.787442
O O1 0.919589 0.122363 0.556318
O O2 0.917874 0.980299 0.231273
O O3 0.036762 0.869230 0.255491
O O4 0.033018 0.243278 0.119816
O O5 0.325552 0.492380 0.589436
O O6 0.196675 0.255925 0.721192
O O7 0.360688 0.141840 0.377733
O O8 0.295147 0.141207 0.812100
O O9 0.631510 0.266705 0.265426
O O10 0.564220 0.292715 0.690764
O O11 0.508647 0.992684 0.590486
O O12 0.656941 0.456447 0.974858
O O13 0.530075 0.141535 0.184551
O O14 0.513972 0.487403 0.042231
O O15 0.803559 0.346221 0.896972
O O16 0.870598 0.054312 0.976223
#
# Coordination Sequence:
#
# PCOD8046533 Si02
#       8
#     2   2   2   2   2   2   2   2
#     4  12  26  45  77 102 138 191 228 292 361 425
#     4  10  23  43  66  95 134 174 222 285 338 418
#     4  10  22  40  65  89 128 176 217 274 334 396
#     4  11  23  41  63  92 132 180 225 276 341 405
#     4  11  25  41  67  96 133 178 225 285 345 410
#     4  12  24  47  73 101 140 187 233 284 363 422
#     4  12  25  48  69 105 144 175 241 295 346 429
#     4  10  22  43  62  92 133 175 225 281 332 409
#
# _framework density 21.213619999999999
#
# number of rings (size 3 to 8) (size 9 to 14) (size 15 to 20)
#    0.000    1.000    6.250    0.000    5.250    1.000 
#    6.750    0.000    0.000    0.000    0.000    0.000 
#    0.000    0.000    0.000    0.000    0.000    0.000 
#
# Total GULP energy -198252.562945 kJ/mol
# GULP energy per Si atom -12390.785184 kJ/mol
# Density = 2.116534 g / cm^3
# Si number density = 21.213620 Si / 1000 Ang^3
#
#
#
# Elastic Constant Matrix: (Units=GPa)
#
#
# Indices 1 2 3 4 5 6 
#
# 1 117.6579 38.9586 44.2154 0.0000 -14.0603 0.0000
# 2 38.9586 110.6259 28.5879 0.0000 -2.9871 0.0000
# 3 44.2154 28.5879 74.6703 0.0000 -7.9364 0.0000
# 4 0.0000 0.0000 0.0000 44.7108 0.0000 -0.9905
# 5 -14.0603 -2.9871 -7.9364 0.0000 36.4983 0.0000
# 6 0.0000 0.0000 0.0000 -0.9905 0.0000 33.4564
#
#
#
# Elastic Compliance Matrix: (Units=1/GPa)
#
#
# Indices 1 2 3 4 5 6 
#
# 1 0.011884 -0.002628 -0.005699 0.000000 0.003124 0.000000
# 2 -0.002628 0.010613 -0.002582 0.000000 -0.000705 0.000000
# 3 -0.005699 -0.002582 0.017914 0.000000 0.001488 0.000000
# 4 0.000000 0.000000 0.000000 0.022381 0.000000 0.000663
# 5 0.003124 -0.000705 0.001488 0.000000 0.028868 0.000000
# 6 0.000000 0.000000 0.000000 0.000663 0.000000 0.029909
#
#
# Mechanical properties :
#
#
# Convention : Reuss Voigt Hill
#
# Bulk Modulus (GPa) = 53.78442 58.49756 56.14099
# Shear Modulus (GPa) = 33.42578 35.67925 34.55251
#
# Velocity S-wave (km/s) = 3.97378 4.10555 4.04020
# Velocity P-wave (km/s) = 6.81640 7.07880 6.94884
#
# Compressibility (1/GPa) = 0.01859275
#
# Stress axis : x y z
#
# Youngs Moduli (GPa) = 84.14354 94.22198 55.82358
#
# Poissons Ratio (x) = 0.24763 0.31814
# Poissons Ratio (y) = 0.22115 0.14414
# Poissons Ratio (z) = 0.47954 0.24328
#
# Static dielectric constant tensor:
#      x y z
#    x 3.980630 0.000000 -0.004460 
#    y 0.000000 4.128830 0.000000 
#    z -0.004460 0.000000 3.870520 
# 
# 
# High freq. dielectric constant tensor:
#      x y z
#    x 1.829870 0.000000 -0.006420 
#    y 0.000000 1.850790 0.000000 
#    z -0.006420 0.000000 1.834010 
# 
# From -- ./inp_files/9771.got.cif
#   From: 2010.03.12/outbox.cif.g09.slc.cpg/sg4_5_cif.got.tgz:9771.got - 2010.03.31 09:31:35.
