data_PCOD8046271
_publ_section_title
;
Structure prediction by ZEFSAII (Michael W. Deem and Ramdas Pophale) SiO2 
 PCOD8046271
Probable space group: P 21
;
_chemical_formula_sum "Si O2"
_cell_formula_units_Z 16
_cell_length_a 7.433451
_cell_length_b 10.781895
_cell_length_c 10.554151
_cell_angle_alpha 90.000000
_cell_angle_beta 61.772982
_cell_angle_gamma 90.000000
_cell_volume 745.288611
_symmetry_space_group_name_H-M "P 21"
_symmetry_group_IT_number 4
_symmetry_cell_setting 'monoclinic'
loop_
_space_group_symop_operation_xyz
x,y,z
-x,1/2+y,-z
loop_
_atom_site_type_symbol
_atom_site_label
_atom_site_fract_x
_atom_site_fract_y
_atom_site_fract_z
Si Si1 0.019502 0.524820 0.172432
Si Si2 0.263371 0.284061 0.126612
Si Si3 0.412541 0.878440 0.166258
Si Si4 0.968591 0.294200 0.831962
Si Si5 0.077277 0.664481 0.911540
Si Si6 0.533654 0.626926 0.743024
Si Si7 0.384304 0.036047 0.546711
Si Si8 0.437413 0.303824 0.622337
O O1 0.172775 0.421129 0.170432
O O2 0.081720 0.658038 0.210915
O O3 0.018994 0.543158 0.017593
O O4 0.798506 0.493372 0.302253
O O5 0.352578 0.244408 0.233275
O O6 0.449300 0.289021 0.965881
O O7 0.091439 0.184702 0.140967
O O8 0.181995 0.887345 0.189103
O O9 0.416813 0.824678 0.306357
O O10 0.488956 0.020804 0.141254
O O11 0.927641 0.287938 0.997509
O O12 0.202691 0.329686 0.734951
O O13 0.301986 0.655675 0.774559
O O14 0.668728 0.575376 0.581037
O O15 0.486928 0.162860 0.564936
O O16 0.520192 0.910149 0.497986
#
# Coordination Sequence:
#
# PCOD8046271 Si02
#       8
#     2   2   2   2   2   2   2   2
#     4   9  21  43  62  90 132 163 209 263 306 392
#     4  12  21  39  67  95 123 166 210 261 323 365
#     4  11  20  41  68  93 128 166 207 263 327 371
#     4   9  19  41  63  93 123 168 200 257 322 373
#     4  10  21  40  65  93 126 160 214 262 313 374
#     4  11  25  40  61  98 130 157 214 272 303 384
#     4  10  23  46  62  94 132 172 214 260 319 384
#     4  10  22  44  66  90 134 174 212 264 317 387
#
# _framework density 21.468195000000001
#
# number of rings (size 3 to 8) (size 9 to 14) (size 15 to 20)
#    0.750    1.000    3.750    0.000    1.750    3.000 
#   11.250    1.250    0.000    0.000    0.000    0.000 
#    0.000    0.000    0.000    0.000    0.000    0.000 
#
# Total GULP energy -198224.147447 kJ/mol
# GULP energy per Si atom -12389.009215 kJ/mol
# Density = 2.141933 g / cm^3
# Si number density = 21.468195 Si / 1000 Ang^3
#
#
#
# Elastic Constant Matrix: (Units=GPa)
#
#
# Indices 1 2 3 4 5 6 
#
# 1 46.6507 -25.4552 4.5407 0.0000 -5.4779 0.0000
# 2 -25.4552 46.2208 -10.2025 0.0000 0.0516 0.0000
# 3 4.5407 -10.2025 61.2933 0.0000 -5.3568 0.0000
# 4 0.0000 0.0000 0.0000 31.5947 0.0000 -3.1955
# 5 -5.4779 0.0516 -5.3568 0.0000 21.2884 0.0000
# 6 0.0000 0.0000 0.0000 -3.1955 0.0000 38.9701
#
#
#
# Elastic Compliance Matrix: (Units=1/GPa)
#
#
# Indices 1 2 3 4 5 6 
#
# 1 0.032120 0.017981 0.001362 0.000000 0.008564 0.000000
# 2 0.017981 0.032543 0.004583 0.000000 0.005701 0.000000
# 3 0.001362 0.004583 0.017389 0.000000 0.004715 0.000000
# 4 0.000000 0.000000 0.000000 0.031916 0.000000 0.002617
# 5 0.008564 0.005701 0.004715 0.000000 0.050350 0.000000
# 6 0.000000 0.000000 0.000000 0.002617 0.000000 0.025875
#
#
# Mechanical properties :
#
#
# Convention : Reuss Voigt Hill
#
# Bulk Modulus (GPa) = 7.69801 10.21454 8.95627
# Shear Modulus (GPa) = 26.93338 30.72277 28.82808
#
# Velocity S-wave (km/s) = 3.54584 3.78707 3.66844
# Velocity P-wave (km/s) = 4.51193 4.88783 4.70363
#
# Compressibility (1/GPa) = 0.12990372
#
# Stress axis : x y z
#
# Youngs Moduli (GPa) = 31.13304 30.72850 57.50744
#
# Poissons Ratio (x) = -0.55252 -0.07832
# Poissons Ratio (y) = -0.55979 -0.26356
# Poissons Ratio (z) = -0.04240 -0.14083
#
# Static dielectric constant tensor:
#      x y z
#    x 3.504010 0.000000 -0.075350 
#    y 0.000000 3.990250 0.000000 
#    z -0.075350 0.000000 3.790830 
# 
# 
# High freq. dielectric constant tensor:
#      x y z
#    x 1.814570 0.000000 -0.008980 
#    y 0.000000 1.852780 0.000000 
#    z -0.008980 0.000000 1.834340 
# 
# From -- ./inp_files/10503.got.cif
#   From: 2010.03.12/outbox.cif.g09.slc.cpg/sg4_6_cif.got.tgz:10503.got - 2010.03.31 09:31:35.
