data_PCOD8046891
_publ_section_title
;
Structure prediction by ZEFSAII (Michael W. Deem and Ramdas Pophale) SiO2 
 PCOD8046891
Probable space group: P 21
;
_chemical_formula_sum "Si O2"
_cell_formula_units_Z 16
_cell_length_a 12.551019
_cell_length_b 11.857121
_cell_length_c 7.388122
_cell_angle_alpha 90.000000
_cell_angle_beta 38.370655
_cell_angle_gamma 90.000000
_cell_volume 682.505961
_symmetry_space_group_name_H-M "P 21"
_symmetry_group_IT_number 4
_symmetry_cell_setting 'monoclinic'
loop_
_space_group_symop_operation_xyz
x,y,z
-x,1/2+y,-z
loop_
_atom_site_type_symbol
_atom_site_label
_atom_site_fract_x
_atom_site_fract_y
_atom_site_fract_z
Si Si1 0.342853 0.577350 0.342576
Si Si2 0.632302 0.449115 0.548547
Si Si3 0.323035 0.994383 0.922738
Si Si4 0.915595 0.711918 0.751692
Si Si5 0.697896 0.868957 0.803562
Si Si6 0.119709 0.752266 0.815466
Si Si7 0.198936 0.759747 0.113090
Si Si8 0.539956 0.687663 0.786407
O O1 0.501792 0.504957 0.202804
O O2 0.232146 0.487087 0.372046
O O3 0.230131 0.637543 0.644503
O O4 0.418721 0.677408 0.122186
O O5 0.615047 0.462331 0.358489
O O6 0.793979 0.368032 0.371328
O O7 0.653430 0.575709 0.600019
O O8 0.467737 0.390130 0.852553
O O9 0.211917 0.107241 0.087805
O O10 0.214897 0.890975 0.151295
O O11 0.837843 0.819151 0.752863
O O12 0.948177 0.738557 0.921558
O O13 0.097475 0.690311 0.405625
O O14 0.667771 0.788542 0.668108
O O15 0.089254 0.754950 0.071915
O O16 0.396448 0.713577 0.820653
#
# Coordination Sequence:
#
# PCOD8046891 Si02
#       8
#     2   2   2   2   2   2   2   2
#     4  11  21  43  70  98 130 183 238 287 339 408
#     4  10  23  43  69 103 130 182 241 287 341 405
#     4  11  24  43  70  99 136 185 240 297 341 414
#     4  12  26  44  67 104 146 183 227 281 367 433
#     4  11  23  41  71 101 129 182 230 291 345 407
#     4  11  24  46  68 103 148 183 227 292 350 423
#     4  11  25  45  70 101 144 186 233 290 354 419
#     4  11  20  41  73  99 133 180 234 287 341 405
#
# _framework density 23.443017000000001
#
# number of rings (size 3 to 8) (size 9 to 14) (size 15 to 20)
#    0.000    1.000    5.000    0.750    3.500    2.000 
#    2.250    5.000    0.000    0.000    0.000    0.000 
#    0.000    0.000    0.000    0.000    0.000    0.000 
#
# Total GULP energy -198299.596423 kJ/mol
# GULP energy per Si atom -12393.724776 kJ/mol
# Density = 2.338966 g / cm^3
# Si number density = 23.443017 Si / 1000 Ang^3
#
#
#
# Elastic Constant Matrix: (Units=GPa)
#
#
# Indices 1 2 3 4 5 6 
#
# 1 112.1864 25.3659 -0.9846 0.0000 -3.8194 0.0000
# 2 25.3659 116.7800 12.6089 0.0000 -0.9212 0.0000
# 3 -0.9846 12.6089 21.5297 0.0000 5.8682 0.0000
# 4 0.0000 0.0000 0.0000 24.1702 0.0000 1.5971
# 5 -3.8194 -0.9212 5.8682 0.0000 25.6359 0.0000
# 6 0.0000 0.0000 0.0000 1.5971 0.0000 38.3757
#
#
#
# Elastic Compliance Matrix: (Units=1/GPa)
#
#
# Indices 1 2 3 4 5 6 
#
# 1 0.009459 -0.002203 0.001451 0.000000 0.000998 0.000000
# 2 -0.002203 0.009721 -0.006185 0.000000 0.001437 0.000000
# 3 0.001451 -0.006185 0.053474 0.000000 -0.012247 0.000000
# 4 0.000000 0.000000 0.000000 0.041487 0.000000 -0.001727
# 5 0.000998 0.001437 -0.012247 0.000000 0.042012 0.000000
# 6 0.000000 0.000000 0.000000 -0.001727 0.000000 0.026130
#
#
# Mechanical properties :
#
#
# Convention : Reuss Voigt Hill
#
# Bulk Modulus (GPa) = 17.01312 36.05293 26.53303
# Shear Modulus (GPa) = 23.17487 31.87008 27.52248
#
# Velocity S-wave (km/s) = 3.14755 3.69110 3.43011
# Velocity P-wave (km/s) = 4.52575 5.79465 5.19906
#
# Compressibility (1/GPa) = 0.05877816
#
# Stress axis : x y z
#
# Youngs Moduli (GPa) = 105.72363 102.87134 18.70058
#
# Poissons Ratio (x) = 0.22666 -0.02713
# Poissons Ratio (y) = 0.23294 0.11567
# Poissons Ratio (z) = -0.15340 0.63631
#
# Static dielectric constant tensor:
#      x y z
#    x 4.400920 0.000000 0.057310 
#    y 0.000000 4.456840 0.000000 
#    z 0.057310 0.000000 3.944160 
# 
# 
# High freq. dielectric constant tensor:
#      x y z
#    x 1.935870 0.000000 0.003700 
#    y 0.000000 1.943560 0.000000 
#    z 0.003700 0.000000 1.899290 
# 
# From -- ./inp_files/9292.got.cif
#   From: 2010.03.12/outbox.cif.g09.slc.cpg/sg4_5_cif.got.tgz:9292.got - 2010.03.31 09:31:35.
