data_PCOD8046899
_publ_section_title
;
Structure prediction by ZEFSAII (Michael W. Deem and Ramdas Pophale) SiO2 
 PCOD8046899
Probable space group: P 21
;
_chemical_formula_sum "Si O2"
_cell_formula_units_Z 14
_cell_length_a 10.292964
_cell_length_b 8.294276
_cell_length_c 9.206086
_cell_angle_alpha 90.000000
_cell_angle_beta 138.455655
_cell_angle_gamma 90.000000
_cell_volume 521.240515
_symmetry_space_group_name_H-M "P 21"
_symmetry_group_IT_number 4
_symmetry_cell_setting 'monoclinic'
loop_
_space_group_symop_operation_xyz
x,y,z
-x,1/2+y,-z
loop_
_atom_site_type_symbol
_atom_site_label
_atom_site_fract_x
_atom_site_fract_y
_atom_site_fract_z
Si Si1 0.542477 0.800630 0.860308
Si Si2 0.668726 0.357154 0.602319
Si Si3 0.149920 0.334305 0.359273
Si Si4 0.303821 0.498855 0.756362
Si Si5 0.989966 0.995513 0.259198
Si Si6 0.157618 0.060675 0.011106
Si Si7 0.757710 0.044156 0.805807
O O1 0.489391 0.896914 0.660876
O O2 0.370560 0.674851 0.757390
O O3 0.744822 0.700340 0.005786
O O4 0.548492 0.920694 0.002621
O O5 0.877884 0.346416 0.687642
O O6 0.678800 0.485702 0.742149
O O7 0.614211 0.185724 0.631662
O O8 0.290787 0.385789 0.607087
O O9 0.132046 0.144999 0.352448
O O10 0.273237 0.382493 0.316879
O O11 0.935773 0.423145 0.174681
O O12 0.080994 0.497775 0.634293
O O13 0.777075 0.003075 0.994229
O O14 0.977112 0.122354 0.959887
#
# Coordination Sequence:
#
# PCOD8046899 Si02
#       7
#     2   2   2   2   2   2   2
#     4  12  28  47  61 107 146 184 218 277 372 405
#     4  11  22  44  72 100 134 176 231 290 330 404
#     4  10  23  43  70  97 126 181 233 283 318 404
#     4  12  30  42  70  96 147 185 219 287 336 433
#     4  11  23  41  72 103 123 181 235 278 336 394
#     4   9  22  43  71  97 135 175 231 291 327 403
#     4   9  18  44  72 100 123 172 247 284 315 387
#
# _framework density 26.859002
#
# number of rings (size 3 to 8) (size 9 to 14) (size 15 to 20)
#    0.857    0.571    2.857    0.857    8.000    2.286 
#    5.143    0.000    0.000    0.000    0.000    0.000 
#    0.000    0.000    0.000    0.000    0.000    0.000 
#
# Total GULP energy -173496.708331 kJ/mol
# GULP energy per Si atom -12392.622024 kJ/mol
# Density = 2.679787 g / cm^3
# Si number density = 26.859002 Si / 1000 Ang^3
#
#
#
# Elastic Constant Matrix: (Units=GPa)
#
#
# Indices 1 2 3 4 5 6 
#
# 1 72.1295 -1.8837 5.8788 0.0000 -21.9518 0.0000
# 2 -1.8837 73.3226 22.3205 0.0000 -13.3337 0.0000
# 3 5.8788 22.3205 154.7470 0.0000 -18.3369 0.0000
# 4 0.0000 0.0000 0.0000 48.7697 0.0000 0.6202
# 5 -21.9518 -13.3337 -18.3369 0.0000 35.9523 0.0000
# 6 0.0000 0.0000 0.0000 0.6202 0.0000 26.3593
#
#
#
# Elastic Compliance Matrix: (Units=1/GPa)
#
#
# Indices 1 2 3 4 5 6 
#
# 1 0.017485 0.002478 0.000375 0.000000 0.011787 0.000000
# 2 0.002478 0.015339 -0.001547 0.000000 0.006413 0.000000
# 3 0.000375 -0.001547 0.007057 0.000000 0.003254 0.000000
# 4 0.000000 0.000000 0.000000 0.020511 0.000000 -0.000483
# 5 0.011787 0.006413 0.003254 0.000000 0.039050 0.000000
# 6 0.000000 0.000000 0.000000 -0.000483 0.000000 0.037949
#
#
# Mechanical properties :
#
#
# Convention : Reuss Voigt Hill
#
# Bulk Modulus (GPa) = 23.53256 39.20337 31.36797
# Shear Modulus (GPa) = 33.57024 40.47514 37.02269
#
# Velocity S-wave (km/s) = 3.53918 3.88616 3.71672
# Velocity P-wave (km/s) = 5.04793 5.89610 5.48842
#
# Compressibility (1/GPa) = 0.04249432
#
# Stress axis : x y z
#
# Youngs Moduli (GPa) = 57.19115 65.19275 141.71035
#
# Poissons Ratio (x) = -0.16158 -0.05313
# Poissons Ratio (y) = -0.14175 0.21918
# Poissons Ratio (z) = -0.02144 0.10083
#
# Static dielectric constant tensor:
#      x y z
#    x 4.934570 0.000000 -0.062240 
#    y 0.000000 4.573040 0.000000 
#    z -0.062240 0.000000 4.940150 
# 
# 
# High freq. dielectric constant tensor:
#      x y z
#    x 2.082270 0.000000 0.001920 
#    y 0.000000 2.077780 0.000000 
#    z 0.001920 0.000000 2.090910 
# 
# From -- ./inp_files/7602.got.cif
#   From: 2010.03.12/outbox.cif.g09.slc.cpg/sg4_4_cif.got.tgz:7602.got - 2010.03.31 09:31:35.
