data_PCOD8046921
_publ_section_title
;
Structure prediction by ZEFSAII (Michael W. Deem and Ramdas Pophale) SiO2 
 PCOD8046921
Probable space group: P 21
;
_chemical_formula_sum "Si O2"
_cell_formula_units_Z 16
_cell_length_a 10.392079
_cell_length_b 11.715718
_cell_length_c 8.407585
_cell_angle_alpha 90.000000
_cell_angle_beta 140.075747
_cell_angle_gamma 90.000000
_cell_volume 656.938849
_symmetry_space_group_name_H-M "P 21"
_symmetry_group_IT_number 4
_symmetry_cell_setting 'monoclinic'
loop_
_space_group_symop_operation_xyz
x,y,z
-x,1/2+y,-z
loop_
_atom_site_type_symbol
_atom_site_label
_atom_site_fract_x
_atom_site_fract_y
_atom_site_fract_z
Si Si1 0.970057 0.156160 0.450696
Si Si2 0.722533 0.959478 0.755866
Si Si3 0.215212 0.326031 0.487059
Si Si4 0.544277 0.361343 0.265210
Si Si5 0.387971 0.132007 0.449808
Si Si6 0.297147 0.157439 0.010205
Si Si7 0.090092 0.969947 0.334293
Si Si8 0.405323 0.515079 0.873486
O O1 0.018873 0.259340 0.371212
O O2 0.056801 0.038642 0.463418
O O3 0.735110 0.128891 0.252428
O O4 0.080329 0.174973 0.724420
O O5 0.617757 0.085790 0.639002
O O6 0.833118 0.917469 0.699654
O O7 0.548857 0.870191 0.644019
O O8 0.881560 0.952583 0.049405
O O9 0.374370 0.233647 0.567590
O O10 0.302413 0.400134 0.712199
O O11 0.447435 0.254691 0.083870
O O12 0.789783 0.352310 0.502684
O O13 0.485721 0.482540 0.124770
O O14 0.282404 0.169567 0.185181
O O15 0.249710 0.028229 0.370796
O O16 0.404106 0.039959 0.059265
#
# Coordination Sequence:
#
# PCOD8046921 Si02
#       8
#     2   2   2   2   2   2   2   2
#     4  11  25  43  68 102 141 182 232 290 348 429
#     4  11  22  45  70  97 142 179 230 293 347 421
#     4  11  24  46  70 104 141 181 240 287 355 422
#     4  11  23  43  69  95 138 182 227 289 353 407
#     4  10  24  43  68  99 137 182 229 292 346 421
#     4  12  24  43  68 103 137 178 240 286 349 428
#     4  10  23  44  67  99 136 182 230 287 349 420
#     4  12  25  45  70  99 142 186 224 294 353 416
#
# _framework density 24.355387
#
# number of rings (size 3 to 8) (size 9 to 14) (size 15 to 20)
#    0.000    1.000    6.250    0.000    1.750    2.000 
#    4.500    3.750    0.000    0.000    0.000    0.000 
#    0.000    0.000    0.000    0.000    0.000    0.000 
#
# Total GULP energy -198214.470626 kJ/mol
# GULP energy per Si atom -12388.404414 kJ/mol
# Density = 2.429995 g / cm^3
# Si number density = 24.355387 Si / 1000 Ang^3
#
#
#
# Elastic Constant Matrix: (Units=GPa)
#
#
# Indices 1 2 3 4 5 6 
#
# 1 69.5536 2.8729 16.8232 0.0000 -2.3857 0.0000
# 2 2.8729 52.4421 6.7512 0.0000 1.5242 0.0000
# 3 16.8232 6.7512 105.4936 0.0000 3.9555 0.0000
# 4 0.0000 0.0000 0.0000 34.2872 0.0000 -3.0029
# 5 -2.3857 1.5242 3.9555 0.0000 31.8717 0.0000
# 6 0.0000 0.0000 0.0000 -3.0029 0.0000 31.2868
#
#
#
# Elastic Compliance Matrix: (Units=1/GPa)
#
#
# Indices 1 2 3 4 5 6 
#
# 1 0.015035 -0.000555 -0.002417 0.000000 0.001452 0.000000
# 2 -0.000555 0.019266 -0.001114 0.000000 -0.000825 0.000000
# 3 -0.002417 -0.001114 0.009987 0.000000 -0.001367 0.000000
# 4 0.000000 0.000000 0.000000 0.029413 0.000000 0.002823
# 5 0.001452 -0.000825 -0.001367 0.000000 0.031694 0.000000
# 6 0.000000 0.000000 0.000000 0.002823 0.000000 0.032233
#
#
# Mechanical properties :
#
#
# Convention : Reuss Voigt Hill
#
# Bulk Modulus (GPa) = 27.68671 31.15376 29.42024
# Shear Modulus (GPa) = 31.67827 32.89192 32.28510
#
# Velocity S-wave (km/s) = 3.61039 3.67890 3.64481
# Velocity P-wave (km/s) = 5.36399 5.55561 5.46064
#
# Compressibility (1/GPa) = 0.03611841
#
# Stress axis : x y z
#
# Youngs Moduli (GPa) = 66.51319 51.90393 100.12873
#
# Poissons Ratio (x) = 0.02879 0.24196
# Poissons Ratio (y) = 0.03690 0.11150
# Poissons Ratio (z) = 0.16073 0.05780
#
# Static dielectric constant tensor:
#      x y z
#    x 4.364190 0.000000 0.028980 
#    y 0.000000 4.637370 0.000000 
#    z 0.028980 0.000000 4.351590 
# 
# 
# High freq. dielectric constant tensor:
#      x y z
#    x 1.970690 0.000000 -0.010750 
#    y 0.000000 1.967350 0.000000 
#    z -0.010750 0.000000 1.953390 
# 
# From -- ./inp_files/1356.got.cif
#   From: 2010.03.12/outbox.cif.g09.slc.cpg/sg4_1_cif.got.tgz:1356.got - 2010.03.31 09:31:35.
