data_PCOD8046300
_publ_section_title
;
Structure prediction by ZEFSAII (Michael W. Deem and Ramdas Pophale) SiO2 
 PCOD8046300
Probable space group: P 21
;
_chemical_formula_sum "Si O2"
_cell_formula_units_Z 16
_cell_length_a 8.211436
_cell_length_b 13.696602
_cell_length_c 10.509854
_cell_angle_alpha 90.000000
_cell_angle_beta 41.300529
_cell_angle_gamma 90.000000
_cell_volume 780.150208
_symmetry_space_group_name_H-M "P 21"
_symmetry_group_IT_number 4
_symmetry_cell_setting 'monoclinic'
loop_
_space_group_symop_operation_xyz
x,y,z
-x,1/2+y,-z
loop_
_atom_site_type_symbol
_atom_site_label
_atom_site_fract_x
_atom_site_fract_y
_atom_site_fract_z
Si Si1 0.761190 0.199940 0.912615
Si Si2 0.391609 0.570792 0.204311
Si Si3 0.035794 0.940767 0.594449
Si Si4 0.760620 0.175834 0.196699
Si Si5 0.726475 0.607017 0.403349
Si Si6 0.087731 0.347053 0.069357
Si Si7 0.634935 0.287738 0.742776
Si Si8 0.853258 0.515562 0.071889
O O1 0.633592 0.100305 0.931187
O O2 0.679453 0.291140 0.870739
O O3 0.055943 0.186595 0.729051
O O4 0.680363 0.217520 0.105109
O O5 0.182927 0.490184 0.360865
O O6 0.349567 0.672765 0.308555
O O7 0.661070 0.523631 0.068391
O O8 0.917087 0.902204 0.794459
O O9 0.156718 0.851774 0.447525
O O10 0.233835 0.025240 0.510709
O O11 0.520913 0.166011 0.423657
O O12 0.948520 0.244554 0.162385
O O13 0.894706 0.073021 0.100534
O O14 0.702618 0.555214 0.281503
O O15 0.943914 0.405621 0.042901
O O16 0.368765 0.329986 0.862576
#
# Coordination Sequence:
#
# PCOD8046300 Si02
#       8
#     2   2   2   2   2   2   2   2
#     4   8  20  36  57  87 122 155 194 253 296 354
#     4   9  20  42  62  85 129 159 195 269 298 355
#     4  10  22  41  62  90 123 160 211 251 309 363
#     4  11  20  38  64  88 121 165 201 240 320 366
#     4   9  20  37  60  87 118 160 196 255 299 359
#     4  11  24  37  64  92 119 168 203 255 307 374
#     4  10  21  42  62  89 125 163 200 256 310 355
#     4  10  21  41  57  88 129 150 204 261 301 358
#
# _framework density 20.508872
#
# number of rings (size 3 to 8) (size 9 to 14) (size 15 to 20)
#    0.750    1.500    1.250    1.500    1.750    3.000 
#    0.000    6.250    0.000    0.000    0.000    0.000 
#    0.000    0.000    0.000    0.000    0.000    0.000 
#
# Total GULP energy -198315.666182 kJ/mol
# GULP energy per Si atom -12394.729136 kJ/mol
# Density = 2.046219 g / cm^3
# Si number density = 20.508872 Si / 1000 Ang^3
#
#
#
# Elastic Constant Matrix: (Units=GPa)
#
#
# Indices 1 2 3 4 5 6 
#
# 1 74.5872 16.3357 34.5982 0.0000 -20.5364 0.0000
# 2 16.3357 80.2875 31.5013 0.0000 -9.4423 0.0000
# 3 34.5982 31.5013 84.7827 0.0000 -14.9612 0.0000
# 4 0.0000 0.0000 0.0000 27.3849 0.0000 -10.9366
# 5 -20.5364 -9.4423 -14.9612 0.0000 21.4154 0.0000
# 6 0.0000 0.0000 0.0000 -10.9366 0.0000 35.2134
#
#
#
# Elastic Compliance Matrix: (Units=1/GPa)
#
#
# Indices 1 2 3 4 5 6 
#
# 1 0.020254 -0.000148 -0.005469 0.000000 0.015537 0.000000
# 2 -0.000148 0.014755 -0.004903 0.000000 0.002938 0.000000
# 3 -0.005469 -0.004903 0.016586 0.000000 0.004181 0.000000
# 4 0.000000 0.000000 0.000000 0.041687 0.000000 0.012947
# 5 0.015537 0.002938 0.004181 0.000000 0.065811 0.000000
# 6 0.000000 0.000000 0.000000 0.012947 0.000000 0.032419
#
#
# Mechanical properties :
#
#
# Convention : Reuss Voigt Hill
#
# Bulk Modulus (GPa) = 32.72769 44.94753 38.83761
# Shear Modulus (GPa) = 22.44790 27.28421 24.86606
#
# Velocity S-wave (km/s) = 3.31198 3.65137 3.48581
# Velocity P-wave (km/s) = 5.53336 6.30400 5.93121
#
# Compressibility (1/GPa) = 0.03055517
#
# Stress axis : x y z
#
# Youngs Moduli (GPa) = 49.37268 67.77489 60.29123
#
# Poissons Ratio (x) = 0.01004 0.32970
# Poissons Ratio (y) = 0.00731 0.29562
# Poissons Ratio (z) = 0.27000 0.33232
#
# Static dielectric constant tensor:
#      x y z
#    x 3.774280 0.000000 -0.097320 
#    y 0.000000 3.685950 0.000000 
#    z -0.097320 0.000000 3.289270 
# 
# 
# High freq. dielectric constant tensor:
#      x y z
#    x 1.803580 0.000000 -0.016620 
#    y 0.000000 1.798510 0.000000 
#    z -0.016620 0.000000 1.774390 
# 
# From -- ./inp_files/11403.got.cif
#   From: 2010.03.12/outbox.cif.g09.slc.cpg/sg4_6_cif.got.tgz:11403.got - 2010.03.31 09:31:35.
