data_PCOD8046627
_publ_section_title
;
Structure prediction by ZEFSAII (Michael W. Deem and Ramdas Pophale) SiO2 
 PCOD8046627
Probable space group: P 21
;
_chemical_formula_sum "Si O2"
_cell_formula_units_Z 14
_cell_length_a 16.367699
_cell_length_b 8.374215
_cell_length_c 15.562299
_cell_angle_alpha 90.000000
_cell_angle_beta 18.131512
_cell_angle_gamma 90.000000
_cell_volume 663.810169
_symmetry_space_group_name_H-M "P 21"
_symmetry_group_IT_number 4
_symmetry_cell_setting 'monoclinic'
loop_
_space_group_symop_operation_xyz
x,y,z
-x,1/2+y,-z
loop_
_atom_site_type_symbol
_atom_site_label
_atom_site_fract_x
_atom_site_fract_y
_atom_site_fract_z
Si Si1 0.508781 0.777360 0.185317
Si Si2 0.233709 0.857814 0.901019
Si Si3 0.742926 0.054821 0.427107
Si Si4 0.697628 0.286105 0.783976
Si Si5 0.210227 0.113761 0.236841
Si Si6 0.816348 0.357214 0.249548
Si Si7 0.324027 0.493592 0.830492
O O1 0.318030 0.660251 0.428502
O O2 0.335945 0.854092 0.280490
O O3 0.633391 0.916258 0.118383
O O4 0.743597 0.672123 0.907616
O O5 0.157305 0.869018 0.878107
O O6 0.238748 0.675985 0.928383
O O7 0.518724 0.927271 0.633129
O O8 0.014624 0.959885 0.170883
O O9 0.753648 0.173613 0.334884
O O10 0.760381 0.423489 0.788989
O O11 0.927868 0.156429 0.555894
O O12 0.431720 0.194342 0.077094
O O13 0.591528 0.477612 0.508191
O O14 0.095503 0.398190 0.011466
#
# Coordination Sequence:
#
# PCOD8046627 Si02
#       7
#     2   2   2   2   2   2   2
#     4   9  25  43  66  88 136 166 200 249 333 370
#     4  12  23  39  59  99 121 164 228 264 294 369
#     4  11  24  40  64  89 129 169 210 260 321 360
#     4  10  22  42  69  93 125 159 207 248 312 380
#     4  10  22  42  69  95 125 159 207 248 312 380
#     4  11  22  40  65  85 127 174 212 263 315 363
#     4  11  24  40  64  89 129 169 210 260 321 360
#
# _framework density 21.090366
#
# number of rings (size 3 to 8) (size 9 to 14) (size 15 to 20)
#    0.857    0.571    0.000    6.000    6.000    0.000 
#    2.571    0.000    0.000    0.000    0.000    0.000 
#    0.000    0.000    0.000    0.000    0.000    0.000 
#
# Total GULP energy -173582.746206 kJ/mol
# GULP energy per Si atom -12398.767586 kJ/mol
# Density = 2.104236 g / cm^3
# Si number density = 21.090366 Si / 1000 Ang^3
#
#
#
# Elastic Constant Matrix: (Units=GPa)
#
#
# Indices 1 2 3 4 5 6 
#
# 1 41.8408 15.1406 19.6088 0.0000 3.5604 0.0000
# 2 15.1406 93.4053 5.4494 0.0000 4.0029 0.0000
# 3 19.6088 5.4494 77.7498 0.0000 -17.3663 0.0000
# 4 0.0000 0.0000 0.0000 43.0530 0.0000 -3.5836
# 5 3.5604 4.0029 -17.3663 0.0000 26.4547 0.0000
# 6 0.0000 0.0000 0.0000 -3.5836 0.0000 19.0352
#
#
#
# Elastic Compliance Matrix: (Units=1/GPa)
#
#
# Indices 1 2 3 4 5 6 
#
# 1 0.030720 -0.003992 -0.009675 0.000000 -0.009882 0.000000
# 2 -0.003992 0.011410 -0.000069 0.000000 -0.001234 0.000000
# 3 -0.009675 -0.000069 0.018280 0.000000 0.013313 0.000000
# 4 0.000000 0.000000 0.000000 0.023597 0.000000 0.004442
# 5 -0.009882 -0.001234 0.013313 0.000000 0.048056 0.000000
# 6 0.000000 0.000000 0.000000 0.004442 0.000000 0.053371
#
#
# Mechanical properties :
#
#
# Convention : Reuss Voigt Hill
#
# Bulk Modulus (GPa) = 30.35907 32.59930 31.47918
# Shear Modulus (GPa) = 22.33299 29.22838 25.78068
#
# Velocity S-wave (km/s) = 3.25763 3.72676 3.50006
# Velocity P-wave (km/s) = 5.34561 5.83171 5.59394
#
# Compressibility (1/GPa) = 0.03293909
#
# Stress axis : x y z
#
# Youngs Moduli (GPa) = 32.55250 87.64278 54.70401
#
# Poissons Ratio (x) = 0.34983 0.52926
# Poissons Ratio (y) = 0.12994 0.00376
# Poissons Ratio (z) = 0.31495 0.00602
#
# Static dielectric constant tensor:
#      x y z
#    x 3.673210 0.000000 0.025330 
#    y 0.000000 3.709210 0.000000 
#    z 0.025330 0.000000 3.947620 
# 
# 
# High freq. dielectric constant tensor:
#      x y z
#    x 1.810820 0.000000 -0.010730 
#    y 0.000000 1.824680 0.000000 
#    z -0.010730 0.000000 1.840030 
# 
# From -- ./inp_files/14171.got.cif
#   From: 2010.03.12/outbox.cif.g09.slc.cpg/sg4_8_cif.got.tgz:14171.got - 2010.03.31 09:31:35.
