data_PCOD8046500
_publ_section_title
;
Structure prediction by ZEFSAII (Michael W. Deem and Ramdas Pophale) SiO2 
 PCOD8046500
Probable space group: P 21
;
_chemical_formula_sum "Si O2"
_cell_formula_units_Z 16
_cell_length_a 14.359783
_cell_length_b 9.265693
_cell_length_c 11.299787
_cell_angle_alpha 90.000000
_cell_angle_beta 151.205244
_cell_angle_gamma 90.000000
_cell_volume 724.183734
_symmetry_space_group_name_H-M "P 21"
_symmetry_group_IT_number 4
_symmetry_cell_setting 'monoclinic'
loop_
_space_group_symop_operation_xyz
x,y,z
-x,1/2+y,-z
loop_
_atom_site_type_symbol
_atom_site_label
_atom_site_fract_x
_atom_site_fract_y
_atom_site_fract_z
Si Si1 0.205482 0.741670 0.800458
Si Si2 0.164218 0.693698 0.202704
Si Si3 0.145173 0.516546 0.405756
Si Si4 0.587076 0.159455 0.742831
Si Si5 0.537631 0.191142 0.123016
Si Si6 0.659382 0.429459 0.433322
Si Si7 0.118351 0.070451 0.681260
Si Si8 0.182473 0.220526 0.357324
O O1 0.399423 0.694285 0.944344
O O2 0.032774 0.630940 0.582070
O O3 0.150930 0.901400 0.696089
O O4 0.252008 0.730495 0.991579
O O5 0.125846 0.560256 0.247459
O O6 0.334845 0.654139 0.302667
O O7 0.226719 0.832109 0.346864
O O8 0.968270 0.725334 0.916605
O O9 0.353181 0.562009 0.688228
O O10 0.131381 0.342309 0.398069
O O11 0.973530 0.590355 0.289927
O O12 0.391884 0.255931 0.531424
O O13 0.535658 0.995114 0.724928
O O14 0.599454 0.343946 0.249280
O O15 0.311325 0.164612 0.885444
O O16 0.804717 0.563478 0.563505
#
# Coordination Sequence:
#
# PCOD8046500 Si02
#       8
#     2   2   2   2   2   2   2   2
#     4  11  26  43  70 103 133 184 229 277 351 395
#     4  11  22  42  65  97 137 177 225 274 348 397
#     4  10  23  43  65 100 131 179 227 276 348 396
#     4  10  25  40  64  99 134 176 224 282 327 408
#     4  10  24  45  67  96 137 179 222 285 339 409
#     4   9  24  43  63  99 131 177 227 274 339 396
#     4  11  26  45  71  99 138 178 228 286 332 418
#     4  10  22  39  65  93 133 172 224 278 326 409
#
# _framework density 22.09384
#
# number of rings (size 3 to 8) (size 9 to 14) (size 15 to 20)
#    0.750    1.000    0.000    2.250    5.250    7.000 
#    4.500    0.000    0.000    0.000    0.000    0.000 
#    0.000    0.000    0.000    0.000    0.000    0.000 
#
# Total GULP energy -198391.876685 kJ/mol
# GULP energy per Si atom -12399.492293 kJ/mol
# Density = 2.204355 g / cm^3
# Si number density = 22.093840 Si / 1000 Ang^3
#
#
#
# Elastic Constant Matrix: (Units=GPa)
#
#
# Indices 1 2 3 4 5 6 
#
# 1 82.7195 4.0270 22.4669 0.0000 12.5436 0.0000
# 2 4.0270 111.3754 18.2645 0.0000 4.5833 0.0000
# 3 22.4669 18.2645 95.1844 0.0000 24.9183 0.0000
# 4 0.0000 0.0000 0.0000 31.2279 0.0000 5.9549
# 5 12.5436 4.5833 24.9183 0.0000 25.3017 0.0000
# 6 0.0000 0.0000 0.0000 5.9549 0.0000 25.2295
#
#
#
# Elastic Compliance Matrix: (Units=1/GPa)
#
#
# Indices 1 2 3 4 5 6 
#
# 1 0.013324 0.000026 -0.001913 0.000000 -0.004727 0.000000
# 2 0.000026 0.009271 -0.001808 0.000000 0.000088 0.000000
# 3 -0.001913 -0.001808 0.014781 0.000000 -0.013282 0.000000
# 4 0.000000 0.000000 0.000000 0.033532 0.000000 -0.007914
# 5 -0.004727 0.000088 -0.013282 0.000000 0.054931 0.000000
# 6 0.000000 0.000000 0.000000 -0.007914 0.000000 0.041504
#
#
# Mechanical properties :
#
#
# Convention : Reuss Voigt Hill
#
# Bulk Modulus (GPa) = 33.34789 42.08848 37.71818
# Shear Modulus (GPa) = 27.06694 32.65322 29.86008
#
# Velocity S-wave (km/s) = 3.50393 3.84856 3.68028
# Velocity P-wave (km/s) = 5.61218 6.23216 5.93027
#
# Compressibility (1/GPa) = 0.02998691
#
# Stress axis : x y z
#
# Youngs Moduli (GPa) = 75.05267 107.86798 67.65287
#
# Poissons Ratio (x) = -0.00285 0.12939
# Poissons Ratio (y) = -0.00198 0.12234
# Poissons Ratio (z) = 0.14355 0.19506
#
# Static dielectric constant tensor:
#      x y z
#    x 3.927730 0.000000 0.085500 
#    y 0.000000 3.983830 0.000000 
#    z 0.085500 0.000000 3.858210 
# 
# 
# High freq. dielectric constant tensor:
#      x y z
#    x 1.869450 0.000000 0.004500 
#    y 0.000000 1.871210 0.000000 
#    z 0.004500 0.000000 1.871940 
# 
# From -- ./inp_files/12681.got.cif
#   From: 2010.03.12/outbox.cif.g09.slc.cpg/sg4_7_cif.got.tgz:12681.got - 2010.03.31 09:31:35.
