data_PCOD8046432
_publ_section_title
;
Structure prediction by ZEFSAII (Michael W. Deem and Ramdas Pophale) SiO2 
 PCOD8046432
Probable space group: P 21
;
_chemical_formula_sum "Si O2"
_cell_formula_units_Z 14
_cell_length_a 5.034442
_cell_length_b 15.172003
_cell_length_c 7.494649
_cell_angle_alpha 90.000000
_cell_angle_beta 70.212524
_cell_angle_gamma 90.000000
_cell_volume 538.659492
_symmetry_space_group_name_H-M "P 21"
_symmetry_group_IT_number 4
_symmetry_cell_setting 'monoclinic'
loop_
_space_group_symop_operation_xyz
x,y,z
-x,1/2+y,-z
loop_
_atom_site_type_symbol
_atom_site_label
_atom_site_fract_x
_atom_site_fract_y
_atom_site_fract_z
Si Si1 0.415079 0.335770 0.003271
Si Si2 0.667463 0.014493 0.859313
Si Si3 0.314270 0.845736 0.436608
Si Si4 0.064738 0.059913 0.086054
Si Si5 0.183962 0.227420 0.557517
Si Si6 0.912784 0.235394 0.999966
Si Si7 0.895745 0.534813 0.525197
O O1 0.585478 0.360327 0.787495
O O2 0.087782 0.316980 0.038836
O O3 0.581082 0.255300 0.057908
O O4 0.439200 0.414783 0.138321
O O5 0.810850 0.048436 0.646577
O O6 0.391869 0.073611 0.955287
O O7 0.880747 0.009743 0.979617
O O8 0.542743 0.790564 0.496923
O O9 0.033459 0.785339 0.510597
O O10 0.262764 0.947279 0.519134
O O11 0.036383 0.012385 0.283674
O O12 0.934870 0.156797 0.135187
O O13 0.050111 0.205611 0.781050
O O14 0.262254 0.130266 0.456362
#
# Coordination Sequence:
#
# PCOD8046432 Si02
#       7
#     2   2   2   2   2   2   2
#     4  10  21  44  75 102 147 201 250 317 383 454
#     4  12  27  47  76 114 150 199 259 319 390 471
#     4  10  24  45  75 110 153 201 258 319 383 460
#     4  12  27  47  76 114 150 199 259 319 390 471
#     4  10  24  45  75 110 153 201 258 319 383 460
#     4  10  21  44  75 102 147 201 250 317 383 454
#     4  12  28  50  84 116 160 210 258 332 396 464
#
# _framework density 25.990445000000001
#
# number of rings (size 3 to 8) (size 9 to 14) (size 15 to 20)
#    0.000    1.143    2.857    1.714    8.000    5.714 
#    0.000    2.857    0.000    0.000    0.000    0.000 
#    0.000    0.000    0.000    0.000    0.000    0.000 
#
# Total GULP energy -173548.034274 kJ/mol
# GULP energy per Si atom -12396.288162 kJ/mol
# Density = 2.593129 g / cm^3
# Si number density = 25.990445 Si / 1000 Ang^3
#
#
#
# Elastic Constant Matrix: (Units=GPa)
#
#
# Indices 1 2 3 4 5 6 
#
# 1 150.6072 36.1535 32.4526 0.0000 -7.8705 0.0000
# 2 36.1535 163.0969 9.5905 0.0000 -6.6257 0.0000
# 3 32.4526 9.5905 66.7596 0.0000 -0.1343 0.0000
# 4 0.0000 0.0000 0.0000 28.9504 0.0000 15.5266
# 5 -7.8705 -6.6257 -0.1343 0.0000 13.2222 0.0000
# 6 0.0000 0.0000 0.0000 15.5266 0.0000 25.5287
#
#
#
# Elastic Compliance Matrix: (Units=1/GPa)
#
#
# Indices 1 2 3 4 5 6 
#
# 1 0.007973 -0.001389 -0.003668 0.000000 0.004013 0.000000
# 2 -0.001389 0.006554 -0.000262 0.000000 0.002455 0.000000
# 3 -0.003668 -0.000262 0.016796 0.000000 -0.002144 0.000000
# 4 0.000000 0.000000 0.000000 0.051263 0.000000 -0.031178
# 5 0.004013 0.002455 -0.002144 0.000000 0.079228 0.000000
# 6 0.000000 0.000000 0.000000 -0.031178 0.000000 0.058134
#
#
# Mechanical properties :
#
#
# Convention : Reuss Voigt Hill
#
# Bulk Modulus (GPa) = 48.34194 59.65077 53.99635
# Shear Modulus (GPa) = 21.05429 33.69138 27.37284
#
# Velocity S-wave (km/s) = 2.84927 3.60432 3.24881
# Velocity P-wave (km/s) = 5.42814 6.34999 5.90708
#
# Compressibility (1/GPa) = 0.02068597
#
# Stress axis : x y z
#
# Youngs Moduli (GPa) = 125.41830 152.57212 59.53935
#
# Poissons Ratio (x) = 0.21188 0.21841
# Poissons Ratio (y) = 0.17417 0.01557
# Poissons Ratio (z) = 0.46008 0.03991
#
# Static dielectric constant tensor:
#      x y z
#    x 4.750100 0.000000 -0.070140 
#    y 0.000000 4.705400 0.000000 
#    z -0.070140 0.000000 4.474050 
# 
# 
# High freq. dielectric constant tensor:
#      x y z
#    x 2.037240 0.000000 -0.001770 
#    y 0.000000 2.055480 0.000000 
#    z -0.001770 0.000000 2.025030 
# 
# From -- ./inp_files/4823.got.cif
#   From: 2010.03.12/outbox.cif.g09.slc.cpg/sg4_3_cif.got.tgz:4823.got - 2010.03.31 09:31:35.
