data_PCOD8046889
_publ_section_title
;
Structure prediction by ZEFSAII (Michael W. Deem and Ramdas Pophale) SiO2 
 PCOD8046889
Probable space group: P 21
;
_chemical_formula_sum "Si O2"
_cell_formula_units_Z 14
_cell_length_a 10.485386
_cell_length_b 9.735490
_cell_length_c 14.987946
_cell_angle_alpha 90.000000
_cell_angle_beta 155.876074
_cell_angle_gamma 90.000000
_cell_volume 625.318583
_symmetry_space_group_name_H-M "P 21"
_symmetry_group_IT_number 4
_symmetry_cell_setting 'monoclinic'
loop_
_space_group_symop_operation_xyz
x,y,z
-x,1/2+y,-z
loop_
_atom_site_type_symbol
_atom_site_label
_atom_site_fract_x
_atom_site_fract_y
_atom_site_fract_z
Si Si1 0.840526 0.818500 0.593263
Si Si2 0.941047 0.993381 0.068568
Si Si3 0.419071 0.659747 0.019563
Si Si4 0.865210 0.768085 0.880813
Si Si5 0.340530 0.794918 0.408136
Si Si6 0.515272 0.382702 0.808035
Si Si7 0.835830 0.574495 0.126316
O O1 0.545648 0.745285 0.453575
O O2 0.746062 0.872712 0.434958
O O3 0.120990 0.708606 0.770297
O O4 0.930238 0.947130 0.712085
O O5 0.229512 0.951376 0.317036
O O6 0.669200 0.052096 0.958246
O O7 0.836967 0.849128 0.956039
O O8 0.064657 0.102679 0.072438
O O9 0.589311 0.789129 0.174873
O O10 0.668051 0.592939 0.113743
O O11 0.536037 0.792271 0.623067
O O12 0.147914 0.828591 0.005630
O O13 0.029544 0.704647 0.218673
O O14 0.575277 0.537439 0.883657
#
# Coordination Sequence:
#
# PCOD8046889 Si02
#       7
#     2   2   2   2   2   2   2
#     4  11  23  45  71  98 140 176 246 300 356 427
#     4  11  25  41  71 101 144 182 240 296 362 419
#     4  10  25  47  65 100 145 188 228 299 362 435
#     4  11  24  42  69 107 138 176 243 300 355 413
#     4  12  24  40  73 103 133 188 237 296 361 419
#     4  10  23  43  69 100 140 180 235 306 349 423
#     4  11  26  44  70  99 146 188 235 291 371 432
#
# _framework density 22.388589
#
# number of rings (size 3 to 8) (size 9 to 14) (size 15 to 20)
#    0.000    1.143    5.714    0.857    6.000    3.429 
#    2.571    0.000    0.000    0.000    0.000    0.000 
#    0.000    0.000    0.000    0.000    0.000    0.000 
#
# Total GULP energy -173511.515575 kJ/mol
# GULP energy per Si atom -12393.679684 kJ/mol
# Density = 2.233763 g / cm^3
# Si number density = 22.388589 Si / 1000 Ang^3
#
#
#
# Elastic Constant Matrix: (Units=GPa)
#
#
# Indices 1 2 3 4 5 6 
#
# 1 103.5713 38.4563 46.0044 0.0000 -6.1948 0.0000
# 2 38.4563 98.0926 40.5318 0.0000 -3.9482 0.0000
# 3 46.0044 40.5318 76.6430 0.0000 -21.8315 0.0000
# 4 0.0000 0.0000 0.0000 26.1322 0.0000 -12.4432
# 5 -6.1948 -3.9482 -21.8315 0.0000 39.8816 0.0000
# 6 0.0000 0.0000 0.0000 -12.4432 0.0000 39.0155
#
#
#
# Elastic Compliance Matrix: (Units=1/GPa)
#
#
# Indices 1 2 3 4 5 6 
#
# 1 0.013806 -0.002315 -0.007721 0.000000 -0.002311 0.000000
# 2 -0.002315 0.013732 -0.006619 0.000000 -0.002624 0.000000
# 3 -0.007721 -0.006619 0.024470 0.000000 0.011540 0.000000
# 4 0.000000 0.000000 0.000000 0.045119 0.000000 0.014390
# 5 -0.002311 -0.002624 0.011540 0.000000 0.030773 0.000000
# 6 0.000000 0.000000 0.000000 0.014390 0.000000 0.030220
#
#
# Mechanical properties :
#
#
# Convention : Reuss Voigt Hill
#
# Bulk Modulus (GPa) = 53.48686 58.69910 56.09298
# Shear Modulus (GPa) = 25.29558 31.22682 28.26120
#
# Velocity S-wave (km/s) = 3.36496 3.73871 3.55675
# Velocity P-wave (km/s) = 6.24815 6.70168 6.47888
#
# Compressibility (1/GPa) = 0.01869618
#
# Stress axis : x y z
#
# Youngs Moduli (GPa) = 72.43161 72.82426 40.86662
#
# Poissons Ratio (x) = 0.16861 0.31553
# Poissons Ratio (y) = 0.16770 0.27052
# Poissons Ratio (z) = 0.55924 0.48206
#
# Static dielectric constant tensor:
#      x y z
#    x 3.995180 0.000000 -0.327360 
#    y 0.000000 4.253980 0.000000 
#    z -0.327360 0.000000 4.066080 
# 
# 
# High freq. dielectric constant tensor:
#      x y z
#    x 1.873330 0.000000 -0.015910 
#    y 0.000000 1.883260 0.000000 
#    z -0.015910 0.000000 1.872600 
# 
# From -- ./inp_files/15178.got.cif
#   From: 2010.03.12/outbox.cif.g09.slc.cpg/sg4_8_cif.got.tgz:15178.got - 2010.03.31 09:31:35.
