data_PCOD8046269
_publ_section_title
;
Structure prediction by ZEFSAII (Michael W. Deem and Ramdas Pophale) SiO2 
 PCOD8046269
Probable space group: P 21
;
_chemical_formula_sum "Si O2"
_cell_formula_units_Z 16
_cell_length_a 16.108355
_cell_length_b 4.956642
_cell_length_c 8.986915
_cell_angle_alpha 90.000000
_cell_angle_beta 95.386898
_cell_angle_gamma 90.000000
_cell_volume 714.376321
_symmetry_space_group_name_H-M "P 21"
_symmetry_group_IT_number 4
_symmetry_cell_setting 'monoclinic'
loop_
_space_group_symop_operation_xyz
x,y,z
-x,1/2+y,-z
loop_
_atom_site_type_symbol
_atom_site_label
_atom_site_fract_x
_atom_site_fract_y
_atom_site_fract_z
Si Si1 0.444081 0.692720 0.009841
Si Si2 0.444418 0.662167 0.332857
Si Si3 0.255716 0.687943 0.924702
Si Si4 0.209322 0.186251 0.443901
Si Si5 0.831417 0.689012 0.233364
Si Si6 0.001129 0.700954 0.097547
Si Si7 0.607324 0.662613 0.508921
Si Si8 0.821542 0.183356 0.761376
O O1 0.417519 0.575366 0.165039
O O2 0.506605 0.472541 0.949758
O O3 0.355324 0.730380 0.911278
O O4 0.544600 0.615956 0.360986
O O5 0.397557 0.472411 0.441387
O O6 0.419357 0.970124 0.359353
O O7 0.231227 0.399010 0.854234
O O8 0.202537 0.898256 0.819783
O O9 0.232241 0.708989 0.095934
O O10 0.157067 0.217603 0.586431
O O11 0.299324 0.096936 0.523033
O O12 0.218390 0.463545 0.354645
O O13 0.174137 0.966202 0.324242
O O14 0.925432 0.736658 0.197032
O O15 0.083971 0.590195 0.191400
O O16 0.975083 0.490123 0.966349
#
# Coordination Sequence:
#
# PCOD8046269 Si02
#       8
#     2   2   2   2   2   2   2   2
#     4  12  26  41  63  98 136 173 227 288 329 388
#     4  10  22  41  60  92 117 181 220 274 326 393
#     4  12  25  45  73  99 138 190 238 273 348 418
#     4  12  26  41  68 105 139 176 223 291 343 392
#     4  12  26  46  71 106 140 183 224 291 344 416
#     4  12  23  47  74 105 137 179 230 273 345 416
#     4  10  21  40  65  83 132 167 224 266 334 401
#     4  12  25  45  74 102 135 183 228 282 335 418
#
# _framework density 22.397158999999998
#
# number of rings (size 3 to 8) (size 9 to 14) (size 15 to 20)
#    0.000    0.500    2.500    6.000    3.500    1.000 
#    0.000    0.000    0.000    0.000    0.000    0.000 
#    0.000    0.000    0.000    0.000    0.000    0.000 
#
# Total GULP energy -198416.683659 kJ/mol
# GULP energy per Si atom -12401.042729 kJ/mol
# Density = 2.234618 g / cm^3
# Si number density = 22.397159 Si / 1000 Ang^3
#
#
#
# Elastic Constant Matrix: (Units=GPa)
#
#
# Indices 1 2 3 4 5 6 
#
# 1 114.6441 10.1610 10.3185 0.0000 4.2865 0.0000
# 2 10.1610 91.2170 18.6880 0.0000 -5.9740 0.0000
# 3 10.3185 18.6880 93.4358 0.0000 -11.3556 0.0000
# 4 0.0000 0.0000 0.0000 33.0206 0.0000 6.6548
# 5 4.2865 -5.9740 -11.3556 0.0000 27.9901 0.0000
# 6 0.0000 0.0000 0.0000 6.6548 0.0000 32.7990
#
#
#
# Elastic Compliance Matrix: (Units=1/GPa)
#
#
# Indices 1 2 3 4 5 6 
#
# 1 0.008973 -0.000915 -0.001050 0.000000 -0.001996 0.000000
# 2 -0.000915 0.011592 -0.001998 0.000000 0.001804 0.000000
# 3 -0.001050 -0.001998 0.011766 0.000000 0.004508 0.000000
# 4 0.000000 0.000000 0.000000 0.031575 0.000000 -0.006407
# 5 -0.001996 0.001804 0.004508 0.000000 0.038246 0.000000
# 6 0.000000 0.000000 0.000000 -0.006407 0.000000 0.031789
#
#
# Mechanical properties :
#
#
# Convention : Reuss Voigt Hill
#
# Bulk Modulus (GPa) = 40.97732 41.95912 41.46822
# Shear Modulus (GPa) = 33.33252 36.10389 34.71821
#
# Velocity S-wave (km/s) = 3.86197 4.01931 3.94142
# Velocity P-wave (km/s) = 6.18238 6.34938 6.26644
#
# Compressibility (1/GPa) = 0.02440374
#
# Stress axis : x y z
#
# Youngs Moduli (GPa) = 111.44665 86.26402 84.99009
#
# Poissons Ratio (x) = 0.07893 0.08928
# Poissons Ratio (y) = 0.10198 0.16984
# Poissons Ratio (z) = 0.11707 0.17238
#
# Static dielectric constant tensor:
#      x y z
#    x 4.093740 0.000000 0.054320 
#    y 0.000000 4.078430 0.000000 
#    z 0.054320 0.000000 3.849890 
# 
# 
# High freq. dielectric constant tensor:
#      x y z
#    x 1.891790 0.000000 0.005930 
#    y 0.000000 1.893090 0.000000 
#    z 0.005930 0.000000 1.874810 
# 
# From -- ./inp_files/8830.got.cif
#   From: 2010.03.12/outbox.cif.g09.slc.cpg/sg4_5_cif.got.tgz:8830.got - 2010.03.31 09:31:35.
