data_PCOD8046594
_publ_section_title
;
Structure prediction by ZEFSAII (Michael W. Deem and Ramdas Pophale) SiO2 
 PCOD8046594
Probable space group: P 21
;
_chemical_formula_sum "Si O2"
_cell_formula_units_Z 14
_cell_length_a 17.545147
_cell_length_b 5.086883
_cell_length_c 16.726892
_cell_angle_alpha 90.000000
_cell_angle_beta 155.250562
_cell_angle_gamma 90.000000
_cell_volume 624.994174
_symmetry_space_group_name_H-M "P 21"
_symmetry_group_IT_number 4
_symmetry_cell_setting 'monoclinic'
loop_
_space_group_symop_operation_xyz
x,y,z
-x,1/2+y,-z
loop_
_atom_site_type_symbol
_atom_site_label
_atom_site_fract_x
_atom_site_fract_y
_atom_site_fract_z
Si Si1 0.956118 0.612750 0.506369
Si Si2 0.013623 0.783814 0.325612
Si Si3 0.301417 0.410737 0.642158
Si Si4 0.669378 0.558380 0.934934
Si Si5 0.377550 0.561112 0.215023
Si Si6 0.782613 0.619216 0.599557
Si Si7 0.033495 0.638800 0.982923
O O1 0.750884 0.694230 0.340635
O O2 0.944351 0.374827 0.431684
O O3 0.062709 0.517127 0.689030
O O4 0.172646 0.661744 0.532551
O O5 0.860915 0.564395 0.163472
O O6 0.098908 0.879082 0.323035
O O7 0.512160 0.490242 0.849547
O O8 0.256808 0.324585 0.508476
O O9 0.671170 0.346662 0.866525
O O10 0.642135 0.849131 0.873829
O O11 0.583966 0.535495 0.444881
O O12 0.231070 0.523370 0.145707
O O13 0.904395 0.734975 0.787028
O O14 0.935051 0.395587 0.933086
#
# Coordination Sequence:
#
# PCOD8046594 Si02
#       7
#     2   2   2   2   2   2   2
#     4  11  23  41  68  96 138 183 216 262 342 405
#     4  11  21  40  73  96 128 171 219 278 325 384
#     4  10  22  41  71  99 128 173 221 281 321 390
#     4  11  23  38  70 103 123 160 233 274 325 378
#     4  11  23  42  64  95 132 167 216 285 322 393
#     4  10  23  40  67  96 128 171 227 270 334 386
#     4  12  27  42  63  93 135 177 216 272 335 402
#
# _framework density 22.400209
#
# number of rings (size 3 to 8) (size 9 to 14) (size 15 to 20)
#    0.000    1.143    4.286    1.714    4.000    1.143 
#    0.000    0.000    6.286    0.000    0.000    0.000 
#    0.000    0.000    0.000    0.000    0.000    0.000 
#
# Total GULP energy -173526.280263 kJ/mol
# GULP energy per Si atom -12394.734304 kJ/mol
# Density = 2.234923 g / cm^3
# Si number density = 22.400209 Si / 1000 Ang^3
#
#
#
# Elastic Constant Matrix: (Units=GPa)
#
#
# Indices 1 2 3 4 5 6 
#
# 1 112.9281 31.8798 47.6358 0.0000 21.6856 0.0000
# 2 31.8798 96.2520 26.2286 0.0000 10.7715 0.0000
# 3 47.6358 26.2286 85.6382 0.0000 28.6586 0.0000
# 4 0.0000 0.0000 0.0000 34.2501 0.0000 1.2207
# 5 21.6856 10.7715 28.6586 0.0000 29.0505 0.0000
# 6 0.0000 0.0000 0.0000 1.2207 0.0000 37.8391
#
#
#
# Elastic Compliance Matrix: (Units=1/GPa)
#
#
# Indices 1 2 3 4 5 6 
#
# 1 0.012260 -0.002326 -0.004976 0.000000 -0.003381 0.000000
# 2 -0.002326 0.011803 -0.002146 0.000000 -0.000523 0.000000
# 3 -0.004976 -0.002146 0.020292 0.000000 -0.015508 0.000000
# 4 0.000000 0.000000 0.000000 0.029231 0.000000 -0.000943
# 5 -0.003381 -0.000523 -0.015508 0.000000 0.052439 0.000000
# 6 0.000000 0.000000 0.000000 -0.000943 0.000000 0.026458
#
#
# Mechanical properties :
#
#
# Convention : Reuss Voigt Hill
#
# Bulk Modulus (GPa) = 39.27936 56.25630 47.76783
# Shear Modulus (GPa) = 27.79859 32.83288 30.31574
#
# Velocity S-wave (km/s) = 3.52660 3.83265 3.68281
# Velocity P-wave (km/s) = 5.84430 6.68987 6.28133
#
# Compressibility (1/GPa) = 0.02545867
#
# Stress axis : x y z
#
# Youngs Moduli (GPa) = 81.56589 84.72261 49.28121
#
# Poissons Ratio (x) = 0.19710 0.24521
# Poissons Ratio (y) = 0.18976 0.10576
# Poissons Ratio (z) = 0.40585 0.18181
#
# Static dielectric constant tensor:
#      x y z
#    x 4.277080 0.000000 0.345710 
#    y 0.000000 4.090300 0.000000 
#    z 0.345710 0.000000 3.900120 
# 
# 
# High freq. dielectric constant tensor:
#      x y z
#    x 1.884430 0.000000 0.022870 
#    y 0.000000 1.895780 0.000000 
#    z 0.022870 0.000000 1.853020 
# 
# From -- ./inp_files/14088.got.cif
#   From: 2010.03.12/outbox.cif.g09.slc.cpg/sg4_8_cif.got.tgz:14088.got - 2010.03.31 09:31:35.
