data_PCOD8046178
_publ_section_title
;
Structure prediction by ZEFSAII (Michael W. Deem and Ramdas Pophale) SiO2 
 PCOD8046178
Probable space group: P 21
;
_chemical_formula_sum "Si O2"
_cell_formula_units_Z 16
_cell_length_a 8.498056
_cell_length_b 16.710928
_cell_length_c 9.309895
_cell_angle_alpha 90.000000
_cell_angle_beta 148.000600
_cell_angle_gamma 90.000000
_cell_volume 700.595541
_symmetry_space_group_name_H-M "P 21"
_symmetry_group_IT_number 4
_symmetry_cell_setting 'monoclinic'
loop_
_space_group_symop_operation_xyz
x,y,z
-x,1/2+y,-z
loop_
_atom_site_type_symbol
_atom_site_label
_atom_site_fract_x
_atom_site_fract_y
_atom_site_fract_z
Si Si1 0.187717 0.541340 0.167576
Si Si2 0.552756 0.134325 0.193275
Si Si3 0.047872 0.363131 0.407478
Si Si4 0.510494 0.807465 0.477462
Si Si5 0.851853 0.868788 0.989975
Si Si6 0.684035 0.635783 0.668911
Si Si7 0.413386 0.301195 0.938082
Si Si8 0.947510 0.539052 0.302821
O O1 0.530314 0.564622 0.457650
O O2 0.053229 0.532154 0.220897
O O3 0.138931 0.462087 0.037787
O O4 0.029445 0.612720 0.953194
O O5 0.434525 0.145129 0.262052
O O6 0.894239 0.108236 0.479059
O O7 0.494011 0.214842 0.060970
O O8 0.395802 0.063970 0.978870
O O9 0.277703 0.364608 0.452831
O O10 0.177784 0.301917 0.626016
O O11 0.007043 0.454848 0.428274
O O12 0.717673 0.336241 0.108463
O O13 0.609221 0.716248 0.522793
O O14 0.161175 0.824828 0.185306
O O15 0.583088 0.827130 0.697817
O O16 0.756034 0.857221 0.079329
#
# Coordination Sequence:
#
# PCOD8046178 Si02
#       8
#     2   2   2   2   2   2   2   2
#     4  10  21  38  64  98 127 164 220 278 322 374
#     4  10  21  39  66  94 125 170 222 266 318 393
#     4  12  26  44  65  99 138 175 216 267 332 394
#     4  12  24  42  69  97 130 170 224 271 325 383
#     4  12  24  42  69  97 130 170 224 271 325 383
#     4  10  21  38  64  98 127 164 220 278 322 374
#     4  12  26  44  65  99 138 175 216 267 332 394
#     4  10  21  39  66  94 125 170 222 266 318 393
#
# _framework density 22.837713999999998
#
# number of rings (size 3 to 8) (size 9 to 14) (size 15 to 20)
#    0.000    1.000    2.500    4.500    7.000    0.000 
#    0.000    7.500    0.000    0.000    0.000    0.000 
#    0.000    0.000    0.000    0.000    0.000    0.000 
#
# Total GULP energy -198280.488365 kJ/mol
# GULP energy per Si atom -12392.530523 kJ/mol
# Density = 2.278573 g / cm^3
# Si number density = 22.837714 Si / 1000 Ang^3
#
#
#
# Elastic Constant Matrix: (Units=GPa)
#
#
# Indices 1 2 3 4 5 6 
#
# 1 43.2711 -8.1971 12.6038 0.0000 8.1432 0.0000
# 2 -8.1971 110.4407 24.1450 0.0000 -5.1968 0.0000
# 3 12.6038 24.1450 87.9140 0.0000 2.7201 0.0000
# 4 0.0000 0.0000 0.0000 47.1953 0.0000 -8.2118
# 5 8.1432 -5.1968 2.7201 0.0000 21.1731 0.0000
# 6 0.0000 0.0000 0.0000 -8.2118 0.0000 22.9034
#
#
#
# Elastic Compliance Matrix: (Units=1/GPa)
#
#
# Indices 1 2 3 4 5 6 
#
# 1 0.026501 0.002458 -0.004194 0.000000 -0.009050 0.000000
# 2 0.002458 0.010019 -0.003163 0.000000 0.001920 0.000000
# 3 -0.004194 -0.003163 0.012870 0.000000 -0.000817 0.000000
# 4 0.000000 0.000000 0.000000 0.022598 0.000000 0.008102
# 5 -0.009050 0.001920 -0.000817 0.000000 0.051287 0.000000
# 6 0.000000 0.000000 0.000000 0.008102 0.000000 0.046567
#
#
# Mechanical properties :
#
#
# Convention : Reuss Voigt Hill
#
# Bulk Modulus (GPa) = 25.25871 33.19214 29.22542
# Shear Modulus (GPa) = 25.92851 32.45928 29.19390
#
# Velocity S-wave (km/s) = 3.37313 3.77411 3.57924
# Velocity P-wave (km/s) = 5.12394 5.79287 5.46864
#
# Compressibility (1/GPa) = 0.03959031
#
# Stress axis : x y z
#
# Youngs Moduli (GPa) = 37.73500 99.80999 77.69901
#
# Poissons Ratio (x) = -0.24534 0.32590
# Poissons Ratio (y) = -0.09276 0.24580
# Poissons Ratio (z) = 0.15827 0.31575
#
# Static dielectric constant tensor:
#      x y z
#    x 3.768800 0.000000 0.029910 
#    y 0.000000 4.132720 0.000000 
#    z 0.029910 0.000000 4.411520 
# 
# 
# High freq. dielectric constant tensor:
#      x y z
#    x 1.859960 0.000000 0.000190 
#    y 0.000000 1.908210 0.000000 
#    z 0.000190 0.000000 1.924430 
# 
# From -- ./inp_files/6915.got.cif
#   From: 2010.03.12/outbox.cif.g09.slc.cpg/sg4_4_cif.got.tgz:6915.got - 2010.03.31 09:31:35.
