data_PCOD8046599
_publ_section_title
;
Structure prediction by ZEFSAII (Michael W. Deem and Ramdas Pophale) SiO2 
 PCOD8046599
Probable space group: P 21
;
_chemical_formula_sum "Si O2"
_cell_formula_units_Z 16
_cell_length_a 22.835726
_cell_length_b 5.119752
_cell_length_c 11.481180
_cell_angle_alpha 90.000000
_cell_angle_beta 29.809921
_cell_angle_gamma 90.000000
_cell_volume 667.290878
_symmetry_space_group_name_H-M "P 21"
_symmetry_group_IT_number 4
_symmetry_cell_setting 'monoclinic'
loop_
_space_group_symop_operation_xyz
x,y,z
-x,1/2+y,-z
loop_
_atom_site_type_symbol
_atom_site_label
_atom_site_fract_x
_atom_site_fract_y
_atom_site_fract_z
Si Si1 0.229186 0.175680 0.423901
Si Si2 0.584298 0.586190 0.708807
Si Si3 0.100799 0.022297 0.211719
Si Si4 0.255596 0.259705 0.763776
Si Si5 0.919726 0.927030 0.136052
Si Si6 0.555286 0.598596 0.090087
Si Si7 0.533940 0.026129 0.508335
Si Si8 0.055108 0.019556 0.547046
O O1 0.311784 0.051798 0.377783
O O2 0.163345 0.415680 0.604241
O O3 0.130217 0.989830 0.536168
O O4 0.315325 0.215275 0.164617
O O5 0.643491 0.607633 0.480793
O O6 0.529289 0.306921 0.821852
O O7 0.488271 0.820761 0.890263
O O8 0.133811 0.008158 0.292231
O O9 0.036522 0.291020 0.296177
O O10 0.212852 0.046776 0.933233
O O11 0.016344 0.788372 0.321335
O O12 0.154743 0.375689 0.853226
O O13 0.326005 0.496805 0.704937
O O14 0.023190 0.712128 0.968720
O O15 0.546292 0.603349 0.243570
O O16 0.519796 0.250132 0.438479
#
# Coordination Sequence:
#
# PCOD8046599 Si02
#       8
#     2   2   2   2   2   2   2   2
#     4  11  24  41  70  96 132 174 219 265 334 385
#     4  10  24  42  64  98 130 171 216 270 323 394
#     4  10  22  42  61  86 129 165 213 264 327 381
#     4  10  23  42  69  92 131 177 212 274 337 377
#     4  11  25  43  68 103 134 171 224 274 329 401
#     4  11  24  44  64  96 136 170 220 269 328 387
#     4  11  25  44  65  98 136 174 227 274 321 398
#     4  10  23  40  59  93 122 166 215 268 313 391
#
# _framework density 23.977547000000001
#
# number of rings (size 3 to 8) (size 9 to 14) (size 15 to 20)
#    0.000    1.500    0.000    3.750    1.750   13.000 
#    4.500    0.000    0.000    0.000    0.000    0.000 
#    0.000    0.000    0.000    0.000    0.000    0.000 
#
# Total GULP energy -198210.130663 kJ/mol
# GULP energy per Si atom -12388.133166 kJ/mol
# Density = 2.392297 g / cm^3
# Si number density = 23.977547 Si / 1000 Ang^3
#
#
#
# Elastic Constant Matrix: (Units=GPa)
#
#
# Indices 1 2 3 4 5 6 
#
# 1 77.7228 5.8363 -4.4688 0.0000 -10.9603 0.0000
# 2 5.8363 110.3647 9.9352 0.0000 -9.5972 0.0000
# 3 -4.4688 9.9352 113.3708 0.0000 7.0222 0.0000
# 4 0.0000 0.0000 0.0000 4.5859 0.0000 -2.3034
# 5 -10.9603 -9.5972 7.0222 0.0000 30.5079 0.0000
# 6 0.0000 0.0000 0.0000 -2.3034 0.0000 14.6123
#
#
#
# Elastic Compliance Matrix: (Units=1/GPa)
#
#
# Indices 1 2 3 4 5 6 
#
# 1 0.013571 -0.000333 0.000272 0.000000 0.004708 0.000000
# 2 -0.000333 0.009440 -0.001032 0.000000 0.003087 0.000000
# 3 0.000272 -0.001032 0.009065 0.000000 -0.002313 0.000000
# 4 0.000000 0.000000 0.000000 0.236808 0.000000 0.037329
# 5 0.004708 0.003087 -0.002313 0.000000 0.035974 0.000000
# 6 0.000000 0.000000 0.000000 0.037329 0.000000 0.074320
#
#
# Mechanical properties :
#
#
# Convention : Reuss Voigt Hill
#
# Bulk Modulus (GPa) = 33.45393 36.00706 34.73049
# Shear Modulus (GPa) = 12.77713 29.28494 21.03104
#
# Velocity S-wave (km/s) = 2.31092 3.49857 2.96482
# Velocity P-wave (km/s) = 4.59380 5.60086 5.12214
#
# Compressibility (1/GPa) = 0.02989186
#
# Stress axis : x y z
#
# Youngs Moduli (GPa) = 73.68753 105.93428 110.31394
#
# Poissons Ratio (x) = 0.03525 -0.03006
# Poissons Ratio (y) = 0.02452 0.11380
# Poissons Ratio (z) = -0.02008 0.10928
#
# Static dielectric constant tensor:
#      x y z
#    x 4.564630 0.000000 0.295840 
#    y 0.000000 4.087400 0.000000 
#    z 0.295840 0.000000 4.992760 
# 
# 
# High freq. dielectric constant tensor:
#      x y z
#    x 1.967530 0.000000 0.011060 
#    y 0.000000 1.934290 0.000000 
#    z 0.011060 0.000000 1.961950 
# 
# From -- ./inp_files/13088.got.cif
#   From: 2010.03.12/outbox.cif.g09.slc.cpg/sg4_7_cif.got.tgz:13088.got - 2010.03.31 09:31:35.
