data_PCOD8046447
_publ_section_title
;
Structure prediction by ZEFSAII (Michael W. Deem and Ramdas Pophale) SiO2 
 PCOD8046447
Probable space group: P 21
;
_chemical_formula_sum "Si O2"
_cell_formula_units_Z 16
_cell_length_a 5.743395
_cell_length_b 9.253023
_cell_length_c 11.750395
_cell_angle_alpha 90.000000
_cell_angle_beta 99.656298
_cell_angle_gamma 90.000000
_cell_volume 615.612700
_symmetry_space_group_name_H-M "P 21"
_symmetry_group_IT_number 4
_symmetry_cell_setting 'monoclinic'
loop_
_space_group_symop_operation_xyz
x,y,z
-x,1/2+y,-z
loop_
_atom_site_type_symbol
_atom_site_label
_atom_site_fract_x
_atom_site_fract_y
_atom_site_fract_z
Si Si1 0.031716 0.134260 0.573515
Si Si2 0.828645 0.591196 0.935017
Si Si3 0.739838 0.385672 0.611535
Si Si4 0.501325 0.292143 0.230045
Si Si5 0.542148 0.339497 0.829247
Si Si6 0.859621 0.047087 0.249607
Si Si7 0.734905 0.580456 0.170708
Si Si8 0.720674 0.859193 0.548049
O O1 0.135241 0.139076 0.708300
O O2 0.229826 0.200761 0.503198
O O3 0.820587 0.248156 0.545109
O O4 0.943893 0.968895 0.544568
O O5 0.669141 0.724383 0.879019
O O6 0.670311 0.445665 0.927324
O O7 0.052926 0.582580 0.870988
O O8 0.905824 0.602161 0.073906
O O9 0.709659 0.325630 0.735064
O O10 0.500988 0.439218 0.531091
O O11 0.926885 0.519930 0.641839
O O12 0.699557 0.176662 0.286391
O O13 0.642190 0.420291 0.182621
O O14 0.339117 0.342120 0.323120
O O15 0.290177 0.401906 0.767734
O O16 0.494219 0.180998 0.875707
#
# Coordination Sequence:
#
# PCOD8046447 Si02
#       8
#     2   2   2   2   2   2   2   2
#     4  12  30  52  77 113 152 207 256 330 382 470
#     4  10  25  46  81 106 151 205 250 321 388 467
#     4  11  23  48  77 105 148 202 256 309 387 464
#     4  11  28  50  74 119 157 198 259 327 381 462
#     4  10  21  46  75 106 143 200 252 306 384 456
#     4  10  23  48  72 112 144 202 258 303 387 461
#     4  12  24  52  71 114 154 194 260 322 386 456
#     4  12  30  52  79 113 161 200 265 320 393 460
#
# _framework density 25.990365000000001
#
# number of rings (size 3 to 8) (size 9 to 14) (size 15 to 20)
#    0.000    1.000    2.500    1.500    3.500    9.000 
#    9.000    0.000    0.000    0.000    0.000    0.000 
#    0.000    0.000    0.000    0.000    0.000    0.000 
#
# Total GULP energy -198323.022917 kJ/mol
# GULP energy per Si atom -12395.188932 kJ/mol
# Density = 2.593121 g / cm^3
# Si number density = 25.990365 Si / 1000 Ang^3
#
#
#
# Elastic Constant Matrix: (Units=GPa)
#
#
# Indices 1 2 3 4 5 6 
#
# 1 87.7800 31.8341 23.5664 0.0000 -11.3802 0.0000
# 2 31.8341 123.0604 28.4924 0.0000 -10.1774 0.0000
# 3 23.5664 28.4924 132.6267 0.0000 -26.2524 0.0000
# 4 0.0000 0.0000 0.0000 29.7623 0.0000 -11.0494
# 5 -11.3802 -10.1774 -26.2524 0.0000 32.6763 0.0000
# 6 0.0000 0.0000 0.0000 -11.0494 0.0000 34.9209
#
#
#
# Elastic Compliance Matrix: (Units=1/GPa)
#
#
# Indices 1 2 3 4 5 6 
#
# 1 0.013109 -0.002895 -0.001168 0.000000 0.002725 0.000000
# 2 -0.002895 0.009246 -0.001310 0.000000 0.000819 0.000000
# 3 -0.001168 -0.001310 0.009355 0.000000 0.006702 0.000000
# 4 0.000000 0.000000 0.000000 0.038072 0.000000 0.012046
# 5 0.002725 0.000819 0.006702 0.000000 0.037192 0.000000
# 6 0.000000 0.000000 0.000000 0.012046 0.000000 0.032448
#
#
# Mechanical properties :
#
#
# Convention : Reuss Voigt Hill
#
# Bulk Modulus (GPa) = 47.69940 56.80589 52.25264
# Shear Modulus (GPa) = 31.81560 36.77684 34.29622
#
# Velocity S-wave (km/s) = 3.50255 3.76575 3.63654
# Velocity P-wave (km/s) = 5.89489 6.38841 6.14661
#
# Compressibility (1/GPa) = 0.02096462
#
# Stress axis : x y z
#
# Youngs Moduli (GPa) = 76.28339 108.15404 106.89064
#
# Poissons Ratio (x) = 0.31314 0.12483
# Poissons Ratio (y) = 0.22087 0.14000
# Poissons Ratio (z) = 0.08909 0.14165
#
# Static dielectric constant tensor:
#      x y z
#    x 4.810360 0.000000 -0.183480 
#    y 0.000000 4.695700 0.000000 
#    z -0.183480 0.000000 4.570410 
# 
# 
# High freq. dielectric constant tensor:
#      x y z
#    x 2.038800 0.000000 -0.017970 
#    y 0.000000 2.048620 0.000000 
#    z -0.017970 0.000000 2.043540 
# 
# From -- ./inp_files/10352.got.cif
#   From: 2010.03.12/outbox.cif.g09.slc.cpg/sg4_6_cif.got.tgz:10352.got - 2010.03.31 09:31:35.
