data_PCOD8046528
_publ_section_title
;
Structure prediction by ZEFSAII (Michael W. Deem and Ramdas Pophale) SiO2 
 PCOD8046528
Probable space group: P 21
;
_chemical_formula_sum "Si O2"
_cell_formula_units_Z 16
_cell_length_a 7.446598
_cell_length_b 5.010253
_cell_length_c 22.273037
_cell_angle_alpha 90.000000
_cell_angle_beta 121.617297
_cell_angle_gamma 90.000000
_cell_volume 707.647049
_symmetry_space_group_name_H-M "P 21"
_symmetry_group_IT_number 4
_symmetry_cell_setting 'monoclinic'
loop_
_space_group_symop_operation_xyz
x,y,z
-x,1/2+y,-z
loop_
_atom_site_type_symbol
_atom_site_label
_atom_site_fract_x
_atom_site_fract_y
_atom_site_fract_z
Si Si1 0.471519 0.207980 0.661662
Si Si2 0.417172 0.677765 0.453045
Si Si3 0.056875 0.225997 0.659438
Si Si4 0.542699 0.604656 0.044571
Si Si5 0.082471 0.762670 0.862773
Si Si6 0.113087 0.518907 0.996447
Si Si7 0.196850 0.720018 0.751479
Si Si8 0.610217 0.708413 0.752784
O O1 0.495028 0.267605 0.595924
O O2 0.616975 0.414243 0.724889
O O3 0.226625 0.229822 0.635806
O O4 0.544970 0.909106 0.688617
O O5 0.506680 0.388014 0.484323
O O6 0.165175 0.661838 0.409304
O O7 0.054676 0.517572 0.688319
O O8 0.111653 0.015033 0.721641
O O9 0.780507 0.537270 0.107227
O O10 0.357665 0.544532 0.061767
O O11 0.520208 0.912265 0.022615
O O12 0.833039 0.812486 0.816768
O O13 0.165985 0.635694 0.815361
O O14 0.117451 0.574190 0.926033
O O15 0.964291 0.717484 0.007500
O O16 0.444167 0.703996 0.778489
#
# Coordination Sequence:
#
# PCOD8046528 Si02
#       8
#     2   2   2   2   2   2   2   2
#     4  10  22  42  62  89 132 162 201 258 313 361
#     4  12  24  37  62  95 122 167 213 245 297 371
#     4  10  22  42  62  88 131 162 200 261 314 356
#     4  10  23  43  62  90 124 168 209 256 330 383
#     4  11  24  42  69  92 126 161 216 265 315 384
#     4  11  25  44  64  92 130 174 208 264 331 390
#     4  10  22  40  64  94 118 163 209 259 315 375
#     4  10  22  40  65  94 119 163 208 260 317 368
#
# _framework density 22.610142
#
# number of rings (size 3 to 8) (size 9 to 14) (size 15 to 20)
#    0.000    1.500    0.000    4.500    1.750    7.000 
#    4.500    0.000    0.000    0.000    0.000    0.000 
#    0.000    0.000    0.000    0.000    0.000    0.000 
#
# Total GULP energy -198365.637776 kJ/mol
# GULP energy per Si atom -12397.852361 kJ/mol
# Density = 2.255868 g / cm^3
# Si number density = 22.610142 Si / 1000 Ang^3
#
#
#
# Elastic Constant Matrix: (Units=GPa)
#
#
# Indices 1 2 3 4 5 6 
#
# 1 143.1878 20.0059 60.9985 0.0000 1.1591 0.0000
# 2 20.0059 74.2413 7.6827 0.0000 -3.5927 0.0000
# 3 60.9985 7.6827 78.3125 0.0000 11.0790 0.0000
# 4 0.0000 0.0000 0.0000 9.0615 0.0000 -4.9760
# 5 1.1591 -3.5927 11.0790 0.0000 10.8442 0.0000
# 6 0.0000 0.0000 0.0000 -4.9760 0.0000 33.3617
#
#
#
# Elastic Compliance Matrix: (Units=1/GPa)
#
#
# Indices 1 2 3 4 5 6 
#
# 1 0.011340 -0.001635 -0.009848 0.000000 0.008307 0.000000
# 2 -0.001635 0.014295 -0.000963 0.000000 0.005895 0.000000
# 3 -0.009848 -0.000963 0.023883 0.000000 -0.023666 0.000000
# 4 0.000000 0.000000 0.000000 0.120202 0.000000 0.017929
# 5 0.008307 0.005895 -0.023666 0.000000 0.117459 0.000000
# 6 0.000000 0.000000 0.000000 0.017929 0.000000 0.032649
#
#
# Mechanical properties :
#
#
# Convention : Reuss Voigt Hill
#
# Bulk Modulus (GPa) = 40.60661 52.56840 46.58750
# Shear Modulus (GPa) = 14.16719 24.45711 19.31215
#
# Velocity S-wave (km/s) = 2.50589 3.29247 2.92573
# Velocity P-wave (km/s) = 5.13528 6.14445 5.66239
#
# Compressibility (1/GPa) = 0.02462654
#
# Stress axis : x y z
#
# Youngs Moduli (GPa) = 88.18153 69.95446 41.87142
#
# Poissons Ratio (x) = 0.11436 0.41235
# Poissons Ratio (y) = 0.14415 0.04032
# Poissons Ratio (z) = 0.86841 0.06736
#
# Static dielectric constant tensor:
#      x y z
#    x 4.570760 0.000000 0.051850 
#    y 0.000000 4.056090 0.000000 
#    z 0.051850 0.000000 3.761910 
# 
# 
# High freq. dielectric constant tensor:
#      x y z
#    x 1.917660 0.000000 -0.000780 
#    y 0.000000 1.898660 0.000000 
#    z -0.000780 0.000000 1.865980 
# 
# From -- ./inp_files/13564.got.cif
#   From: 2010.03.12/outbox.cif.g09.slc.cpg/sg4_7_cif.got.tgz:13564.got - 2010.03.31 09:31:35.
