data_PCOD8046010
_publ_section_title
;
Structure prediction by ZEFSAII (Michael W. Deem and Ramdas Pophale) SiO2 
 PCOD8046010
Probable space group: P 21
;
_chemical_formula_sum "Si O2"
_cell_formula_units_Z 16
_cell_length_a 15.723677
_cell_length_b 11.029986
_cell_length_c 11.272819
_cell_angle_alpha 90.000000
_cell_angle_beta 22.631189
_cell_angle_gamma 90.000000
_cell_volume 752.305449
_symmetry_space_group_name_H-M "P 21"
_symmetry_group_IT_number 4
_symmetry_cell_setting 'monoclinic'
loop_
_space_group_symop_operation_xyz
x,y,z
-x,1/2+y,-z
loop_
_atom_site_type_symbol
_atom_site_label
_atom_site_fract_x
_atom_site_fract_y
_atom_site_fract_z
Si Si1 0.743396 0.183270 0.111593
Si Si2 0.120724 0.815845 0.623835
Si Si3 0.739852 0.413665 0.802313
Si Si4 0.865936 0.555974 0.271377
Si Si5 0.736930 0.647678 0.183845
Si Si6 0.569928 0.163753 0.082614
Si Si7 0.344239 0.578136 0.275908
Si Si8 0.919193 0.437511 0.818824
O O1 0.509324 0.195416 0.478973
O O2 0.704792 0.132958 0.028504
O O3 0.862112 0.313085 0.958274
O O4 0.892441 0.088093 0.990101
O O5 0.130332 0.887767 0.486521
O O6 0.302173 0.707654 0.394276
O O7 0.170877 0.911130 0.664751
O O8 0.876753 0.761047 0.954842
O O9 0.918085 0.425142 0.677754
O O10 0.571172 0.306225 0.052741
O O11 0.591477 0.534944 0.986335
O O12 0.850746 0.592323 0.154539
O O13 0.685195 0.627819 0.580176
O O14 0.737339 0.539173 0.087637
O O15 0.686305 0.091851 0.826387
O O16 0.160351 0.480713 0.552590
#
# Coordination Sequence:
#
# PCOD8046010 Si02
#       8
#     2   2   2   2   2   2   2   2
#     4  10  23  40  64  87 123 174 208 258 312 369
#     4  10  23  41  63  97 126 163 213 260 310 381
#     4  10  20  41  67  89 128 164 200 267 321 372
#     4  11  22  41  66  88 126 168 206 256 320 371
#     4  10  25  43  60  96 127 160 222 264 300 385
#     4   9  20  38  61  96 123 155 214 255 308 385
#     4  10  20  39  63  93 130 158 203 265 319 377
#     4  10  23  41  60  94 123 164 214 261 318 374
#
# _framework density 21.267956999999999
#
# number of rings (size 3 to 8) (size 9 to 14) (size 15 to 20)
#    0.000    2.000    1.250    0.750    5.250    2.000 
#    2.250    2.500    0.000    0.000    0.000    0.000 
#    0.000    0.000    0.000    0.000    0.000    0.000 
#
# Total GULP energy -198418.738665 kJ/mol
# GULP energy per Si atom -12401.171167 kJ/mol
# Density = 2.121955 g / cm^3
# Si number density = 21.267957 Si / 1000 Ang^3
#
#
#
# Elastic Constant Matrix: (Units=GPa)
#
#
# Indices 1 2 3 4 5 6 
#
# 1 64.5106 35.5030 36.6699 0.0000 4.5149 0.0000
# 2 35.5030 102.0730 42.7642 0.0000 3.6094 0.0000
# 3 36.6699 42.7642 99.2602 0.0000 8.0716 0.0000
# 4 0.0000 0.0000 0.0000 37.6040 0.0000 4.8400
# 5 4.5149 3.6094 8.0716 0.0000 28.1812 0.0000
# 6 0.0000 0.0000 0.0000 4.8400 0.0000 29.9341
#
#
#
# Elastic Compliance Matrix: (Units=1/GPa)
#
#
# Indices 1 2 3 4 5 6 
#
# 1 0.021626 -0.005092 -0.005699 0.000000 -0.001180 0.000000
# 2 -0.005092 0.013154 -0.003804 0.000000 0.000221 0.000000
# 3 -0.005699 -0.003804 0.014032 0.000000 -0.002619 0.000000
# 4 0.000000 0.000000 0.000000 0.027158 0.000000 -0.004391
# 5 -0.001180 0.000221 -0.002619 0.000000 0.036395 0.000000
# 6 0.000000 0.000000 0.000000 -0.004391 0.000000 0.034117
#
#
# Mechanical properties :
#
#
# Convention : Reuss Voigt Hill
#
# Bulk Modulus (GPa) = 50.96666 55.07978 53.02322
# Shear Modulus (GPa) = 27.44027 29.20431 28.32229
#
# Velocity S-wave (km/s) = 3.59585 3.70964 3.65319
# Velocity P-wave (km/s) = 6.42311 6.65603 6.54061
#
# Compressibility (1/GPa) = 0.01962067
#
# Stress axis : x y z
#
# Youngs Moduli (GPa) = 46.23999 76.02265 71.26666
#
# Poissons Ratio (x) = 0.38714 0.40618
# Poissons Ratio (y) = 0.23548 0.27108
# Poissons Ratio (z) = 0.26354 0.28917
#
# Static dielectric constant tensor:
#      x y z
#    x 3.755920 0.000000 0.303000 
#    y 0.000000 3.874350 0.000000 
#    z 0.303000 0.000000 3.705510 
# 
# 
# High freq. dielectric constant tensor:
#      x y z
#    x 1.826420 0.000000 0.019160 
#    y 0.000000 1.838030 0.000000 
#    z 0.019160 0.000000 1.830000 
# 
# From -- ./inp_files/2821.got.cif
#   From: 2010.03.12/outbox.cif.g09.slc.cpg/sg4_2_cif.got.tgz:2821.got - 2010.03.31 09:31:35.
