data_PCOD8046456
_publ_section_title
;
Structure prediction by ZEFSAII (Michael W. Deem and Ramdas Pophale) SiO2 
 PCOD8046456
Probable space group: P 21
;
_chemical_formula_sum "Si O2"
_cell_formula_units_Z 12
_cell_length_a 7.885923
_cell_length_b 12.420775
_cell_length_c 5.120386
_cell_angle_alpha 90.000000
_cell_angle_beta 102.998232
_cell_angle_gamma 90.000000
_cell_volume 488.687190
_symmetry_space_group_name_H-M "P 21"
_symmetry_group_IT_number 4
_symmetry_cell_setting 'monoclinic'
loop_
_space_group_symop_operation_xyz
x,y,z
-x,1/2+y,-z
loop_
_atom_site_type_symbol
_atom_site_label
_atom_site_fract_x
_atom_site_fract_y
_atom_site_fract_z
Si Si1 0.831302 0.057320 0.289195
Si Si2 0.263997 0.909607 0.270425
Si Si3 0.574288 0.229977 0.392657
Si Si4 0.049209 0.049041 0.885715
Si Si5 0.571243 0.908602 0.006960
Si Si6 0.641794 0.585758 0.327596
O O1 0.660792 0.132930 0.260973
O O2 0.919116 0.040240 0.598894
O O3 0.954106 0.105449 0.100989
O O4 0.767483 0.938875 0.164783
O O5 0.259734 0.799570 0.438862
O O6 0.235931 0.017441 0.432262
O O7 0.458181 0.906412 0.228205
O O8 0.117052 0.927029 0.994498
O O9 0.450671 0.296420 0.153079
O O10 0.444860 0.190947 0.577071
O O11 0.225072 0.115981 0.864092
O O12 0.513452 0.006479 0.802128
#
# Coordination Sequence:
#
# PCOD8046456 Si02
#       6
#     2   2   2   2   2   2
#     4  12  25  47  78 110 150 200 240 312 382 436
#     4  10  22  47  74 107 148 197 243 312 357 444
#     4  11  25  44  83 109 140 205 266 291 363 453
#     4  11  25  46  76 104 157 193 234 315 392 420
#     4  10  24  42  77 108 144 193 261 306 351 446
#     4  10  21  48  74 104 147 196 244 310 365 433
#
# _framework density 24.555586999999999
#
# number of rings (size 3 to 8) (size 9 to 14) (size 15 to 20)
#    0.000    1.333    3.333    1.000    7.000    0.000 
#    0.000    8.333    0.000    0.000    0.000    0.000 
#    0.000    0.000    0.000    0.000    0.000    0.000 
#
# Total GULP energy -148677.937183 kJ/mol
# GULP energy per Si atom -12389.828099 kJ/mol
# Density = 2.449970 g / cm^3
# Si number density = 24.555587 Si / 1000 Ang^3
#
#
#
# Elastic Constant Matrix: (Units=GPa)
#
#
# Indices 1 2 3 4 5 6 
#
# 1 98.8834 34.5173 35.1006 0.0000 -24.1378 0.0000
# 2 34.5173 93.4629 38.3693 0.0000 4.7719 0.0000
# 3 35.1006 38.3693 133.3103 0.0000 -3.3990 0.0000
# 4 0.0000 0.0000 0.0000 37.6252 0.0000 -1.0782
# 5 -24.1378 4.7719 -3.3990 0.0000 48.5659 0.0000
# 6 0.0000 0.0000 0.0000 -1.0782 0.0000 19.4789
#
#
#
# Elastic Compliance Matrix: (Units=1/GPa)
#
#
# Indices 1 2 3 4 5 6 
#
# 1 0.014396 -0.004785 -0.002223 0.000000 0.007469 0.000000
# 2 -0.004785 0.013825 -0.002819 0.000000 -0.003934 0.000000
# 3 -0.002223 -0.002819 0.008893 0.000000 -0.000205 0.000000
# 4 0.000000 0.000000 0.000000 0.026620 0.000000 0.001473
# 5 0.007469 -0.003934 -0.000205 0.000000 0.024675 0.000000
# 6 0.000000 0.000000 0.000000 0.001473 0.000000 0.051419
#
#
# Mechanical properties :
#
#
# Convention : Reuss Voigt Hill
#
# Bulk Modulus (GPa) = 57.27850 60.18125 58.72988
# Shear Modulus (GPa) = 30.24758 35.64529 32.94643
#
# Velocity S-wave (km/s) = 3.51351 3.81414 3.66691
# Velocity P-wave (km/s) = 6.31160 6.63010 6.47281
#
# Compressibility (1/GPa) = 0.01745856
#
# Stress axis : x y z
#
# Youngs Moduli (GPa) = 69.46542 72.33220 112.45112
#
# Poissons Ratio (x) = 0.34614 0.24993
# Poissons Ratio (y) = 0.33242 0.31705
# Poissons Ratio (z) = 0.15439 0.20394
#
# Static dielectric constant tensor:
#      x y z
#    x 4.364480 0.000000 -0.119540 
#    y 0.000000 4.216430 0.000000 
#    z -0.119540 0.000000 4.853600 
# 
# 
# High freq. dielectric constant tensor:
#      x y z
#    x 1.969590 0.000000 -0.007520 
#    y 0.000000 1.937110 0.000000 
#    z -0.007520 0.000000 2.004610 
# 
# From -- ./inp_files/1420.got.cif
#   From: 2010.03.12/outbox.cif.g09.slc.cpg/sg4_1_cif.got.tgz:1420.got - 2010.03.31 09:31:35.
