data_PCOD8046626
_publ_section_title
;
Structure prediction by ZEFSAII (Michael W. Deem and Ramdas Pophale) SiO2 
 PCOD8046626
Probable space group: P 21
;
_chemical_formula_sum "Si O2"
_cell_formula_units_Z 10
_cell_length_a 12.104198
_cell_length_b 8.644329
_cell_length_c 10.449274
_cell_angle_alpha 90.000000
_cell_angle_beta 23.753265
_cell_angle_gamma 90.000000
_cell_volume 440.394254
_symmetry_space_group_name_H-M "P 21"
_symmetry_group_IT_number 4
_symmetry_cell_setting 'monoclinic'
loop_
_space_group_symop_operation_xyz
x,y,z
-x,1/2+y,-z
loop_
_atom_site_type_symbol
_atom_site_label
_atom_site_fract_x
_atom_site_fract_y
_atom_site_fract_z
Si Si1 0.550759 0.193560 0.286137
Si Si2 0.169572 0.889772 0.361226
Si Si3 0.843123 0.898600 0.950841
Si Si4 0.285444 0.240911 0.301223
Si Si5 0.312835 0.903637 0.637791
O O1 0.362380 0.248290 0.368768
O O2 0.666840 0.340924 0.239427
O O3 0.368885 0.088641 0.577078
O O4 0.803700 0.085492 0.967434
O O5 0.995436 0.826513 0.667617
O O6 0.983771 0.848757 0.434218
O O7 0.222913 0.070816 0.315746
O O8 0.460489 0.804929 0.051057
O O9 0.015324 0.867769 0.897255
O O10 0.542675 0.826588 0.298196
#
# Coordination Sequence:
#
# PCOD8046626 Si02
#       5
#     2   2   2   2   2
#     4  10  24  45  71  98 140 177 228 286 349 401
#     4  12  24  47  72 100 142 190 229 289 353 405
#     4  10  22  42  69  92 140 176 220 281 346 395
#     4  12  25  44  74 102 142 186 232 291 344 420
#     4  10  23  40  74  94 136 181 221 285 342 413
#
# _framework density 22.706925999999999
#
# number of rings (size 3 to 8) (size 9 to 14) (size 15 to 20)
#    1.200    0.000    2.000    4.800    2.800    0.000 
#   10.800    0.000    0.000    0.000    0.000    0.000 
#    0.000    0.000    0.000    0.000    0.000    0.000 
#
# Total GULP energy -123929.277097 kJ/mol
# GULP energy per Si atom -12392.927710 kJ/mol
# Density = 2.265524 g / cm^3
# Si number density = 22.706926 Si / 1000 Ang^3
#
#
#
# Elastic Constant Matrix: (Units=GPa)
#
#
# Indices 1 2 3 4 5 6 
#
# 1 118.9900 59.7585 2.1508 0.0000 -32.3926 0.0000
# 2 59.7585 63.6692 17.8529 0.0000 -7.0416 0.0000
# 3 2.1508 17.8529 86.5301 0.0000 -22.8896 0.0000
# 4 0.0000 0.0000 0.0000 35.3826 0.0000 -10.1384
# 5 -32.3926 -7.0416 -22.8896 0.0000 42.9264 0.0000
# 6 0.0000 0.0000 0.0000 -10.1384 0.0000 37.7924
#
#
#
# Elastic Compliance Matrix: (Units=1/GPa)
#
#
# Indices 1 2 3 4 5 6 
#
# 1 0.027340 -0.026186 0.010529 0.000000 0.021950 0.000000
# 2 -0.026186 0.041791 -0.013255 0.000000 -0.019972 0.000000
# 3 0.010529 -0.013255 0.018111 0.000000 0.015429 0.000000
# 4 0.000000 0.000000 0.000000 0.030616 0.000000 0.008213
# 5 0.021950 -0.019972 0.015429 0.000000 0.044810 0.000000
# 6 0.000000 0.000000 0.000000 0.008213 0.000000 0.028664
#
#
# Mechanical properties :
#
#
# Convention : Reuss Voigt Hill
#
# Bulk Modulus (GPa) = 33.98993 47.63486 40.81240
# Shear Modulus (GPa) = 19.30797 35.84874 27.57836
#
# Velocity S-wave (km/s) = 2.91917 3.97767 3.48880
# Velocity P-wave (km/s) = 5.13455 6.48995 5.85163
#
# Compressibility (1/GPa) = 0.02942047
#
# Stress axis : x y z
#
# Youngs Moduli (GPa) = 36.57639 23.92848 55.21524
#
# Poissons Ratio (x) = 0.62658 -0.58139
# Poissons Ratio (y) = 0.95778 0.73186
# Poissons Ratio (z) = -0.38513 0.31716
#
# Static dielectric constant tensor:
#      x y z
#    x 3.863310 0.000000 -0.203440 
#    y 0.000000 3.801120 0.000000 
#    z -0.203440 0.000000 4.265240 
# 
# 
# High freq. dielectric constant tensor:
#      x y z
#    x 1.890280 0.000000 -0.015560 
#    y 0.000000 1.861920 0.000000 
#    z -0.015560 0.000000 1.913120 
# 
# From -- ./inp_files/935.got.cif
#   From: 2010.03.12/outbox.cif.g09.slc.cpg/sg4_1_cif.got.tgz:935.got - 2010.03.31 09:31:35.
