data_PCOD8046580
_publ_section_title
;
Structure prediction by ZEFSAII (Michael W. Deem and Ramdas Pophale) SiO2 
 PCOD8046580
Probable space group: P 21
;
_chemical_formula_sum "Si O2"
_cell_formula_units_Z 16
_cell_length_a 8.052674
_cell_length_b 12.111436
_cell_length_c 11.851441
_cell_angle_alpha 90.000000
_cell_angle_beta 139.767418
_cell_angle_gamma 90.000000
_cell_volume 746.563530
_symmetry_space_group_name_H-M "P 21"
_symmetry_group_IT_number 4
_symmetry_cell_setting 'monoclinic'
loop_
_space_group_symop_operation_xyz
x,y,z
-x,1/2+y,-z
loop_
_atom_site_type_symbol
_atom_site_label
_atom_site_fract_x
_atom_site_fract_y
_atom_site_fract_z
Si Si1 0.390364 0.208330 0.812472
Si Si2 0.335956 0.959364 0.831538
Si Si3 0.832198 0.365788 0.023788
Si Si4 0.238409 0.297573 0.958009
Si Si5 0.406272 0.991819 0.292803
Si Si6 0.766844 0.374312 0.588127
Si Si7 0.670685 0.742282 0.748542
Si Si8 0.084595 0.399852 0.551056
O O1 0.395023 0.227795 0.948452
O O2 0.175505 0.276057 0.631187
O O3 0.334668 0.079154 0.771743
O O4 0.664930 0.254731 0.914413
O O5 0.269110 0.947243 0.929599
O O6 0.122239 0.887704 0.655378
O O7 0.624119 0.916746 0.959172
O O8 0.115653 0.320601 0.199315
O O9 0.819853 0.437868 0.901732
O O10 0.944996 0.305276 0.766126
O O11 0.261226 0.233326 0.085312
O O12 0.421474 0.941109 0.426735
O O13 0.677145 0.976521 0.366222
O O14 0.336137 0.115833 0.291217
O O15 0.604379 0.294044 0.423290
O O16 0.947829 0.446536 0.595764
#
# Coordination Sequence:
#
# PCOD8046580 Si02
#       8
#     2   2   2   2   2   2   2   2
#     4   9  22  40  67  99 131 183 226 283 345 400
#     4  11  21  42  70  95 135 184 225 284 349 398
#     4  10  23  44  66 102 137 175 238 286 333 426
#     4  10  22  41  66  96 135 168 235 278 323 420
#     4  11  25  46  69 100 143 177 228 291 339 409
#     4  11  24  47  64 103 140 171 233 286 324 425
#     4  12  24  45  70  99 136 190 219 284 362 391
#     4  10  23  43  66 102 137 172 236 278 333 421
#
# _framework density 21.431531
#
# number of rings (size 3 to 8) (size 9 to 14) (size 15 to 20)
#    0.000    1.500    2.500    2.250    5.250    0.000 
#   11.250    0.000    0.000    0.000    0.000    0.000 
#    0.000    0.000    0.000    0.000    0.000    0.000 
#
# Total GULP energy -198259.258838 kJ/mol
# GULP energy per Si atom -12391.203677 kJ/mol
# Density = 2.138275 g / cm^3
# Si number density = 21.431531 Si / 1000 Ang^3
#
#
#
# Elastic Constant Matrix: (Units=GPa)
#
#
# Indices 1 2 3 4 5 6 
#
# 1 92.6069 23.6765 21.2426 0.0000 0.9519 0.0000
# 2 23.6765 85.5892 18.2697 0.0000 12.2657 0.0000
# 3 21.2426 18.2697 119.9058 0.0000 10.8998 0.0000
# 4 0.0000 0.0000 0.0000 23.9855 0.0000 -1.8785
# 5 0.9519 12.2657 10.8998 0.0000 36.3498 0.0000
# 6 0.0000 0.0000 0.0000 -1.8785 0.0000 21.0937
#
#
#
# Elastic Compliance Matrix: (Units=1/GPa)
#
#
# Indices 1 2 3 4 5 6 
#
# 1 0.011988 -0.003122 -0.001763 0.000000 0.001268 0.000000
# 2 -0.003122 0.013372 -0.001112 0.000000 -0.004097 0.000000
# 3 -0.001763 -0.001112 0.009030 0.000000 -0.002286 0.000000
# 4 0.000000 0.000000 0.000000 0.041985 0.000000 0.003739
# 5 0.001268 -0.004097 -0.002286 0.000000 0.029545 0.000000
# 6 0.000000 0.000000 0.000000 0.003739 0.000000 0.047740
#
#
# Mechanical properties :
#
#
# Convention : Reuss Voigt Hill
#
# Bulk Modulus (GPa) = 44.65233 47.16438 45.90836
# Shear Modulus (GPa) = 28.88196 31.94668 30.41432
#
# Velocity S-wave (km/s) = 3.67500 3.86507 3.77123
# Velocity P-wave (km/s) = 6.23599 6.47867 6.35849
#
# Compressibility (1/GPa) = 0.02239525
#
# Stress axis : x y z
#
# Youngs Moduli (GPa) = 83.41766 74.78482 110.74758
#
# Poissons Ratio (x) = 0.23344 0.19530
# Poissons Ratio (y) = 0.26039 0.12315
# Poissons Ratio (z) = 0.14710 0.08316
#
# Static dielectric constant tensor:
#      x y z
#    x 4.048270 0.000000 0.013330 
#    y 0.000000 3.588070 0.000000 
#    z 0.013330 0.000000 3.975480 
# 
# 
# High freq. dielectric constant tensor:
#      x y z
#    x 1.848520 0.000000 -0.002980 
#    y 0.000000 1.808970 0.000000 
#    z -0.002980 0.000000 1.854080 
# 
# From -- ./inp_files/11199.got.cif
#   From: 2010.03.12/outbox.cif.g09.slc.cpg/sg4_6_cif.got.tgz:11199.got - 2010.03.31 09:31:35.
