data_PCOD8046622
_publ_section_title
;
Structure prediction by ZEFSAII (Michael W. Deem and Ramdas Pophale) SiO2 
 PCOD8046622
Probable space group: P 21
;
_chemical_formula_sum "Si O2"
_cell_formula_units_Z 16
_cell_length_a 10.316488
_cell_length_b 8.402189
_cell_length_c 9.572056
_cell_angle_alpha 90.000000
_cell_angle_beta 59.194303
_cell_angle_gamma 90.000000
_cell_volume 712.650670
_symmetry_space_group_name_H-M "P 21"
_symmetry_group_IT_number 4
_symmetry_cell_setting 'monoclinic'
loop_
_space_group_symop_operation_xyz
x,y,z
-x,1/2+y,-z
loop_
_atom_site_type_symbol
_atom_site_label
_atom_site_fract_x
_atom_site_fract_y
_atom_site_fract_z
Si Si1 0.054507 0.021060 0.385550
Si Si2 0.074234 0.827818 0.644527
Si Si3 0.386279 0.130862 0.151148
Si Si4 0.396430 0.834044 0.598134
Si Si5 0.573461 0.418743 0.118948
Si Si6 0.917442 0.962046 0.976824
Si Si7 0.411487 0.492158 0.729193
Si Si8 0.898807 0.311446 0.890880
O O1 0.210804 0.114136 0.280088
O O2 0.924313 0.149169 0.419602
O O3 0.031478 0.960500 0.554427
O O4 0.044804 0.865266 0.292658
O O5 0.236095 0.872440 0.618202
O O6 0.949061 0.835489 0.836248
O O7 0.428609 0.314233 0.153758
O O8 0.475860 0.011026 0.203301
O O9 0.424511 0.082900 0.969150
O O10 0.426238 0.951530 0.714593
O O11 0.398909 0.655264 0.651332
O O12 0.526138 0.858962 0.411321
O O13 0.717913 0.311106 0.998697
O O14 0.749662 0.935604 0.125776
O O15 0.035459 0.937969 0.036096
O O16 0.954352 0.135502 0.894850
#
# Coordination Sequence:
#
# PCOD8046622 Si02
#       8
#     2   2   2   2   2   2   2   2
#     4  11  25  44  69 103 134 183 225 279 348 399
#     4  12  25  47  71  99 141 178 230 282 335 413
#     4  10  22  42  68  97 138 171 226 273 341 407
#     4  11  23  48  66  97 137 175 227 279 333 409
#     4  10  22  43  67  95 135 176 219 281 334 402
#     4  12  23  44  71 100 139 178 231 279 338 405
#     4  11  24  44  67 102 134 177 224 278 342 397
#     4  11  22  42  69  99 138 176 228 279 335 406
#
# _framework density 22.451391999999998
#
# number of rings (size 3 to 8) (size 9 to 14) (size 15 to 20)
#    0.000    1.000    5.000    2.250    1.750    2.000 
#   11.250    0.000    0.000    0.000    0.000    0.000 
#    0.000    0.000    0.000    0.000    0.000    0.000 
#
# Total GULP energy -198470.345629 kJ/mol
# GULP energy per Si atom -12404.396602 kJ/mol
# Density = 2.240029 g / cm^3
# Si number density = 22.451392 Si / 1000 Ang^3
#
#
#
# Elastic Constant Matrix: (Units=GPa)
#
#
# Indices 1 2 3 4 5 6 
#
# 1 82.9867 24.6996 51.4432 0.0000 17.5355 0.0000
# 2 24.6996 48.0011 23.6685 0.0000 2.6469 0.0000
# 3 51.4432 23.6685 141.1761 0.0000 1.3766 0.0000
# 4 0.0000 0.0000 0.0000 34.9864 0.0000 9.6211
# 5 17.5355 2.6469 1.3766 0.0000 32.1090 0.0000
# 6 0.0000 0.0000 0.0000 9.6211 0.0000 31.7639
#
#
#
# Elastic Compliance Matrix: (Units=1/GPa)
#
#
# Indices 1 2 3 4 5 6 
#
# 1 0.019916 -0.006718 -0.006033 0.000000 -0.010064 0.000000
# 2 -0.006718 0.025071 -0.001771 0.000000 0.001678 0.000000
# 3 -0.006033 -0.001771 0.009549 0.000000 0.003031 0.000000
# 4 0.000000 0.000000 0.000000 0.031180 0.000000 -0.009444
# 5 -0.010064 0.001678 0.003031 0.000000 0.036372 0.000000
# 6 0.000000 0.000000 0.000000 -0.009444 0.000000 0.034343
#
#
# Mechanical properties :
#
#
# Convention : Reuss Voigt Hill
#
# Bulk Modulus (GPa) = 39.22997 52.42074 45.82535
# Shear Modulus (GPa) = 25.77689 31.26203 28.51946
#
# Velocity S-wave (km/s) = 3.39207 3.73558 3.56796
# Velocity P-wave (km/s) = 5.73173 6.48115 6.11793
#
# Compressibility (1/GPa) = 0.02549072
#
# Stress axis : x y z
#
# Youngs Moduli (GPa) = 50.21087 39.88701 104.72274
#
# Poissons Ratio (x) = 0.26798 0.63176
# Poissons Ratio (y) = 0.33734 0.18551
# Poissons Ratio (z) = 0.30291 0.07066
#
# Static dielectric constant tensor:
#      x y z
#    x 4.116570 0.000000 0.254680 
#    y 0.000000 3.758260 0.000000 
#    z 0.254680 0.000000 4.246290 
# 
# 
# High freq. dielectric constant tensor:
#      x y z
#    x 1.891100 0.000000 0.015150 
#    y 0.000000 1.869570 0.000000 
#    z 0.015150 0.000000 1.893590 
# 
# From -- ./inp_files/5411.got.cif
#   From: 2010.03.12/outbox.cif.g09.slc.cpg/sg4_3_cif.got.tgz:5411.got - 2010.03.31 09:31:35.
