data_PCOD8046474
_publ_section_title
;
Structure prediction by ZEFSAII (Michael W. Deem and Ramdas Pophale) SiO2 
 PCOD8046474
Probable space group: P 21
;
_chemical_formula_sum "Si O2"
_cell_formula_units_Z 16
_cell_length_a 24.613441
_cell_length_b 5.362550
_cell_length_c 15.223243
_cell_angle_alpha 90.000000
_cell_angle_beta 20.242981
_cell_angle_gamma 90.000000
_cell_volume 695.231801
_symmetry_space_group_name_H-M "P 21"
_symmetry_group_IT_number 4
_symmetry_cell_setting 'monoclinic'
loop_
_space_group_symop_operation_xyz
x,y,z
-x,1/2+y,-z
loop_
_atom_site_type_symbol
_atom_site_label
_atom_site_fract_x
_atom_site_fract_y
_atom_site_fract_z
Si Si1 0.674424 0.263940 0.695170
Si Si2 0.831643 0.273307 0.831168
Si Si3 0.778026 0.312977 0.256786
Si Si4 0.394880 0.733350 0.657527
Si Si5 0.816846 0.775963 0.744406
Si Si6 0.364103 0.134030 0.389416
Si Si7 0.895180 0.007158 0.238643
Si Si8 0.588254 0.494628 0.986975
O O1 0.590943 0.480436 0.765017
O O2 0.837796 0.192816 0.401861
O O3 0.551253 0.038215 0.871928
O O4 0.709895 0.332434 0.743156
O O5 0.796924 0.539253 0.839422
O O6 0.020558 0.262563 0.557061
O O7 0.787861 0.039360 0.835235
O O8 0.733503 0.250234 0.069665
O O9 0.702419 0.196060 0.284582
O O10 0.641704 0.463628 0.514812
O O11 0.854713 0.104305 0.202490
O O12 0.921476 0.496383 0.016843
O O13 0.504577 0.489168 0.500826
O O14 0.674422 0.740600 0.891819
O O15 0.191794 0.242626 0.627836
O O16 0.502578 0.339283 0.195521
#
# Coordination Sequence:
#
# PCOD8046474 Si02
#       8
#     2   2   2   2   2   2   2   2
#     4  10  22  38  60  99 141 173 228 278 354 436
#     4  10  24  51  69 107 134 184 251 305 358 431
#     4  11  24  45  71 103 140 191 246 294 378 429
#     4  12  30  49  76 109 152 198 254 316 368 449
#     4  10  24  45  78  98 142 185 243 302 369 423
#     4  10  22  39  63  95 138 177 232 286 358 442
#     4  10  22  42  69  98 139 185 231 301 353 448
#     4  11  22  39  66 101 136 187 219 292 360 436
#
# _framework density 23.013905999999999
#
# number of rings (size 3 to 8) (size 9 to 14) (size 15 to 20)
#    0.000    1.500    2.500    0.750    5.250    5.000 
#    9.000    0.000    0.000    0.000    0.000    0.000 
#    0.000    0.000    0.000    0.000    0.000    0.000 
#
# Total GULP energy -198261.893165 kJ/mol
# GULP energy per Si atom -12391.368323 kJ/mol
# Density = 2.296152 g / cm^3
# Si number density = 23.013906 Si / 1000 Ang^3
#
#
#
# Elastic Constant Matrix: (Units=GPa)
#
#
# Indices 1 2 3 4 5 6 
#
# 1 81.4526 10.8028 45.6875 0.0000 4.6251 0.0000
# 2 10.8028 82.1628 21.1400 0.0000 3.9467 0.0000
# 3 45.6875 21.1400 112.5183 0.0000 16.8410 0.0000
# 4 0.0000 0.0000 0.0000 31.3190 0.0000 -4.2004
# 5 4.6251 3.9467 16.8410 0.0000 35.1353 0.0000
# 6 0.0000 0.0000 0.0000 -4.2004 0.0000 31.4182
#
#
#
# Elastic Compliance Matrix: (Units=1/GPa)
#
#
# Indices 1 2 3 4 5 6 
#
# 1 0.015953 -0.000464 -0.006554 0.000000 0.001094 0.000000
# 2 -0.000464 0.012806 -0.002167 0.000000 -0.000339 0.000000
# 3 -0.006554 -0.002167 0.012701 0.000000 -0.004982 0.000000
# 4 0.000000 0.000000 0.000000 0.032512 0.000000 0.004347
# 5 0.001094 -0.000339 -0.004982 0.000000 0.030743 0.000000
# 6 0.000000 0.000000 0.000000 0.004347 0.000000 0.032410
#
#
# Mechanical properties :
#
#
# Convention : Reuss Voigt Hill
#
# Bulk Modulus (GPa) = 43.30792 47.93271 45.62031
# Shear Modulus (GPa) = 30.63876 32.80806 31.72341
#
# Velocity S-wave (km/s) = 3.65268 3.77978 3.71677
# Velocity P-wave (km/s) = 6.05379 6.31838 6.18750
#
# Compressibility (1/GPa) = 0.02309047
#
# Stress axis : x y z
#
# Youngs Moduli (GPa) = 62.68515 78.08991 78.73088
#
# Poissons Ratio (x) = 0.03621 0.51601
# Poissons Ratio (y) = 0.02907 0.17061
# Poissons Ratio (z) = 0.41085 0.16922
#
# Static dielectric constant tensor:
#      x y z
#    x 3.797820 0.000000 0.123150 
#    y 0.000000 4.300840 0.000000 
#    z 0.123150 0.000000 4.444930 
# 
# 
# High freq. dielectric constant tensor:
#      x y z
#    x 1.879870 0.000000 0.014040 
#    y 0.000000 1.921640 0.000000 
#    z 0.014040 0.000000 1.927770 
# 
# From -- ./inp_files/12482.got.cif
#   From: 2010.03.12/outbox.cif.g09.slc.cpg/sg4_7_cif.got.tgz:12482.got - 2010.03.31 09:31:35.
