data_PCOD8046902
_publ_section_title
;
Structure prediction by ZEFSAII (Michael W. Deem and Ramdas Pophale) SiO2 
 PCOD8046902
Probable space group: P 21
;
_chemical_formula_sum "Si O2"
_cell_formula_units_Z 16
_cell_length_a 19.838442
_cell_length_b 8.627789
_cell_length_c 9.108671
_cell_angle_alpha 90.000000
_cell_angle_beta 152.421159
_cell_angle_gamma 90.000000
_cell_volume 721.794811
_symmetry_space_group_name_H-M "P 21"
_symmetry_group_IT_number 4
_symmetry_cell_setting 'monoclinic'
loop_
_space_group_symop_operation_xyz
x,y,z
-x,1/2+y,-z
loop_
_atom_site_type_symbol
_atom_site_label
_atom_site_fract_x
_atom_site_fract_y
_atom_site_fract_z
Si Si1 0.763203 0.690760 0.140223
Si Si2 0.631889 0.202776 0.209523
Si Si3 0.911039 0.772709 0.935646
Si Si4 0.267530 0.051403 0.225370
Si Si5 0.110162 0.620089 0.105921
Si Si6 0.538782 0.886208 0.897164
Si Si7 0.078351 0.787879 0.761378
Si Si8 0.816265 0.354553 0.341078
O O1 0.814555 0.541058 0.332936
O O2 0.907832 0.793539 0.389434
O O3 0.691361 0.633445 0.849194
O O4 0.647035 0.797096 0.997951
O O5 0.763641 0.221450 0.578179
O O6 0.495259 0.268897 0.034883
O O7 0.667332 0.304677 0.133645
O O8 0.614491 0.028950 0.122292
O O9 0.957343 0.681099 0.877694
O O10 0.043858 0.788408 0.305201
O O11 0.772290 0.683769 0.734566
O O12 0.859223 0.943319 0.791837
O O13 0.400974 0.946646 0.538045
O O14 0.121583 0.947292 0.926870
O O15 0.112000 0.643189 0.933462
O O16 0.178783 0.776640 0.810593
#
# Coordination Sequence:
#
# PCOD8046902 Si02
#       8
#     2   2   2   2   2   2   2   2
#     4  11  25  45  73 107 141 188 230 300 356 427
#     4  11  27  46  68 103 137 195 229 293 348 427
#     4  11  23  40  66 105 135 180 224 299 354 408
#     4  11  26  46  70 105 145 184 242 294 354 431
#     4  11  24  39  70 103 140 173 232 292 361 410
#     4  12  28  48  70 101 149 197 239 283 360 439
#     4  11  22  45  73 107 135 177 235 305 352 420
#     4  10  23  43  72 103 138 174 239 292 353 410
#
# _framework density 22.166964
#
# number of rings (size 3 to 8) (size 9 to 14) (size 15 to 20)
#    0.000    1.000    3.750    1.500    8.750    3.000 
#    2.250    0.000    0.000    0.000    0.000    0.000 
#    0.000    0.000    0.000    0.000    0.000    0.000 
#
# Total GULP energy -198417.647845 kJ/mol
# GULP energy per Si atom -12401.102990 kJ/mol
# Density = 2.211651 g / cm^3
# Si number density = 22.166964 Si / 1000 Ang^3
#
#
#
# Elastic Constant Matrix: (Units=GPa)
#
#
# Indices 1 2 3 4 5 6 
#
# 1 144.4270 63.3669 46.7820 0.0000 8.1506 0.0000
# 2 63.3669 112.9949 29.7654 0.0000 10.2968 0.0000
# 3 46.7820 29.7654 71.6841 0.0000 0.4251 0.0000
# 4 0.0000 0.0000 0.0000 40.0860 0.0000 3.7226
# 5 8.1506 10.2968 0.4251 0.0000 32.3429 0.0000
# 6 0.0000 0.0000 0.0000 3.7226 0.0000 50.9226
#
#
#
# Elastic Compliance Matrix: (Units=1/GPa)
#
#
# Indices 1 2 3 4 5 6 
#
# 1 0.010601 -0.004511 -0.005038 0.000000 -0.001169 0.000000
# 2 -0.004511 0.012180 -0.002097 0.000000 -0.002713 0.000000
# 3 -0.005038 -0.002097 0.018099 0.000000 0.001699 0.000000
# 4 0.000000 0.000000 0.000000 0.025117 0.000000 -0.001836
# 5 -0.001169 -0.002713 0.001699 0.000000 0.032055 0.000000
# 6 0.000000 0.000000 0.000000 -0.001836 0.000000 0.019772
#
#
# Mechanical properties :
#
#
# Convention : Reuss Voigt Hill
#
# Bulk Modulus (GPa) = 56.86287 67.65937 62.26112
# Shear Modulus (GPa) = 34.01858 37.28310 35.65084
#
# Velocity S-wave (km/s) = 3.92171 4.10557 4.01470
# Velocity P-wave (km/s) = 6.79810 7.28445 7.04547
#
# Compressibility (1/GPa) = 0.01758617
#
# Stress axis : x y z
#
# Youngs Moduli (GPa) = 94.32880 82.10488 55.25222
#
# Poissons Ratio (x) = 0.37040 0.27838
# Poissons Ratio (y) = 0.42555 0.11587
# Poissons Ratio (z) = 0.47526 0.17218
#
# Static dielectric constant tensor:
#      x y z
#    x 4.166140 0.000000 -0.070590 
#    y 0.000000 3.975630 0.000000 
#    z -0.070590 0.000000 3.829670 
# 
# 
# High freq. dielectric constant tensor:
#      x y z
#    x 1.884040 0.000000 -0.009390 
#    y 0.000000 1.877490 0.000000 
#    z -0.009390 0.000000 1.859690 
# 
# From -- ./inp_files/5658.got.cif
#   From: 2010.03.12/outbox.cif.g09.slc.cpg/sg4_3_cif.got.tgz:5658.got - 2010.03.31 09:31:35.
