data_PCOD8046569
_publ_section_title
;
Structure prediction by ZEFSAII (Michael W. Deem and Ramdas Pophale) SiO2 
 PCOD8046569
Probable space group: P 21
;
_chemical_formula_sum "Si O2"
_cell_formula_units_Z 16
_cell_length_a 16.767056
_cell_length_b 5.215136
_cell_length_c 8.727752
_cell_angle_alpha 90.000000
_cell_angle_beta 117.292940
_cell_angle_gamma 90.000000
_cell_volume 678.214699
_symmetry_space_group_name_H-M "P 21"
_symmetry_group_IT_number 4
_symmetry_cell_setting 'monoclinic'
loop_
_space_group_symop_operation_xyz
x,y,z
-x,1/2+y,-z
loop_
_atom_site_type_symbol
_atom_site_label
_atom_site_fract_x
_atom_site_fract_y
_atom_site_fract_z
Si Si1 0.585032 0.781790 0.289479
Si Si2 0.852412 0.704754 0.404004
Si Si3 0.016815 0.849362 0.360584
Si Si4 0.315635 0.259538 0.940749
Si Si5 0.044163 0.554919 0.988588
Si Si6 0.346773 0.783691 0.485461
Si Si7 0.838263 0.057181 0.656972
Si Si8 0.621192 0.260215 0.841382
O O1 0.619818 0.747861 0.148289
O O2 0.626690 0.565821 0.436333
O O3 0.479419 0.737489 0.186963
O O4 0.606288 0.065339 0.370451
O O5 0.882747 0.427516 0.489478
O O6 0.786564 0.707208 0.202352
O O7 0.951542 0.809479 0.445868
O O8 0.804979 0.844198 0.506639
O O9 0.056689 0.612793 0.298593
O O10 0.960157 0.037664 0.199724
O O11 0.321557 0.532470 0.030507
O O12 0.338734 0.034869 0.078779
O O13 0.141717 0.469318 0.148423
O O14 0.969909 0.354022 0.984694
O O15 0.238931 0.771479 0.405549
O O16 0.378373 0.735511 0.340708
#
# Coordination Sequence:
#
# PCOD8046569 Si02
#       8
#     2   2   2   2   2   2   2   2
#     4  12  24  49  79 104 142 191 239 290 362 437
#     4  12  24  43  69  97 140 184 241 283 354 415
#     4  11  24  43  67  96 136 185 237 288 342 413
#     4  12  27  46  73 108 148 187 239 297 357 424
#     4  10  22  41  64  91 126 175 227 278 335 395
#     4  12  26  45  76 108 144 187 238 298 356 430
#     4  11  24  44  66  99 138 182 234 291 350 414
#     4  12  27  49  72 111 146 187 235 297 364 432
#
# _framework density 23.591351
#
# number of rings (size 3 to 8) (size 9 to 14) (size 15 to 20)
#    0.000    0.500    3.750    4.500    3.500    0.000 
#    9.000    0.000    0.000    0.000    0.000    0.000 
#    0.000    0.000    0.000    0.000    0.000    0.000 
#
# Total GULP energy -198246.520861 kJ/mol
# GULP energy per Si atom -12390.407554 kJ/mol
# Density = 2.353766 g / cm^3
# Si number density = 23.591351 Si / 1000 Ang^3
#
#
#
# Elastic Constant Matrix: (Units=GPa)
#
#
# Indices 1 2 3 4 5 6 
#
# 1 64.3217 12.4749 -3.1387 0.0000 6.6040 0.0000
# 2 12.4749 78.4584 18.2714 0.0000 -3.4508 0.0000
# 3 -3.1387 18.2714 87.8990 0.0000 9.4981 0.0000
# 4 0.0000 0.0000 0.0000 42.2781 0.0000 4.4465
# 5 6.6040 -3.4508 9.4981 0.0000 31.2263 0.0000
# 6 0.0000 0.0000 0.0000 4.4465 0.0000 28.4526
#
#
#
# Elastic Compliance Matrix: (Units=1/GPa)
#
#
# Indices 1 2 3 4 5 6 
#
# 1 0.016720 -0.003262 0.001754 0.000000 -0.004430 0.000000
# 2 -0.003262 0.014207 -0.003427 0.000000 0.003302 0.000000
# 3 0.001754 -0.003427 0.012648 0.000000 -0.004597 0.000000
# 4 0.000000 0.000000 0.000000 0.024048 0.000000 -0.003758
# 5 -0.004430 0.003302 -0.004597 0.000000 0.034724 0.000000
# 6 0.000000 0.000000 0.000000 -0.003758 0.000000 0.035733
#
#
# Mechanical properties :
#
#
# Convention : Reuss Voigt Hill
#
# Bulk Modulus (GPa) = 29.66789 31.76605 30.71697
# Shear Modulus (GPa) = 31.40981 33.92952 32.66966
#
# Velocity S-wave (km/s) = 3.65281 3.79650 3.72535
# Velocity P-wave (km/s) = 5.51305 5.71946 5.61720
#
# Compressibility (1/GPa) = 0.03370648
#
# Stress axis : x y z
#
# Youngs Moduli (GPa) = 59.80919 70.38569 79.06202
#
# Poissons Ratio (x) = 0.22958 -0.13865
# Poissons Ratio (y) = 0.19508 0.27091
# Poissons Ratio (z) = -0.10489 0.24118
#
# Static dielectric constant tensor:
#      x y z
#    x 4.150470 0.000000 -0.029880 
#    y 0.000000 4.193410 0.000000 
#    z -0.029880 0.000000 4.743090 
# 
# 
# High freq. dielectric constant tensor:
#      x y z
#    x 1.926620 0.000000 -0.001650 
#    y 0.000000 1.931040 0.000000 
#    z -0.001650 0.000000 1.962120 
# 
# From -- ./inp_files/9500.got.cif
#   From: 2010.03.12/outbox.cif.g09.slc.cpg/sg4_5_cif.got.tgz:9500.got - 2010.03.31 09:31:35.
