data_PCOD8046129
_publ_section_title
;
Structure prediction by ZEFSAII (Michael W. Deem and Ramdas Pophale) SiO2 
 PCOD8046129
Probable space group: P 21
;
_chemical_formula_sum "Si O2"
_cell_formula_units_Z 16
_cell_length_a 8.868932
_cell_length_b 11.283013
_cell_length_c 9.365289
_cell_angle_alpha 90.000000
_cell_angle_beta 76.341375
_cell_angle_gamma 90.000000
_cell_volume 910.665097
_symmetry_space_group_name_H-M "P 21"
_symmetry_group_IT_number 4
_symmetry_cell_setting 'monoclinic'
loop_
_space_group_symop_operation_xyz
x,y,z
-x,1/2+y,-z
loop_
_atom_site_type_symbol
_atom_site_label
_atom_site_fract_x
_atom_site_fract_y
_atom_site_fract_z
Si Si1 0.397491 0.178140 0.578070
Si Si2 0.239053 0.949302 0.634668
Si Si3 0.834509 0.254214 0.119322
Si Si4 0.381710 0.592203 0.700186
Si Si5 0.415476 0.868517 0.321647
Si Si6 0.066623 0.157133 0.567333
Si Si7 0.954467 0.077082 0.292979
Si Si8 0.131520 0.833236 0.205494
O O1 0.525872 0.177897 0.426370
O O2 0.456498 0.265836 0.688067
O O3 0.234459 0.222321 0.544836
O O4 0.372441 0.045600 0.648986
O O5 0.195982 0.868424 0.776277
O O6 0.302102 0.876823 0.484016
O O7 0.083668 0.022353 0.623804
O O8 0.676298 0.174439 0.154168
O O9 0.970449 0.171706 0.158261
O O10 0.886715 0.295118 0.953452
O O11 0.492403 0.488981 0.731175
O O12 0.228433 0.542266 0.651170
O O13 0.312358 0.842202 0.205785
O O14 0.013660 0.149250 0.416357
O O15 0.941662 0.230945 0.682398
O O16 0.053436 0.960323 0.243929
#
# Coordination Sequence:
#
# PCOD8046129 Si02
#       8
#     2   2   2   2   2   2   2   2
#     4   9  18  33  64  87 114 149 202 252 291 350
#     4   9  19  35  59  84 119 151 195 251 292 351
#     4  10  23  38  57  85 131 156 196 249 315 361
#     4   9  19  35  60  84 117 154 188 256 307 341
#     4  11  18  39  60  86 116 155 209 249 294 356
#     4  10  21  36  63  97 109 160 206 249 297 357
#     4  10  21  38  63  88 121 155 204 255 298 360
#     4  12  23  38  62  87 123 168 194 251 310 368
#
# _framework density 17.569576000000001
#
# number of rings (size 3 to 8) (size 9 to 14) (size 15 to 20)
#    1.500    0.500    2.500    2.250    1.750    0.000 
#    2.250    0.000    5.500    0.000    0.000    0.000 
#    0.000    0.000    0.000    0.000    0.000    0.000 
#
# Total GULP energy -198226.245021 kJ/mol
# GULP energy per Si atom -12389.140314 kJ/mol
# Density = 1.752959 g / cm^3
# Si number density = 17.569576 Si / 1000 Ang^3
#
#
#
# Elastic Constant Matrix: (Units=GPa)
#
#
# Indices 1 2 3 4 5 6 
#
# 1 92.7794 20.1279 31.9373 0.0000 16.3780 0.0000
# 2 20.1279 77.9322 45.9238 0.0000 6.1748 0.0000
# 3 31.9373 45.9238 103.9871 0.0000 11.8777 0.0000
# 4 0.0000 0.0000 0.0000 24.6371 0.0000 1.5896
# 5 16.3780 6.1748 11.8777 0.0000 21.4500 0.0000
# 6 0.0000 0.0000 0.0000 1.5896 0.0000 34.5646
#
#
#
# Elastic Compliance Matrix: (Units=1/GPa)
#
#
# Indices 1 2 3 4 5 6 
#
# 1 0.013442 -0.001268 -0.002602 0.000000 -0.008458 0.000000
# 2 -0.001268 0.017478 -0.007329 0.000000 -0.000005 0.000000
# 3 -0.002602 -0.007329 0.014075 0.000000 -0.003697 0.000000
# 4 0.000000 0.000000 0.000000 0.040710 0.000000 -0.001872
# 5 -0.008458 -0.000005 -0.003697 0.000000 0.055126 0.000000
# 6 0.000000 0.000000 0.000000 -0.001872 0.000000 0.029017
#
#
# Mechanical properties :
#
#
# Convention : Reuss Voigt Hill
#
# Bulk Modulus (GPa) = 44.25469 52.29741 48.27605
# Shear Modulus (GPa) = 25.02752 27.91099 26.46925
#
# Velocity S-wave (km/s) = 3.77832 3.99005 3.88563
# Velocity P-wave (km/s) = 6.65411 7.14547 6.90417
#
# Compressibility (1/GPa) = 0.02259648
#
# Stress axis : x y z
#
# Youngs Moduli (GPa) = 74.39279 57.21360 71.04898
#
# Poissons Ratio (x) = 0.07255 0.18490
# Poissons Ratio (y) = 0.09434 0.52071
# Poissons Ratio (z) = 0.19360 0.41931
#
# Static dielectric constant tensor:
#      x y z
#    x 3.256440 0.000000 0.059450 
#    y 0.000000 3.303360 0.000000 
#    z 0.059450 0.000000 2.936970 
# 
# 
# High freq. dielectric constant tensor:
#      x y z
#    x 1.677230 0.000000 0.003330 
#    y 0.000000 1.690010 0.000000 
#    z 0.003330 0.000000 1.645090 
# 
# From -- ./inp_files/6126.got.cif
#   From: 2010.03.12/outbox.cif.g09.slc.cpg/sg4_4_cif.got.tgz:6126.got - 2010.03.31 09:31:35.
