data_PCOD8046106
_publ_section_title
;
Structure prediction by ZEFSAII (Michael W. Deem and Ramdas Pophale) SiO2 
 PCOD8046106
Probable space group: P 21
;
_chemical_formula_sum "Si O2"
_cell_formula_units_Z 16
_cell_length_a 6.418700
_cell_length_b 20.002833
_cell_length_c 5.230348
_cell_angle_alpha 90.000000
_cell_angle_beta 99.508139
_cell_angle_gamma 90.000000
_cell_volume 662.310343
_symmetry_space_group_name_H-M "P 21"
_symmetry_group_IT_number 4
_symmetry_cell_setting 'monoclinic'
loop_
_space_group_symop_operation_xyz
x,y,z
-x,1/2+y,-z
loop_
_atom_site_type_symbol
_atom_site_label
_atom_site_fract_x
_atom_site_fract_y
_atom_site_fract_z
Si Si1 0.483442 0.340140 0.765908
Si Si2 0.843072 0.947344 0.230636
Si Si3 0.128164 0.553527 0.393823
Si Si4 0.809012 0.640696 0.076256
Si Si5 0.801119 0.426147 0.089436
Si Si6 0.003259 0.180802 0.392485
Si Si7 0.486412 0.536790 0.094626
Si Si8 0.671110 0.298059 0.295895
O O1 0.250404 0.373972 0.726420
O O2 0.657118 0.399050 0.824037
O O3 0.517449 0.300650 0.509793
O O4 0.517681 0.290038 0.016000
O O5 0.975655 0.944792 0.995431
O O6 0.954046 0.980834 0.505869
O O7 0.659242 0.002283 0.147721
O O8 0.365147 0.546971 0.336839
O O9 0.974838 0.578392 0.133358
O O10 0.117585 0.609475 0.616102
O O11 0.842115 0.689676 0.329078
O O12 0.574155 0.609063 0.018511
O O13 0.853182 0.683211 0.831304
O O14 0.686524 0.489300 0.196207
O O15 0.813031 0.365921 0.300863
O O16 0.828963 0.237369 0.352675
#
# Coordination Sequence:
#
# PCOD8046106 Si02
#       8
#     2   2   2   2   2   2   2   2
#     4   9  22  39  64  91 124 164 208 265 319 377
#     4  11  22  40  62  99 128 166 211 269 326 386
#     4  10  23  35  65  91 130 166 212 266 319 384
#     4  10  24  41  64  94 125 168 212 262 317 380
#     4   9  22  36  65  90 126 164 209 263 323 379
#     4  10  22  43  67  90 128 175 215 259 315 381
#     4  11  21  39  61  94 130 165 209 267 321 379
#     4  10  20  45  66  89 129 170 214 263 314 378
#
# _framework density 24.157857
#
# number of rings (size 3 to 8) (size 9 to 14) (size 15 to 20)
#    1.500    0.500    0.000    3.750    1.750    3.000 
#    0.000    2.500    0.000    0.000    0.000    0.000 
#    0.000    0.000    0.000    0.000    0.000    0.000 
#
# Total GULP energy -198274.980006 kJ/mol
# GULP energy per Si atom -12392.186250 kJ/mol
# Density = 2.410287 g / cm^3
# Si number density = 24.157857 Si / 1000 Ang^3
#
#
#
# Elastic Constant Matrix: (Units=GPa)
#
#
# Indices 1 2 3 4 5 6 
#
# 1 54.9102 -16.8392 10.8442 0.0000 -18.6418 0.0000
# 2 -16.8392 20.8238 -6.9799 0.0000 -9.4243 0.0000
# 3 10.8442 -6.9799 134.2355 0.0000 -30.3432 0.0000
# 4 0.0000 0.0000 0.0000 31.2294 0.0000 -5.9099
# 5 -18.6418 -9.4243 -30.3432 0.0000 33.2518 0.0000
# 6 0.0000 0.0000 0.0000 -5.9099 0.0000 27.0746
#
#
#
# Elastic Compliance Matrix: (Units=1/GPa)
#
#
# Indices 1 2 3 4 5 6 
#
# 1 0.093393 0.135457 0.025213 0.000000 0.113758 0.000000
# 2 0.135457 0.259460 0.045780 0.000000 0.191253 0.000000
# 3 0.025213 0.045780 0.017539 0.000000 0.043115 0.000000
# 4 0.000000 0.000000 0.000000 0.033401 0.000000 0.007291
# 5 0.113758 0.191253 0.043115 0.000000 0.187398 0.000000
# 6 0.000000 0.000000 0.000000 0.007291 0.000000 0.038526
#
#
# Mechanical properties :
#
#
# Convention : Reuss Voigt Hill
#
# Bulk Modulus (GPa) = 1.27666 20.44662 10.86164
# Shear Modulus (GPa) = 10.46211 33.17411 21.81811
#
# Velocity S-wave (km/s) = 2.08330 3.70972 3.00850
# Velocity P-wave (km/s) = 2.51326 5.17991 4.07112
#
# Compressibility (1/GPa) = 0.78329222
#
# Stress axis : x y z
#
# Youngs Moduli (GPa) = 10.70745 3.85416 57.01518
#
# Poissons Ratio (x) = -0.52207 -1.43752
# Poissons Ratio (y) = -1.45040 -2.61016
# Poissons Ratio (z) = -0.26997 -0.17644
#
# Static dielectric constant tensor:
#      x y z
#    x 4.125130 0.000000 -0.032040 
#    y 0.000000 4.077360 0.000000 
#    z -0.032040 0.000000 4.121360 
# 
# 
# High freq. dielectric constant tensor:
#      x y z
#    x 1.947910 0.000000 -0.006070 
#    y 0.000000 1.947750 0.000000 
#    z -0.006070 0.000000 1.959290 
# 
# From -- ./inp_files/691.got.cif
#   From: 2010.03.12/outbox.cif.g09.slc.cpg/sg4_1_cif.got.tgz:691.got - 2010.03.31 09:31:35.
