data_PCOD8046941
_publ_section_title
;
Structure prediction by ZEFSAII (Michael W. Deem and Ramdas Pophale) SiO2 
 PCOD8046941
Probable space group: P 21
;
_chemical_formula_sum "Si O2"
_cell_formula_units_Z 10
_cell_length_a 9.095943
_cell_length_b 9.916900
_cell_length_c 5.271081
_cell_angle_alpha 90.000000
_cell_angle_beta 126.835355
_cell_angle_gamma 90.000000
_cell_volume 380.548128
_symmetry_space_group_name_H-M "P 21"
_symmetry_group_IT_number 4
_symmetry_cell_setting 'monoclinic'
loop_
_space_group_symop_operation_xyz
x,y,z
-x,1/2+y,-z
loop_
_atom_site_type_symbol
_atom_site_label
_atom_site_fract_x
_atom_site_fract_y
_atom_site_fract_z
Si Si1 0.666062 0.720030 0.191786
Si Si2 0.766219 0.441647 0.432481
Si Si3 0.455012 0.361212 0.431348
Si Si4 0.047104 0.804988 0.771780
Si Si5 0.895252 0.031685 0.945498
O O1 0.636353 0.559952 0.189073
O O2 0.559046 0.798744 0.304877
O O3 0.880915 0.748692 0.433022
O O4 0.595395 0.754571 0.839875
O O5 0.668433 0.399540 0.598010
O O6 0.777158 0.321651 0.234597
O O7 0.978147 0.486267 0.686974
O O8 0.316987 0.487994 0.250981
O O9 0.094191 0.696497 0.047086
O O10 0.989793 0.954335 0.809050
#
# Coordination Sequence:
#
# PCOD8046941 Si02
#       5
#     2   2   2   2   2
#     4  10  25  46  66 103 140 174 233 288 334 412
#     4  11  25  41  72  97 135 187 228 282 346 409
#     4  11  25  45  68 100 140 177 230 286 342 406
#     4  10  23  44  72  97 143 182 232 282 347 407
#     4  10  24  44  64 105 134 188 223 292 337 414
#
# _framework density 26.277884
#
# number of rings (size 3 to 8) (size 9 to 14) (size 15 to 20)
#    0.000    1.600    2.000    0.000   14.000    0.000 
#    0.000    0.000    0.000    0.000    0.000    0.000 
#    0.000    0.000    0.000    0.000    0.000    0.000 
#
# Total GULP energy -123904.614149 kJ/mol
# GULP energy per Si atom -12390.461415 kJ/mol
# Density = 2.621807 g / cm^3
# Si number density = 26.277884 Si / 1000 Ang^3
#
#
#
# Elastic Constant Matrix: (Units=GPa)
#
#
# Indices 1 2 3 4 5 6 
#
# 1 157.9208 53.2524 -4.1417 0.0000 7.7371 0.0000
# 2 53.2524 92.3197 -5.5568 0.0000 10.7280 0.0000
# 3 -4.1417 -5.5568 38.2634 0.0000 7.1106 0.0000
# 4 0.0000 0.0000 0.0000 30.3818 0.0000 -8.3918
# 5 7.7371 10.7280 7.1106 0.0000 22.8515 0.0000
# 6 0.0000 0.0000 0.0000 -8.3918 0.0000 26.7631
#
#
#
# Elastic Compliance Matrix: (Units=1/GPa)
#
#
# Indices 1 2 3 4 5 6 
#
# 1 0.007872 -0.004441 0.000334 0.000000 -0.000684 0.000000
# 2 -0.004441 0.014258 0.002711 0.000000 -0.006034 0.000000
# 3 0.000334 0.002711 0.028468 0.000000 -0.010244 0.000000
# 4 0.000000 0.000000 0.000000 0.036035 0.000000 0.011299
# 5 -0.000684 -0.006034 -0.010244 0.000000 0.050013 0.000000
# 6 0.000000 0.000000 0.000000 0.011299 0.000000 0.040908
#
#
# Mechanical properties :
#
#
# Convention : Reuss Voigt Hill
#
# Bulk Modulus (GPa) = 20.91747 41.73465 31.32606
# Shear Modulus (GPa) = 25.47357 32.32927 28.90142
#
# Velocity S-wave (km/s) = 3.11688 3.51135 3.31998
# Velocity P-wave (km/s) = 4.57500 5.68823 5.16171
#
# Compressibility (1/GPa) = 0.04780694
#
# Stress axis : x y z
#
# Youngs Moduli (GPa) = 127.02900 70.13572 35.12681
#
# Poissons Ratio (x) = 0.31149 -0.01174
# Poissons Ratio (y) = 0.56417 -0.09523
# Poissons Ratio (z) = -0.04247 -0.19015
#
# Static dielectric constant tensor:
#      x y z
#    x 4.800220 0.000000 0.237710 
#    y 0.000000 4.916090 0.000000 
#    z 0.237710 0.000000 4.424480 
# 
# 
# High freq. dielectric constant tensor:
#      x y z
#    x 2.054240 0.000000 0.008430 
#    y 0.000000 2.048390 0.000000 
#    z 0.008430 0.000000 2.049620 
# 
# From -- ./inp_files/899.got.cif
#   From: 2010.03.12/outbox.cif.g09.slc.cpg/sg4_1_cif.got.tgz:899.got - 2010.03.31 09:31:35.
