data_PCOD8046039
_publ_section_title
;
Structure prediction by ZEFSAII (Michael W. Deem and Ramdas Pophale) SiO2 
 PCOD8046039
Probable space group: P 21
;
_chemical_formula_sum "Si O2"
_cell_formula_units_Z 16
_cell_length_a 14.622642
_cell_length_b 8.519624
_cell_length_c 11.463558
_cell_angle_alpha 90.000000
_cell_angle_beta 152.717852
_cell_angle_gamma 90.000000
_cell_volume 654.612682
_symmetry_space_group_name_H-M "P 21"
_symmetry_group_IT_number 4
_symmetry_cell_setting 'monoclinic'
loop_
_space_group_symop_operation_xyz
x,y,z
-x,1/2+y,-z
loop_
_atom_site_type_symbol
_atom_site_label
_atom_site_fract_x
_atom_site_fract_y
_atom_site_fract_z
Si Si1 0.109856 0.907630 0.428216
Si Si2 0.623095 0.930658 0.154311
Si Si3 0.064327 0.151472 0.090144
Si Si4 0.086120 0.252807 0.367489
Si Si5 0.730452 0.325379 0.615657
Si Si6 0.298684 0.125236 0.894196
Si Si7 0.867448 0.198679 0.333014
Si Si8 0.282150 0.276376 0.111968
O O1 0.141958 0.847875 0.594344
O O2 0.247693 0.802992 0.499081
O O3 0.875939 0.901281 0.121638
O O4 0.191066 0.085266 0.515408
O O5 0.780617 0.896143 0.435833
O O6 0.417047 0.970377 0.986170
O O7 0.596805 0.781892 0.040299
O O8 0.688218 0.077653 0.148027
O O9 0.067325 0.265458 0.207391
O O10 0.207595 0.212500 0.150822
O O11 0.127737 0.974474 0.190812
O O12 0.831194 0.169573 0.786884
O O13 0.879112 0.255508 0.209958
O O14 0.499609 0.351688 0.386039
O O15 0.306173 0.136575 0.044230
O O16 0.072546 0.107188 0.594717
#
# Coordination Sequence:
#
# PCOD8046039 Si02
#       8
#     2   2   2   2   2   2   2   2
#     4   9  20  40  63  88 118 156 203 243 299 364
#     4  11  24  39  63  93 124 157 195 248 302 355
#     4  10  24  40  60  90 119 158 207 246 294 356
#     4  10  21  39  60  88 123 156 195 248 297 350
#     4  10  22  41  63  86 120 160 200 250 298 350
#     4  10  24  41  62  94 122 157 203 243 297 365
#     4  10  20  40  64  88 121 160 196 245 304 353
#     4  10  21  40  65  87 119 162 201 247 301 351
#
# _framework density 24.441935999999998
#
# number of rings (size 3 to 8) (size 9 to 14) (size 15 to 20)
#    0.000    2.000    0.000    3.000    0.000   16.000 
#    0.000    5.000    0.000    0.000    0.000    0.000 
#    0.000    0.000    0.000    0.000    0.000    0.000 
#
# Total GULP energy -198255.697294 kJ/mol
# GULP energy per Si atom -12390.981081 kJ/mol
# Density = 2.438631 g / cm^3
# Si number density = 24.441936 Si / 1000 Ang^3
#
#
#
# Elastic Constant Matrix: (Units=GPa)
#
#
# Indices 1 2 3 4 5 6 
#
# 1 184.1993 12.3516 41.3593 0.0000 -12.7950 0.0000
# 2 12.3516 44.4213 20.5488 0.0000 5.0860 0.0000
# 3 41.3593 20.5488 94.5908 0.0000 19.8210 0.0000
# 4 0.0000 0.0000 0.0000 23.8500 0.0000 -0.9793
# 5 -12.7950 5.0860 19.8210 0.0000 41.2962 0.0000
# 6 0.0000 0.0000 0.0000 -0.9793 0.0000 32.8517
#
#
#
# Elastic Compliance Matrix: (Units=1/GPa)
#
#
# Indices 1 2 3 4 5 6 
#
# 1 0.006521 -0.000623 -0.003508 0.000000 0.003781 0.000000
# 2 -0.000623 0.025097 -0.004993 0.000000 -0.000887 0.000000
# 3 -0.003508 -0.004993 0.014776 0.000000 -0.007564 0.000000
# 4 0.000000 0.000000 0.000000 0.041980 0.000000 0.001251
# 5 0.003781 -0.000887 -0.007564 0.000000 0.029127 0.000000
# 6 0.000000 0.000000 0.000000 0.001251 0.000000 0.030477
#
#
# Mechanical properties :
#
#
# Convention : Reuss Voigt Hill
#
# Bulk Modulus (GPa) = 35.53257 52.41454 43.97356
# Shear Modulus (GPa) = 28.47252 36.19635 32.33443
#
# Velocity S-wave (km/s) = 3.41677 3.85244 3.64113
# Velocity P-wave (km/s) = 5.48952 6.42491 5.97555
#
# Compressibility (1/GPa) = 0.02814319
#
# Stress axis : x y z
#
# Youngs Moduli (GPa) = 153.34944 39.84610 67.67944
#
# Poissons Ratio (x) = 0.02484 0.23743
# Poissons Ratio (y) = 0.09558 0.33796
# Poissons Ratio (z) = 0.53798 0.19897
#
# Static dielectric constant tensor:
#      x y z
#    x 5.103220 0.000000 -0.079270 
#    y 0.000000 4.153290 0.000000 
#    z -0.079270 0.000000 4.340810 
# 
# 
# High freq. dielectric constant tensor:
#      x y z
#    x 1.995710 0.000000 0.000040 
#    y 0.000000 1.959180 0.000000 
#    z 0.000040 0.000000 1.953660 
# 
# From -- ./inp_files/12671.got.cif
#   From: 2010.03.12/outbox.cif.g09.slc.cpg/sg4_7_cif.got.tgz:12671.got - 2010.03.31 09:31:35.
