data_PCOD8046972
_publ_section_title
;
Structure prediction by ZEFSAII (Michael W. Deem and Ramdas Pophale) SiO2 
 PCOD8046972
Probable space group: P 21
;
_chemical_formula_sum "Si O2"
_cell_formula_units_Z 14
_cell_length_a 17.188220
_cell_length_b 7.743336
_cell_length_c 11.973596
_cell_angle_alpha 90.000000
_cell_angle_beta 23.134111
_cell_angle_gamma 90.000000
_cell_volume 626.107179
_symmetry_space_group_name_H-M "P 21"
_symmetry_group_IT_number 4
_symmetry_cell_setting 'monoclinic'
loop_
_space_group_symop_operation_xyz
x,y,z
-x,1/2+y,-z
loop_
_atom_site_type_symbol
_atom_site_label
_atom_site_fract_x
_atom_site_fract_y
_atom_site_fract_z
Si Si1 0.911417 0.236120 0.063362
Si Si2 0.756273 0.482418 0.980841
Si Si3 0.813955 0.097960 0.972009
Si Si4 0.786785 0.513277 0.680578
Si Si5 0.919269 0.043622 0.272274
Si Si6 0.505645 0.814057 0.313899
Si Si7 0.429536 0.739901 0.177373
O O1 0.704109 0.340203 0.348458
O O2 0.984196 0.174564 0.087917
O O3 0.879746 0.083272 0.014892
O O4 0.078364 0.355506 0.786700
O O5 0.571515 0.612515 0.242182
O O6 0.715835 0.286050 0.075080
O O7 0.817358 0.481573 0.770984
O O8 0.935707 0.563594 0.814637
O O9 0.002238 0.067271 0.645333
O O10 0.656973 0.947844 0.165332
O O11 0.703515 0.338414 0.736491
O O12 0.630920 0.666003 0.858145
O O13 0.697209 0.078480 0.607216
O O14 0.485486 0.860383 0.208913
#
# Coordination Sequence:
#
# PCOD8046972 Si02
#       7
#     2   2   2   2   2   2   2
#     4  10  25  44  70 103 133 184 226 285 349 413
#     4  10  25  45  70 104 135 179 228 290 338 419
#     4  11  26  43  72 103 131 185 229 278 359 408
#     4  11  26  43  71 101 137 183 229 287 353 403
#     4  10  23  46  68 100 137 177 232 284 344 408
#     4  10  24  47  67 103 138 176 230 284 350 405
#     4  10  25  44  68 102 139 180 230 290 341 418
#
# _framework density 22.360389000000001
#
# number of rings (size 3 to 8) (size 9 to 14) (size 15 to 20)
#    0.000    1.714    0.000    0.857   22.000    0.000 
#    7.714    0.000    0.000    0.000    0.000    0.000 
#    0.000    0.000    0.000    0.000    0.000    0.000 
#
# Total GULP energy -173575.190518 kJ/mol
# GULP energy per Si atom -12398.227894 kJ/mol
# Density = 2.230950 g / cm^3
# Si number density = 22.360389 Si / 1000 Ang^3
#
#
#
# Elastic Constant Matrix: (Units=GPa)
#
#
# Indices 1 2 3 4 5 6 
#
# 1 123.2373 45.7872 7.3456 0.0000 1.8049 0.0000
# 2 45.7872 101.4942 23.9762 0.0000 -4.1084 0.0000
# 3 7.3456 23.9762 34.0568 0.0000 3.9428 0.0000
# 4 0.0000 0.0000 0.0000 33.6766 0.0000 -8.3416
# 5 1.8049 -4.1084 3.9428 0.0000 25.6821 0.0000
# 6 0.0000 0.0000 0.0000 -8.3416 0.0000 38.4218
#
#
#
# Elastic Compliance Matrix: (Units=1/GPa)
#
#
# Indices 1 2 3 4 5 6 
#
# 1 0.009860 -0.004871 0.001500 0.000000 -0.001702 0.000000
# 2 -0.004871 0.014493 -0.009632 0.000000 0.004140 0.000000
# 3 0.001500 -0.009632 0.036662 0.000000 -0.007275 0.000000
# 4 0.000000 0.000000 0.000000 0.031382 0.000000 0.006813
# 5 -0.001702 0.004140 -0.007275 0.000000 0.040836 0.000000
# 6 0.000000 0.000000 0.000000 0.006813 0.000000 0.027506
#
#
# Mechanical properties :
#
#
# Convention : Reuss Voigt Hill
#
# Bulk Modulus (GPa) = 28.56424 45.88957 37.22690
# Shear Modulus (GPa) = 25.19957 31.66806 28.43381
#
# Velocity S-wave (km/s) = 3.36069 3.76740 3.56984
# Velocity P-wave (km/s) = 5.27837 6.28424 5.80314
#
# Compressibility (1/GPa) = 0.03500881
#
# Stress axis : x y z
#
# Youngs Moduli (GPa) = 101.42162 68.99726 27.27590
#
# Poissons Ratio (x) = 0.33611 -0.04091
# Poissons Ratio (y) = 0.49406 0.26272
# Poissons Ratio (z) = -0.15212 0.66458
#
# Static dielectric constant tensor:
#      x y z
#    x 4.386040 0.000000 0.112830 
#    y 0.000000 3.919130 0.000000 
#    z 0.112830 0.000000 3.936400 
# 
# 
# High freq. dielectric constant tensor:
#      x y z
#    x 1.902090 0.000000 0.007040 
#    y 0.000000 1.869670 0.000000 
#    z 0.007040 0.000000 1.878000 
# 
# From -- ./inp_files/12896.got.cif
#   From: 2010.03.12/outbox.cif.g09.slc.cpg/sg4_7_cif.got.tgz:12896.got - 2010.03.31 09:31:35.
