data_PCOD8046351
_publ_section_title
;
Structure prediction by ZEFSAII (Michael W. Deem and Ramdas Pophale) SiO2 
 PCOD8046351
Probable space group: P 21
;
_chemical_formula_sum "Si O2"
_cell_formula_units_Z 16
_cell_length_a 9.311476
_cell_length_b 13.331015
_cell_length_c 13.792870
_cell_angle_alpha 90.000000
_cell_angle_beta 150.457080
_cell_angle_gamma 90.000000
_cell_volume 844.208509
_symmetry_space_group_name_H-M "P 21"
_symmetry_group_IT_number 4
_symmetry_cell_setting 'monoclinic'
loop_
_space_group_symop_operation_xyz
x,y,z
-x,1/2+y,-z
loop_
_atom_site_type_symbol
_atom_site_label
_atom_site_fract_x
_atom_site_fract_y
_atom_site_fract_z
Si Si1 0.558564 0.757390 0.406532
Si Si2 0.433044 0.058185 0.077221
Si Si3 0.841361 0.242755 0.337847
Si Si4 0.245800 0.878524 0.067212
Si Si5 0.495164 0.358407 0.974840
Si Si6 0.210411 0.618041 0.331008
Si Si7 0.643590 0.900512 0.627863
Si Si8 0.851481 0.291970 0.566310
O O1 0.327538 0.826339 0.214612
O O2 0.372592 0.662287 0.331951
O O3 0.691090 0.816657 0.574610
O O4 0.823196 0.725057 0.493282
O O5 0.136778 0.118539 0.885712
O O6 0.696118 0.134038 0.245827
O O7 0.395785 0.989365 0.151855
O O8 0.499675 0.981027 0.026518
O O9 0.830836 0.287563 0.439006
O O10 0.681805 0.323193 0.176250
O O11 0.358158 0.816220 0.038470
O O12 0.898312 0.891040 0.857094
O O13 0.172969 0.314390 0.793798
O O14 0.340811 0.506721 0.419362
O O15 0.269665 0.687409 0.459964
O O16 0.343069 0.884449 0.508822
#
# Coordination Sequence:
#
# PCOD8046351 Si02
#       8
#     2   2   2   2   2   2   2   2
#     4  11  22  38  65  88 121 164 201 252 307 365
#     4   9  21  38  61  87 125 158 194 257 307 355
#     4  12  21  39  65  91 117 163 206 250 310 360
#     4   9  20  40  58  84 117 161 196 244 302 358
#     4  10  21  42  59  89 127 155 202 258 303 356
#     4  10  22  41  60  91 126 159 204 252 300 374
#     4  10  23  42  59  85 129 160 200 250 310 359
#     4  11  24  38  65  95 120 162 207 257 299 367
#
# _framework density 18.952663999999999
#
# number of rings (size 3 to 8) (size 9 to 14) (size 15 to 20)
#    0.750    1.000    3.750    0.000    5.250    0.000 
#    2.250    1.250    0.000    0.000    0.000    0.000 
#    0.000    0.000    0.000    0.000    0.000    0.000 
#
# Total GULP energy -198316.336160 kJ/mol
# GULP energy per Si atom -12394.771010 kJ/mol
# Density = 1.890953 g / cm^3
# Si number density = 18.952664 Si / 1000 Ang^3
#
#
#
# Elastic Constant Matrix: (Units=GPa)
#
#
# Indices 1 2 3 4 5 6 
#
# 1 94.1937 27.8913 30.9294 0.0000 9.4965 0.0000
# 2 27.8913 79.7635 32.5261 0.0000 14.1385 0.0000
# 3 30.9294 32.5261 80.5636 0.0000 4.3758 0.0000
# 4 0.0000 0.0000 0.0000 30.2479 0.0000 7.0398
# 5 9.4965 14.1385 4.3758 0.0000 24.9063 0.0000
# 6 0.0000 0.0000 0.0000 7.0398 0.0000 27.7775
#
#
#
# Elastic Compliance Matrix: (Units=1/GPa)
#
#
# Indices 1 2 3 4 5 6 
#
# 1 0.012877 -0.002447 -0.003801 0.000000 -0.002853 0.000000
# 2 -0.002447 0.017014 -0.005508 0.000000 -0.007757 0.000000
# 3 -0.003801 -0.005508 0.016000 0.000000 0.001765 0.000000
# 4 0.000000 0.000000 0.000000 0.035132 0.000000 -0.008904
# 5 -0.002853 -0.007757 0.001765 0.000000 0.045332 0.000000
# 6 0.000000 0.000000 0.000000 -0.008904 0.000000 0.038257
#
#
# Mechanical properties :
#
#
# Convention : Reuss Voigt Hill
#
# Bulk Modulus (GPa) = 44.68614 48.57938 46.63276
# Shear Modulus (GPa) = 25.56464 27.46462 26.51463
#
# Velocity S-wave (km/s) = 3.67668 3.81086 3.74437
# Velocity P-wave (km/s) = 6.45391 6.71201 6.58422
#
# Compressibility (1/GPa) = 0.02237831
#
# Stress axis : x y z
#
# Youngs Moduli (GPa) = 77.66025 58.77514 62.50146
#
# Poissons Ratio (x) = 0.14383 0.23754
# Poissons Ratio (y) = 0.19005 0.34427
# Poissons Ratio (z) = 0.29515 0.32375
#
# Static dielectric constant tensor:
#      x y z
#    x 3.462810 0.000000 0.166380 
#    y 0.000000 3.410370 0.000000 
#    z 0.166380 0.000000 3.288190 
# 
# 
# High freq. dielectric constant tensor:
#      x y z
#    x 1.735230 0.000000 0.015400 
#    y 0.000000 1.730470 0.000000 
#    z 0.015400 0.000000 1.733520 
# 
# From -- ./inp_files/11409.got.cif
#   From: 2010.03.12/outbox.cif.g09.slc.cpg/sg4_6_cif.got.tgz:11409.got - 2010.03.31 09:31:35.
