data_PCOD8046226
_publ_section_title
;
Structure prediction by ZEFSAII (Michael W. Deem and Ramdas Pophale) SiO2 
 PCOD8046226
Probable space group: P 21
;
_chemical_formula_sum "Si O2"
_cell_formula_units_Z 16
_cell_length_a 9.564271
_cell_length_b 15.738087
_cell_length_c 8.837560
_cell_angle_alpha 90.000000
_cell_angle_beta 30.866760
_cell_angle_gamma 90.000000
_cell_volume 682.480525
_symmetry_space_group_name_H-M "P 21"
_symmetry_group_IT_number 4
_symmetry_cell_setting 'monoclinic'
loop_
_space_group_symop_operation_xyz
x,y,z
-x,1/2+y,-z
loop_
_atom_site_type_symbol
_atom_site_label
_atom_site_fract_x
_atom_site_fract_y
_atom_site_fract_z
Si Si1 0.058760 0.258020 0.102493
Si Si2 0.987677 0.948366 0.382769
Si Si3 0.535008 0.220903 0.437651
Si Si4 0.189345 0.904130 0.511537
Si Si5 0.478077 0.854228 0.795023
Si Si6 0.594337 0.588187 0.691792
Si Si7 0.127836 0.616303 0.363116
Si Si8 0.487803 0.262231 0.932278
O O1 0.254611 0.244749 0.778502
O O2 0.208659 0.224038 0.117960
O O3 0.780330 0.205351 0.328789
O O4 0.980252 0.358063 0.197480
O O5 0.991548 0.911423 0.549822
O O6 0.269774 0.927678 0.037938
O O7 0.935640 0.048825 0.444458
O O8 0.755560 0.903273 0.500171
O O9 0.496280 0.136773 0.374390
O O10 0.625593 0.301824 0.252371
O O11 0.445862 0.844804 0.230399
O O12 0.301878 0.995506 0.457311
O O13 0.539584 0.783905 0.866246
O O14 0.842866 0.638332 0.543401
O O15 0.343779 0.578297 0.040647
O O16 0.257319 0.698427 0.321809
#
# Coordination Sequence:
#
# PCOD8046226 Si02
#       8
#     2   2   2   2   2   2   2   2
#     4  12  25  45  67 103 140 189 237 278 353 426
#     4  10  21  39  67 104 137 172 227 295 344 410
#     4  12  26  44  69 105 142 186 234 293 347 425
#     4  10  23  43  72 100 137 188 233 285 346 438
#     4  11  22  41  69 101 136 179 232 281 353 406
#     4  11  25  43  70 108 140 183 237 294 348 425
#     4  11  23  39  71 111 139 170 237 299 352 404
#     4  11  23  42  75 102 135 181 237 289 345 418
#
# _framework density 23.443891000000001
#
# number of rings (size 3 to 8) (size 9 to 14) (size 15 to 20)
#    0.000    1.000    3.750    3.750    7.000    0.000 
#    0.000    1.250    2.750    0.000    0.000    0.000 
#    0.000    0.000    0.000    0.000    0.000    0.000 
#
# Total GULP energy -198404.275847 kJ/mol
# GULP energy per Si atom -12400.267240 kJ/mol
# Density = 2.339053 g / cm^3
# Si number density = 23.443891 Si / 1000 Ang^3
#
#
#
# Elastic Constant Matrix: (Units=GPa)
#
#
# Indices 1 2 3 4 5 6 
#
# 1 77.3459 16.0650 3.7877 0.0000 -26.5144 0.0000
# 2 16.0650 63.9497 -8.9217 0.0000 -13.9335 0.0000
# 3 3.7877 -8.9217 79.8418 0.0000 -17.7448 0.0000
# 4 0.0000 0.0000 0.0000 31.9424 0.0000 -6.4139
# 5 -26.5144 -13.9335 -17.7448 0.0000 44.8908 0.0000
# 6 0.0000 0.0000 0.0000 -6.4139 0.0000 27.3369
#
#
#
# Elastic Compliance Matrix: (Units=1/GPa)
#
#
# Indices 1 2 3 4 5 6 
#
# 1 0.016577 -0.001901 0.001147 0.000000 0.009655 0.000000
# 2 -0.001901 0.017834 0.003359 0.000000 0.005740 0.000000
# 3 0.001147 0.003359 0.014502 0.000000 0.007452 0.000000
# 4 0.000000 0.000000 0.000000 0.032854 0.000000 0.007708
# 5 0.009655 0.005740 0.007452 0.000000 0.032706 0.000000
# 6 0.000000 0.000000 0.000000 0.007708 0.000000 0.038389
#
#
# Mechanical properties :
#
#
# Convention : Reuss Voigt Hill
#
# Bulk Modulus (GPa) = 18.47644 26.99993 22.73818
# Shear Modulus (GPa) = 30.17606 34.84776 32.51191
#
# Velocity S-wave (km/s) = 3.59159 3.85961 3.72801
# Velocity P-wave (km/s) = 5.00975 5.60392 5.31515
#
# Compressibility (1/GPa) = 0.05412299
#
# Stress axis : x y z
#
# Youngs Moduli (GPa) = 60.32383 56.07224 68.95615
#
# Poissons Ratio (x) = 0.10658 -0.07908
# Poissons Ratio (y) = 0.11467 -0.23161
# Poissons Ratio (z) = -0.06918 -0.18834
#
# Static dielectric constant tensor:
#      x y z
#    x 4.141240 0.000000 -0.201890 
#    y 0.000000 4.147800 0.000000 
#    z -0.201890 0.000000 4.226360 
# 
# 
# High freq. dielectric constant tensor:
#      x y z
#    x 1.914660 0.000000 -0.017970 
#    y 0.000000 1.919070 0.000000 
#    z -0.017970 0.000000 1.942150 
# 
# From -- ./inp_files/6922.got.cif
#   From: 2010.03.12/outbox.cif.g09.slc.cpg/sg4_4_cif.got.tgz:6922.got - 2010.03.31 09:31:35.
