data_PCOD8046836
_publ_section_title
;
Structure prediction by ZEFSAII (Michael W. Deem and Ramdas Pophale) SiO2 
 PCOD8046836
Probable space group: P 21
;
_chemical_formula_sum "Si O2"
_cell_formula_units_Z 16
_cell_length_a 6.965209
_cell_length_b 16.126786
_cell_length_c 9.887866
_cell_angle_alpha 90.000000
_cell_angle_beta 43.849989
_cell_angle_gamma 90.000000
_cell_volume 769.440898
_symmetry_space_group_name_H-M "P 21"
_symmetry_group_IT_number 4
_symmetry_cell_setting 'monoclinic'
loop_
_space_group_symop_operation_xyz
x,y,z
-x,1/2+y,-z
loop_
_atom_site_type_symbol
_atom_site_label
_atom_site_fract_x
_atom_site_fract_y
_atom_site_fract_z
Si Si1 0.336838 0.056790 0.364600
Si Si2 0.306400 0.539195 0.572682
Si Si3 0.945167 0.804738 0.768436
Si Si4 0.006207 0.784229 0.433120
Si Si5 0.258741 0.123630 0.129088
Si Si6 0.535067 0.880900 0.172854
Si Si7 0.247363 0.601646 0.318445
Si Si8 0.426794 0.347526 0.546373
O O1 0.510763 0.085334 0.406302
O O2 0.342353 0.127649 0.245650
O O3 0.015440 0.039712 0.572271
O O4 0.480386 0.976510 0.228947
O O5 0.391847 0.581204 0.387816
O O6 0.373013 0.442205 0.531098
O O7 0.981550 0.554848 0.768359
O O8 0.847295 0.713219 0.865167
O O9 0.895010 0.817596 0.634025
O O10 0.262668 0.819819 0.646029
O O11 0.770835 0.872357 0.940121
O O12 0.256797 0.841220 0.254304
O O13 0.118145 0.692283 0.391636
O O14 0.770339 0.787351 0.439089
O O15 0.524909 0.092638 0.912260
O O16 0.627044 0.835710 0.265973
#
# Coordination Sequence:
#
# PCOD8046836 Si02
#       8
#     2   2   2   2   2   2   2   2
#     4  10  23  42  64  91 129 169 213 259 322 385
#     4  10  23  45  64  93 132 168 215 266 315 384
#     4  11  23  42  65  97 130 165 214 271 318 376
#     4  11  21  41  65  95 127 165 210 262 324 376
#     4  11  23  41  63  98 127 164 217 269 318 377
#     4  10  23  43  64  93 132 166 210 268 317 381
#     4  11  23  40  66  96 128 169 212 265 320 374
#     4  10  25  42  67  93 129 172 211 262 324 385
#
# _framework density 20.794322000000001
#
# number of rings (size 3 to 8) (size 9 to 14) (size 15 to 20)
#    0.000    1.500    3.750    1.500    1.750    8.000 
#    2.250    0.000    0.000    0.000    0.000    0.000 
#    0.000    0.000    0.000    0.000    0.000    0.000 
#
# Total GULP energy -198404.417516 kJ/mol
# GULP energy per Si atom -12400.276095 kJ/mol
# Density = 2.074699 g / cm^3
# Si number density = 20.794322 Si / 1000 Ang^3
#
#
#
# Elastic Constant Matrix: (Units=GPa)
#
#
# Indices 1 2 3 4 5 6 
#
# 1 123.4750 8.6887 43.8640 0.0000 2.7809 0.0000
# 2 8.6887 54.0414 5.4524 0.0000 -0.0982 0.0000
# 3 43.8640 5.4524 138.4848 0.0000 -5.8873 0.0000
# 4 0.0000 0.0000 0.0000 36.1906 0.0000 -5.1132
# 5 2.7809 -0.0982 -5.8873 0.0000 16.2282 0.0000
# 6 0.0000 0.0000 0.0000 -5.1132 0.0000 35.0014
#
#
#
# Elastic Compliance Matrix: (Units=1/GPa)
#
#
# Indices 1 2 3 4 5 6 
#
# 1 0.009316 -0.001198 -0.003018 0.000000 -0.002699 0.000000
# 2 -0.001198 0.018733 -0.000350 0.000000 0.000192 0.000000
# 3 -0.003018 -0.000350 0.008341 0.000000 0.003541 0.000000
# 4 0.000000 0.000000 0.000000 0.028214 0.000000 0.004122
# 5 -0.002699 0.000192 0.003541 0.000000 0.063369 0.000000
# 6 0.000000 0.000000 0.000000 0.004122 0.000000 0.029172
#
#
# Mechanical properties :
#
#
# Convention : Reuss Voigt Hill
#
# Bulk Modulus (GPa) = 36.68747 48.00127 42.34437
# Shear Modulus (GPa) = 28.51205 34.68377 31.59791
#
# Velocity S-wave (km/s) = 3.70692 4.08848 3.90236
# Velocity P-wave (km/s) = 6.00025 6.73955 6.38061
#
# Compressibility (1/GPa) = 0.02725726
#
# Stress axis : x y z
#
# Youngs Moduli (GPa) = 107.34021 53.38280 119.88428
#
# Poissons Ratio (x) = 0.06396 0.36186
# Poissons Ratio (y) = 0.12862 0.04194
# Poissons Ratio (z) = 0.32399 0.01868
#
# Static dielectric constant tensor:
#      x y z
#    x 4.066340 0.000000 -0.019230 
#    y 0.000000 3.733680 0.000000 
#    z -0.019230 0.000000 3.822180 
# 
# 
# High freq. dielectric constant tensor:
#      x y z
#    x 1.819320 0.000000 -0.000530 
#    y 0.000000 1.811450 0.000000 
#    z -0.000530 0.000000 1.812440 
# 
# From -- ./inp_files/4957.got.cif
#   From: 2010.03.12/outbox.cif.g09.slc.cpg/sg4_3_cif.got.tgz:4957.got - 2010.03.31 09:31:35.
