data_PCOD8046086
_publ_section_title
;
Structure prediction by ZEFSAII (Michael W. Deem and Ramdas Pophale) SiO2 
 PCOD8046086
Probable space group: P 21
;
_chemical_formula_sum "Si O2"
_cell_formula_units_Z 16
_cell_length_a 8.311627
_cell_length_b 12.957901
_cell_length_c 9.672083
_cell_angle_alpha 90.000000
_cell_angle_beta 45.024231
_cell_angle_gamma 90.000000
_cell_volume 736.901278
_symmetry_space_group_name_H-M "P 21"
_symmetry_group_IT_number 4
_symmetry_cell_setting 'monoclinic'
loop_
_space_group_symop_operation_xyz
x,y,z
-x,1/2+y,-z
loop_
_atom_site_type_symbol
_atom_site_label
_atom_site_fract_x
_atom_site_fract_y
_atom_site_fract_z
Si Si1 0.026324 0.889420 0.149996
Si Si2 0.493484 0.387402 0.578948
Si Si3 0.482871 0.255396 0.842458
Si Si4 0.973189 0.243185 0.604728
Si Si5 0.209225 0.775081 0.786850
Si Si6 0.092679 0.098121 0.996405
Si Si7 0.875267 0.851468 0.760770
Si Si8 0.117776 0.044328 0.664580
O O1 0.772227 0.907460 0.249501
O O2 0.027521 0.847714 0.304058
O O3 0.163362 0.809030 0.971770
O O4 0.141577 0.002038 0.068418
O O5 0.573921 0.331425 0.669036
O O6 0.540393 0.309927 0.417960
O O7 0.629362 0.495265 0.491643
O O8 0.713780 0.200597 0.753874
O O9 0.305021 0.174902 0.885802
O O10 0.376265 0.323061 0.032403
O O11 0.078363 0.275198 0.394449
O O12 0.125976 0.153303 0.579102
O O13 0.049573 0.838244 0.780628
O O14 0.143584 0.654477 0.814640
O O15 0.058889 0.063055 0.860246
O O16 0.923455 0.973475 0.705144
#
# Coordination Sequence:
#
# PCOD8046086 Si02
#       8
#     2   2   2   2   2   2   2   2
#     4  12  24  43  70 105 136 172 241 288 328 421
#     4  11  21  45  73  93 135 188 228 280 345 407
#     4  11  23  45  68  95 143 183 222 284 353 406
#     4  12  26  44  67 105 143 174 228 297 346 419
#     4  10  20  42  69  95 136 177 226 280 335 407
#     4  11  22  44  72 101 134 187 233 284 341 416
#     4  10  22  45  65  96 143 177 222 286 346 404
#     4  11  22  44  72 100 138 184 236 281 346 410
#
# _framework density 21.712543
#
# number of rings (size 3 to 8) (size 9 to 14) (size 15 to 20)
#    0.000    1.000    8.750    0.000    0.000    6.000 
#    6.750    0.000    0.000    0.000    0.000    0.000 
#    0.000    0.000    0.000    0.000    0.000    0.000 
#
# Total GULP energy -198328.163433 kJ/mol
# GULP energy per Si atom -12395.510215 kJ/mol
# Density = 2.166312 g / cm^3
# Si number density = 21.712543 Si / 1000 Ang^3
#
#
#
# Elastic Constant Matrix: (Units=GPa)
#
#
# Indices 1 2 3 4 5 6 
#
# 1 44.3373 18.8183 18.5099 0.0000 1.8486 0.0000
# 2 18.8183 115.6057 32.1026 0.0000 4.3696 0.0000
# 3 18.5099 32.1026 109.6954 0.0000 -0.1518 0.0000
# 4 0.0000 0.0000 0.0000 37.8589 0.0000 7.0170
# 5 1.8486 4.3696 -0.1518 0.0000 17.9141 0.0000
# 6 0.0000 0.0000 0.0000 7.0170 0.0000 31.4795
#
#
#
# Elastic Compliance Matrix: (Units=1/GPa)
#
#
# Indices 1 2 3 4 5 6 
#
# 1 0.025364 -0.003122 -0.003369 0.000000 -0.001884 0.000000
# 2 -0.003122 0.009897 -0.002372 0.000000 -0.002112 0.000000
# 3 -0.003369 -0.002372 0.010380 0.000000 0.001014 0.000000
# 4 0.000000 0.000000 0.000000 0.027552 0.000000 -0.006142
# 5 -0.001884 -0.002112 0.001014 0.000000 0.056540 0.000000
# 6 0.000000 0.000000 0.000000 -0.006142 0.000000 0.033136
#
#
# Mechanical properties :
#
#
# Convention : Reuss Voigt Hill
#
# Bulk Modulus (GPa) = 35.82323 45.38890 40.60606
# Shear Modulus (GPa) = 26.32943 30.79768 28.56355
#
# Velocity S-wave (km/s) = 3.48607 3.77029 3.63096
# Velocity P-wave (km/s) = 5.72174 6.31690 6.02667
#
# Compressibility (1/GPa) = 0.02791485
#
# Stress axis : x y z
#
# Youngs Moduli (GPa) = 39.42518 101.04118 96.33604
#
# Poissons Ratio (x) = 0.31546 0.32455
# Poissons Ratio (y) = 0.12309 0.22855
# Poissons Ratio (z) = 0.13282 0.23972
#
# Static dielectric constant tensor:
#      x y z
#    x 3.627020 0.000000 -0.074370 
#    y 0.000000 4.093380 0.000000 
#    z -0.074370 0.000000 4.152130 
# 
# 
# High freq. dielectric constant tensor:
#      x y z
#    x 1.828660 0.000000 -0.000100 
#    y 0.000000 1.854780 0.000000 
#    z -0.000100 0.000000 1.865150 
# 
# From -- ./inp_files/6403.got.cif
#   From: 2010.03.12/outbox.cif.g09.slc.cpg/sg4_4_cif.got.tgz:6403.got - 2010.03.31 09:31:35.
