data_PCOD8046993
_publ_section_title
;
Structure prediction by ZEFSAII (Michael W. Deem and Ramdas Pophale) SiO2 
 PCOD8046993
Probable space group: P 21
;
_chemical_formula_sum "Si O2"
_cell_formula_units_Z 16
_cell_length_a 7.630630
_cell_length_b 6.802941
_cell_length_c 14.957205
_cell_angle_alpha 90.000000
_cell_angle_beta 66.529702
_cell_angle_gamma 90.000000
_cell_volume 712.201945
_symmetry_space_group_name_H-M "P 21"
_symmetry_group_IT_number 4
_symmetry_cell_setting 'monoclinic'
loop_
_space_group_symop_operation_xyz
x,y,z
-x,1/2+y,-z
loop_
_atom_site_type_symbol
_atom_site_label
_atom_site_fract_x
_atom_site_fract_y
_atom_site_fract_z
Si Si1 0.855243 0.417370 0.109390
Si Si2 0.335075 0.120964 0.563480
Si Si3 0.250675 0.572811 0.984236
Si Si4 0.927616 0.313638 0.289009
Si Si5 0.397480 0.280216 0.819914
Si Si6 0.235903 0.614176 0.192094
Si Si7 0.018187 0.894468 0.345356
Si Si8 0.603271 0.381197 0.614849
O O1 0.730761 0.285767 0.067203
O O2 0.885714 0.285504 0.191850
O O3 0.779400 0.632398 0.154175
O O4 0.045743 0.469880 0.016221
O O5 0.526980 0.188701 0.576560
O O6 0.176649 0.290361 0.585093
O O7 0.245337 0.930868 0.629994
O O8 0.400852 0.066723 0.450074
O O9 0.393806 0.421653 0.906741
O O10 0.302365 0.597937 0.076534
O O11 0.128999 0.425963 0.252927
O O12 0.963510 0.117506 0.337140
O O13 0.574210 0.131159 0.789143
O O14 0.438509 0.414898 0.724252
O O15 0.097700 0.802526 0.236168
O O16 0.181872 0.862237 0.388318
#
# Coordination Sequence:
#
# PCOD8046993 Si02
#       8
#     2   2   2   2   2   2   2   2
#     4  11  23  39  69  96 136 180 237 284 356 416
#     4  11  26  46  72 106 143 185 241 296 364 447
#     4  11  24  38  66  97 132 187 226 289 345 424
#     4  10  23  46  73  97 135 188 232 297 361 426
#     4  11  24  46  63 100 144 177 236 299 349 433
#     4   9  24  44  65 100 139 180 238 289 361 425
#     4  10  25  48  75 101 146 186 238 305 361 434
#     4  11  27  49  71 107 145 185 238 303 365 427
#
# _framework density 22.465541000000002
#
# number of rings (size 3 to 8) (size 9 to 14) (size 15 to 20)
#    0.000    1.500    2.500    0.000    8.750    2.000 
#    6.750    0.000    0.000    0.000    0.000    0.000 
#    0.000    0.000    0.000    0.000    0.000    0.000 
#
# Total GULP energy -198305.729637 kJ/mol
# GULP energy per Si atom -12394.108102 kJ/mol
# Density = 2.241441 g / cm^3
# Si number density = 22.465541 Si / 1000 Ang^3
#
#
#
# Elastic Constant Matrix: (Units=GPa)
#
#
# Indices 1 2 3 4 5 6 
#
# 1 71.0699 46.0863 41.6562 0.0000 6.7220 0.0000
# 2 46.0863 126.1644 67.5223 0.0000 3.6946 0.0000
# 3 41.6562 67.5223 137.6880 0.0000 8.4000 0.0000
# 4 0.0000 0.0000 0.0000 42.0055 0.0000 5.8875
# 5 6.7220 3.6946 8.4000 0.0000 24.0527 0.0000
# 6 0.0000 0.0000 0.0000 5.8875 0.0000 34.1014
#
#
#
# Elastic Compliance Matrix: (Units=1/GPa)
#
#
# Indices 1 2 3 4 5 6 
#
# 1 0.019760 -0.005465 -0.003078 0.000000 -0.003608 0.000000
# 2 -0.005465 0.012259 -0.004431 0.000000 0.001192 0.000000
# 3 -0.003078 -0.004431 0.010497 0.000000 -0.002125 0.000000
# 4 0.000000 0.000000 0.000000 0.024397 0.000000 -0.004212
# 5 -0.003608 0.001192 -0.002125 0.000000 0.043143 0.000000
# 6 0.000000 0.000000 0.000000 -0.004212 0.000000 0.030052
#
#
# Mechanical properties :
#
#
# Convention : Reuss Voigt Hill
#
# Bulk Modulus (GPa) = 60.36007 71.71687 66.03847
# Shear Modulus (GPa) = 29.14133 32.00908 30.57520
#
# Velocity S-wave (km/s) = 3.60551 3.77876 3.69315
# Velocity P-wave (km/s) = 6.65275 7.14360 6.90254
#
# Compressibility (1/GPa) = 0.01656724
#
# Stress axis : x y z
#
# Youngs Moduli (GPa) = 50.60752 81.57186 95.26802
#
# Poissons Ratio (x) = 0.44580 0.29323
# Poissons Ratio (y) = 0.27657 0.42215
# Poissons Ratio (z) = 0.15577 0.36146
#
# Static dielectric constant tensor:
#      x y z
#    x 3.944480 0.000000 -0.089100 
#    y 0.000000 3.895190 0.000000 
#    z -0.089100 0.000000 4.314940 
# 
# 
# High freq. dielectric constant tensor:
#      x y z
#    x 1.879370 0.000000 -0.005790 
#    y 0.000000 1.878040 0.000000 
#    z -0.005790 0.000000 1.900270 
# 
# From -- ./inp_files/9803.got.cif
#   From: 2010.03.12/outbox.cif.g09.slc.cpg/sg4_5_cif.got.tgz:9803.got - 2010.03.31 09:31:35.
