data_PCOD8046389
_publ_section_title
;
Structure prediction by ZEFSAII (Michael W. Deem and Ramdas Pophale) SiO2 
 PCOD8046389
Probable space group: P 21
;
_chemical_formula_sum "Si O2"
_cell_formula_units_Z 12
_cell_length_a 11.308512
_cell_length_b 9.020524
_cell_length_c 8.680960
_cell_angle_alpha 90.000000
_cell_angle_beta 137.551066
_cell_angle_gamma 90.000000
_cell_volume 597.675613
_symmetry_space_group_name_H-M "P 21"
_symmetry_group_IT_number 4
_symmetry_cell_setting 'monoclinic'
loop_
_space_group_symop_operation_xyz
x,y,z
-x,1/2+y,-z
loop_
_atom_site_type_symbol
_atom_site_label
_atom_site_fract_x
_atom_site_fract_y
_atom_site_fract_z
Si Si1 0.654846 0.324760 0.841122
Si Si2 0.000037 0.487218 0.167477
Si Si3 0.666065 0.007314 0.986644
Si Si4 0.478358 0.788477 0.615906
Si Si5 0.866548 0.803122 0.987052
Si Si6 0.344923 0.504875 0.666561
O O1 0.635920 0.340798 0.638765
O O2 0.480194 0.373718 0.762041
O O3 0.815643 0.426238 0.053501
O O4 0.695454 0.156198 0.919960
O O5 0.042937 0.409568 0.048340
O O6 0.150372 0.450713 0.436127
O O7 0.991469 0.664597 0.139289
O O8 0.646783 0.043661 0.146307
O O9 0.492136 0.924045 0.752312
O O10 0.833584 0.900108 0.111684
O O11 0.674753 0.747093 0.743749
O O12 0.391395 0.647668 0.611163
#
# Coordination Sequence:
#
# PCOD8046389 Si02
#       6
#     2   2   2   2   2   2
#     4  12  22  42  70  95 126 172 222 260 319 380
#     4  12  24  40  70  93 129 168 215 271 315 380
#     4  10  24  40  66  95 131 172 213 262 331 379
#     4  10  21  43  65  93 126 167 218 264 305 385
#     4  10  22  42  63  99 122 168 220 258 316 378
#     4  12  23  43  64  95 134 171 208 269 328 376
#
# _framework density 20.077781000000002
#
# number of rings (size 3 to 8) (size 9 to 14) (size 15 to 20)
#    1.000    0.000    3.333    5.000    0.000    1.333 
#    0.000    1.667    0.000    0.000    0.000    0.000 
#    0.000    0.000    0.000    0.000    0.000    0.000 
#
# Total GULP energy -148783.229056 kJ/mol
# GULP energy per Si atom -12398.602421 kJ/mol
# Density = 2.003208 g / cm^3
# Si number density = 20.077781 Si / 1000 Ang^3
#
#
#
# Elastic Constant Matrix: (Units=GPa)
#
#
# Indices 1 2 3 4 5 6 
#
# 1 69.0020 28.3721 52.7993 0.0000 -0.7279 0.0000
# 2 28.3721 103.3301 29.0702 0.0000 9.2249 0.0000
# 3 52.7993 29.0702 98.8932 0.0000 12.0329 0.0000
# 4 0.0000 0.0000 0.0000 27.3854 0.0000 2.0506
# 5 -0.7279 9.2249 12.0329 0.0000 30.9751 0.0000
# 6 0.0000 0.0000 0.0000 2.0506 0.0000 29.2446
#
#
#
# Elastic Compliance Matrix: (Units=1/GPa)
#
#
# Indices 1 2 3 4 5 6 
#
# 1 0.027087 -0.004114 -0.014148 0.000000 0.007358 0.000000
# 2 -0.004114 0.011299 -0.000738 0.000000 -0.003175 0.000000
# 3 -0.014148 -0.000738 0.018784 0.000000 -0.007410 0.000000
# 4 0.000000 0.000000 0.000000 0.036709 0.000000 -0.002574
# 5 0.007358 -0.003175 -0.007410 0.000000 0.036281 0.000000
# 6 0.000000 0.000000 0.000000 -0.002574 0.000000 0.034375
#
#
# Mechanical properties :
#
#
# Convention : Reuss Voigt Hill
#
# Bulk Modulus (GPa) = 52.16734 54.63430 53.40082
# Shear Modulus (GPa) = 23.93203 28.25324 26.09264
#
# Velocity S-wave (km/s) = 3.45623 3.75532 3.60888
# Velocity P-wave (km/s) = 6.47815 6.78776 6.63476
#
# Compressibility (1/GPa) = 0.01916908
#
# Stress axis : x y z
#
# Youngs Moduli (GPa) = 36.91759 88.50687 53.23642
#
# Poissons Ratio (x) = 0.36413 0.75318
# Poissons Ratio (y) = 0.15189 0.03931
# Poissons Ratio (z) = 0.52231 0.06535
#
# Static dielectric constant tensor:
#      x y z
#    x 3.535200 0.000000 0.195090 
#    y 0.000000 3.629590 0.000000 
#    z 0.195090 0.000000 3.594490 
# 
# 
# High freq. dielectric constant tensor:
#      x y z
#    x 1.776130 0.000000 0.008890 
#    y 0.000000 1.792770 0.000000 
#    z 0.008890 0.000000 1.772830 
# 
# From -- ./inp_files/5533.got.cif
#   From: 2010.03.12/outbox.cif.g09.slc.cpg/sg4_3_cif.got.tgz:5533.got - 2010.03.31 09:31:35.
