data_PCOD8046808
_publ_section_title
;
Structure prediction by ZEFSAII (Michael W. Deem and Ramdas Pophale) SiO2 
 PCOD8046808
Probable space group: P 21
;
_chemical_formula_sum "Si O2"
_cell_formula_units_Z 16
_cell_length_a 9.600280
_cell_length_b 9.949956
_cell_length_c 9.840455
_cell_angle_alpha 90.000000
_cell_angle_beta 57.868751
_cell_angle_gamma 90.000000
_cell_volume 796.008098
_symmetry_space_group_name_H-M "P 21"
_symmetry_group_IT_number 4
_symmetry_cell_setting 'monoclinic'
loop_
_space_group_symop_operation_xyz
x,y,z
-x,1/2+y,-z
loop_
_atom_site_type_symbol
_atom_site_label
_atom_site_fract_x
_atom_site_fract_y
_atom_site_fract_z
Si Si1 0.374169 0.532920 0.623461
Si Si2 0.410677 0.737237 0.852362
Si Si3 0.975766 0.393366 0.282600
Si Si4 0.677502 0.480040 0.274366
Si Si5 0.767162 0.101123 0.821385
Si Si6 0.380417 0.270426 0.758178
Si Si7 0.738287 0.211377 0.539733
Si Si8 0.328733 0.319211 0.085013
O O1 0.414175 0.638635 0.722212
O O2 0.544100 0.490173 0.463527
O O3 0.291631 0.399883 0.735546
O O4 0.240593 0.591314 0.583738
O O5 0.389896 0.891208 0.814998
O O6 0.586204 0.730400 0.840938
O O7 0.264747 0.700694 0.034941
O O8 0.044929 0.543091 0.277981
O O9 0.131003 0.294271 0.171680
O O10 0.845781 0.404796 0.228246
O O11 0.877134 0.326017 0.458282
O O12 0.721074 0.632554 0.207763
O O13 0.736271 0.167448 0.694455
O O14 0.640302 0.976821 0.900046
O O15 0.558025 0.264879 0.593862
O O16 0.415331 0.288313 0.898790
#
# Coordination Sequence:
#
# PCOD8046808 Si02
#       8
#     2   2   2   2   2   2   2   2
#     4  11  21  39  72  99 129 181 228 270 325 408
#     4  12  22  42  72  95 130 187 229 267 338 409
#     4  10  23  44  62  97 140 166 219 291 328 385
#     4  11  23  39  67 100 132 175 226 274 331 396
#     4  10  24  41  66  94 141 170 227 273 343 395
#     4  11  21  40  69  96 133 178 227 267 328 405
#     4  11  21  44  66  95 139 176 222 283 330 397
#     4  10  23  41  64 100 134 167 224 275 327 399
#
# _framework density 20.100299
#
# number of rings (size 3 to 8) (size 9 to 14) (size 15 to 20)
#    0.750    0.500    5.000    2.250    0.000    2.000 
#    4.500    0.000    0.000    0.000    0.000    0.000 
#    0.000    0.000    0.000    0.000    0.000    0.000 
#
# Total GULP energy -198214.148229 kJ/mol
# GULP energy per Si atom -12388.384264 kJ/mol
# Density = 2.005455 g / cm^3
# Si number density = 20.100299 Si / 1000 Ang^3
#
#
#
# Elastic Constant Matrix: (Units=GPa)
#
#
# Indices 1 2 3 4 5 6 
#
# 1 89.2168 30.7492 48.8509 0.0000 -1.6977 0.0000
# 2 30.7492 109.5902 63.6483 0.0000 7.3105 0.0000
# 3 48.8509 63.6483 109.2794 0.0000 25.3637 0.0000
# 4 0.0000 0.0000 0.0000 42.5934 0.0000 7.5449
# 5 -1.6977 7.3105 25.3637 0.0000 32.5817 0.0000
# 6 0.0000 0.0000 0.0000 7.5449 0.0000 27.5846
#
#
#
# Elastic Compliance Matrix: (Units=1/GPa)
#
#
# Indices 1 2 3 4 5 6 
#
# 1 0.016397 0.000314 -0.009391 0.000000 0.008095 0.000000
# 2 0.000314 0.014204 -0.009370 0.000000 0.004124 0.000000
# 3 -0.009391 -0.009370 0.022497 0.000000 -0.015900 0.000000
# 4 0.000000 0.000000 0.000000 0.024673 0.000000 -0.006749
# 5 0.008095 0.004124 -0.015900 0.000000 0.042566 0.000000
# 6 0.000000 0.000000 0.000000 -0.006749 0.000000 0.038098
#
#
# Mechanical properties :
#
#
# Convention : Reuss Voigt Hill
#
# Bulk Modulus (GPa) = 61.72087 66.06480 63.89284
# Shear Modulus (GPa) = 24.90891 31.54113 28.22502
#
# Velocity S-wave (km/s) = 3.52409 3.96559 3.75134
# Velocity P-wave (km/s) = 6.87983 7.34213 7.11473
#
# Compressibility (1/GPa) = 0.01620197
#
# Stress axis : x y z
#
# Youngs Moduli (GPa) = 60.98734 70.40342 44.45047
#
# Poissons Ratio (x) = -0.02208 0.41745
# Poissons Ratio (y) = -0.01913 0.41651
# Poissons Ratio (z) = 0.57275 0.65969
#
# Static dielectric constant tensor:
#      x y z
#    x 3.475870 0.000000 0.004020 
#    y 0.000000 3.881180 0.000000 
#    z 0.004020 0.000000 3.594990 
# 
# 
# High freq. dielectric constant tensor:
#      x y z
#    x 1.764310 0.000000 0.016730 
#    y 0.000000 1.787770 0.000000 
#    z 0.016730 0.000000 1.782130 
# 
# From -- ./inp_files/6413.got.cif
#   From: 2010.03.12/outbox.cif.g09.slc.cpg/sg4_4_cif.got.tgz:6413.got - 2010.03.31 09:31:35.
