data_PCOD8046736
_publ_section_title
;
Structure prediction by ZEFSAII (Michael W. Deem and Ramdas Pophale) SiO2 
 PCOD8046736
Probable space group: P 21
;
_chemical_formula_sum "Si O2"
_cell_formula_units_Z 14
_cell_length_a 8.447732
_cell_length_b 8.553338
_cell_length_c 10.741388
_cell_angle_alpha 90.000000
_cell_angle_beta 130.969107
_cell_angle_gamma 90.000000
_cell_volume 586.029495
_symmetry_space_group_name_H-M "P 21"
_symmetry_group_IT_number 4
_symmetry_cell_setting 'monoclinic'
loop_
_space_group_symop_operation_xyz
x,y,z
-x,1/2+y,-z
loop_
_atom_site_type_symbol
_atom_site_label
_atom_site_fract_x
_atom_site_fract_y
_atom_site_fract_z
Si Si1 0.827213 0.161240 0.880610
Si Si2 0.039810 0.792052 0.431028
Si Si3 0.192858 0.484910 0.373618
Si Si4 0.586876 0.850915 0.298331
Si Si5 0.447874 0.549795 0.946981
Si Si6 0.065167 0.427011 0.867522
Si Si7 0.779435 0.362264 0.221142
O O1 0.611583 0.236393 0.818524
O O2 0.996898 0.278547 0.912013
O O3 0.750679 0.037741 0.736116
O O4 0.960253 0.080537 0.060037
O O5 0.107508 0.623217 0.417888
O O6 0.201259 0.846959 0.620373
O O7 0.805703 0.774910 0.366567
O O8 0.058018 0.922227 0.329049
O O9 0.393161 0.407278 0.546693
O O10 0.006105 0.357216 0.271620
O O11 0.539594 0.003737 0.191291
O O12 0.308830 0.422744 0.953400
O O13 0.356253 0.723468 0.911331
O O14 0.673948 0.529351 0.129240
#
# Coordination Sequence:
#
# PCOD8046736 Si02
#       7
#     2   2   2   2   2   2   2
#     4  11  25  46  69 104 145 189 229 288 358 431
#     4   9  21  48  72 103 133 181 242 299 340 410
#     4  10  23  46  68 103 139 188 226 297 349 424
#     4  10  22  45  71 100 139 180 241 286 350 415
#     4  11  24  42  73 109 133 185 236 293 345 411
#     4  10  25  44  70 102 142 186 233 283 361 407
#     4  11  24  41  77 103 141 175 239 296 349 406
#
# _framework density 23.889583999999999
#
# number of rings (size 3 to 8) (size 9 to 14) (size 15 to 20)
#    0.000    1.714    1.429    0.857   12.000    0.000 
#   10.286    0.000    0.000    0.000    0.000    0.000 
#    0.000    0.000    0.000    0.000    0.000    0.000 
#
# Total GULP energy -173486.122553 kJ/mol
# GULP energy per Si atom -12391.865897 kJ/mol
# Density = 2.383521 g / cm^3
# Si number density = 23.889584 Si / 1000 Ang^3
#
#
#
# Elastic Constant Matrix: (Units=GPa)
#
#
# Indices 1 2 3 4 5 6 
#
# 1 72.2404 27.0764 34.9773 0.0000 -21.2198 0.0000
# 2 27.0764 84.5345 57.5730 0.0000 -8.4563 0.0000
# 3 34.9773 57.5730 113.8851 0.0000 -6.3527 0.0000
# 4 0.0000 0.0000 0.0000 47.4922 0.0000 -3.4063
# 5 -21.2198 -8.4563 -6.3527 0.0000 26.4850 0.0000
# 6 0.0000 0.0000 0.0000 -3.4063 0.0000 35.9546
#
#
#
# Elastic Compliance Matrix: (Units=1/GPa)
#
#
# Indices 1 2 3 4 5 6 
#
# 1 0.021401 -0.002175 -0.004617 0.000000 0.015344 0.000000
# 2 -0.002175 0.018611 -0.008622 0.000000 0.002132 0.000000
# 3 -0.004617 -0.008622 0.014390 0.000000 -0.003001 0.000000
# 4 0.000000 0.000000 0.000000 0.021200 0.000000 0.002008
# 5 0.015344 0.002132 -0.003001 0.000000 0.050012 0.000000
# 6 0.000000 0.000000 0.000000 0.002008 0.000000 0.028003
#
#
# Mechanical properties :
#
#
# Convention : Reuss Voigt Hill
#
# Bulk Modulus (GPa) = 42.41963 56.65705 49.53834
# Shear Modulus (GPa) = 26.00055 32.05526 29.02790
#
# Velocity S-wave (km/s) = 3.30261 3.66705 3.48959
# Velocity P-wave (km/s) = 5.68666 6.45735 6.08422
#
# Compressibility (1/GPa) = 0.02357399
#
# Stress axis : x y z
#
# Youngs Moduli (GPa) = 46.72737 53.73073 69.49222
#
# Poissons Ratio (x) = 0.11687 0.32086
# Poissons Ratio (y) = 0.10163 0.59915
# Poissons Ratio (z) = 0.21575 0.46325
#
# Static dielectric constant tensor:
#      x y z
#    x 4.191760 0.000000 -0.237570 
#    y 0.000000 4.156880 0.000000 
#    z -0.237570 0.000000 4.561480 
# 
# 
# High freq. dielectric constant tensor:
#      x y z
#    x 1.931730 0.000000 -0.018070 
#    y 0.000000 1.934720 0.000000 
#    z -0.018070 0.000000 1.963350 
# 
# From -- ./inp_files/10999.got.cif
#   From: 2010.03.12/outbox.cif.g09.slc.cpg/sg4_6_cif.got.tgz:10999.got - 2010.03.31 09:31:35.
