data_PCOD8046284
_publ_section_title
;
Structure prediction by ZEFSAII (Michael W. Deem and Ramdas Pophale) SiO2 
 PCOD8046284
Probable space group: P 21
;
_chemical_formula_sum "Si O2"
_cell_formula_units_Z 16
_cell_length_a 8.684698
_cell_length_b 5.481272
_cell_length_c 17.691859
_cell_angle_alpha 90.000000
_cell_angle_beta 119.398647
_cell_angle_gamma 90.000000
_cell_volume 733.736417
_symmetry_space_group_name_H-M "P 21"
_symmetry_group_IT_number 4
_symmetry_cell_setting 'monoclinic'
loop_
_space_group_symop_operation_xyz
x,y,z
-x,1/2+y,-z
loop_
_atom_site_type_symbol
_atom_site_label
_atom_site_fract_x
_atom_site_fract_y
_atom_site_fract_z
Si Si1 0.292942 0.925930 0.292940
Si Si2 0.744371 0.925929 0.244369
Si Si3 0.053395 0.925926 0.553396
Si Si4 0.580845 0.131745 0.819264
Si Si5 0.909659 0.175929 1.000000
Si Si6 0.934941 0.100306 0.677223
Si Si7 0.580498 0.251554 0.322776
Si Si8 0.057676 0.720115 0.819263
O O1 0.356607 0.813795 0.230238
O O2 0.258763 0.723664 0.351517
O O3 0.444268 0.128204 0.351515
O O4 0.103872 0.038055 0.230235
O O5 0.596529 0.731508 0.183326
O O6 0.928655 0.808646 0.311757
O O7 0.694858 0.043207 0.311757
O O8 0.770131 0.120356 0.183329
O O9 0.270421 0.936201 0.608745
O O10 0.001082 0.675922 0.500002
O O11 0.947064 0.915656 0.608745
O O12 0.724474 0.098824 0.918810
O O13 0.543080 0.873251 0.770894
O O14 0.886859 0.253047 0.081191
O O15 0.976393 0.425925 0.976389
O O16 0.998695 0.978606 0.770892
#
# Coordination Sequence:
#
# PCOD8046284 Si02
#       8
#     2   2   2   2   2   2   2   2
#     4  10  22  38  74 100 134 190 234 282 354 438
#     4  10  21  40  67 100 132 182 238 285 350 439
#     4  12  27  46  77 108 140 188 238 303 370 443
#     4  11  22  42  68  99 141 190 237 293 357 422
#     4  12  26  44  64 102 144 192 248 302 350 414
#     4  11  22  44  72 103 137 186 237 294 363 442
#     4  11  22  44  72 103 137 186 237 294 363 442
#     4  11  22  42  68  99 141 190 237 293 357 422
#
# _framework density 21.806191999999999
#
# number of rings (size 3 to 8) (size 9 to 14) (size 15 to 20)
#    0.000    1.000    3.750    3.000    7.000    0.000 
#    4.500    0.000    5.500    0.000    0.000    0.000 
#    0.000    0.000    0.000    0.000    0.000    0.000 
#
# Total GULP energy -198261.394786 kJ/mol
# GULP energy per Si atom -12391.337174 kJ/mol
# Density = 2.175656 g / cm^3
# Si number density = 21.806192 Si / 1000 Ang^3
#
#
#
# Elastic Constant Matrix: (Units=GPa)
#
#
# Indices 1 2 3 4 5 6 
#
# 1 119.5574 39.6225 32.3820 0.0000 0.0007 0.0000
# 2 39.6225 115.8203 34.7731 0.0000 0.0005 0.0000
# 3 32.3820 34.7731 100.0885 0.0000 0.0005 0.0000
# 4 0.0000 0.0000 0.0000 31.8572 0.0000 -0.0010
# 5 0.0007 0.0005 0.0005 0.0000 21.5018 0.0000
# 6 0.0000 0.0000 0.0000 -0.0010 0.0000 47.8782
#
#
#
# Elastic Compliance Matrix: (Units=1/GPa)
#
#
# Indices 1 2 3 4 5 6 
#
# 1 0.009870 -0.002699 -0.002255 0.000000 0.000000 0.000000
# 2 -0.002699 0.010378 -0.002732 0.000000 0.000000 0.000000
# 3 -0.002255 -0.002732 0.011670 0.000000 0.000000 0.000000
# 4 0.000000 0.000000 0.000000 0.031390 0.000000 0.000001
# 5 0.000000 0.000000 0.000000 0.000000 0.046508 0.000000
# 6 0.000000 0.000000 0.000000 0.000001 0.000000 0.020886
#
#
# Mechanical properties :
#
#
# Convention : Reuss Voigt Hill
#
# Bulk Modulus (GPa) = 60.44553 61.00237 60.72395
# Shear Modulus (GPa) = 32.98373 35.49335 34.23854
#
# Velocity S-wave (km/s) = 3.89342 4.03882 3.96678
# Velocity P-wave (km/s) = 6.92757 7.05584 6.99200
#
# Compressibility (1/GPa) = 0.01654382
#
# Stress axis : x y z
#
# Youngs Moduli (GPa) = 101.32104 96.35960 85.68940
#
# Poissons Ratio (x) = 0.26010 0.19326
# Poissons Ratio (y) = 0.27350 0.23412
# Poissons Ratio (z) = 0.22851 0.26327
#
# Static dielectric constant tensor:
#      x y z
#    x 4.687390 0.000000 0.000040 
#    y 0.000000 4.279500 0.000000 
#    z 0.000040 0.000000 3.771510 
# 
# 
# High freq. dielectric constant tensor:
#      x y z
#    x 1.868770 0.000000 0.000000 
#    y 0.000000 1.876790 0.000000 
#    z 0.000000 0.000000 1.821030 
# 
# From -- ./inp_files/8826.got.cif
#   From: 2010.03.12/outbox.cif.g09.slc.cpg/sg4_5_cif.got.tgz:8826.got - 2010.03.31 09:31:35.
