data_PCOD8046797
_publ_section_title
;
Structure prediction by ZEFSAII (Michael W. Deem and Ramdas Pophale) SiO2 
 PCOD8046797
Probable space group: P 21
;
_chemical_formula_sum "Si O2"
_cell_formula_units_Z 16
_cell_length_a 10.022368
_cell_length_b 8.416958
_cell_length_c 9.913723
_cell_angle_alpha 90.000000
_cell_angle_beta 119.077349
_cell_angle_gamma 90.000000
_cell_volume 730.896762
_symmetry_space_group_name_H-M "P 21"
_symmetry_group_IT_number 4
_symmetry_cell_setting 'monoclinic'
loop_
_space_group_symop_operation_xyz
x,y,z
-x,1/2+y,-z
loop_
_atom_site_type_symbol
_atom_site_label
_atom_site_fract_x
_atom_site_fract_y
_atom_site_fract_z
Si Si1 0.556680 0.827290 0.951711
Si Si2 0.913492 0.128922 0.555918
Si Si3 0.406405 0.134032 0.549424
Si Si4 0.044391 0.626119 0.936935
Si Si5 0.584208 0.265104 0.397440
Si Si6 0.899391 0.766898 0.116586
Si Si7 0.387251 0.682212 0.103507
Si Si8 0.921063 0.761087 0.608124
O O1 0.467155 0.751189 0.782256
O O2 0.578510 0.012774 0.943699
O O3 0.457219 0.812139 0.037787
O O4 0.719352 0.741483 0.049698
O O5 0.736558 0.163861 0.494440
O O6 0.017457 0.239856 0.700865
O O7 0.956693 0.166935 0.422877
O O8 0.948246 0.947188 0.605051
O O9 0.450070 0.188266 0.420653
O O10 0.538878 0.196529 0.712950
O O11 0.249485 0.214839 0.519233
O O12 0.386716 0.945412 0.543972
O O13 0.062363 0.441424 0.916908
O O14 0.945850 0.712983 0.774617
O O15 0.956790 0.640095 0.035230
O O16 0.207708 0.712171 0.030179
#
# Coordination Sequence:
#
# PCOD8046797 Si02
#       8
#     2   2   2   2   2   2   2   2
#     4  10  23  40  61  89 121 155 199 248 301 364
#     4  12  25  42  63  91 125 165 211 260 311 370
#     4  11  23  41  64  93 125 161 204 254 310 373
#     4  11  23  41  64  93 125 161 204 254 310 373
#     4  11  23  41  64  93 125 161 204 254 310 373
#     4  11  23  41  64  93 125 161 204 254 310 373
#     4  10  23  40  61  89 121 155 199 248 301 364
#     4  12  25  42  63  91 125 165 211 260 311 370
#
# _framework density 21.890917000000002
#
# number of rings (size 3 to 8) (size 9 to 14) (size 15 to 20)
#    0.000    1.000    0.000    6.750    0.000   10.000 
#    0.000    0.000    0.000    0.000    0.000    0.000 
#    0.000    0.000    0.000    0.000    0.000    0.000 
#
# Total GULP energy -198558.375788 kJ/mol
# GULP energy per Si atom -12409.898487 kJ/mol
# Density = 2.184109 g / cm^3
# Si number density = 21.890917 Si / 1000 Ang^3
#
#
#
# Elastic Constant Matrix: (Units=GPa)
#
#
# Indices 1 2 3 4 5 6 
#
# 1 83.3233 8.6283 2.2707 0.0000 7.0348 0.0000
# 2 8.6283 50.7221 7.7510 0.0000 6.7071 0.0000
# 3 2.2707 7.7510 72.1020 0.0000 9.5114 0.0000
# 4 0.0000 0.0000 0.0000 26.9355 0.0000 -5.2784
# 5 7.0348 6.7071 9.5114 0.0000 41.8611 0.0000
# 6 0.0000 0.0000 0.0000 -5.2784 0.0000 35.8599
#
#
#
# Elastic Compliance Matrix: (Units=1/GPa)
#
#
# Indices 1 2 3 4 5 6 
#
# 1 0.012345 -0.001871 0.000048 0.000000 -0.001786 0.000000
# 2 -0.001871 0.020653 -0.001821 0.000000 -0.002581 0.000000
# 3 0.000048 -0.001821 0.014459 0.000000 -0.003002 0.000000
# 4 0.000000 0.000000 0.000000 0.038228 0.000000 0.005627
# 5 -0.001786 -0.002581 -0.003002 0.000000 0.025284 0.000000
# 6 0.000000 0.000000 0.000000 0.005627 0.000000 0.028715
#
#
# Mechanical properties :
#
#
# Convention : Reuss Voigt Hill
#
# Bulk Modulus (GPa) = 24.89473 27.04970 25.97221
# Shear Modulus (GPa) = 31.17944 33.43113 32.30529
#
# Velocity S-wave (km/s) = 3.77810 3.91214 3.84570
# Velocity P-wave (km/s) = 5.51624 5.72624 5.62222
#
# Compressibility (1/GPa) = 0.04016915
#
# Stress axis : x y z
#
# Youngs Moduli (GPa) = 81.00670 48.41885 69.15900
#
# Poissons Ratio (x) = 0.09060 -0.00332
# Poissons Ratio (y) = 0.15157 0.12593
# Poissons Ratio (z) = -0.00388 0.08816
#
# Static dielectric constant tensor:
#      x y z
#    x 4.033900 0.000000 0.047990 
#    y 0.000000 3.850170 0.000000 
#    z 0.047990 0.000000 4.081170 
# 
# 
# High freq. dielectric constant tensor:
#      x y z
#    x 1.872340 0.000000 0.001420 
#    y 0.000000 1.862660 0.000000 
#    z 0.001420 0.000000 1.871740 
# 
# From -- ./inp_files/5420.got.cif
#   From: 2010.03.12/outbox.cif.g09.slc.cpg/sg4_3_cif.got.tgz:5420.got - 2010.03.31 09:31:35.
