data_PCOD8046443
_publ_section_title
;
Structure prediction by ZEFSAII (Michael W. Deem and Ramdas Pophale) SiO2 
 PCOD8046443
Probable space group: P 21
;
_chemical_formula_sum "Si O2"
_cell_formula_units_Z 16
_cell_length_a 11.600064
_cell_length_b 8.780932
_cell_length_c 14.987830
_cell_angle_alpha 90.000000
_cell_angle_beta 151.655324
_cell_angle_gamma 90.000000
_cell_volume 724.815120
_symmetry_space_group_name_H-M "P 21"
_symmetry_group_IT_number 4
_symmetry_cell_setting 'monoclinic'
loop_
_space_group_symop_operation_xyz
x,y,z
-x,1/2+y,-z
loop_
_atom_site_type_symbol
_atom_site_label
_atom_site_fract_x
_atom_site_fract_y
_atom_site_fract_z
Si Si1 0.652472 0.528510 0.497388
Si Si2 0.846066 0.560759 0.256639
Si Si3 0.445164 0.565389 0.835583
Si Si4 0.086615 0.714905 0.719157
Si Si5 0.360103 0.703190 0.594093
Si Si6 0.755524 0.522375 0.769493
Si Si7 0.490642 0.719081 0.140743
Si Si8 0.763699 0.192681 0.852253
O O1 0.618318 0.379263 0.414766
O O2 0.764269 0.488937 0.669993
O O3 0.383677 0.603798 0.326058
O O4 0.823613 0.650742 0.564126
O O5 0.933676 0.387999 0.328673
O O6 0.701892 0.609919 0.247389
O O7 0.077381 0.665396 0.400551
O O8 0.679113 0.589694 0.056721
O O9 0.199302 0.613121 0.717721
O O10 0.480921 0.669960 0.772755
O O11 0.409230 0.390366 0.784709
O O12 0.253337 0.709951 0.919004
O O13 0.499688 0.601616 0.616289
O O14 0.789390 0.368698 0.847325
O O15 0.968335 0.632709 0.947277
O O16 0.410697 0.661834 0.182394
#
# Coordination Sequence:
#
# PCOD8046443 Si02
#       8
#     2   2   2   2   2   2   2   2
#     4  12  27  45  70 104 143 185 236 291 348 415
#     4  10  24  41  72 103 140 182 222 290 351 416
#     4  10  23  42  67 103 141 177 227 282 348 419
#     4  10  22  43  70 105 145 178 222 294 349 419
#     4  12  26  43  71 102 136 190 230 282 352 423
#     4  12  27  51  69 105 138 184 245 289 350 413
#     4  10  21  46  69 102 141 182 229 282 353 412
#     4  12  26  47  76  96 140 188 231 296 345 417
#
# _framework density 22.074596
#
# number of rings (size 3 to 8) (size 9 to 14) (size 15 to 20)
#    0.000    1.000    2.500    3.000    3.500    4.000 
#    0.000    0.000    0.000    0.000    0.000    0.000 
#    0.000    0.000    0.000    0.000    0.000    0.000 
#
# Total GULP energy -198477.336826 kJ/mol
# GULP energy per Si atom -12404.833552 kJ/mol
# Density = 2.202435 g / cm^3
# Si number density = 22.074596 Si / 1000 Ang^3
#
#
#
# Elastic Constant Matrix: (Units=GPa)
#
#
# Indices 1 2 3 4 5 6 
#
# 1 100.4003 38.7727 27.4632 0.0000 0.4466 0.0000
# 2 38.7727 128.2085 32.7734 0.0000 -3.9225 0.0000
# 3 27.4632 32.7734 81.3305 0.0000 4.2281 0.0000
# 4 0.0000 0.0000 0.0000 38.1259 0.0000 2.1445
# 5 0.4466 -3.9225 4.2281 0.0000 19.9144 0.0000
# 6 0.0000 0.0000 0.0000 2.1445 0.0000 36.0407
#
#
#
# Elastic Compliance Matrix: (Units=1/GPa)
#
#
# Indices 1 2 3 4 5 6 
#
# 1 0.011842 -0.002864 -0.002833 0.000000 -0.000228 0.000000
# 2 -0.002864 0.009511 -0.002999 0.000000 0.002575 0.000000
# 3 -0.002833 -0.002999 0.014650 0.000000 -0.003638 0.000000
# 4 0.000000 0.000000 0.000000 0.026317 0.000000 -0.001566
# 5 -0.000228 0.002575 -0.003638 0.000000 0.051499 0.000000
# 6 0.000000 0.000000 0.000000 -0.001566 0.000000 0.027840
#
#
# Mechanical properties :
#
#
# Convention : Reuss Voigt Hill
#
# Bulk Modulus (GPa) = 53.73264 56.43977 55.08621
# Shear Modulus (GPa) = 30.25616 32.87821 31.56719
#
# Velocity S-wave (km/s) = 3.70622 3.86348 3.78567
# Velocity P-wave (km/s) = 6.53521 6.74724 6.64207
#
# Compressibility (1/GPa) = 0.01861066
#
# Stress axis : x y z
#
# Youngs Moduli (GPa) = 84.44467 105.13607 68.26011
#
# Poissons Ratio (x) = 0.30112 0.19336
# Poissons Ratio (y) = 0.24186 0.20475
# Poissons Ratio (z) = 0.23921 0.31536
#
# Static dielectric constant tensor:
#      x y z
#    x 4.038280 0.000000 -0.051660 
#    y 0.000000 3.976510 0.000000 
#    z -0.051660 0.000000 4.060140 
# 
# 
# High freq. dielectric constant tensor:
#      x y z
#    x 1.870540 0.000000 -0.001580 
#    y 0.000000 1.876010 0.000000 
#    z -0.001580 0.000000 1.885280 
# 
# From -- ./inp_files/13910.got.cif
#   From: 2010.03.12/outbox.cif.g09.slc.cpg/sg4_7_cif.got.tgz:13910.got - 2010.03.31 09:31:35.
