data_PCOD8046433
_publ_section_title
;
Structure prediction by ZEFSAII (Michael W. Deem and Ramdas Pophale) SiO2 
 PCOD8046433
Probable space group: P 21
;
_chemical_formula_sum "Si O2"
_cell_formula_units_Z 14
_cell_length_a 12.338794
_cell_length_b 8.645337
_cell_length_c 10.795517
_cell_angle_alpha 90.000000
_cell_angle_beta 145.163440
_cell_angle_gamma 90.000000
_cell_volume 657.831606
_symmetry_space_group_name_H-M "P 21"
_symmetry_group_IT_number 4
_symmetry_cell_setting 'monoclinic'
loop_
_space_group_symop_operation_xyz
x,y,z
-x,1/2+y,-z
loop_
_atom_site_type_symbol
_atom_site_label
_atom_site_fract_x
_atom_site_fract_y
_atom_site_fract_z
Si Si1 0.306489 0.553730 0.577795
Si Si2 0.143097 0.789514 0.598835
Si Si3 0.138367 0.284179 0.254784
Si Si4 0.710329 0.293236 0.811505
Si Si5 0.839037 0.625968 0.474672
Si Si6 0.528091 0.295956 0.903363
Si Si7 0.550695 0.617729 0.595603
O O1 0.153280 0.666326 0.496512
O O2 0.203340 0.442877 0.381086
O O3 0.406521 0.453646 0.779282
O O4 0.465633 0.653075 0.652904
O O5 0.973829 0.748990 0.532435
O O6 0.094049 0.955114 0.495990
O O7 0.346769 0.794582 0.856547
O O8 0.139180 0.148046 0.357747
O O9 0.279381 0.235957 0.276320
O O10 0.934338 0.301216 0.001024
O O11 0.666621 0.285668 0.915750
O O12 0.619253 0.440686 0.657240
O O13 0.619103 0.141236 0.663309
O O14 0.620312 0.653730 0.230215
#
# Coordination Sequence:
#
# PCOD8046433 Si02
#       7
#     2   2   2   2   2   2   2
#     4  10  24  43  65  99 136 173 216 277 320 396
#     4  12  24  41  68  97 133 172 224 262 332 389
#     4  11  23  45  66  96 139 172 219 274 334 387
#     4  11  24  42  70  92 131 175 217 275 334 385
#     4  11  23  40  67  97 131 173 216 274 319 392
#     4  10  21  45  66  90 134 174 214 272 325 374
#     4  11  23  44  68  95 134 169 220 276 326 397
#
# _framework density 21.282042000000001
#
# number of rings (size 3 to 8) (size 9 to 14) (size 15 to 20)
#    0.000    1.143    5.714    2.571    4.000    0.000 
#    0.000    1.429    0.000    0.000    0.000    0.000 
#    0.000    0.000    0.000    0.000    0.000    0.000 
#
# Total GULP energy -173618.331327 kJ/mol
# GULP energy per Si atom -12401.309380 kJ/mol
# Density = 2.123360 g / cm^3
# Si number density = 21.282042 Si / 1000 Ang^3
#
#
#
# Elastic Constant Matrix: (Units=GPa)
#
#
# Indices 1 2 3 4 5 6 
#
# 1 96.4973 27.2872 22.2693 0.0000 16.8219 0.0000
# 2 27.2872 84.5917 28.2750 0.0000 -2.8573 0.0000
# 3 22.2693 28.2750 98.7989 0.0000 20.4607 0.0000
# 4 0.0000 0.0000 0.0000 15.1162 0.0000 -3.9789
# 5 16.8219 -2.8573 20.4607 0.0000 34.3904 0.0000
# 6 0.0000 0.0000 0.0000 -3.9789 0.0000 44.8168
#
#
#
# Elastic Compliance Matrix: (Units=1/GPa)
#
#
# Indices 1 2 3 4 5 6 
#
# 1 0.012746 -0.004211 -0.000347 0.000000 -0.006378 0.000000
# 2 -0.004211 0.014908 -0.004563 0.000000 0.006013 0.000000
# 3 -0.000347 -0.004563 0.013172 0.000000 -0.008046 0.000000
# 4 0.000000 0.000000 0.000000 0.067737 0.000000 0.006014
# 5 -0.006378 0.006013 -0.008046 0.000000 0.037484 0.000000
# 6 0.000000 0.000000 0.000000 0.006014 0.000000 0.022847
#
#
# Mechanical properties :
#
#
# Convention : Reuss Voigt Hill
#
# Bulk Modulus (GPa) = 44.27797 48.39456 46.33627
# Shear Modulus (GPa) = 25.68548 32.33510 29.01029
#
# Velocity S-wave (km/s) = 3.47783 3.90213 3.69607
# Velocity P-wave (km/s) = 6.08092 6.56438 6.32727
#
# Compressibility (1/GPa) = 0.02258459
#
# Stress axis : x y z
#
# Youngs Moduli (GPa) = 78.45837 67.07819 75.91980
#
# Poissons Ratio (x) = 0.28246 0.02634
# Poissons Ratio (y) = 0.33038 0.34639
# Poissons Ratio (z) = 0.02722 0.30605
#
# Static dielectric constant tensor:
#      x y z
#    x 4.007970 0.000000 0.107240 
#    y 0.000000 3.745000 0.000000 
#    z 0.107240 0.000000 3.649970 
# 
# 
# High freq. dielectric constant tensor:
#      x y z
#    x 1.850070 0.000000 0.010630 
#    y 0.000000 1.826650 0.000000 
#    z 0.010630 0.000000 1.819340 
# 
# From -- ./inp_files/7460.got.cif
#   From: 2010.03.12/outbox.cif.g09.slc.cpg/sg4_4_cif.got.tgz:7460.got - 2010.03.31 09:31:35.
