data_PCOD8046937
_publ_section_title
;
Structure prediction by ZEFSAII (Michael W. Deem and Ramdas Pophale) SiO2 
 PCOD8046937
Probable space group: P 21
;
_chemical_formula_sum "Si O2"
_cell_formula_units_Z 14
_cell_length_a 8.904707
_cell_length_b 5.121077
_cell_length_c 24.461808
_cell_angle_alpha 90.000000
_cell_angle_beta 149.389934
_cell_angle_gamma 90.000000
_cell_volume 568.004269
_symmetry_space_group_name_H-M "P 21"
_symmetry_group_IT_number 4
_symmetry_cell_setting 'monoclinic'
loop_
_space_group_symop_operation_xyz
x,y,z
-x,1/2+y,-z
loop_
_atom_site_type_symbol
_atom_site_label
_atom_site_fract_x
_atom_site_fract_y
_atom_site_fract_z
Si Si1 0.028367 0.921590 0.476017
Si Si2 0.153318 0.971777 0.031477
Si Si3 0.363458 0.303605 0.741151
Si Si4 0.323440 0.300816 0.334824
Si Si5 0.988753 0.300734 0.720890
Si Si6 0.147297 0.496397 0.167543
Si Si7 0.331956 0.285089 0.929310
O O1 0.325980 0.785603 0.547655
O O2 0.890783 0.701599 0.473106
O O3 0.780632 0.973769 0.352317
O O4 0.464666 0.982603 0.160544
O O5 0.040861 0.268713 0.994613
O O6 0.112909 0.879947 0.954780
O O7 0.085044 0.208760 0.690249
O O8 0.563708 0.072985 0.777895
O O9 0.233591 0.284633 0.241574
O O10 0.227060 0.579491 0.326153
O O11 0.181430 0.075763 0.327448
O O12 0.288730 0.330038 0.851083
O O13 0.999017 0.749441 0.149430
O O14 0.487685 0.519698 0.008137
#
# Coordination Sequence:
#
# PCOD8046937 Si02
#       7
#     2   2   2   2   2   2   2
#     4  12  27  47  77 106 137 184 249 302 351 432
#     4  10  24  39  63 101 141 176 223 293 355 410
#     4  11  26  46  72 108 142 187 242 300 362 419
#     4  11  25  47  71 103 143 191 237 288 362 429
#     4  11  26  44  69 103 146 185 234 297 362 428
#     4  10  23  44  71 103 143 191 237 295 347 443
#     4  11  23  41  65  98 140 190 236 279 351 431
#
# _framework density 24.647703
#
# number of rings (size 3 to 8) (size 9 to 14) (size 15 to 20)
#    0.000    1.143    1.429    3.429    4.000   13.714 
#    0.000    0.000    0.000    0.000    0.000    0.000 
#    0.000    0.000    0.000    0.000    0.000    0.000 
#
# Total GULP energy -173474.973391 kJ/mol
# GULP energy per Si atom -12391.069528 kJ/mol
# Density = 2.459160 g / cm^3
# Si number density = 24.647703 Si / 1000 Ang^3
#
#
#
# Elastic Constant Matrix: (Units=GPa)
#
#
# Indices 1 2 3 4 5 6 
#
# 1 119.8896 24.4158 32.1622 0.0000 -7.4584 0.0000
# 2 24.4158 103.5771 16.6549 0.0000 4.1632 0.0000
# 3 32.1622 16.6549 141.4168 0.0000 -13.4542 0.0000
# 4 0.0000 0.0000 0.0000 29.0597 0.0000 5.1470
# 5 -7.4584 4.1632 -13.4542 0.0000 38.6296 0.0000
# 6 0.0000 0.0000 0.0000 5.1470 0.0000 24.4454
#
#
#
# Elastic Compliance Matrix: (Units=1/GPa)
#
#
# Indices 1 2 3 4 5 6 
#
# 1 0.009298 -0.001967 -0.001750 0.000000 0.001398 0.000000
# 2 -0.001967 0.010343 -0.000944 0.000000 -0.001823 0.000000
# 3 -0.001750 -0.000944 0.007817 0.000000 0.002486 0.000000
# 4 0.000000 0.000000 0.000000 0.035745 0.000000 -0.007526
# 5 0.001398 -0.001823 0.002486 0.000000 0.027219 0.000000
# 6 0.000000 0.000000 0.000000 -0.007526 0.000000 0.042492
#
#
# Mechanical properties :
#
#
# Convention : Reuss Voigt Hill
#
# Bulk Modulus (GPa) = 55.13758 56.81657 55.97708
# Shear Modulus (GPa) = 33.71954 37.87032 35.79493
#
# Velocity S-wave (km/s) = 3.70274 3.92403 3.81499
# Velocity P-wave (km/s) = 6.37960 6.60547 6.49351
#
# Compressibility (1/GPa) = 0.01813645
#
# Stress axis : x y z
#
# Youngs Moduli (GPa) = 107.55097 96.68050 127.92492
#
# Poissons Ratio (x) = 0.19013 0.22387
# Poissons Ratio (y) = 0.21150 0.12081
# Poissons Ratio (z) = 0.18822 0.09130
#
# Static dielectric constant tensor:
#      x y z
#    x 4.742520 0.000000 -0.216010 
#    y 0.000000 3.824310 0.000000 
#    z -0.216010 0.000000 4.725710 
# 
# 
# High freq. dielectric constant tensor:
#      x y z
#    x 1.986810 0.000000 -0.000670 
#    y 0.000000 1.956130 0.000000 
#    z -0.000670 0.000000 1.991230 
# 
# From -- ./inp_files/16065.got.cif
#   From: 2010.03.12/outbox.cif.g09.slc.cpg/sg4_9_cif.got.tgz:16065.got - 2010.03.31 09:31:35.
