data_PCOD8046816
_publ_section_title
;
Structure prediction by ZEFSAII (Michael W. Deem and Ramdas Pophale) SiO2 
 PCOD8046816
Probable space group: P 21
;
_chemical_formula_sum "Si O2"
_cell_formula_units_Z 16
_cell_length_a 10.812928
_cell_length_b 8.275626
_cell_length_c 10.780415
_cell_angle_alpha 90.000000
_cell_angle_beta 48.209355
_cell_angle_gamma 90.000000
_cell_volume 719.244753
_symmetry_space_group_name_H-M "P 21"
_symmetry_group_IT_number 4
_symmetry_cell_setting 'monoclinic'
loop_
_space_group_symop_operation_xyz
x,y,z
-x,1/2+y,-z
loop_
_atom_site_type_symbol
_atom_site_label
_atom_site_fract_x
_atom_site_fract_y
_atom_site_fract_z
Si Si1 0.162421 0.211990 0.292229
Si Si2 0.856259 0.009942 0.551441
Si Si3 0.424218 0.711253 0.354910
Si Si4 0.799421 0.740261 0.019197
Si Si5 0.661947 0.074085 0.328088
Si Si6 0.048098 0.592359 0.019230
Si Si7 0.146702 0.291585 0.673157
Si Si8 0.652118 0.554533 0.618689
O O1 0.154407 0.405201 0.316505
O O2 0.316211 0.134759 0.267412
O O3 0.180508 0.179760 0.135333
O O4 0.993917 0.147296 0.468733
O O5 0.916665 0.902514 0.395222
O O6 0.667897 0.068046 0.655741
O O7 0.605313 0.744244 0.180114
O O8 0.422719 0.669764 0.502523
O O9 0.304638 0.864885 0.409378
O O10 0.877396 0.598408 0.052853
O O11 0.892550 0.913522 0.977640
O O12 0.539454 0.060800 0.293595
O O13 0.730982 0.894313 0.318065
O O14 0.817445 0.170306 0.165906
O O15 0.017512 0.718714 0.151381
O O16 0.244667 0.137690 0.558266
#
# Coordination Sequence:
#
# PCOD8046816 Si02
#       8
#     2   2   2   2   2   2   2   2
#     4  11  26  45  71 102 141 183 235 278 356 419
#     4  10  24  47  70 100 139 186 230 283 345 422
#     4  11  24  46  70 100 143 180 238 289 342 411
#     4  12  27  47  67 106 139 184 234 293 349 408
#     4  11  22  44  68 102 140 180 233 287 345 412
#     4  12  24  44  70 102 138 176 237 291 351 400
#     4  10  23  41  67 103 134 178 238 284 347 406
#     4  11  22  42  67 101 138 187 225 283 347 420
#
# _framework density 22.245560000000001
#
# number of rings (size 3 to 8) (size 9 to 14) (size 15 to 20)
#    0.000    1.000    2.500    3.750    7.000    1.000 
#    6.750    0.000    0.000    0.000    0.000    0.000 
#    0.000    0.000    0.000    0.000    0.000    0.000 
#
# Total GULP energy -198268.406581 kJ/mol
# GULP energy per Si atom -12391.775411 kJ/mol
# Density = 2.219493 g / cm^3
# Si number density = 22.245560 Si / 1000 Ang^3
#
#
#
# Elastic Constant Matrix: (Units=GPa)
#
#
# Indices 1 2 3 4 5 6 
#
# 1 96.9434 38.3716 22.2823 0.0000 -0.0348 0.0000
# 2 38.3716 104.4729 52.1010 0.0000 -2.3881 0.0000
# 3 22.2823 52.1010 95.2595 0.0000 -4.4844 0.0000
# 4 0.0000 0.0000 0.0000 35.3867 0.0000 -3.1873
# 5 -0.0348 -2.3881 -4.4844 0.0000 30.1545 0.0000
# 6 0.0000 0.0000 0.0000 -3.1873 0.0000 37.8072
#
#
#
# Elastic Compliance Matrix: (Units=1/GPa)
#
#
# Indices 1 2 3 4 5 6 
#
# 1 0.012096 -0.004168 -0.000568 0.000000 -0.000401 0.000000
# 2 -0.004168 0.014598 -0.007004 0.000000 0.000110 0.000000
# 3 -0.000568 -0.007004 0.014537 0.000000 0.001607 0.000000
# 4 0.000000 0.000000 0.000000 0.028475 0.000000 0.002401
# 5 -0.000401 0.000110 0.001607 0.000000 0.033410 0.000000
# 6 0.000000 0.000000 0.000000 0.002401 0.000000 0.026652
#
#
# Mechanical properties :
#
#
# Convention : Reuss Voigt Hill
#
# Bulk Modulus (GPa) = 56.34016 58.02063 57.18039
# Shear Modulus (GPa) = 31.41357 32.93106 32.17231
#
# Velocity S-wave (km/s) = 3.76191 3.85170 3.80707
# Velocity P-wave (km/s) = 6.65212 6.77638 6.71454
#
# Compressibility (1/GPa) = 0.01774933
#
# Stress axis : x y z
#
# Youngs Moduli (GPa) = 82.67422 68.50090 68.78953
#
# Poissons Ratio (x) = 0.28553 0.03910
# Poissons Ratio (y) = 0.34461 0.48182
# Poissons Ratio (z) = 0.04699 0.47980
#
# Static dielectric constant tensor:
#      x y z
#    x 4.109890 0.000000 0.076940 
#    y 0.000000 4.318870 0.000000 
#    z 0.076940 0.000000 3.958860 
# 
# 
# High freq. dielectric constant tensor:
#      x y z
#    x 1.882230 0.000000 0.003370 
#    y 0.000000 1.879460 0.000000 
#    z 0.003370 0.000000 1.868910 
# 
# From -- ./inp_files/12106.got.cif
#   From: 2010.03.12/outbox.cif.g09.slc.cpg/sg4_7_cif.got.tgz:12106.got - 2010.03.31 09:31:35.
