data_PCOD8046231
_publ_section_title
;
Structure prediction by ZEFSAII (Michael W. Deem and Ramdas Pophale) SiO2 
 PCOD8046231
Probable space group: P 21
;
_chemical_formula_sum "Si O2"
_cell_formula_units_Z 16
_cell_length_a 7.968198
_cell_length_b 11.823797
_cell_length_c 10.421763
_cell_angle_alpha 90.000000
_cell_angle_beta 45.861126
_cell_angle_gamma 90.000000
_cell_volume 704.649854
_symmetry_space_group_name_H-M "P 21"
_symmetry_group_IT_number 4
_symmetry_cell_setting 'monoclinic'
loop_
_space_group_symop_operation_xyz
x,y,z
-x,1/2+y,-z
loop_
_atom_site_type_symbol
_atom_site_label
_atom_site_fract_x
_atom_site_fract_y
_atom_site_fract_z
Si Si1 0.347725 0.857420 0.842169
Si Si2 0.252372 0.341294 0.552455
Si Si3 0.974114 0.024197 0.999608
Si Si4 0.838632 0.091905 0.342133
Si Si5 0.367706 0.166695 0.686499
Si Si6 0.050151 0.156871 0.482134
Si Si7 0.420237 0.577245 0.179078
Si Si8 0.464290 0.615470 0.869601
O O1 0.478165 0.847815 0.636669
O O2 0.342828 0.737401 0.914494
O O3 0.078768 0.899279 0.971120
O O4 0.496557 0.949820 0.841858
O O5 0.132214 0.462751 0.626286
O O6 0.268230 0.285180 0.685772
O O7 0.090633 0.274157 0.536013
O O8 0.148729 0.082077 0.805637
O O9 0.955492 0.101036 0.139605
O O10 0.717591 0.016631 0.073266
O O11 0.562645 0.121386 0.481627
O O12 0.962594 0.174040 0.380942
O O13 0.479664 0.167507 0.769826
O O14 0.303038 0.096057 0.338409
O O15 0.862936 0.082114 0.661487
O O16 0.523252 0.610684 0.987673
#
# Coordination Sequence:
#
# PCOD8046231 Si02
#       8
#     2   2   2   2   2   2   2   2
#     4  10  22  45  68  92 135 175 218 269 333 388
#     4  11  21  42  71  94 130 178 213 270 331 390
#     4  11  23  41  67  96 132 174 215 275 323 389
#     4  11  22  43  67  95 139 169 217 277 325 392
#     4  10  22  43  67  96 128 170 222 269 326 388
#     4  10  21  39  67  97 127 173 218 262 333 383
#     4  10  21  45  66  94 135 169 212 282 322 384
#     4  11  24  42  67  98 132 174 219 270 329 394
#
# _framework density 22.706312
#
# number of rings (size 3 to 8) (size 9 to 14) (size 15 to 20)
#    0.000    1.500    3.750    3.750    3.500    0.000 
#    2.250   11.250    0.000    0.000    0.000    0.000 
#    0.000    0.000    0.000    0.000    0.000    0.000 
#
# Total GULP energy -198291.648605 kJ/mol
# GULP energy per Si atom -12393.228038 kJ/mol
# Density = 2.265463 g / cm^3
# Si number density = 22.706312 Si / 1000 Ang^3
#
#
#
# Elastic Constant Matrix: (Units=GPa)
#
#
# Indices 1 2 3 4 5 6 
#
# 1 98.5051 33.4337 23.3334 0.0000 2.5808 0.0000
# 2 33.4337 73.0024 18.3340 0.0000 5.1863 0.0000
# 3 23.3334 18.3340 72.6225 0.0000 -8.7179 0.0000
# 4 0.0000 0.0000 0.0000 33.3809 0.0000 0.4601
# 5 2.5808 5.1863 -8.7179 0.0000 37.7180 0.0000
# 6 0.0000 0.0000 0.0000 0.4601 0.0000 31.4096
#
#
#
# Elastic Compliance Matrix: (Units=1/GPa)
#
#
# Indices 1 2 3 4 5 6 
#
# 1 0.012539 -0.004960 -0.002877 0.000000 -0.000841 0.000000
# 2 -0.004960 0.016913 -0.002998 0.000000 -0.002679 0.000000
# 3 -0.002877 -0.002998 0.015967 0.000000 0.004300 0.000000
# 4 0.000000 0.000000 0.000000 0.029963 0.000000 -0.000439
# 5 -0.000841 -0.002679 0.004300 0.000000 0.027932 0.000000
# 6 0.000000 0.000000 0.000000 -0.000439 0.000000 0.031844
#
#
# Mechanical properties :
#
#
# Convention : Reuss Voigt Hill
#
# Bulk Modulus (GPa) = 42.10784 43.81471 42.96127
# Shear Modulus (GPa) = 30.34984 31.77029 31.06006
#
# Velocity S-wave (km/s) = 3.65996 3.74462 3.70253
# Velocity P-wave (km/s) = 6.03698 6.16721 6.10244
#
# Compressibility (1/GPa) = 0.02374855
#
# Stress axis : x y z
#
# Youngs Moduli (GPa) = 79.75164 59.12601 62.62802
#
# Poissons Ratio (x) = 0.29328 0.18021
# Poissons Ratio (y) = 0.39558 0.18774
# Poissons Ratio (z) = 0.22948 0.17724
#
# Static dielectric constant tensor:
#      x y z
#    x 4.069890 0.000000 -0.107450 
#    y 0.000000 3.862320 0.000000 
#    z -0.107450 0.000000 4.402160 
# 
# 
# High freq. dielectric constant tensor:
#      x y z
#    x 1.886380 0.000000 -0.005960 
#    y 0.000000 1.860910 0.000000 
#    z -0.005960 0.000000 1.921240 
# 
# From -- ./inp_files/11140.got.cif
#   From: 2010.03.12/outbox.cif.g09.slc.cpg/sg4_6_cif.got.tgz:11140.got - 2010.03.31 09:31:35.
