data_PCOD8046492
_publ_section_title
;
Structure prediction by ZEFSAII (Michael W. Deem and Ramdas Pophale) SiO2 
 PCOD8046492
Probable space group: P 21
;
_chemical_formula_sum "Si O2"
_cell_formula_units_Z 16
_cell_length_a 6.674416
_cell_length_b 6.634806
_cell_length_c 18.246119
_cell_angle_alpha 90.000000
_cell_angle_beta 108.790940
_cell_angle_gamma 90.000000
_cell_volume 764.934899
_symmetry_space_group_name_H-M "P 21"
_symmetry_group_IT_number 4
_symmetry_cell_setting 'monoclinic'
loop_
_space_group_symop_operation_xyz
x,y,z
-x,1/2+y,-z
loop_
_atom_site_type_symbol
_atom_site_label
_atom_site_fract_x
_atom_site_fract_y
_atom_site_fract_z
Si Si1 0.742366 0.092600 0.553794
Si Si2 0.475131 0.928500 0.911900
Si Si3 0.056209 0.043566 0.783860
Si Si4 0.715754 0.555192 0.961349
Si Si5 0.517192 0.923327 0.390945
Si Si6 0.097665 0.337774 0.653542
Si Si7 0.129600 0.682686 0.088490
Si Si8 0.149432 0.217012 0.337127
O O1 0.580411 0.228178 0.581422
O O2 0.962007 0.217610 0.575868
O O3 0.657844 0.058189 0.462394
O O4 0.771913 0.873451 0.592718
O O5 0.295827 0.996530 0.834434
O O6 0.540745 0.698711 0.904387
O O7 0.686399 0.055327 0.926971
O O8 0.392189 0.933057 0.985233
O O9 0.946004 0.839727 0.742366
O O10 0.063435 0.221448 0.725705
O O11 0.912271 0.118407 0.833535
O O12 0.791288 0.412225 0.904504
O O13 0.917092 0.676804 0.015404
O O14 0.658569 0.836331 0.341685
O O15 0.341578 0.071152 0.335360
O O16 0.029968 0.571076 0.650881
#
# Coordination Sequence:
#
# PCOD8046492 Si02
#       8
#     2   2   2   2   2   2   2   2
#     4  10  22  39  63 102 126 163 222 270 336 380
#     4  11  23  40  70  98 132 167 217 272 326 387
#     4  10  26  46  62  97 135 181 216 257 330 406
#     4  11  22  41  67 104 125 165 218 273 325 379
#     4  11  22  40  70  95 131 171 213 285 326 381
#     4  10  25  42  65  94 133 171 221 268 319 402
#     4  11  23  41  70  94 135 167 213 273 327 382
#     4  10  23  45  63  94 135 169 222 266 321 401
#
# _framework density 20.916812
#
# number of rings (size 3 to 8) (size 9 to 14) (size 15 to 20)
#    0.000    1.500    3.750    0.000    1.750    8.000 
#    0.000    0.000    0.000    0.000    0.000    0.000 
#    0.000    0.000    0.000    0.000    0.000    0.000 
#
# Total GULP energy -198401.495959 kJ/mol
# GULP energy per Si atom -12400.093497 kJ/mol
# Density = 2.086920 g / cm^3
# Si number density = 20.916812 Si / 1000 Ang^3
#
#
#
# Elastic Constant Matrix: (Units=GPa)
#
#
# Indices 1 2 3 4 5 6 
#
# 1 122.1534 41.8493 24.5518 0.0000 -5.3124 0.0000
# 2 41.8493 132.9463 30.5005 0.0000 -2.5074 0.0000
# 3 24.5518 30.5005 60.9072 0.0000 2.1909 0.0000
# 4 0.0000 0.0000 0.0000 28.1001 0.0000 3.4129
# 5 -5.3124 -2.5074 2.1909 0.0000 16.1918 0.0000
# 6 0.0000 0.0000 0.0000 3.4129 0.0000 36.1233
#
#
#
# Elastic Compliance Matrix: (Units=1/GPa)
#
#
# Indices 1 2 3 4 5 6 
#
# 1 0.009701 -0.002338 -0.002855 0.000000 0.003207 0.000000
# 2 -0.002338 0.009120 -0.003666 0.000000 0.001141 0.000000
# 3 -0.002855 -0.003666 0.019554 0.000000 -0.004150 0.000000
# 4 0.000000 0.000000 0.000000 0.036000 0.000000 -0.003401
# 5 0.003207 0.001141 -0.004150 0.000000 0.063550 0.000000
# 6 0.000000 0.000000 0.000000 -0.003401 0.000000 0.028004
#
#
# Mechanical properties :
#
#
# Convention : Reuss Voigt Hill
#
# Bulk Modulus (GPa) = 48.40792 56.64556 52.52674
# Shear Modulus (GPa) = 26.24210 30.69005 28.46607
#
# Velocity S-wave (km/s) = 3.54587 3.83462 3.69306
# Velocity P-wave (km/s) = 6.32120 6.83709 6.58420
#
# Compressibility (1/GPa) = 0.02065778
#
# Stress axis : x y z
#
# Youngs Moduli (GPa) = 103.08480 109.64465 51.13991
#
# Poissons Ratio (x) = 0.25637 0.14600
# Poissons Ratio (y) = 0.24103 0.18746
# Poissons Ratio (z) = 0.29429 0.40193
#
# Static dielectric constant tensor:
#      x y z
#    x 4.355760 0.000000 0.243540 
#    y 0.000000 3.975980 0.000000 
#    z 0.243540 0.000000 3.553810 
# 
# 
# High freq. dielectric constant tensor:
#      x y z
#    x 1.831840 0.000000 0.010390 
#    y 0.000000 1.834960 0.000000 
#    z 0.010390 0.000000 1.800680 
# 
# From -- ./inp_files/4204.got.cif
#   From: 2010.03.12/outbox.cif.g09.slc.cpg/sg4_3_cif.got.tgz:4204.got - 2010.03.31 09:31:35.
