data_PCOD8046051
_publ_section_title
;
Structure prediction by ZEFSAII (Michael W. Deem and Ramdas Pophale) SiO2 
 PCOD8046051
Probable space group: P 21
;
_chemical_formula_sum "Si O2"
_cell_formula_units_Z 14
_cell_length_a 8.500207
_cell_length_b 4.957897
_cell_length_c 15.861105
_cell_angle_alpha 90.000000
_cell_angle_beta 78.790667
_cell_angle_gamma 90.000000
_cell_volume 655.685504
_symmetry_space_group_name_H-M "P 21"
_symmetry_group_IT_number 4
_symmetry_cell_setting 'monoclinic'
loop_
_space_group_symop_operation_xyz
x,y,z
-x,1/2+y,-z
loop_
_atom_site_type_symbol
_atom_site_label
_atom_site_fract_x
_atom_site_fract_y
_atom_site_fract_z
Si Si1 0.604195 0.760540 0.511711
Si Si2 0.176772 0.743903 0.921525
Si Si3 0.040942 0.148050 0.547621
Si Si4 0.745693 0.384434 0.782750
Si Si5 0.496936 0.095213 0.055312
Si Si6 0.997414 0.246073 0.885110
Si Si7 0.755257 0.908165 0.672589
O O1 0.487647 0.501660 0.526722
O O2 0.771628 0.688444 0.446162
O O3 0.647083 0.856156 0.601780
O O4 0.368474 0.735130 0.901127
O O5 0.116128 0.492311 0.876788
O O6 0.126051 0.749382 0.024406
O O7 0.111950 0.990612 0.874833
O O8 0.965223 0.436214 0.529383
O O9 0.931765 0.029068 0.633513
O O10 0.642324 0.490043 0.871002
O O11 0.906313 0.258575 0.806129
O O12 0.784085 0.630688 0.717702
O O13 0.665959 0.135285 0.739326
O O14 0.430186 0.334939 0.001937
#
# Coordination Sequence:
#
# PCOD8046051 Si02
#       7
#     2   2   2   2   2   2   2
#     4  11  22  41  71 104 129 169 216 262 317 390
#     4  10  21  38  61  88 118 154 225 276 306 371
#     4  10  20  40  68  95 128 168 218 251 303 398
#     4  12  24  41  65  95 135 171 218 276 336 378
#     4  12  24  40  65  96 126 175 228 273 325 393
#     4  10  21  38  61  88 117 164 208 273 324 372
#     4  11  24  42  65 100 133 173 213 269 325 392
#
# _framework density 21.351700000000001
#
# number of rings (size 3 to 8) (size 9 to 14) (size 15 to 20)
#    0.000    1.143    1.429    6.857    4.000    0.000 
#    0.000    5.714    0.000    3.429    0.000    0.000 
#    0.000    0.000    0.000    0.000    0.000    0.000 
#
# Total GULP energy -173580.426908 kJ/mol
# GULP energy per Si atom -12398.601922 kJ/mol
# Density = 2.130310 g / cm^3
# Si number density = 21.351700 Si / 1000 Ang^3
#
#
#
# Elastic Constant Matrix: (Units=GPa)
#
#
# Indices 1 2 3 4 5 6 
#
# 1 128.5494 53.3112 35.2685 0.0000 19.0167 0.0000
# 2 53.3112 160.7679 43.7127 0.0000 17.8434 0.0000
# 3 35.2685 43.7127 86.2550 0.0000 16.1303 0.0000
# 4 0.0000 0.0000 0.0000 61.4623 0.0000 16.7614
# 5 19.0167 17.8434 16.1303 0.0000 20.9623 0.0000
# 6 0.0000 0.0000 0.0000 16.7614 0.0000 48.4392
#
#
#
# Elastic Compliance Matrix: (Units=1/GPa)
#
#
# Indices 1 2 3 4 5 6 
#
# 1 0.010067 -0.002169 -0.001932 0.000000 -0.005799 0.000000
# 2 -0.002169 0.007963 -0.002627 0.000000 -0.002789 0.000000
# 3 -0.001932 -0.002627 0.015149 0.000000 -0.007668 0.000000
# 4 0.000000 0.000000 0.000000 0.017965 0.000000 -0.006217
# 5 -0.005799 -0.002789 -0.007668 0.000000 0.061240 0.000000
# 6 0.000000 0.000000 0.000000 -0.006217 0.000000 0.022796
#
#
# Mechanical properties :
#
#
# Convention : Reuss Voigt Hill
#
# Bulk Modulus (GPa) = 50.70578 71.12857 60.91717
# Shear Modulus (GPa) = 32.21416 42.39141 37.30279
#
# Velocity S-wave (km/s) = 3.88846 4.46060 4.18432
# Velocity P-wave (km/s) = 6.63021 7.74044 7.20674
#
# Compressibility (1/GPa) = 0.01972162
#
# Stress axis : x y z
#
# Youngs Moduli (GPa) = 99.33734 125.57581 66.01097
#
# Poissons Ratio (x) = 0.27239 0.12756
# Poissons Ratio (y) = 0.21547 0.17342
# Poissons Ratio (z) = 0.19196 0.32991
#
# Static dielectric constant tensor:
#      x y z
#    x 3.713920 0.000000 0.055730 
#    y 0.000000 4.286660 0.000000 
#    z 0.055730 0.000000 3.671940 
# 
# 
# High freq. dielectric constant tensor:
#      x y z
#    x 1.830160 0.000000 0.010540 
#    y 0.000000 1.869870 0.000000 
#    z 0.010540 0.000000 1.815220 
# 
# From -- ./inp_files/13462.got.cif
#   From: 2010.03.12/outbox.cif.g09.slc.cpg/sg4_7_cif.got.tgz:13462.got - 2010.03.31 09:31:35.
