data_PCOD8046302
_publ_section_title
;
Structure prediction by ZEFSAII (Michael W. Deem and Ramdas Pophale) SiO2 
 PCOD8046302
Probable space group: P 21
;
_chemical_formula_sum "Si O2"
_cell_formula_units_Z 16
_cell_length_a 10.636581
_cell_length_b 9.149401
_cell_length_c 9.424533
_cell_angle_alpha 90.000000
_cell_angle_beta 122.579125
_cell_angle_gamma 90.000000
_cell_volume 772.860435
_symmetry_space_group_name_H-M "P 21"
_symmetry_group_IT_number 4
_symmetry_cell_setting 'monoclinic'
loop_
_space_group_symop_operation_xyz
x,y,z
-x,1/2+y,-z
loop_
_atom_site_type_symbol
_atom_site_label
_atom_site_fract_x
_atom_site_fract_y
_atom_site_fract_z
Si Si1 0.124506 0.649320 0.714430
Si Si2 0.184919 0.123987 0.869166
Si Si3 0.961340 0.830703 0.410067
Si Si4 0.734864 0.149777 0.914519
Si Si5 0.621342 0.129377 0.331194
Si Si6 0.861170 0.168726 0.695151
Si Si7 0.559817 0.400496 0.944833
Si Si8 0.387863 0.342721 0.127595
O O1 0.077763 0.499863 0.606360
O O2 0.289139 0.683240 0.754502
O O3 0.012988 0.778251 0.598075
O O4 0.131847 0.633917 0.888387
O O5 0.176906 0.226103 0.721843
O O6 0.014644 0.073088 0.805812
O O7 0.289515 0.983277 0.909784
O O8 0.250600 0.229010 0.031985
O O9 0.095266 0.809856 0.375007
O O10 0.803609 0.218587 0.813992
O O11 0.604084 0.249291 0.897326
O O12 0.668326 0.991341 0.834767
O O13 0.728040 0.086909 0.528441
O O14 0.523136 0.990397 0.228558
O O15 0.513644 0.267012 0.302722
O O16 0.448752 0.374697 0.006776
#
# Coordination Sequence:
#
# PCOD8046302 Si02
#       8
#     2   2   2   2   2   2   2   2
#     4  11  20  37  63  89 121 162 206 262 303 369
#     4   9  20  38  59  81 125 157 196 255 310 361
#     4   9  21  38  58  88 125 159 203 259 310 362
#     4  12  22  36  64  90 122 162 214 249 313 381
#     4  10  21  41  59  85 127 157 205 258 315 357
#     4   9  23  40  58  89 127 168 194 259 318 372
#     4  11  21  34  63  95 113 158 214 261 300 367
#     4  11  20  38  62  89 116 163 204 261 307 363
#
# _framework density 20.702314999999999
#
# number of rings (size 3 to 8) (size 9 to 14) (size 15 to 20)
#    0.750    1.000    3.750    0.750    1.750    3.000 
#    0.000    0.000    0.000    6.000    0.000    0.000 
#    0.000    0.000    0.000    0.000    0.000    0.000 
#
# Total GULP energy -198262.383430 kJ/mol
# GULP energy per Si atom -12391.398964 kJ/mol
# Density = 2.065520 g / cm^3
# Si number density = 20.702315 Si / 1000 Ang^3
#
#
#
# Elastic Constant Matrix: (Units=GPa)
#
#
# Indices 1 2 3 4 5 6 
#
# 1 58.6706 8.6035 43.6077 0.0000 10.2517 0.0000
# 2 8.6035 69.1658 27.6396 0.0000 15.9992 0.0000
# 3 43.6077 27.6396 113.1047 0.0000 18.1183 0.0000
# 4 0.0000 0.0000 0.0000 21.2051 0.0000 6.6246
# 5 10.2517 15.9992 18.1183 0.0000 39.5245 0.0000
# 6 0.0000 0.0000 0.0000 6.6246 0.0000 23.3002
#
#
#
# Elastic Compliance Matrix: (Units=1/GPa)
#
#
# Indices 1 2 3 4 5 6 
#
# 1 0.024152 0.001268 -0.009213 0.000000 -0.002555 0.000000
# 2 0.001268 0.017086 -0.003781 0.000000 -0.005512 0.000000
# 3 -0.009213 -0.003781 0.013695 0.000000 -0.002358 0.000000
# 4 0.000000 0.000000 0.000000 0.051755 0.000000 -0.014715
# 5 -0.002555 -0.005512 -0.002358 0.000000 0.029275 0.000000
# 6 0.000000 0.000000 0.000000 -0.014715 0.000000 0.047102
#
#
# Mechanical properties :
#
#
# Convention : Reuss Voigt Hill
#
# Bulk Modulus (GPa) = 31.76430 44.51587 38.14008
# Shear Modulus (GPa) = 23.04024 27.54530 25.29277
#
# Velocity S-wave (km/s) = 3.33968 3.65162 3.49913
# Velocity P-wave (km/s) = 5.49981 6.27125 5.89816
#
# Compressibility (1/GPa) = 0.03148189
#
# Stress axis : x y z
#
# Youngs Moduli (GPa) = 41.40424 58.52616 73.01918
#
# Poissons Ratio (x) = -0.07422 0.67269
# Poissons Ratio (y) = -0.05251 0.27612
# Poissons Ratio (z) = 0.38144 0.22131
#
# Static dielectric constant tensor:
#      x y z
#    x 3.565380 0.000000 0.359760 
#    y 0.000000 3.602820 0.000000 
#    z 0.359760 0.000000 3.708990 
# 
# 
# High freq. dielectric constant tensor:
#      x y z
#    x 1.783470 0.000000 0.031410 
#    y 0.000000 1.801030 0.000000 
#    z 0.031410 0.000000 1.806180 
# 
# From -- ./inp_files/7773.got.cif
#   From: 2010.03.12/outbox.cif.g09.slc.cpg/sg4_4_cif.got.tgz:7773.got - 2010.03.31 09:31:35.
