data_PCOD8046813
_publ_section_title
;
Structure prediction by ZEFSAII (Michael W. Deem and Ramdas Pophale) SiO2 
 PCOD8046813
Probable space group: P 21
;
_chemical_formula_sum "Si O2"
_cell_formula_units_Z 16
_cell_length_a 11.543042
_cell_length_b 8.810553
_cell_length_c 11.557041
_cell_angle_alpha 90.000000
_cell_angle_beta 41.005441
_cell_angle_gamma 90.000000
_cell_volume 771.188338
_symmetry_space_group_name_H-M "P 21"
_symmetry_group_IT_number 4
_symmetry_cell_setting 'monoclinic'
loop_
_space_group_symop_operation_xyz
x,y,z
-x,1/2+y,-z
loop_
_atom_site_type_symbol
_atom_site_label
_atom_site_fract_x
_atom_site_fract_y
_atom_site_fract_z
Si Si1 0.413032 0.347270 0.493041
Si Si2 0.088487 0.826870 0.606217
Si Si3 0.357447 0.583163 0.344155
Si Si4 0.672939 0.587068 0.618317
Si Si5 0.178105 0.780745 0.799371
Si Si6 0.840893 0.935491 0.115767
Si Si7 0.292791 0.323627 0.211917
Si Si8 0.597861 0.836842 0.117655
O O1 0.355247 0.498359 0.468475
O O2 0.361333 0.197888 0.462312
O O3 0.624074 0.349556 0.354275
O O4 0.297618 0.347568 0.696556
O O5 0.211780 0.713115 0.441423
O O6 0.101929 0.776803 0.728466
O O7 0.897578 0.802825 0.698871
O O8 0.140914 0.002857 0.544436
O O9 0.317418 0.469464 0.271373
O O10 0.547731 0.664081 0.189315
O O11 0.665081 0.673547 0.746348
O O12 0.526846 0.457893 0.725676
O O13 0.177337 0.614914 0.856314
O O14 0.045632 0.884046 0.978370
O O15 0.790297 0.881475 0.023004
O O16 0.422290 0.345599 0.005702
#
# Coordination Sequence:
#
# PCOD8046813 Si02
#       8
#     2   2   2   2   2   2   2   2
#     4  11  24  44  68  96 138 177 228 278 338 405
#     4  11  22  41  64  93 132 174 220 276 340 397
#     4  10  23  41  66  93 128 178 223 274 337 405
#     4  10  23  41  66  93 128 178 223 274 337 405
#     4  12  27  43  68 103 139 179 228 280 344 411
#     4  12  27  43  68 103 139 179 228 280 344 411
#     4  11  22  40  64  96 130 167 226 278 340 403
#     4  11  22  41  64  93 132 174 220 276 340 397
#
# _framework density 20.747201
#
# number of rings (size 3 to 8) (size 9 to 14) (size 15 to 20)
#    0.000    1.000    3.750    3.000    3.500    0.000 
#    0.000    0.000    0.000    0.000    0.000    0.000 
#    0.000    0.000    0.000    0.000    0.000    0.000 
#
# Total GULP energy -198382.584074 kJ/mol
# GULP energy per Si atom -12398.911505 kJ/mol
# Density = 2.069998 g / cm^3
# Si number density = 20.747201 Si / 1000 Ang^3
#
#
#
# Elastic Constant Matrix: (Units=GPa)
#
#
# Indices 1 2 3 4 5 6 
#
# 1 77.8432 33.7823 13.6258 0.0000 7.8191 0.0000
# 2 33.7823 97.5952 19.1954 0.0000 1.5491 0.0000
# 3 13.6258 19.1954 80.5309 0.0000 -1.0214 0.0000
# 4 0.0000 0.0000 0.0000 12.4615 0.0000 4.1742
# 5 7.8191 1.5491 -1.0214 0.0000 38.3248 0.0000
# 6 0.0000 0.0000 0.0000 4.1742 0.0000 19.3062
#
#
#
# Elastic Compliance Matrix: (Units=1/GPa)
#
#
# Indices 1 2 3 4 5 6 
#
# 1 0.015605 -0.005064 -0.001471 0.000000 -0.003018 0.000000
# 2 -0.005064 0.012404 -0.002094 0.000000 0.000476 0.000000
# 3 -0.001471 -0.002094 0.013175 0.000000 0.000736 0.000000
# 4 0.000000 0.000000 0.000000 0.086513 0.000000 -0.018705
# 5 -0.003018 0.000476 0.000736 0.000000 0.026709 0.000000
# 6 0.000000 0.000000 0.000000 -0.018705 0.000000 0.055841
#
#
# Mechanical properties :
#
#
# Convention : Reuss Voigt Hill
#
# Bulk Modulus (GPa) = 41.79785 43.24180 42.51983
# Shear Modulus (GPa) = 21.23325 26.64290 23.93808
#
# Velocity S-wave (km/s) = 3.20258 3.58742 3.40045
# Velocity P-wave (km/s) = 5.81939 6.16822 5.99634
#
# Compressibility (1/GPa) = 0.02392467
#
# Stress axis : x y z
#
# Youngs Moduli (GPa) = 64.08254 80.62169 75.90161
#
# Poissons Ratio (x) = 0.40829 0.11169
# Poissons Ratio (y) = 0.32453 0.15891
# Poissons Ratio (z) = 0.09430 0.16879
#
# Static dielectric constant tensor:
#      x y z
#    x 3.796750 0.000000 -0.003210 
#    y 0.000000 3.865420 0.000000 
#    z -0.003210 0.000000 3.934780 
# 
# 
# High freq. dielectric constant tensor:
#      x y z
#    x 1.813580 0.000000 0.002620 
#    y 0.000000 1.823230 0.000000 
#    z 0.002620 0.000000 1.817240 
# 
# From -- ./inp_files/7755.got.cif
#   From: 2010.03.12/outbox.cif.g09.slc.cpg/sg4_4_cif.got.tgz:7755.got - 2010.03.31 09:31:35.
