data_PCOD8046821
_publ_section_title
;
Structure prediction by ZEFSAII (Michael W. Deem and Ramdas Pophale) SiO2 
 PCOD8046821
Probable space group: P 21
;
_chemical_formula_sum "Si O2"
_cell_formula_units_Z 14
_cell_length_a 10.584452
_cell_length_b 5.104930
_cell_length_c 12.535977
_cell_angle_alpha 90.000000
_cell_angle_beta 72.055604
_cell_angle_gamma 90.000000
_cell_volume 644.405739
_symmetry_space_group_name_H-M "P 21"
_symmetry_group_IT_number 4
_symmetry_cell_setting 'monoclinic'
loop_
_space_group_symop_operation_xyz
x,y,z
-x,1/2+y,-z
loop_
_atom_site_type_symbol
_atom_site_label
_atom_site_fract_x
_atom_site_fract_y
_atom_site_fract_z
Si Si1 0.868452 0.248870 0.890376
Si Si2 0.293732 0.483004 0.798253
Si Si3 0.899764 0.379456 0.645885
Si Si4 0.581565 0.067284 0.012663
Si Si5 0.419403 0.417219 0.541715
Si Si6 0.127178 0.975106 0.887539
Si Si7 0.827156 0.878695 0.545575
O O1 0.899790 0.399137 0.773189
O O2 0.724362 0.113218 0.920532
O O3 0.873821 0.464274 0.983339
O O4 0.978913 0.025409 0.883252
O O5 0.375766 0.511119 0.669287
O O6 0.176621 0.698093 0.828668
O O7 0.227333 0.199352 0.823810
O O8 0.397888 0.528882 0.866443
O O9 0.819237 0.620726 0.619054
O O10 0.049674 0.384472 0.566479
O O11 0.826837 0.117787 0.627494
O O12 0.484310 0.312370 0.021824
O O13 0.512820 0.635747 0.465990
O O14 0.298031 0.385928 0.495517
#
# Coordination Sequence:
#
# PCOD8046821 Si02
#       7
#     2   2   2   2   2   2   2
#     4  11  24  42  68  99 127 171 219 264 325 392
#     4  11  25  46  67  95 134 173 214 279 334 368
#     4  10  23  41  68  91 128 166 210 275 327 378
#     4  11  25  42  62  92 134 174 211 256 320 397
#     4  12  26  44  69  96 129 175 226 267 317 396
#     4  11  24  42  69 100 131 164 219 279 329 383
#     4  10  23  43  61  95 127 165 215 268 330 374
#
# _framework density 21.725442999999999
#
# number of rings (size 3 to 8) (size 9 to 14) (size 15 to 20)
#    0.000    1.143    0.000    6.000    0.000   13.714 
#    0.000    0.000    0.000    0.000    0.000    0.000 
#    0.000    0.000    0.000    0.000    0.000    0.000 
#
# Total GULP energy -173690.297630 kJ/mol
# GULP energy per Si atom -12406.449831 kJ/mol
# Density = 2.167599 g / cm^3
# Si number density = 21.725443 Si / 1000 Ang^3
#
#
#
# Elastic Constant Matrix: (Units=GPa)
#
#
# Indices 1 2 3 4 5 6 
#
# 1 126.5565 37.1504 36.6138 0.0000 22.1870 0.0000
# 2 37.1504 130.2047 39.1012 0.0000 12.1568 0.0000
# 3 36.6138 39.1012 161.3834 0.0000 4.2416 0.0000
# 4 0.0000 0.0000 0.0000 29.2381 0.0000 0.0846
# 5 22.1870 12.1568 4.2416 0.0000 23.0181 0.0000
# 6 0.0000 0.0000 0.0000 0.0846 0.0000 58.0354
#
#
#
# Elastic Compliance Matrix: (Units=1/GPa)
#
#
# Indices 1 2 3 4 5 6 
#
# 1 0.010440 -0.001627 -0.001741 0.000000 -0.008883 0.000000
# 2 -0.001627 0.008925 -0.001719 0.000000 -0.002829 0.000000
# 3 -0.001741 -0.001719 0.006974 0.000000 0.001301 0.000000
# 4 0.000000 0.000000 0.000000 0.034202 0.000000 -0.000050
# 5 -0.008883 -0.002829 0.001301 0.000000 0.053261 0.000000
# 6 0.000000 0.000000 0.000000 -0.000050 0.000000 0.017231
#
#
# Mechanical properties :
#
#
# Convention : Reuss Voigt Hill
#
# Bulk Modulus (GPa) = 61.86058 71.54171 66.70115
# Shear Modulus (GPa) = 34.10784 42.41028 38.25906
#
# Velocity S-wave (km/s) = 3.96656 4.42305 4.20101
# Velocity P-wave (km/s) = 7.03660 7.68674 7.36884
#
# Compressibility (1/GPa) = 0.01616538
#
# Stress axis : x y z
#
# Youngs Moduli (GPa) = 95.78429 112.04924 143.39575
#
# Poissons Ratio (x) = 0.18226 0.24965
# Poissons Ratio (y) = 0.15580 0.24649
# Poissons Ratio (z) = 0.16676 0.19261
#
# Static dielectric constant tensor:
#      x y z
#    x 4.014670 0.000000 0.016190 
#    y 0.000000 3.981900 0.000000 
#    z 0.016190 0.000000 3.958740 
# 
# 
# High freq. dielectric constant tensor:
#      x y z
#    x 1.863810 0.000000 0.004340 
#    y 0.000000 1.867540 0.000000 
#    z 0.004340 0.000000 1.857860 
# 
# From -- ./inp_files/10040.got.cif
#   From: 2010.03.12/outbox.cif.g09.slc.cpg/sg4_6_cif.got.tgz:10040.got - 2010.03.31 09:31:35.
