data_PCOD8046203
_publ_section_title
;
Structure prediction by ZEFSAII (Michael W. Deem and Ramdas Pophale) SiO2 
 PCOD8046203
Probable space group: P 21
;
_chemical_formula_sum "Si O2"
_cell_formula_units_Z 14
_cell_length_a 7.008920
_cell_length_b 7.391180
_cell_length_c 13.177985
_cell_angle_alpha 90.000000
_cell_angle_beta 74.700962
_cell_angle_gamma 90.000000
_cell_volume 658.482096
_symmetry_space_group_name_H-M "P 21"
_symmetry_group_IT_number 4
_symmetry_cell_setting 'monoclinic'
loop_
_space_group_symop_operation_xyz
x,y,z
-x,1/2+y,-z
loop_
_atom_site_type_symbol
_atom_site_label
_atom_site_fract_x
_atom_site_fract_y
_atom_site_fract_z
Si Si1 0.183564 0.042980 0.389313
Si Si2 0.244338 0.418628 0.011822
Si Si3 0.457303 0.502706 0.178048
Si Si4 0.568555 0.862837 0.599148
Si Si5 0.771869 0.206961 0.474630
Si Si6 0.612943 0.403516 0.833664
Si Si7 0.815205 0.501411 0.996786
O O1 0.293327 0.189721 0.445616
O O2 0.965212 0.119091 0.397083
O O3 0.169682 0.847944 0.445171
O O4 0.302001 0.028251 0.267167
O O5 0.281512 0.479973 0.121512
O O6 0.040014 0.497461 0.000107
O O7 0.418410 0.493033 0.913337
O O8 0.247566 0.204533 0.016749
O O9 0.417224 0.387088 0.282764
O O10 0.453769 0.714595 0.206629
O O11 0.668309 0.432761 0.105624
O O12 0.346569 0.816267 0.595028
O O13 0.638576 0.044475 0.534945
O O14 0.779422 0.383765 0.899452
#
# Coordination Sequence:
#
# PCOD8046203 Si02
#       7
#     2   2   2   2   2   2   2
#     4  12  25  45  71 101 136 181 232 291 349 409
#     4  10  21  39  62  95 137 176 218 276 332 408
#     4  10  22  40  65  95 135 179 221 275 340 404
#     4  12  25  45  71 100 137 182 230 292 348 412
#     4  12  26  46  70 102 136 177 238 291 346 414
#     4  10  22  40  65  95 135 177 223 276 340 401
#     4  10  21  39  62  98 134 174 222 273 329 412
#
# _framework density 21.261019000000001
#
# number of rings (size 3 to 8) (size 9 to 14) (size 15 to 20)
#    0.000    1.143    4.286    1.714    0.000    6.857 
#    0.000    2.857    0.000    0.000    0.000    0.000 
#    0.000    0.000    0.000    0.000    0.000    0.000 
#
# Total GULP energy -173599.463843 kJ/mol
# GULP energy per Si atom -12399.961703 kJ/mol
# Density = 2.121263 g / cm^3
# Si number density = 21.261019 Si / 1000 Ang^3
#
#
#
# Elastic Constant Matrix: (Units=GPa)
#
#
# Indices 1 2 3 4 5 6 
#
# 1 164.3628 34.5645 49.9093 0.0000 5.1777 0.0000
# 2 34.5645 93.6709 39.0464 0.0000 -4.6520 0.0000
# 3 49.9093 39.0464 97.5758 0.0000 1.1179 0.0000
# 4 0.0000 0.0000 0.0000 25.8616 0.0000 1.2751
# 5 5.1777 -4.6520 1.1179 0.0000 22.0849 0.0000
# 6 0.0000 0.0000 0.0000 1.2751 0.0000 40.7618
#
#
#
# Elastic Compliance Matrix: (Units=1/GPa)
#
#
# Indices 1 2 3 4 5 6 
#
# 1 0.007425 -0.001512 -0.003171 0.000000 -0.001899 0.000000
# 2 -0.001512 0.013317 -0.004594 0.000000 0.003392 0.000000
# 3 -0.003171 -0.004594 0.013719 0.000000 -0.000919 0.000000
# 4 0.000000 0.000000 0.000000 0.038727 0.000000 -0.001211
# 5 -0.001899 0.003392 -0.000919 0.000000 0.046486 0.000000
# 6 0.000000 0.000000 0.000000 -0.001211 0.000000 0.024571
#
#
# Mechanical properties :
#
#
# Convention : Reuss Voigt Hill
#
# Bulk Modulus (GPa) = 62.86794 66.96111 64.91452
# Shear Modulus (GPa) = 29.74375 33.21429 31.47902
#
# Velocity S-wave (km/s) = 3.74435 3.95677 3.85203
# Velocity P-wave (km/s) = 6.95179 7.24140 7.09807
#
# Compressibility (1/GPa) = 0.01590636
#
# Stress axis : x y z
#
# Youngs Moduli (GPa) = 134.68445 75.08988 72.88967
#
# Poissons Ratio (x) = 0.11356 0.23112
# Poissons Ratio (y) = 0.20368 0.33489
# Poissons Ratio (z) = 0.42706 0.34500
#
# Static dielectric constant tensor:
#      x y z
#    x 3.894170 0.000000 -0.085640 
#    y 0.000000 3.953440 0.000000 
#    z -0.085640 0.000000 3.635760 
# 
# 
# High freq. dielectric constant tensor:
#      x y z
#    x 1.833600 0.000000 0.000400 
#    y 0.000000 1.853450 0.000000 
#    z 0.000400 0.000000 1.818970 
# 
# From -- ./inp_files/2651.got.cif
#   From: 2010.03.12/outbox.cif.g09.slc.cpg/sg4_2_cif.got.tgz:2651.got - 2010.03.31 09:31:35.
