data_PCOD8046465
_publ_section_title
;
Structure prediction by ZEFSAII (Michael W. Deem and Ramdas Pophale) SiO2 
 PCOD8046465
Probable space group: P 21
;
_chemical_formula_sum "Si O2"
_cell_formula_units_Z 16
_cell_length_a 12.837893
_cell_length_b 5.103357
_cell_length_c 15.201970
_cell_angle_alpha 90.000000
_cell_angle_beta 136.862297
_cell_angle_gamma 90.000000
_cell_volume 681.003773
_symmetry_space_group_name_H-M "P 21"
_symmetry_group_IT_number 4
_symmetry_cell_setting 'monoclinic'
loop_
_space_group_symop_operation_xyz
x,y,z
-x,1/2+y,-z
loop_
_atom_site_type_symbol
_atom_site_label
_atom_site_fract_x
_atom_site_fract_y
_atom_site_fract_z
Si Si1 0.274194 0.292850 0.536984
Si Si2 0.912114 0.695195 0.419501
Si Si3 0.513514 0.750531 0.893429
Si Si4 0.809847 0.766041 0.844980
Si Si5 0.029243 0.014327 0.730195
Si Si6 0.037127 0.763976 0.137606
Si Si7 0.456590 0.793660 0.660754
Si Si8 0.325144 0.749483 0.948352
O O1 0.239235 0.285148 0.620975
O O2 0.116835 0.346081 0.389152
O O3 0.389707 0.522879 0.584855
O O4 0.356421 0.026678 0.556209
O O5 0.961348 0.420977 0.493763
O O6 0.885977 0.656603 0.299471
O O7 0.439473 0.814466 0.754810
O O8 0.378065 0.775364 0.880119
O O9 0.586212 0.461795 0.937322
O O10 0.645739 0.961221 0.995983
O O11 0.853983 0.503418 0.820361
O O12 0.630259 0.804025 0.738400
O O13 0.874665 0.999971 0.828729
O O14 0.878348 0.772098 0.985819
O O15 0.993663 0.247287 0.777098
O O16 0.145342 0.805013 0.844498
#
# Coordination Sequence:
#
# PCOD8046465 Si02
#       8
#     2   2   2   2   2   2   2   2
#     4  11  25  40  64  98 131 173 216 251 308 394
#     4  10  22  40  61  91 133 173 212 253 300 370
#     4  10  22  39  59  92 128 170 217 260 321 383
#     4  10  23  44  68  96 125 163 213 275 333 371
#     4  11  24  42  67  97 133 173 213 262 321 375
#     4  10  23  43  69  98 125 158 217 275 324 387
#     4  12  23  43  66  89 130 174 211 260 321 383
#     4  10  22  37  60  93 131 166 211 270 318 377
#
# _framework density 23.494729
#
# number of rings (size 3 to 8) (size 9 to 14) (size 15 to 20)
#    0.000    1.500    0.000    4.500    0.000   14.000 
#    0.000    2.500    0.000    0.000    0.000    0.000 
#    0.000    0.000    0.000    0.000    0.000    0.000 
#
# Total GULP energy -198456.590548 kJ/mol
# GULP energy per Si atom -12403.536909 kJ/mol
# Density = 2.344125 g / cm^3
# Si number density = 23.494729 Si / 1000 Ang^3
#
#
#
# Elastic Constant Matrix: (Units=GPa)
#
#
# Indices 1 2 3 4 5 6 
#
# 1 66.8621 26.5135 27.9789 0.0000 14.0654 0.0000
# 2 26.5135 121.3373 10.9563 0.0000 7.6537 0.0000
# 3 27.9789 10.9563 74.2870 0.0000 16.6886 0.0000
# 4 0.0000 0.0000 0.0000 28.1751 0.0000 7.4003
# 5 14.0654 7.6537 16.6886 0.0000 48.5468 0.0000
# 6 0.0000 0.0000 0.0000 7.4003 0.0000 19.3724
#
#
#
# Elastic Compliance Matrix: (Units=1/GPa)
#
#
# Indices 1 2 3 4 5 6 
#
# 1 0.019570 -0.003530 -0.006179 0.000000 -0.002990 0.000000
# 2 -0.003530 0.009032 0.000095 0.000000 -0.000434 0.000000
# 3 -0.006179 0.000095 0.016662 0.000000 -0.003953 0.000000
# 4 0.000000 0.000000 0.000000 0.039451 0.000000 -0.015070
# 5 -0.002990 -0.000434 -0.003953 0.000000 0.022892 0.000000
# 6 0.000000 0.000000 0.000000 -0.015070 0.000000 0.057377
#
#
# Mechanical properties :
#
#
# Convention : Reuss Voigt Hill
#
# Bulk Modulus (GPa) = 38.40671 43.70930 41.05801
# Shear Modulus (GPa) = 25.92154 32.35470 29.13812
#
# Velocity S-wave (km/s) = 3.32519 3.71496 3.52547
# Velocity P-wave (km/s) = 5.57897 6.08650 5.83825
#
# Compressibility (1/GPa) = 0.02603711
#
# Stress axis : x y z
#
# Youngs Moduli (GPa) = 51.09795 110.72244 60.01555
#
# Poissons Ratio (x) = 0.39083 0.37081
# Poissons Ratio (y) = 0.18037 -0.00569
# Poissons Ratio (z) = 0.31571 -0.01050
#
# Static dielectric constant tensor:
#      x y z
#    x 4.097060 0.000000 -0.065060 
#    y 0.000000 4.324330 0.000000 
#    z -0.065060 0.000000 4.063050 
# 
# 
# High freq. dielectric constant tensor:
#      x y z
#    x 1.921730 0.000000 0.009450 
#    y 0.000000 1.946380 0.000000 
#    z 0.009450 0.000000 1.919470 
# 
# From -- ./inp_files/13867.got.cif
#   From: 2010.03.12/outbox.cif.g09.slc.cpg/sg4_7_cif.got.tgz:13867.got - 2010.03.31 09:31:35.
