data_PCOD8046197
_publ_section_title
;
Structure prediction by ZEFSAII (Michael W. Deem and Ramdas Pophale) SiO2 
 PCOD8046197
Probable space group: P 21
;
_chemical_formula_sum "Si O2"
_cell_formula_units_Z 16
_cell_length_a 13.857033
_cell_length_b 10.226268
_cell_length_c 9.250742
_cell_angle_alpha 90.000000
_cell_angle_beta 34.737273
_cell_angle_gamma 90.000000
_cell_volume 746.959898
_symmetry_space_group_name_H-M "P 21"
_symmetry_group_IT_number 4
_symmetry_cell_setting 'monoclinic'
loop_
_space_group_symop_operation_xyz
x,y,z
-x,1/2+y,-z
loop_
_atom_site_type_symbol
_atom_site_label
_atom_site_fract_x
_atom_site_fract_y
_atom_site_fract_z
Si Si1 0.094141 0.320870 0.984179
Si Si2 0.591967 0.153449 0.500109
Si Si3 0.523089 0.872006 0.550524
Si Si4 0.959438 0.553104 0.636629
Si Si5 0.961289 0.058200 0.129555
Si Si6 0.096476 0.814993 0.475142
Si Si7 0.407300 0.151015 0.002775
Si Si8 0.520333 0.369307 0.057030
O O1 0.999552 0.314217 0.253779
O O2 0.073176 0.179265 0.935093
O O3 0.293642 0.344110 0.744882
O O4 0.994490 0.430293 0.016699
O O5 0.608171 0.272236 0.365543
O O6 0.767481 0.096375 0.341419
O O7 0.499491 0.214716 0.752172
O O8 0.486035 0.026814 0.568416
O O9 0.503138 0.841816 0.744471
O O10 0.075945 0.670325 0.432995
O O11 0.996362 0.523315 0.757906
O O12 0.002181 0.420727 0.499600
O O13 0.767835 0.593919 0.839714
O O14 0.295675 0.838792 0.236232
O O15 0.389898 0.268758 0.140066
O O16 0.514011 0.024028 0.931695
#
# Coordination Sequence:
#
# PCOD8046197 Si02
#       8
#     2   2   2   2   2   2   2   2
#     4  10  22  39  59  87 119 154 197 240 290 348
#     4  10  21  39  61  87 120 155 194 242 293 346
#     4  10  23  40  59  88 119 154 198 240 291 348
#     4  10  22  38  59  88 121 155 193 240 293 348
#     4  10  22  38  59  88 121 155 193 240 293 348
#     4  10  22  39  59  87 119 154 197 240 290 348
#     4  10  21  39  61  87 120 155 194 242 293 346
#     4  10  23  40  59  88 119 154 198 240 291 348
#
# _framework density 21.420159999999999
#
# number of rings (size 3 to 8) (size 9 to 14) (size 15 to 20)
#    0.000    2.000    0.000    3.000    0.000   14.000 
#    0.000    0.000    0.000    0.000    0.000    0.000 
#    0.000    0.000    0.000    0.000    0.000    0.000 
#
# Total GULP energy -198250.350412 kJ/mol
# GULP energy per Si atom -12390.646901 kJ/mol
# Density = 2.137141 g / cm^3
# Si number density = 21.420160 Si / 1000 Ang^3
#
#
#
# Elastic Constant Matrix: (Units=GPa)
#
#
# Indices 1 2 3 4 5 6 
#
# 1 85.2617 40.0845 3.2247 0.0000 2.7716 0.0000
# 2 40.0845 97.4798 -10.5164 0.0000 4.8793 0.0000
# 3 3.2247 -10.5164 75.5229 0.0000 7.8652 0.0000
# 4 0.0000 0.0000 0.0000 17.7671 0.0000 -3.2985
# 5 2.7716 4.8793 7.8652 0.0000 17.1918 0.0000
# 6 0.0000 0.0000 0.0000 -3.2985 0.0000 36.7107
#
#
#
# Elastic Compliance Matrix: (Units=1/GPa)
#
#
# Indices 1 2 3 4 5 6 
#
# 1 0.014703 -0.006212 -0.001501 0.000000 0.000079 0.000000
# 2 -0.006212 0.013282 0.002523 0.000000 -0.003922 0.000000
# 3 -0.001501 0.002523 0.014392 0.000000 -0.007058 0.000000
# 4 0.000000 0.000000 0.000000 0.057239 0.000000 0.005143
# 5 0.000079 -0.003922 -0.007058 0.000000 0.062497 0.000000
# 6 0.000000 0.000000 0.000000 0.005143 0.000000 0.027702
#
#
# Mechanical properties :
#
#
# Convention : Reuss Voigt Hill
#
# Bulk Modulus (GPa) = 31.25356 35.98333 33.61844
# Shear Modulus (GPa) = 23.71252 29.36535 26.53894
#
# Velocity S-wave (km/s) = 3.33080 3.70661 3.52372
# Velocity P-wave (km/s) = 5.42353 5.92907 5.68193
#
# Compressibility (1/GPa) = 0.03199636
#
# Stress axis : x y z
#
# Youngs Moduli (GPa) = 68.01202 75.29266 69.48540
#
# Poissons Ratio (x) = 0.46772 0.10430
# Poissons Ratio (y) = 0.42249 -0.17532
# Poissons Ratio (z) = 0.10209 -0.18997
#
# Static dielectric constant tensor:
#      x y z
#    x 3.800410 0.000000 -0.030430 
#    y 0.000000 4.705240 0.000000 
#    z -0.030430 0.000000 3.691320 
# 
# 
# High freq. dielectric constant tensor:
#      x y z
#    x 1.825050 0.000000 -0.001440 
#    y 0.000000 1.865240 0.000000 
#    z -0.001440 0.000000 1.831890 
# 
# From -- ./inp_files/8308.got.cif
#   From: 2010.03.12/outbox.cif.g09.slc.cpg/sg4_5_cif.got.tgz:8308.got - 2010.03.31 09:31:35.
