data_PCOD8046344
_publ_section_title
;
Structure prediction by ZEFSAII (Michael W. Deem and Ramdas Pophale) SiO2 
 PCOD8046344
Probable space group: P 21
;
_chemical_formula_sum "Si O2"
_cell_formula_units_Z 16
_cell_length_a 8.112653
_cell_length_b 9.772727
_cell_length_c 9.198329
_cell_angle_alpha 90.000000
_cell_angle_beta 71.329294
_cell_angle_gamma 90.000000
_cell_volume 690.890312
_symmetry_space_group_name_H-M "P 21"
_symmetry_group_IT_number 4
_symmetry_cell_setting 'monoclinic'
loop_
_space_group_symop_operation_xyz
x,y,z
-x,1/2+y,-z
loop_
_atom_site_type_symbol
_atom_site_label
_atom_site_fract_x
_atom_site_fract_y
_atom_site_fract_z
Si Si1 0.077059 0.640070 0.366808
Si Si2 0.217846 0.941505 0.994265
Si Si3 0.491777 0.792163 0.728346
Si Si4 0.620309 0.320724 0.770296
Si Si5 0.877083 0.980398 0.932754
Si Si6 0.176212 0.391149 0.525182
Si Si7 0.354119 0.522745 0.735250
Si Si8 0.674336 0.722995 0.947971
O O1 0.260946 0.714077 0.352984
O O2 0.065736 0.594235 0.200556
O O3 0.061791 0.504875 0.471992
O O4 0.920989 0.745259 0.444695
O O5 0.369891 0.905877 0.837143
O O6 0.248201 0.870298 0.140232
O O7 0.034741 0.907232 0.973282
O O8 0.204506 0.101789 0.032920
O O9 0.633863 0.873839 0.598133
O O10 0.389999 0.676688 0.662121
O O11 0.572347 0.690950 0.828972
O O12 0.538411 0.439889 0.692459
O O13 0.455251 0.244689 0.882220
O O14 0.785277 0.856448 0.874033
O O15 0.735856 0.044721 0.081877
O O16 0.212211 0.445333 0.676964
#
# Coordination Sequence:
#
# PCOD8046344 Si02
#       8
#     2   2   2   2   2   2   2   2
#     4  12  28  51  71 106 151 193 248 303 369 442
#     4  11  23  39  76 106 143 183 241 305 357 426
#     4  11  24  46  68 105 147 199 238 297 369 441
#     4  10  23  42  70 100 139 187 236 305 352 421
#     4  11  25  44  73 108 141 186 247 303 362 429
#     4  12  30  48  75 105 154 198 244 299 378 444
#     4  11  26  45  73 108 143 188 251 302 364 435
#     4  10  21  41  70 106 140 182 235 300 363 424
#
# _framework density 23.158524
#
# number of rings (size 3 to 8) (size 9 to 14) (size 15 to 20)
#    0.000    1.000    2.500    3.000   12.250    3.000 
#    0.000    0.000    0.000    0.000    0.000    0.000 
#    0.000    0.000    0.000    0.000    0.000    0.000 
#
# Total GULP energy -198379.547991 kJ/mol
# GULP energy per Si atom -12398.721749 kJ/mol
# Density = 2.310581 g / cm^3
# Si number density = 23.158524 Si / 1000 Ang^3
#
#
#
# Elastic Constant Matrix: (Units=GPa)
#
#
# Indices 1 2 3 4 5 6 
#
# 1 95.2131 29.4950 18.8472 0.0000 4.3100 0.0000
# 2 29.4950 121.3960 35.8088 0.0000 -1.9089 0.0000
# 3 18.8472 35.8088 59.6781 0.0000 0.3188 0.0000
# 4 0.0000 0.0000 0.0000 32.8043 0.0000 -5.5181
# 5 4.3100 -1.9089 0.3188 0.0000 29.6714 0.0000
# 6 0.0000 0.0000 0.0000 -5.5181 0.0000 41.1252
#
#
#
# Elastic Compliance Matrix: (Units=1/GPa)
#
#
# Indices 1 2 3 4 5 6 
#
# 1 0.011732 -0.002174 -0.002391 0.000000 -0.001818 0.000000
# 2 -0.002174 0.010427 -0.005575 0.000000 0.001046 0.000000
# 3 -0.002391 -0.005575 0.020858 0.000000 -0.000235 0.000000
# 4 0.000000 0.000000 0.000000 0.031188 0.000000 0.004185
# 5 -0.001818 0.001046 -0.000235 0.000000 0.034036 0.000000
# 6 0.000000 0.000000 0.000000 0.004185 0.000000 0.024878
#
#
# Mechanical properties :
#
#
# Convention : Reuss Voigt Hill
#
# Bulk Modulus (GPa) = 43.98229 49.39880 46.69054
# Shear Modulus (GPa) = 31.06020 33.52927 32.29474
#
# Velocity S-wave (km/s) = 3.66621 3.80915 3.73836
# Velocity P-wave (km/s) = 6.07903 6.38147 6.23208
#
# Compressibility (1/GPa) = 0.02273643
#
# Stress axis : x y z
#
# Youngs Moduli (GPa) = 85.23899 95.90750 47.94230
#
# Poissons Ratio (x) = 0.20847 0.11463
# Poissons Ratio (y) = 0.18528 0.26730
# Poissons Ratio (z) = 0.20381 0.53473
#
# Static dielectric constant tensor:
#      x y z
#    x 4.065310 0.000000 0.039330 
#    y 0.000000 4.191640 0.000000 
#    z 0.039330 0.000000 3.916130 
# 
# 
# High freq. dielectric constant tensor:
#      x y z
#    x 1.915960 0.000000 -0.000880 
#    y 0.000000 1.927410 0.000000 
#    z -0.000880 0.000000 1.897980 
# 
# From -- ./inp_files/5436.got.cif
#   From: 2010.03.12/outbox.cif.g09.slc.cpg/sg4_3_cif.got.tgz:5436.got - 2010.03.31 09:31:35.
