data_PCOD8046996
_publ_section_title
;
Structure prediction by ZEFSAII (Michael W. Deem and Ramdas Pophale) SiO2 
 PCOD8046996
Probable space group: P 21
;
_chemical_formula_sum "Si O2"
_cell_formula_units_Z 16
_cell_length_a 18.918710
_cell_length_b 8.276797
_cell_length_c 9.388822
_cell_angle_alpha 90.000000
_cell_angle_beta 152.847777
_cell_angle_gamma 90.000000
_cell_volume 670.917010
_symmetry_space_group_name_H-M "P 21"
_symmetry_group_IT_number 4
_symmetry_cell_setting 'monoclinic'
loop_
_space_group_symop_operation_xyz
x,y,z
-x,1/2+y,-z
loop_
_atom_site_type_symbol
_atom_site_label
_atom_site_fract_x
_atom_site_fract_y
_atom_site_fract_z
Si Si1 0.033452 0.710320 0.672949
Si Si2 0.232557 0.004389 0.677684
Si Si3 0.522174 0.826091 0.345933
Si Si4 0.117222 0.713809 0.313402
Si Si5 0.778473 0.658368 0.635753
Si Si6 0.141108 0.512538 0.618514
Si Si7 0.445613 0.461844 0.295800
Si Si8 0.739268 0.319995 0.695431
O O1 0.119461 0.667408 0.680776
O O2 0.873112 0.613589 0.408474
O O3 0.003116 0.899979 0.605239
O O4 0.155416 0.701702 0.020227
O O5 0.117241 0.864688 0.419673
O O6 0.285760 0.109389 0.635193
O O7 0.382108 0.924135 0.020920
O O8 0.665448 0.798115 0.494394
O O9 0.474013 0.649719 0.314515
O O10 0.578812 0.934906 0.579711
O O11 0.145883 0.554564 0.459487
O O12 0.258701 0.730683 0.454624
O O13 0.953853 0.723716 0.937257
O O14 0.793836 0.505771 0.770823
O O15 0.293900 0.413559 0.935519
O O16 0.570689 0.333550 0.462383
#
# Coordination Sequence:
#
# PCOD8046996 Si02
#       8
#     2   2   2   2   2   2   2   2
#     4  12  26  45  73 110 148 201 249 319 377 459
#     4  11  25  48  74 111 154 199 258 315 389 462
#     4  11  26  48  75 111 155 199 260 317 390 457
#     4  11  22  48  75 110 144 198 253 318 376 464
#     4  10  23  47  75 111 149 199 248 319 379 457
#     4  12  27  44  74 109 151 198 257 311 389 453
#     4  11  26  48  73 112 152 203 250 322 386 456
#     4  10  23  46  75 102 153 191 251 311 380 452
#
# _framework density 23.847957000000001
#
# number of rings (size 3 to 8) (size 9 to 14) (size 15 to 20)
#    0.000    1.000    3.750    1.500    7.000    0.000 
#    6.750    2.500    0.000    0.000    0.000    0.000 
#    0.000    0.000    0.000    0.000    0.000    0.000 
#
# Total GULP energy -198331.339172 kJ/mol
# GULP energy per Si atom -12395.708698 kJ/mol
# Density = 2.379368 g / cm^3
# Si number density = 23.847957 Si / 1000 Ang^3
#
#
#
# Elastic Constant Matrix: (Units=GPa)
#
#
# Indices 1 2 3 4 5 6 
#
# 1 122.3581 39.5984 68.0612 0.0000 0.4391 0.0000
# 2 39.5984 68.3690 48.3014 0.0000 -2.9869 0.0000
# 3 68.0612 48.3014 140.0398 0.0000 -4.3612 0.0000
# 4 0.0000 0.0000 0.0000 46.2782 0.0000 1.1911
# 5 0.4391 -2.9869 -4.3612 0.0000 30.7136 0.0000
# 6 0.0000 0.0000 0.0000 1.1911 0.0000 47.2455
#
#
#
# Elastic Compliance Matrix: (Units=1/GPa)
#
#
# Indices 1 2 3 4 5 6 
#
# 1 0.011911 -0.003748 -0.004533 0.000000 -0.001178 0.000000
# 2 -0.003748 0.020545 -0.005224 0.000000 0.001310 0.000000
# 3 -0.004533 -0.005224 0.011181 0.000000 0.001144 0.000000
# 4 0.000000 0.000000 0.000000 0.021622 0.000000 -0.000545
# 5 -0.001178 0.001310 0.001144 0.000000 0.032866 0.000000
# 6 0.000000 0.000000 0.000000 -0.000545 0.000000 0.021180
#
#
# Mechanical properties :
#
#
# Convention : Reuss Voigt Hill
#
# Bulk Modulus (GPa) = 60.13927 71.40987 65.77457
# Shear Modulus (GPa) = 32.92544 36.50118 34.71331
#
# Velocity S-wave (km/s) = 3.71973 3.91651 3.81938
# Velocity P-wave (km/s) = 6.61219 7.10358 6.86228
#
# Compressibility (1/GPa) = 0.01662807
#
# Stress axis : x y z
#
# Youngs Moduli (GPa) = 83.95324 48.67353 89.43400
#
# Poissons Ratio (x) = 0.18242 0.40542
# Poissons Ratio (y) = 0.31464 0.46720
# Poissons Ratio (z) = 0.38057 0.25427
#
# Static dielectric constant tensor:
#      x y z
#    x 4.338260 0.000000 -0.051480 
#    y 0.000000 4.249230 0.000000 
#    z -0.051480 0.000000 4.289960 
# 
# 
# High freq. dielectric constant tensor:
#      x y z
#    x 1.953030 0.000000 -0.004090 
#    y 0.000000 1.945860 0.000000 
#    z -0.004090 0.000000 1.939070 
# 
# From -- ./inp_files/9653.got.cif
#   From: 2010.03.12/outbox.cif.g09.slc.cpg/sg4_5_cif.got.tgz:9653.got - 2010.03.31 09:31:35.
