data_PCOD8046023
_publ_section_title
;
Structure prediction by ZEFSAII (Michael W. Deem and Ramdas Pophale) SiO2 
 PCOD8046023
Probable space group: P 21
;
_chemical_formula_sum "Si O2"
_cell_formula_units_Z 16
_cell_length_a 6.343580
_cell_length_b 9.380061
_cell_length_c 16.362578
_cell_angle_alpha 90.000000
_cell_angle_beta 52.325648
_cell_angle_gamma 90.000000
_cell_volume 770.621632
_symmetry_space_group_name_H-M "P 21"
_symmetry_group_IT_number 4
_symmetry_cell_setting 'monoclinic'
loop_
_space_group_symop_operation_xyz
x,y,z
-x,1/2+y,-z
loop_
_atom_site_type_symbol
_atom_site_label
_atom_site_fract_x
_atom_site_fract_y
_atom_site_fract_z
Si Si1 0.241729 0.700860 0.400242
Si Si2 0.235628 0.027552 0.689675
Si Si3 0.966066 0.426414 0.424075
Si Si4 0.678307 0.188363 0.045501
Si Si5 0.671713 0.443307 0.933231
Si Si6 0.214126 0.747302 0.219633
Si Si7 0.257430 0.118897 0.935024
Si Si8 0.458904 0.867897 0.776458
O O1 0.537471 0.644785 0.347593
O O2 0.173527 0.818464 0.482233
O O3 0.212020 0.770703 0.317200
O O4 0.037720 0.569505 0.456873
O O5 0.954332 0.108680 0.767482
O O6 0.248467 0.963784 0.595311
O O7 0.270113 0.891156 0.741527
O O8 0.232068 0.359256 0.321829
O O9 0.614617 0.226408 0.155538
O O10 0.569033 0.032664 0.049848
O O11 0.561040 0.310757 0.014133
O O12 0.996247 0.184770 0.956055
O O13 0.871702 0.387836 0.812923
O O14 0.827450 0.549190 0.958153
O O15 0.516084 0.738901 0.111816
O O16 0.409221 0.007718 0.841373
#
# Coordination Sequence:
#
# PCOD8046023 Si02
#       8
#     2   2   2   2   2   2   2   2
#     4  10  23  41  68  93 126 169 216 274 322 388
#     4  10  20  39  67  93 123 172 217 260 334 382
#     4  10  22  43  66  93 128 164 221 266 329 386
#     4  11  26  39  64  96 131 170 219 261 325 381
#     4  11  25  39  63  92 131 171 212 268 316 390
#     4  11  22  40  64  94 128 169 216 266 320 382
#     4  11  22  39  63  95 124 172 213 261 313 383
#     4  10  22  40  65  92 125 171 208 272 315 386
#
# _framework density 20.762459
#
# number of rings (size 3 to 8) (size 9 to 14) (size 15 to 20)
#    0.000    1.500    5.000    0.750    3.500    6.000 
#    0.000    0.000    0.000    0.000    0.000    0.000 
#    0.000    0.000    0.000    0.000    0.000    0.000 
#
# Total GULP energy -198287.339849 kJ/mol
# GULP energy per Si atom -12392.958741 kJ/mol
# Density = 2.071520 g / cm^3
# Si number density = 20.762459 Si / 1000 Ang^3
#
#
#
# Elastic Constant Matrix: (Units=GPa)
#
#
# Indices 1 2 3 4 5 6 
#
# 1 117.1439 44.8612 51.1513 0.0000 15.5313 0.0000
# 2 44.8612 91.5419 54.0789 0.0000 12.5100 0.0000
# 3 51.1513 54.0789 96.2999 0.0000 18.4259 0.0000
# 4 0.0000 0.0000 0.0000 47.8916 0.0000 18.5528
# 5 15.5313 12.5100 18.4259 0.0000 24.7079 0.0000
# 6 0.0000 0.0000 0.0000 18.5528 0.0000 31.5961
#
#
#
# Elastic Compliance Matrix: (Units=1/GPa)
#
#
# Indices 1 2 3 4 5 6 
#
# 1 0.011841 -0.003021 -0.004038 0.000000 -0.002903 0.000000
# 2 -0.003021 0.017177 -0.007863 0.000000 -0.000934 0.000000
# 3 -0.004038 -0.007863 0.018310 0.000000 -0.007135 0.000000
# 4 0.000000 0.000000 0.000000 0.027029 0.000000 -0.015871
# 5 -0.002903 -0.000934 -0.007135 0.000000 0.048092 0.000000
# 6 0.000000 0.000000 0.000000 -0.015871 0.000000 0.040969
#
#
# Mechanical properties :
#
#
# Convention : Reuss Voigt Hill
#
# Bulk Modulus (GPa) = 57.19141 67.24093 62.21617
# Shear Modulus (GPa) = 25.11446 31.16540 28.13993
#
# Velocity S-wave (km/s) = 3.48172 3.87854 3.68547
# Velocity P-wave (km/s) = 6.61578 7.24662 6.93837
#
# Compressibility (1/GPa) = 0.01748514
#
# Stress axis : x y z
#
# Youngs Moduli (GPa) = 84.44932 58.21743 54.61592
#
# Poissons Ratio (x) = 0.17587 0.22053
# Poissons Ratio (y) = 0.25512 0.42942
# Poissons Ratio (z) = 0.34100 0.45774
#
# Static dielectric constant tensor:
#      x y z
#    x 4.054620 0.000000 0.334340 
#    y 0.000000 3.727430 0.000000 
#    z 0.334340 0.000000 3.605560 
# 
# 
# High freq. dielectric constant tensor:
#      x y z
#    x 1.828830 0.000000 0.021190 
#    y 0.000000 1.799550 0.000000 
#    z 0.021190 0.000000 1.792310 
# 
# From -- ./inp_files/3445.got.cif
#   From: 2010.03.12/outbox.cif.g09.slc.cpg/sg4_2_cif.got.tgz:3445.got - 2010.03.31 09:31:35.
