data_PCOD8046289
_publ_section_title
;
Structure prediction by ZEFSAII (Michael W. Deem and Ramdas Pophale) SiO2 
 PCOD8046289
Probable space group: P 21
;
_chemical_formula_sum "Si O2"
_cell_formula_units_Z 16
_cell_length_a 16.974906
_cell_length_b 9.360840
_cell_length_c 8.486522
_cell_angle_alpha 90.000000
_cell_angle_beta 31.367244
_cell_angle_gamma 90.000000
_cell_volume 701.924941
_symmetry_space_group_name_H-M "P 21"
_symmetry_group_IT_number 4
_symmetry_cell_setting 'monoclinic'
loop_
_space_group_symop_operation_xyz
x,y,z
-x,1/2+y,-z
loop_
_atom_site_type_symbol
_atom_site_label
_atom_site_fract_x
_atom_site_fract_y
_atom_site_fract_z
Si Si1 0.762558 0.001450 0.384544
Si Si2 0.526289 0.212467 0.921327
Si Si3 0.247630 0.049259 0.963516
Si Si4 0.750921 0.788526 0.802186
Si Si5 0.761684 0.349271 0.742745
Si Si6 0.899525 0.049356 0.490154
Si Si7 0.295828 0.168592 0.560168
Si Si8 0.058175 0.091073 0.732376
O O1 0.616719 0.104425 0.652709
O O2 0.850809 0.999233 0.399036
O O3 0.713233 0.842984 0.410413
O O4 0.877287 0.074647 0.062444
O O5 0.629287 0.322971 0.842742
O O6 0.404583 0.302792 0.030468
O O7 0.429038 0.121435 0.213908
O O8 0.335623 0.077737 0.649702
O O9 0.280677 0.196840 0.992191
O O10 0.302561 0.918391 0.983184
O O11 0.074053 0.026080 0.220123
O O12 0.805348 0.943985 0.765786
O O13 0.891699 0.724793 0.459513
O O14 0.882976 0.451041 0.455606
O O15 0.851461 0.205687 0.625585
O O16 0.133999 0.111262 0.774956
#
# Coordination Sequence:
#
# PCOD8046289 Si02
#       8
#     2   2   2   2   2   2   2   2
#     4  11  22  39  72 103 135 181 240 289 342 419
#     4  10  24  43  70  99 139 186 237 278 353 426
#     4  11  23  42  68 101 145 175 230 292 357 405
#     4  10  23  42  73  98 141 187 231 287 353 414
#     4  10  24  40  72  98 141 180 229 290 353 420
#     4  11  20  39  67 103 136 178 234 284 351 408
#     4  11  23  41  70  99 142 180 232 292 347 420
#     4  10  21  40  68 103 129 181 235 282 344 412
#
# _framework density 22.794461999999999
#
# number of rings (size 3 to 8) (size 9 to 14) (size 15 to 20)
#    0.000    1.500    3.750    1.500    7.000    1.000 
#    0.000    3.750   11.000    0.000    0.000    0.000 
#    0.000    0.000    0.000    0.000    0.000    0.000 
#
# Total GULP energy -198264.310474 kJ/mol
# GULP energy per Si atom -12391.519405 kJ/mol
# Density = 2.274258 g / cm^3
# Si number density = 22.794462 Si / 1000 Ang^3
#
#
#
# Elastic Constant Matrix: (Units=GPa)
#
#
# Indices 1 2 3 4 5 6 
#
# 1 58.9932 22.1754 20.1136 0.0000 6.8145 0.0000
# 2 22.1754 128.6995 36.6799 0.0000 -0.3955 0.0000
# 3 20.1136 36.6799 126.6846 0.0000 -7.6853 0.0000
# 4 0.0000 0.0000 0.0000 23.9981 0.0000 -1.5524
# 5 6.8145 -0.3955 -7.6853 0.0000 33.4060 0.0000
# 6 0.0000 0.0000 0.0000 -1.5524 0.0000 37.7976
#
#
#
# Elastic Compliance Matrix: (Units=1/GPa)
#
#
# Indices 1 2 3 4 5 6 
#
# 1 0.019344 -0.002608 -0.002594 0.000000 -0.004574 0.000000
# 2 -0.002608 0.008828 -0.002133 0.000000 0.000146 0.000000
# 3 -0.002594 -0.002133 0.009080 0.000000 0.002593 0.000000
# 4 0.000000 0.000000 0.000000 0.041781 0.000000 0.001716
# 5 -0.004574 0.000146 0.002593 0.000000 0.031466 0.000000
# 6 0.000000 0.000000 0.000000 0.001716 0.000000 0.026527
#
#
# Mechanical properties :
#
#
# Convention : Reuss Voigt Hill
#
# Bulk Modulus (GPa) = 44.28127 52.47947 48.38037
# Shear Modulus (GPa) = 31.40248 34.73421 33.06835
#
# Velocity S-wave (km/s) = 3.71568 3.90782 3.81296
# Velocity P-wave (km/s) = 6.15442 6.59047 6.37617
#
# Compressibility (1/GPa) = 0.02258291
#
# Stress axis : x y z
#
# Youngs Moduli (GPa) = 51.69564 113.27886 110.12852
#
# Poissons Ratio (x) = 0.29542 0.28563
# Poissons Ratio (y) = 0.13482 0.23491
# Poissons Ratio (z) = 0.13408 0.24163
#
# Static dielectric constant tensor:
#      x y z
#    x 4.272980 0.000000 0.048810 
#    y 0.000000 4.248320 0.000000 
#    z 0.048810 0.000000 4.071530 
# 
# 
# High freq. dielectric constant tensor:
#      x y z
#    x 1.891300 0.000000 -0.004240 
#    y 0.000000 1.904520 0.000000 
#    z -0.004240 0.000000 1.888030 
# 
# From -- ./inp_files/5384.got.cif
#   From: 2010.03.12/outbox.cif.g09.slc.cpg/sg4_3_cif.got.tgz:5384.got - 2010.03.31 09:31:35.
