data_PCOD8046261
_publ_section_title
;
Structure prediction by ZEFSAII (Michael W. Deem and Ramdas Pophale) SiO2 
 PCOD8046261
Probable space group: P 21
;
_chemical_formula_sum "Si O2"
_cell_formula_units_Z 16
_cell_length_a 15.116177
_cell_length_b 5.211666
_cell_length_c 8.718755
_cell_angle_alpha 90.000000
_cell_angle_beta 80.552867
_cell_angle_gamma 90.000000
_cell_volume 677.551918
_symmetry_space_group_name_H-M "P 21"
_symmetry_group_IT_number 4
_symmetry_cell_setting 'monoclinic'
loop_
_space_group_symop_operation_xyz
x,y,z
-x,1/2+y,-z
loop_
_atom_site_type_symbol
_atom_site_label
_atom_site_fract_x
_atom_site_fract_y
_atom_site_fract_z
Si Si1 0.505736 0.818880 0.795302
Si Si2 0.899449 0.893924 0.195858
Si Si3 0.254642 0.423980 0.551660
Si Si4 0.332704 0.914817 0.677951
Si Si5 0.752478 0.977384 0.798496
Si Si6 0.915036 0.195379 0.900475
Si Si7 0.596239 0.315664 0.856158
Si Si8 0.225258 0.080085 0.979160
O O1 0.565980 0.560031 0.763019
O O2 0.438338 0.859679 0.672599
O O3 0.573212 0.056967 0.768962
O O4 0.451952 0.822836 0.968575
O O5 0.987390 0.722838 0.204950
O O6 0.850600 0.959013 0.369769
O O7 0.816916 0.763326 0.135162
O O8 0.930014 0.128945 0.077286
O O9 0.312345 0.192785 0.609916
O O10 0.253673 0.380079 0.371367
O O11 0.299677 0.695372 0.574223
O O12 0.287524 0.888873 0.860749
O O13 0.857206 0.988441 0.820957
O O14 0.704308 0.259060 0.845384
O O15 0.712045 0.749962 0.921100
O O16 0.857802 0.453997 0.908184
#
# Coordination Sequence:
#
# PCOD8046261 Si02
#       8
#     2   2   2   2   2   2   2   2
#     4  10  22  40  68 106 125 172 221 289 333 396
#     4  10  21  40  64 100 130 179 233 296 336 402
#     4  11  26  45  66 101 145 184 227 284 354 427
#     4  11  23  44  72  99 135 181 236 278 345 421
#     4  11  27  42  65 103 138 192 223 290 363 424
#     4  11  20  40  67  95 132 172 242 288 340 407
#     4  10  23  39  67 102 140 158 226 286 339 401
#     4  10  22  38  71  96 133 176 238 285 342 410
#
# _framework density 23.614428
#
# number of rings (size 3 to 8) (size 9 to 14) (size 15 to 20)
#    0.000    1.500    2.500    1.500   12.250    0.000 
#    2.250    2.500    0.000    0.000    0.000    0.000 
#    0.000    0.000    0.000    0.000    0.000    0.000 
#
# Total GULP energy -198294.218278 kJ/mol
# GULP energy per Si atom -12393.388642 kJ/mol
# Density = 2.356068 g / cm^3
# Si number density = 23.614428 Si / 1000 Ang^3
#
#
#
# Elastic Constant Matrix: (Units=GPa)
#
#
# Indices 1 2 3 4 5 6 
#
# 1 107.2442 18.2648 28.9724 0.0000 13.6287 0.0000
# 2 18.2648 110.6361 18.0569 0.0000 15.4549 0.0000
# 3 28.9724 18.0569 90.8752 0.0000 15.4624 0.0000
# 4 0.0000 0.0000 0.0000 25.9778 0.0000 -0.6843
# 5 13.6287 15.4549 15.4624 0.0000 21.9062 0.0000
# 6 0.0000 0.0000 0.0000 -0.6843 0.0000 29.8409
#
#
#
# Elastic Compliance Matrix: (Units=1/GPa)
#
#
# Indices 1 2 3 4 5 6 
#
# 1 0.010684 -0.000746 -0.002519 0.000000 -0.004342 0.000000
# 2 -0.000746 0.010144 -0.000726 0.000000 -0.006180 0.000000
# 3 -0.002519 -0.000726 0.013181 0.000000 -0.007224 0.000000
# 4 0.000000 0.000000 0.000000 0.038518 0.000000 0.000883
# 5 -0.004342 -0.006180 -0.007224 0.000000 0.057809 0.000000
# 6 0.000000 0.000000 0.000000 0.000883 0.000000 0.033531
#
#
# Mechanical properties :
#
#
# Convention : Reuss Voigt Hill
#
# Bulk Modulus (GPa) = 38.42394 48.81597 43.61995
# Shear Modulus (GPa) = 27.69706 31.77574 29.73640
#
# Velocity S-wave (km/s) = 3.42846 3.67223 3.55244
# Velocity P-wave (km/s) = 5.65501 6.22072 5.94460
#
# Compressibility (1/GPa) = 0.02602544
#
# Stress axis : x y z
#
# Youngs Moduli (GPa) = 93.59822 98.58474 75.86855
#
# Poissons Ratio (x) = 0.07355 0.19112
# Poissons Ratio (y) = 0.06983 0.05510
# Poissons Ratio (z) = 0.23578 0.07159
#
# Static dielectric constant tensor:
#      x y z
#    x 4.539830 0.000000 0.056450 
#    y 0.000000 4.395320 0.000000 
#    z 0.056450 0.000000 4.002980 
# 
# 
# High freq. dielectric constant tensor:
#      x y z
#    x 1.946620 0.000000 0.009080 
#    y 0.000000 1.941440 0.000000 
#    z 0.009080 0.000000 1.907880 
# 
# From -- ./inp_files/8674.got.cif
#   From: 2010.03.12/outbox.cif.g09.slc.cpg/sg4_5_cif.got.tgz:8674.got - 2010.03.31 09:31:35.
