data_PCOD8046398
_publ_section_title
;
Structure prediction by ZEFSAII (Michael W. Deem and Ramdas Pophale) SiO2 
 PCOD8046398
Probable space group: P 21
;
_chemical_formula_sum "Si O2"
_cell_formula_units_Z 12
_cell_length_a 9.028176
_cell_length_b 7.487145
_cell_length_c 9.061618
_cell_angle_alpha 90.000000
_cell_angle_beta 77.907991
_cell_angle_gamma 90.000000
_cell_volume 598.932085
_symmetry_space_group_name_H-M "P 21"
_symmetry_group_IT_number 4
_symmetry_cell_setting 'monoclinic'
loop_
_space_group_symop_operation_xyz
x,y,z
-x,1/2+y,-z
loop_
_atom_site_type_symbol
_atom_site_label
_atom_site_fract_x
_atom_site_fract_y
_atom_site_fract_z
Si Si1 0.204391 0.032810 0.024403
Si Si2 0.086875 0.664170 0.054073
Si Si3 0.132800 0.499352 0.347387
Si Si4 0.659603 0.670865 0.711329
Si Si5 0.186638 0.861333 0.495560
Si Si6 0.683230 0.271842 0.215233
O O1 0.298591 0.134611 0.127963
O O2 0.112716 0.864069 0.114341
O O3 0.082406 0.164085 0.975914
O O4 0.320827 0.959507 0.874970
O O5 0.104007 0.515678 0.177582
O O6 0.209877 0.631732 0.897219
O O7 0.259468 0.352215 0.356117
O O8 0.192434 0.686680 0.394001
O O9 0.981325 0.441240 0.462539
O O10 0.704154 0.509054 0.596287
O O11 0.481065 0.689426 0.733675
O O12 0.244135 0.807028 0.642960
#
# Coordination Sequence:
#
# PCOD8046398 Si02
#       6
#     2   2   2   2   2   2
#     4  10  21  43  68  99 134 176 232 273 335 394
#     4  10  21  43  68 101 130 173 235 275 325 401
#     4  12  24  44  74  99 135 181 227 278 336 408
#     4  12  26  44  68 101 144 177 222 286 340 404
#     4  12  24  47  68 104 135 180 229 272 343 413
#     4  10  26  41  68 100 138 177 223 284 341 392
#
# _framework density 20.035658999999999
#
# number of rings (size 3 to 8) (size 9 to 14) (size 15 to 20)
#    1.000    0.000    5.000    2.000    4.667    0.000 
#    0.000    0.000    0.000    0.000    0.000    0.000 
#    0.000    0.000    0.000    0.000    0.000    0.000 
#
# Total GULP energy -148792.019436 kJ/mol
# GULP energy per Si atom -12399.334953 kJ/mol
# Density = 1.999006 g / cm^3
# Si number density = 20.035659 Si / 1000 Ang^3
#
#
#
# Elastic Constant Matrix: (Units=GPa)
#
#
# Indices 1 2 3 4 5 6 
#
# 1 65.3569 32.1372 27.1810 0.0000 -24.1378 0.0000
# 2 32.1372 95.3152 32.2308 0.0000 -9.3677 0.0000
# 3 27.1810 32.2308 101.0093 0.0000 -10.0862 0.0000
# 4 0.0000 0.0000 0.0000 38.2850 0.0000 -2.5168
# 5 -24.1378 -9.3677 -10.0862 0.0000 25.7395 0.0000
# 6 0.0000 0.0000 0.0000 -2.5168 0.0000 33.6982
#
#
#
# Elastic Compliance Matrix: (Units=1/GPa)
#
#
# Indices 1 2 3 4 5 6 
#
# 1 0.028133 -0.006111 -0.003339 0.000000 0.022850 0.000000
# 2 -0.006111 0.013303 -0.002799 0.000000 -0.001986 0.000000
# 3 -0.003339 -0.002799 0.011736 0.000000 0.000449 0.000000
# 4 0.000000 0.000000 0.000000 0.026249 0.000000 0.001960
# 5 0.022850 -0.001986 0.000449 0.000000 0.059732 0.000000
# 6 0.000000 0.000000 0.000000 0.001960 0.000000 0.029822
#
#
# Mechanical properties :
#
#
# Convention : Reuss Voigt Hill
#
# Bulk Modulus (GPa) = 34.87267 49.41995 42.14631
# Shear Modulus (GPa) = 24.62682 30.88669 27.75676
#
# Velocity S-wave (km/s) = 3.50973 3.93056 3.72609
# Velocity P-wave (km/s) = 5.81956 6.73191 6.29230
#
# Compressibility (1/GPa) = 0.02867575
#
# Stress axis : x y z
#
# Youngs Moduli (GPa) = 35.54545 75.17038 85.20453
#
# Poissons Ratio (x) = 0.45935 0.28449
# Poissons Ratio (y) = 0.21721 0.23847
# Poissons Ratio (z) = 0.11868 0.21038
#
# Static dielectric constant tensor:
#      x y z
#    x 3.456710 0.000000 -0.000360 
#    y 0.000000 3.618830 0.000000 
#    z -0.000360 0.000000 3.665550 
# 
# 
# High freq. dielectric constant tensor:
#      x y z
#    x 1.775740 0.000000 0.005750 
#    y 0.000000 1.782990 0.000000 
#    z 0.005750 0.000000 1.787750 
# 
# From -- ./inp_files/5534.got.cif
#   From: 2010.03.12/outbox.cif.g09.slc.cpg/sg4_3_cif.got.tgz:5534.got - 2010.03.31 09:31:35.
