data_PCOD8046998
_publ_section_title
;
Structure prediction by ZEFSAII (Michael W. Deem and Ramdas Pophale) SiO2 
 PCOD8046998
Probable space group: P 21
;
_chemical_formula_sum "Si O2"
_cell_formula_units_Z 14
_cell_length_a 9.714915
_cell_length_b 4.884886
_cell_length_c 11.212220
_cell_angle_alpha 90.000000
_cell_angle_beta 102.969789
_cell_angle_gamma 90.000000
_cell_volume 518.515551
_symmetry_space_group_name_H-M "P 21"
_symmetry_group_IT_number 4
_symmetry_cell_setting 'monoclinic'
loop_
_space_group_symop_operation_xyz
x,y,z
-x,1/2+y,-z
loop_
_atom_site_type_symbol
_atom_site_label
_atom_site_fract_x
_atom_site_fract_y
_atom_site_fract_z
Si Si1 0.959796 0.831480 0.172397
Si Si2 0.173859 0.375979 0.286619
Si Si3 0.263087 0.121634 0.710185
Si Si4 0.587898 0.835574 0.486098
Si Si5 0.407306 0.860567 0.967110
Si Si6 0.814471 0.586913 0.929409
Si Si7 0.042300 0.702895 0.580294
O O1 0.092397 0.643564 0.229955
O O2 0.855304 0.855836 0.269109
O O3 0.030672 0.064741 0.104215
O O4 0.839794 0.720213 0.061266
O O5 0.282299 0.452221 0.411323
O O6 0.262385 0.262666 0.189845
O O7 0.051023 0.158680 0.314286
O O8 0.367397 0.273635 0.640670
O O9 0.351083 0.982365 0.832367
O O10 0.187765 0.865089 0.629401
O O11 0.534123 0.561403 0.540559
O O12 0.531627 0.058713 0.040710
O O13 0.287654 0.837420 0.049563
O O14 0.940767 0.919181 0.487824
#
# Coordination Sequence:
#
# PCOD8046998 Si02
#       7
#     2   2   2   2   2   2   2
#     4  10  23  46  75 110 144 181 241 314 371 425
#     4  11  26  43  73 104 141 191 232 306 362 428
#     4  10  26  50  74 109 145 192 244 308 362 432
#     4  12  31  49  72 106 147 200 248 294 352 441
#     4  11  29  49  75 106 148 201 243 292 354 441
#     4  11  24  44  75 110 144 186 243 301 370 431
#     4  11  25  45  74 109 143 183 237 305 373 424
#
# _framework density 27.000153999999998
#
# number of rings (size 3 to 8) (size 9 to 14) (size 15 to 20)
#    0.000    1.143    2.857    0.000   14.000    1.143 
#    2.571    0.000    0.000    0.000    0.000    0.000 
#    0.000    0.000    0.000    0.000    0.000    0.000 
#
# Total GULP energy -173459.151323 kJ/mol
# GULP energy per Si atom -12389.939380 kJ/mol
# Density = 2.693870 g / cm^3
# Si number density = 27.000154 Si / 1000 Ang^3
#
#
#
# Elastic Constant Matrix: (Units=GPa)
#
#
# Indices 1 2 3 4 5 6 
#
# 1 79.8552 4.4012 45.0763 0.0000 -29.9005 0.0000
# 2 4.4012 61.4797 6.2489 0.0000 -23.5962 0.0000
# 3 45.0763 6.2489 120.7109 0.0000 -11.0616 0.0000
# 4 0.0000 0.0000 0.0000 14.3612 0.0000 -2.5930
# 5 -29.9005 -23.5962 -11.0616 0.0000 45.9212 0.0000
# 6 0.0000 0.0000 0.0000 -2.5930 0.0000 40.6578
#
#
#
# Elastic Compliance Matrix: (Units=1/GPa)
#
#
# Indices 1 2 3 4 5 6 
#
# 1 0.021873 0.004939 -0.007041 0.000000 0.015084 0.000000
# 2 0.004939 0.021378 -0.001687 0.000000 0.013794 0.000000
# 3 -0.007041 -0.001687 0.010738 0.000000 -0.002865 0.000000
# 4 0.000000 0.000000 0.000000 0.070443 0.000000 0.004493
# 5 0.015084 0.013794 -0.002865 0.000000 0.037996 0.000000
# 6 0.000000 0.000000 0.000000 0.004493 0.000000 0.024882
#
#
# Mechanical properties :
#
#
# Convention : Reuss Voigt Hill
#
# Bulk Modulus (GPa) = 21.54668 41.49985 31.52327
# Shear Modulus (GPa) = 23.76889 33.94267 28.85578
#
# Velocity S-wave (km/s) = 2.97024 3.54945 3.27268
# Velocity P-wave (km/s) = 4.44530 5.67465 5.09717
#
# Compressibility (1/GPa) = 0.04641085
#
# Stress axis : x y z
#
# Youngs Moduli (GPa) = 45.71839 46.77758 93.12323
#
# Poissons Ratio (x) = -0.23104 0.65571
# Poissons Ratio (y) = -0.22581 0.15710
# Poissons Ratio (z) = 0.32192 0.07891
#
# Static dielectric constant tensor:
#      x y z
#    x 5.114610 0.000000 -0.128370 
#    y 0.000000 4.767200 0.000000 
#    z -0.128370 0.000000 5.545040 
# 
# 
# High freq. dielectric constant tensor:
#      x y z
#    x 2.087300 0.000000 -0.008430 
#    y 0.000000 2.070850 0.000000 
#    z -0.008430 0.000000 2.128740 
# 
# From -- ./inp_files/7340.got.cif
#   From: 2010.03.12/outbox.cif.g09.slc.cpg/sg4_4_cif.got.tgz:7340.got - 2010.03.31 09:31:35.
