data_PCOD8046301
_publ_section_title
;
Structure prediction by ZEFSAII (Michael W. Deem and Ramdas Pophale) SiO2 
 PCOD8046301
Probable space group: P 21
;
_chemical_formula_sum "Si O2"
_cell_formula_units_Z 14
_cell_length_a 12.356797
_cell_length_b 8.072512
_cell_length_c 7.601798
_cell_angle_alpha 90.000000
_cell_angle_beta 116.224647
_cell_angle_gamma 90.000000
_cell_volume 680.231090
_symmetry_space_group_name_H-M "P 21"
_symmetry_group_IT_number 4
_symmetry_cell_setting 'monoclinic'
loop_
_space_group_symop_operation_xyz
x,y,z
-x,1/2+y,-z
loop_
_atom_site_type_symbol
_atom_site_label
_atom_site_fract_x
_atom_site_fract_y
_atom_site_fract_z
Si Si1 0.624119 0.803200 0.669157
Si Si2 0.139777 0.462316 0.265879
Si Si3 0.946847 0.781502 0.469302
Si Si4 0.730934 0.536736 0.953980
Si Si5 0.814773 0.438829 0.371553
Si Si6 0.040857 0.226442 0.909547
Si Si7 0.366247 0.957165 0.459777
O O1 0.719324 0.946175 0.683296
O O2 0.663153 0.716134 0.882320
O O3 0.493795 0.879968 0.598871
O O4 0.625657 0.658359 0.520695
O O5 0.094705 0.650305 0.200296
O O6 0.121575 0.414368 0.457329
O O7 0.056516 0.340968 0.089008
O O8 0.091848 0.791503 0.608563
O O9 0.926165 0.823968 0.247564
O O10 0.897206 0.598741 0.475912
O O11 0.674271 0.409332 0.769573
O O12 0.720367 0.468445 0.143803
O O13 0.871579 0.566632 0.010176
O O14 0.733699 0.388230 0.478830
#
# Coordination Sequence:
#
# PCOD8046301 Si02
#       7
#     2   2   2   2   2   2   2
#     4   9  21  40  61  80 121 158 202 242 299 349
#     4  11  21  40  58  90 124 158 197 257 305 366
#     4  11  21  36  61  92 121 159 192 246 315 367
#     4   8  19  40  54  82 116 150 199 242 295 348
#     4  11  21  39  63  86 126 157 193 252 310 357
#     4  10  22  34  62  88 124 158 195 248 316 363
#     4  10  21  41  59  82 120 164 196 249 292 354
#
# _framework density 20.581240999999999
#
# number of rings (size 3 to 8) (size 9 to 14) (size 15 to 20)
#    0.857    1.143    4.286    0.000    4.000    1.143 
#    2.571    0.000    0.000    0.000    0.000    0.000 
#    0.000    0.000    0.000    0.000    0.000    0.000 
#
# Total GULP energy -173458.948043 kJ/mol
# GULP energy per Si atom -12389.924860 kJ/mol
# Density = 2.053440 g / cm^3
# Si number density = 20.581241 Si / 1000 Ang^3
#
#
#
# Elastic Constant Matrix: (Units=GPa)
#
#
# Indices 1 2 3 4 5 6 
#
# 1 111.9682 26.4603 50.0319 0.0000 13.0533 0.0000
# 2 26.4603 22.4140 23.4989 0.0000 3.5446 0.0000
# 3 50.0319 23.4989 111.0899 0.0000 3.7070 0.0000
# 4 0.0000 0.0000 0.0000 29.1614 0.0000 13.8317
# 5 13.0533 3.5446 3.7070 0.0000 29.8318 0.0000
# 6 0.0000 0.0000 0.0000 13.8317 0.0000 30.1387
#
#
#
# Elastic Compliance Matrix: (Units=1/GPa)
#
#
# Indices 1 2 3 4 5 6 
#
# 1 0.013832 -0.011927 -0.003567 0.000000 -0.004192 0.000000
# 2 -0.011927 0.068468 -0.009052 0.000000 -0.001792 0.000000
# 3 -0.003567 -0.009052 0.012487 0.000000 0.001085 0.000000
# 4 0.000000 0.000000 0.000000 0.043833 0.000000 -0.020117
# 5 -0.004192 -0.001792 0.001085 0.000000 0.035434 0.000000
# 6 0.000000 0.000000 0.000000 -0.020117 0.000000 0.042412
#
#
# Mechanical properties :
#
#
# Convention : Reuss Voigt Hill
#
# Bulk Modulus (GPa) = 21.88376 49.49492 35.68934
# Shear Modulus (GPa) = 17.80698 27.52514 22.66606
#
# Velocity S-wave (km/s) = 2.94463 3.66100 3.32218
# Velocity P-wave (km/s) = 4.71350 6.47853 5.66517
#
# Compressibility (1/GPa) = 0.04569599
#
# Stress axis : x y z
#
# Youngs Moduli (GPa) = 72.29528 14.60537 80.08530
#
# Poissons Ratio (x) = 0.17419 0.28565
# Poissons Ratio (y) = 0.86225 0.72492
# Poissons Ratio (z) = 0.25787 0.13221
#
# Static dielectric constant tensor:
#      x y z
#    x 3.463020 0.000000 0.013960 
#    y 0.000000 3.440360 0.000000 
#    z 0.013960 0.000000 3.837200 
# 
# 
# High freq. dielectric constant tensor:
#      x y z
#    x 1.788840 0.000000 0.001770 
#    y 0.000000 1.775670 0.000000 
#    z 0.001770 0.000000 1.804920 
# 
# From -- ./inp_files/7875.got.cif
#   From: 2010.03.12/outbox.cif.g09.slc.cpg/sg4_4_cif.got.tgz:7875.got - 2010.03.31 09:31:35.
