data_PCOD8046048
_publ_section_title
;
Structure prediction by ZEFSAII (Michael W. Deem and Ramdas Pophale) SiO2 
 PCOD8046048
Probable space group: P 21
;
_chemical_formula_sum "Si O2"
_cell_formula_units_Z 12
_cell_length_a 8.819705
_cell_length_b 4.845040
_cell_length_c 21.554699
_cell_angle_alpha 90.000000
_cell_angle_beta 35.676542
_cell_angle_gamma 90.000000
_cell_volume 537.176948
_symmetry_space_group_name_H-M "P 21"
_symmetry_group_IT_number 4
_symmetry_cell_setting 'monoclinic'
loop_
_space_group_symop_operation_xyz
x,y,z
-x,1/2+y,-z
loop_
_atom_site_type_symbol
_atom_site_label
_atom_site_fract_x
_atom_site_fract_y
_atom_site_fract_z
Si Si1 0.634238 0.138430 0.791254
Si Si2 0.453396 0.421654 0.476481
Si Si3 0.777140 0.372101 0.253188
Si Si4 0.618612 0.930192 0.929577
Si Si5 0.574171 0.877438 0.252081
Si Si6 0.108825 0.105235 0.347197
O O1 0.527708 0.030470 0.891832
O O2 0.387888 0.235441 0.829211
O O3 0.816958 0.410765 0.737264
O O4 0.811141 0.915019 0.696165
O O5 0.383534 0.163899 0.544014
O O6 0.636066 0.281633 0.363394
O O7 0.193467 0.568882 0.536693
O O8 0.764713 0.133777 0.204615
O O9 0.073616 0.446904 0.167076
O O10 0.619344 0.645454 0.287797
O O11 0.486919 0.122658 0.025369
O O12 0.277358 0.997738 0.350860
#
# Coordination Sequence:
#
# PCOD8046048 Si02
#       6
#     2   2   2   2   2   2
#     4  10  21  44  69  93 132 177 215 266 337 403
#     4  12  25  39  64 103 136 180 221 269 328 396
#     4  12  24  43  68 100 136 164 237 279 318 398
#     4  12  26  44  70  97 130 176 226 283 344 390
#     4  10  22  42  69  96 134 179 209 278 335 389
#     4  10  20  40  68  91 138 174 216 249 346 390
#
# _framework density 22.339005
#
# number of rings (size 3 to 8) (size 9 to 14) (size 15 to 20)
#    1.000    0.000    1.667    6.000    0.000    1.333 
#    0.000    3.333    0.000    0.000    0.000    0.000 
#    0.000    0.000    0.000    0.000    0.000    0.000 
#
# Total GULP energy -148685.612634 kJ/mol
# GULP energy per Si atom -12390.467720 kJ/mol
# Density = 2.228816 g / cm^3
# Si number density = 22.339005 Si / 1000 Ang^3
#
#
#
# Elastic Constant Matrix: (Units=GPa)
#
#
# Indices 1 2 3 4 5 6 
#
# 1 102.5450 31.4929 33.3874 0.0000 2.3314 0.0000
# 2 31.4929 108.7616 7.1787 0.0000 1.1579 0.0000
# 3 33.3874 7.1787 75.3843 0.0000 3.3861 0.0000
# 4 0.0000 0.0000 0.0000 26.7491 0.0000 1.3298
# 5 2.3314 1.1579 3.3861 0.0000 12.7954 0.0000
# 6 0.0000 0.0000 0.0000 1.3298 0.0000 40.4814
#
#
#
# Elastic Compliance Matrix: (Units=1/GPa)
#
#
# Indices 1 2 3 4 5 6 
#
# 1 0.012452 -0.003257 -0.005177 0.000000 -0.000604 0.000000
# 2 -0.003257 0.010109 0.000500 0.000000 -0.000454 0.000000
# 3 -0.005177 0.000500 0.015657 0.000000 -0.003245 0.000000
# 4 0.000000 0.000000 0.000000 0.037446 0.000000 -0.001230
# 5 -0.000604 -0.000454 -0.003245 0.000000 0.079163 0.000000
# 6 0.000000 0.000000 0.000000 -0.001230 0.000000 0.024743
#
#
# Mechanical properties :
#
#
# Convention : Reuss Voigt Hill
#
# Bulk Modulus (GPa) = 44.74532 47.86765 46.30649
# Shear Modulus (GPa) = 24.64418 30.31397 27.47907
#
# Velocity S-wave (km/s) = 3.32503 3.68774 3.51107
# Velocity P-wave (km/s) = 5.90040 6.29340 6.10007
#
# Compressibility (1/GPa) = 0.02234871
#
# Stress axis : x y z
#
# Youngs Moduli (GPa) = 80.31079 98.91771 63.87096
#
# Poissons Ratio (x) = 0.32221 0.33069
# Poissons Ratio (y) = 0.26160 -0.03196
# Poissons Ratio (z) = 0.41581 -0.04949
#
# Static dielectric constant tensor:
#      x y z
#    x 4.088890 0.000000 -0.031960 
#    y 0.000000 4.210300 0.000000 
#    z -0.031960 0.000000 3.405350 
# 
# 
# High freq. dielectric constant tensor:
#      x y z
#    x 1.883090 0.000000 -0.006230 
#    y 0.000000 1.906890 0.000000 
#    z -0.006230 0.000000 1.830130 
# 
# From -- ./inp_files/10672.got.cif
#   From: 2010.03.12/outbox.cif.g09.slc.cpg/sg4_6_cif.got.tgz:10672.got - 2010.03.31 09:31:35.
