data_PCOD8046974
_publ_section_title
;
Structure prediction by ZEFSAII (Michael W. Deem and Ramdas Pophale) SiO2 
 PCOD8046974
Probable space group: P 21
;
_chemical_formula_sum "Si O2"
_cell_formula_units_Z 16
_cell_length_a 11.222174
_cell_length_b 12.087102
_cell_length_c 8.970564
_cell_angle_alpha 90.000000
_cell_angle_beta 142.167383
_cell_angle_gamma 90.000000
_cell_volume 746.332058
_symmetry_space_group_name_H-M "P 21"
_symmetry_group_IT_number 4
_symmetry_cell_setting 'monoclinic'
loop_
_space_group_symop_operation_xyz
x,y,z
-x,1/2+y,-z
loop_
_atom_site_type_symbol
_atom_site_label
_atom_site_fract_x
_atom_site_fract_y
_atom_site_fract_z
Si Si1 0.452541 0.744130 0.520605
Si Si2 0.255489 0.414715 0.079454
Si Si3 0.698981 0.103404 0.378828
Si Si4 0.801869 0.898157 0.320042
Si Si5 0.855263 0.431120 0.845384
Si Si6 0.423834 0.086727 0.588319
Si Si7 0.615975 0.662894 0.124886
Si Si8 0.899017 0.519719 0.218617
O O1 0.616614 0.803609 0.781914
O O2 0.387583 0.633369 0.545148
O O3 0.269546 0.820983 0.304021
O O4 0.548494 0.706299 0.460164
O O5 0.385957 0.515998 0.264245
O O6 0.194229 0.432621 0.848571
O O7 0.073227 0.406231 0.009236
O O8 0.932921 0.115741 0.621540
O O9 0.658572 0.977168 0.278537
O O10 0.598789 0.186230 0.157547
O O11 0.737129 0.772677 0.276709
O O12 0.021646 0.918675 0.598564
O O13 0.771948 0.530854 0.664915
O O14 0.848374 0.467815 0.009674
O O15 0.402084 0.096166 0.741895
O O16 0.713003 0.580192 0.101260
#
# Coordination Sequence:
#
# PCOD8046974 Si02
#       8
#     2   2   2   2   2   2   2   2
#     4  11  25  43  72  99 137 185 234 289 364 413
#     4  11  23  45  65 100 134 181 234 287 349 424
#     4  10  23  46  68  98 137 184 231 299 340 418
#     4  10  24  44  67 101 135 178 239 285 338 429
#     4  11  26  44  70  99 143 183 231 297 354 423
#     4  11  25  43  66 102 137 180 228 290 351 428
#     4  12  23  45  73  97 141 186 235 294 353 409
#     4  10  25  46  65 104 136 185 230 291 351 420
#
# _framework density 21.438179000000002
#
# number of rings (size 3 to 8) (size 9 to 14) (size 15 to 20)
#    0.750    0.500    2.500    2.250    3.500    4.000 
#    6.750    0.000    0.000    0.000    0.000    0.000 
#    0.000    0.000    0.000    0.000    0.000    0.000 
#
# Total GULP energy -198321.829400 kJ/mol
# GULP energy per Si atom -12395.114337 kJ/mol
# Density = 2.138939 g / cm^3
# Si number density = 21.438179 Si / 1000 Ang^3
#
#
#
# Elastic Constant Matrix: (Units=GPa)
#
#
# Indices 1 2 3 4 5 6 
#
# 1 120.2504 51.6936 46.1473 0.0000 -14.1970 0.0000
# 2 51.6936 90.8377 26.6029 0.0000 -1.9093 0.0000
# 3 46.1473 26.6029 113.1762 0.0000 -16.3350 0.0000
# 4 0.0000 0.0000 0.0000 23.9316 0.0000 -7.2821
# 5 -14.1970 -1.9093 -16.3350 0.0000 36.5450 0.0000
# 6 0.0000 0.0000 0.0000 -7.2821 0.0000 37.5245
#
#
#
# Elastic Compliance Matrix: (Units=1/GPa)
#
#
# Indices 1 2 3 4 5 6 
#
# 1 0.012561 -0.006137 -0.003230 0.000000 0.003116 0.000000
# 2 -0.006137 0.014836 -0.001301 0.000000 -0.002191 0.000000
# 3 -0.003230 -0.001301 0.010976 0.000000 0.003583 0.000000
# 4 0.000000 0.000000 0.000000 0.044408 0.000000 0.008618
# 5 0.003116 -0.002191 0.003583 0.000000 0.030061 0.000000
# 6 0.000000 0.000000 0.000000 0.008618 0.000000 0.028322
#
#
# Mechanical properties :
#
#
# Convention : Reuss Voigt Hill
#
# Bulk Modulus (GPa) = 58.69398 63.68355 61.18876
# Shear Modulus (GPa) = 29.73019 32.92158 31.32588
#
# Velocity S-wave (km/s) = 3.72800 3.92299 3.82674
# Velocity P-wave (km/s) = 6.77999 7.09154 6.93752
#
# Compressibility (1/GPa) = 0.01703752
#
# Stress axis : x y z
#
# Youngs Moduli (GPa) = 79.60847 67.40294 91.11046
#
# Poissons Ratio (x) = 0.41366 0.29425
# Poissons Ratio (y) = 0.48857 0.11855
# Poissons Ratio (z) = 0.25711 0.08770
#
# Static dielectric constant tensor:
#      x y z
#    x 3.682860 0.000000 -0.010280 
#    y 0.000000 3.678750 0.000000 
#    z -0.010280 0.000000 4.023920 
# 
# 
# High freq. dielectric constant tensor:
#      x y z
#    x 1.836310 0.000000 -0.007670 
#    y 0.000000 1.828660 0.000000 
#    z -0.007670 0.000000 1.862500 
# 
# From -- ./inp_files/8402.got.cif
#   From: 2010.03.12/outbox.cif.g09.slc.cpg/sg4_5_cif.got.tgz:8402.got - 2010.03.31 09:31:35.
