data_PCOD8046753
_publ_section_title
;
Structure prediction by ZEFSAII (Michael W. Deem and Ramdas Pophale) SiO2 
 PCOD8046753
Probable space group: P 21
;
_chemical_formula_sum "Si O2"
_cell_formula_units_Z 14
_cell_length_a 9.952503
_cell_length_b 5.012777
_cell_length_c 16.868987
_cell_angle_alpha 90.000000
_cell_angle_beta 141.622665
_cell_angle_gamma 90.000000
_cell_volume 522.489780
_symmetry_space_group_name_H-M "P 21"
_symmetry_group_IT_number 4
_symmetry_cell_setting 'monoclinic'
loop_
_space_group_symop_operation_xyz
x,y,z
-x,1/2+y,-z
loop_
_atom_site_type_symbol
_atom_site_label
_atom_site_fract_x
_atom_site_fract_y
_atom_site_fract_z
Si Si1 0.713773 0.064590 0.826827
Si Si2 0.725158 0.714366 0.540753
Si Si3 0.127602 0.287399 0.954001
Si Si4 0.541324 0.712637 0.620406
Si Si5 0.072217 0.798354 0.579531
Si Si6 0.371169 0.417917 0.921302
Si Si7 0.467875 0.471910 0.799680
O O1 0.506325 0.252806 0.748885
O O2 0.837349 0.026228 0.967270
O O3 0.645267 0.782756 0.754476
O O4 0.878684 0.200769 0.841665
O O5 0.721110 0.750544 0.634141
O O6 0.656472 0.415600 0.486083
O O7 0.963715 0.775367 0.616801
O O8 0.549665 0.913831 0.419635
O O9 0.300561 0.061342 0.058097
O O10 0.158678 0.384250 0.877633
O O11 0.325797 0.717805 0.699793
O O12 0.945919 0.598655 0.461239
O O13 0.331535 0.342487 0.810422
O O14 0.442625 0.726413 0.957514
#
# Coordination Sequence:
#
# PCOD8046753 Si02
#       7
#     2   2   2   2   2   2   2
#     4  12  24  45  75 109 143 196 242 302 362 433
#     4  10  23  50  69 108 141 188 241 300 366 438
#     4  11  25  45  71 109 143 191 246 295 361 439
#     4  10  24  45  78 101 147 185 240 305 363 426
#     4  12  28  46  74 109 145 189 244 300 368 438
#     4  10  22  46  71 100 145 190 237 294 357 429
#     4  11  26  47  72 104 150 193 240 304 365 427
#
# _framework density 26.794785000000001
#
# number of rings (size 3 to 8) (size 9 to 14) (size 15 to 20)
#    0.000    1.143    2.857    1.714    8.000    0.000 
#   23.143    0.000    0.000    0.000    0.000    0.000 
#    0.000    0.000    0.000    0.000    0.000    0.000 
#
# Total GULP energy -173625.234924 kJ/mol
# GULP energy per Si atom -12401.802495 kJ/mol
# Density = 2.673380 g / cm^3
# Si number density = 26.794785 Si / 1000 Ang^3
#
#
#
# Elastic Constant Matrix: (Units=GPa)
#
#
# Indices 1 2 3 4 5 6 
#
# 1 174.5008 10.8242 25.4572 0.0000 2.8863 0.0000
# 2 10.8242 65.5378 -4.2953 0.0000 1.4623 0.0000
# 3 25.4572 -4.2953 58.2996 0.0000 0.6634 0.0000
# 4 0.0000 0.0000 0.0000 32.2651 0.0000 -2.1364
# 5 2.8863 1.4623 0.6634 0.0000 33.3603 0.0000
# 6 0.0000 0.0000 0.0000 -2.1364 0.0000 41.1504
#
#
#
# Elastic Compliance Matrix: (Units=1/GPa)
#
#
# Indices 1 2 3 4 5 6 
#
# 1 0.006221 -0.001201 -0.002800 0.000000 -0.000430 0.000000
# 2 -0.001201 0.015581 0.001679 0.000000 -0.000612 0.000000
# 3 -0.002800 0.001679 0.018501 0.000000 -0.000199 0.000000
# 4 0.000000 0.000000 0.000000 0.031100 0.000000 0.001615
# 5 -0.000430 -0.000612 -0.000199 0.000000 0.030044 0.000000
# 6 0.000000 0.000000 0.000000 0.001615 0.000000 0.024385
#
#
# Mechanical properties :
#
#
# Convention : Reuss Voigt Hill
#
# Bulk Modulus (GPa) = 28.04342 40.25671 34.15006
# Shear Modulus (GPa) = 35.12186 39.11198 37.11692
#
# Velocity S-wave (km/s) = 3.62439 3.82473 3.72590
# Velocity P-wave (km/s) = 5.29184 5.87890 5.59308
#
# Compressibility (1/GPa) = 0.03565899
#
# Stress axis : x y z
#
# Youngs Moduli (GPa) = 160.75262 64.18272 54.04991
#
# Poissons Ratio (x) = 0.07711 0.15134
# Poissons Ratio (y) = 0.19312 -0.09078
# Poissons Ratio (z) = 0.45010 -0.10779
#
# Static dielectric constant tensor:
#      x y z
#    x 5.513490 0.000000 -0.159300 
#    y 0.000000 4.656790 0.000000 
#    z -0.159300 0.000000 4.127340 
# 
# 
# High freq. dielectric constant tensor:
#      x y z
#    x 2.115250 0.000000 -0.005210 
#    y 0.000000 2.075040 0.000000 
#    z -0.005210 0.000000 2.032440 
# 
# From -- ./inp_files/11572.got.cif
#   From: 2010.03.12/outbox.cif.g09.slc.cpg/sg4_6_cif.got.tgz:11572.got - 2010.03.31 09:31:35.
