data_PCOD8046894
_publ_section_title
;
Structure prediction by ZEFSAII (Michael W. Deem and Ramdas Pophale) SiO2 
 PCOD8046894
Probable space group: P 21
;
_chemical_formula_sum "Si O2"
_cell_formula_units_Z 14
_cell_length_a 19.496953
_cell_length_b 5.393521
_cell_length_c 7.905739
_cell_angle_alpha 90.000000
_cell_angle_beta 138.261383
_cell_angle_gamma 90.000000
_cell_volume 553.454546
_symmetry_space_group_name_H-M "P 21"
_symmetry_group_IT_number 4
_symmetry_cell_setting 'monoclinic'
loop_
_space_group_symop_operation_xyz
x,y,z
-x,1/2+y,-z
loop_
_atom_site_type_symbol
_atom_site_label
_atom_site_fract_x
_atom_site_fract_y
_atom_site_fract_z
Si Si1 0.934370 0.103240 0.513754
Si Si2 0.224253 0.228585 0.673437
Si Si3 0.445951 0.401248 0.092114
Si Si4 0.458407 0.398621 0.723894
Si Si5 0.835232 0.440119 0.119553
Si Si6 0.764493 0.718026 0.684366
Si Si7 0.979012 0.912637 0.059519
O O1 0.861461 0.152623 0.214026
O O2 0.050974 0.057748 0.676740
O O3 0.941522 0.356936 0.640059
O O4 0.881568 0.887629 0.525344
O O5 0.228786 0.041151 0.838328
O O6 0.235624 0.104474 0.507047
O O7 0.322703 0.406569 0.880092
O O8 0.487134 0.653637 0.256300
O O9 0.495753 0.153692 0.271194
O O10 0.484110 0.403740 0.969363
O O11 0.336771 0.377601 0.462451
O O12 0.774988 0.484096 0.833535
O O13 0.859025 0.905994 0.891611
O O14 0.994226 0.681813 0.958833
#
# Coordination Sequence:
#
# PCOD8046894 Si02
#       7
#     2   2   2   2   2   2   2
#     4  11  23  40  67  93 151 180 237 294 358 417
#     4  11  22  44  66  99 132 192 226 292 355 430
#     4   9  20  37  69  93 135 172 234 285 356 411
#     4   9  19  41  61 102 129 174 227 300 340 413
#     4  11  24  43  62 102 136 187 230 297 345 432
#     4  10  23  43  69  97 139 183 237 283 359 416
#     4  11  23  40  64 104 136 186 239 283 339 435
#
# _framework density 25.295663000000001
#
# number of rings (size 3 to 8) (size 9 to 14) (size 15 to 20)
#    0.000    1.714    2.857    0.857    2.000    1.143 
#    7.714    1.429    0.000    0.000    0.000    0.000 
#    0.000    0.000    0.000    0.000    0.000    0.000 
#
# Total GULP energy -173457.897959 kJ/mol
# GULP energy per Si atom -12389.849854 kJ/mol
# Density = 2.523809 g / cm^3
# Si number density = 25.295663 Si / 1000 Ang^3
#
#
#
# Elastic Constant Matrix: (Units=GPa)
#
#
# Indices 1 2 3 4 5 6 
#
# 1 69.2660 12.9350 31.3856 0.0000 -10.2907 0.0000
# 2 12.9350 93.1895 26.2698 0.0000 2.9645 0.0000
# 3 31.3856 26.2698 96.1761 0.0000 2.0779 0.0000
# 4 0.0000 0.0000 0.0000 39.5622 0.0000 -1.5248
# 5 -10.2907 2.9645 2.0779 0.0000 37.3224 0.0000
# 6 0.0000 0.0000 0.0000 -1.5248 0.0000 21.5712
#
#
#
# Elastic Compliance Matrix: (Units=1/GPa)
#
#
# Indices 1 2 3 4 5 6 
#
# 1 0.018019 -0.001063 -0.005706 0.000000 0.005370 0.000000
# 2 -0.001063 0.011710 -0.002828 0.000000 -0.001066 0.000000
# 3 -0.005706 -0.002828 0.013077 0.000000 -0.002077 0.000000
# 4 0.000000 0.000000 0.000000 0.025346 0.000000 0.001792
# 5 0.005370 -0.001066 -0.002077 0.000000 0.028475 0.000000
# 6 0.000000 0.000000 0.000000 0.001792 0.000000 0.046485
#
#
# Mechanical properties :
#
#
# Convention : Reuss Voigt Hill
#
# Bulk Modulus (GPa) = 42.35413 44.42358 43.38886
# Shear Modulus (GPa) = 29.38136 32.22723 30.80429
#
# Velocity S-wave (km/s) = 3.41180 3.57322 3.49344
# Velocity P-wave (km/s) = 5.68335 5.88419 5.78464
#
# Compressibility (1/GPa) = 0.02361045
#
# Stress axis : x y z
#
# Youngs Moduli (GPa) = 55.49718 85.39968 76.47030
#
# Poissons Ratio (x) = 0.09082 0.43632
# Poissons Ratio (y) = 0.05902 0.21628
# Poissons Ratio (z) = 0.31665 0.24154
#
# Static dielectric constant tensor:
#      x y z
#    x 4.644230 0.000000 -0.144910 
#    y 0.000000 4.531500 0.000000 
#    z -0.144910 0.000000 4.668840 
# 
# 
# High freq. dielectric constant tensor:
#      x y z
#    x 2.000000 0.000000 0.008250 
#    y 0.000000 1.994210 0.000000 
#    z 0.008250 0.000000 2.004970 
# 
# From -- ./inp_files/9800.got.cif
#   From: 2010.03.12/outbox.cif.g09.slc.cpg/sg4_5_cif.got.tgz:9800.got - 2010.03.31 09:31:35.
