data_PCOD8046394
_publ_section_title
;
Structure prediction by ZEFSAII (Michael W. Deem and Ramdas Pophale) SiO2 
 PCOD8046394
Probable space group: P 21
;
_chemical_formula_sum "Si O2"
_cell_formula_units_Z 16
_cell_length_a 11.238670
_cell_length_b 11.129233
_cell_length_c 7.027055
_cell_angle_alpha 90.000000
_cell_angle_beta 58.256402
_cell_angle_gamma 90.000000
_cell_volume 747.450410
_symmetry_space_group_name_H-M "P 21"
_symmetry_group_IT_number 4
_symmetry_cell_setting 'monoclinic'
loop_
_space_group_symop_operation_xyz
x,y,z
-x,1/2+y,-z
loop_
_atom_site_type_symbol
_atom_site_label
_atom_site_fract_x
_atom_site_fract_y
_atom_site_fract_z
Si Si1 0.262461 0.059950 0.912097
Si Si2 0.125213 0.018922 0.628688
Si Si3 0.544525 0.939064 0.301521
Si Si4 0.519301 0.176974 0.561115
Si Si5 0.922312 0.693893 0.650554
Si Si6 0.327204 0.891964 0.176542
Si Si7 0.179116 0.440829 0.140386
Si Si8 0.761381 0.154199 0.637769
O O1 0.220585 0.027443 0.733591
O O2 0.387351 0.157463 0.812573
O O3 0.129620 0.106554 0.138804
O O4 0.321484 0.942893 0.969249
O O5 0.111606 0.146536 0.532913
O O6 0.196684 0.928438 0.420577
O O7 0.970603 0.977279 0.821504
O O8 0.493661 0.822331 0.475232
O O9 0.471343 0.928965 0.156944
O O10 0.502137 0.071982 0.415422
O O11 0.711480 0.933236 0.125549
O O12 0.668937 0.145385 0.525453
O O13 0.839316 0.817014 0.733630
O O14 0.086918 0.703724 0.548026
O O15 0.316051 0.748862 0.158120
O O16 0.231903 0.529418 0.259669
#
# Coordination Sequence:
#
# PCOD8046394 Si02
#       8
#     2   2   2   2   2   2   2   2
#     4  11  22  42  67  95 122 180 216 265 334 394
#     4  10  22  41  67  95 126 170 219 264 329 403
#     4  11  24  43  66  99 134 177 228 276 337 399
#     4  11  24  42  66  97 138 173 227 279 327 403
#     4  10  22  42  65  90 134 165 214 276 328 398
#     4  10  21  43  66  89 135 169 216 272 333 394
#     4  11  22  43  64  95 130 173 223 271 332 402
#     4  10  23  42  63  96 131 173 219 279 334 389
#
# _framework density 21.406101
#
# number of rings (size 3 to 8) (size 9 to 14) (size 15 to 20)
#    0.000    1.500    3.750    0.750    1.750    2.000 
#    4.500    0.000    0.000    0.000    0.000    0.000 
#    0.000    0.000    0.000    0.000    0.000    0.000 
#
# Total GULP energy -198277.990034 kJ/mol
# GULP energy per Si atom -12392.374377 kJ/mol
# Density = 2.135738 g / cm^3
# Si number density = 21.406101 Si / 1000 Ang^3
#
#
#
# Elastic Constant Matrix: (Units=GPa)
#
#
# Indices 1 2 3 4 5 6 
#
# 1 105.5374 18.7078 34.5054 0.0000 -1.8674 0.0000
# 2 18.7078 97.2606 26.8527 0.0000 5.2081 0.0000
# 3 34.5054 26.8527 71.1445 0.0000 0.0821 0.0000
# 4 0.0000 0.0000 0.0000 29.6640 0.0000 -2.3049
# 5 -1.8674 5.2081 0.0821 0.0000 35.4401 0.0000
# 6 0.0000 0.0000 0.0000 -2.3049 0.0000 31.2619
#
#
#
# Elastic Compliance Matrix: (Units=1/GPa)
#
#
# Indices 1 2 3 4 5 6 
#
# 1 0.011327 -0.000782 -0.005199 0.000000 0.000724 0.000000
# 2 -0.000782 0.011632 -0.004009 0.000000 -0.001741 0.000000
# 3 -0.005199 -0.004009 0.018090 0.000000 0.000273 0.000000
# 4 0.000000 0.000000 0.000000 0.033905 0.000000 0.002500
# 5 0.000724 -0.001741 0.000273 0.000000 0.028510 0.000000
# 6 0.000000 0.000000 0.000000 0.002500 0.000000 0.032172
#
#
# Mechanical properties :
#
#
# Convention : Reuss Voigt Hill
#
# Bulk Modulus (GPa) = 47.46391 48.23048 47.84719
# Shear Modulus (GPa) = 30.74277 32.19832 31.47054
#
# Velocity S-wave (km/s) = 3.79379 3.88256 3.83844
# Velocity P-wave (km/s) = 6.43519 6.53293 6.48425
#
# Compressibility (1/GPa) = 0.02106864
#
# Stress axis : x y z
#
# Youngs Moduli (GPa) = 88.28781 85.96820 55.27791
#
# Poissons Ratio (x) = 0.06722 0.28740
# Poissons Ratio (y) = 0.06904 0.22162
# Poissons Ratio (z) = 0.45902 0.34466
#
# Static dielectric constant tensor:
#      x y z
#    x 3.907250 0.000000 -0.329110 
#    y 0.000000 4.074750 0.000000 
#    z -0.329110 0.000000 3.617850 
# 
# 
# High freq. dielectric constant tensor:
#      x y z
#    x 1.848460 0.000000 -0.025360 
#    y 0.000000 1.852830 0.000000 
#    z -0.025360 0.000000 1.817460 
# 
# From -- ./inp_files/3037.got.cif
#   From: 2010.03.12/outbox.cif.g09.slc.cpg/sg4_2_cif.got.tgz:3037.got - 2010.03.31 09:31:35.
