data_PCOD8046678
_publ_section_title
;
Structure prediction by ZEFSAII (Michael W. Deem and Ramdas Pophale) SiO2 
 PCOD8046678
Probable space group: P 21
;
_chemical_formula_sum "Si O2"
_cell_formula_units_Z 12
_cell_length_a 7.471339
_cell_length_b 4.804229
_cell_length_c 18.599538
_cell_angle_alpha 90.000000
_cell_angle_beta 142.706077
_cell_angle_gamma 90.000000
_cell_volume 404.508952
_symmetry_space_group_name_H-M "P 21"
_symmetry_group_IT_number 4
_symmetry_cell_setting 'monoclinic'
loop_
_space_group_symop_operation_xyz
x,y,z
-x,1/2+y,-z
loop_
_atom_site_type_symbol
_atom_site_label
_atom_site_fract_x
_atom_site_fract_y
_atom_site_fract_z
Si Si1 0.864229 0.875000 0.158726
Si Si2 0.323165 0.247749 0.365805
Si Si3 0.108964 0.480670 0.437903
Si Si4 0.537987 0.679134 0.326633
Si Si5 0.473327 0.882268 0.901523
Si Si6 0.173322 0.763738 0.080331
O O1 0.811829 0.550227 0.158835
O O2 0.201133 0.961568 0.288709
O O3 0.642150 0.064513 0.137972
O O4 0.768746 0.928020 0.045362
O O5 0.104259 0.300127 0.363409
O O6 0.659331 0.231639 0.505456
O O7 0.334318 0.469932 0.306153
O O8 0.253969 0.364037 0.556900
O O9 0.771126 0.542743 0.345664
O O10 0.282803 0.833234 0.196913
O O11 0.569789 0.051847 0.862467
O O12 0.125767 0.062217 0.022596
#
# Coordination Sequence:
#
# PCOD8046678 Si02
#       6
#     2   2   2   2   2   2
#     4  10  23  40  74  96 149 188 252 309 378 456
#     4  12  26  47  74 111 145 206 258 323 393 473
#     4  12  27  48  75 113 153 204 262 324 402 465
#     4  12  28  48  78 112 161 200 265 333 393 474
#     4  10  22  44  64 109 139 199 246 309 381 455
#     4  12  28  47  75 111 155 207 261 322 399 471
#
# _framework density 29.665599
#
# number of rings (size 3 to 8) (size 9 to 14) (size 15 to 20)
#    0.000    0.667    3.333    3.000    7.000    4.000 
#    0.000    0.000    0.000    0.000    0.000    0.000 
#    0.000    0.000    0.000    0.000    0.000    0.000 
#
# Total GULP energy -148680.462439 kJ/mol
# GULP energy per Si atom -12390.038537 kJ/mol
# Density = 2.959808 g / cm^3
# Si number density = 29.665599 Si / 1000 Ang^3
#
#
#
# Elastic Constant Matrix: (Units=GPa)
#
#
# Indices 1 2 3 4 5 6 
#
# 1 115.4683 15.8574 62.6501 0.0000 0.2671 0.0000
# 2 15.8574 62.0426 6.5665 0.0000 -8.5715 0.0000
# 3 62.6501 6.5665 173.9140 0.0000 -5.1312 0.0000
# 4 0.0000 0.0000 0.0000 49.4606 0.0000 -5.0572
# 5 0.2671 -8.5715 -5.1312 0.0000 68.5857 0.0000
# 6 0.0000 0.0000 0.0000 -5.0572 0.0000 24.5292
#
#
#
# Elastic Compliance Matrix: (Units=1/GPa)
#
#
# Indices 1 2 3 4 5 6 
#
# 1 0.011145 -0.002522 -0.003939 0.000000 -0.000653 0.000000
# 2 -0.002522 0.017026 0.000329 0.000000 0.002162 0.000000
# 3 -0.003939 0.000329 0.007174 0.000000 0.000593 0.000000
# 4 0.000000 0.000000 0.000000 0.020653 0.000000 0.004258
# 5 -0.000653 0.002162 0.000593 0.000000 0.014897 0.000000
# 6 0.000000 0.000000 0.000000 0.004258 0.000000 0.041646
#
#
# Mechanical properties :
#
#
# Convention : Reuss Voigt Hill
#
# Bulk Modulus (GPa) = 43.32251 57.95256 50.63753
# Shear Modulus (GPa) = 37.73587 46.27183 42.00385
#
# Velocity S-wave (km/s) = 3.57044 3.95369 3.76694
# Velocity P-wave (km/s) = 5.62429 6.35767 6.00219
#
# Compressibility (1/GPa) = 0.02308269
#
# Stress axis : x y z
#
# Youngs Moduli (GPa) = 89.72253 58.73223 139.39175
#
# Poissons Ratio (x) = 0.14812 0.54907
# Poissons Ratio (y) = 0.22628 -0.04592
# Poissons Ratio (z) = 0.35342 -0.01935
#
# Static dielectric constant tensor:
#      x y z
#    x 5.955960 0.000000 0.470740 
#    y 0.000000 5.451770 0.000000 
#    z 0.470740 0.000000 5.786800 
# 
# 
# High freq. dielectric constant tensor:
#      x y z
#    x 2.244470 0.000000 0.017780 
#    y 0.000000 2.194020 0.000000 
#    z 0.017780 0.000000 2.248150 
# 
# From -- ./inp_files/15570.got.cif
#   From: 2010.03.12/outbox.cif.g09.slc.cpg/sg4_8_cif.got.tgz:15570.got - 2010.03.31 09:31:35.
