data_PCOD8046166
_publ_section_title
;
Structure prediction by ZEFSAII (Michael W. Deem and Ramdas Pophale) SiO2 
 PCOD8046166
Probable space group: P 21
;
_chemical_formula_sum "Si O2"
_cell_formula_units_Z 16
_cell_length_a 9.314988
_cell_length_b 8.576010
_cell_length_c 12.261627
_cell_angle_alpha 90.000000
_cell_angle_beta 130.054828
_cell_angle_gamma 90.000000
_cell_volume 749.757098
_symmetry_space_group_name_H-M "P 21"
_symmetry_group_IT_number 4
_symmetry_cell_setting 'monoclinic'
loop_
_space_group_symop_operation_xyz
x,y,z
-x,1/2+y,-z
loop_
_atom_site_type_symbol
_atom_site_label
_atom_site_fract_x
_atom_site_fract_y
_atom_site_fract_z
Si Si1 0.570483 0.492690 0.665541
Si Si2 0.334745 0.259075 0.441915
Si Si3 0.769715 0.050183 0.353753
Si Si4 0.193697 0.431975 0.166326
Si Si5 0.149853 0.207927 0.566653
Si Si6 0.490953 0.044855 0.838204
Si Si7 0.480002 0.709335 0.933801
Si Si8 0.824502 0.612645 0.963835
O O1 0.517142 0.319593 0.599199
O O2 0.620607 0.592152 0.584533
O O3 0.392211 0.573387 0.635923
O O4 0.741410 0.490201 0.834388
O O5 0.281928 0.387052 0.325620
O O6 0.165709 0.237940 0.444567
O O7 0.821887 0.870410 0.355695
O O8 0.697740 0.121187 0.205304
O O9 0.944589 0.142632 0.489275
O O10 0.342827 0.527477 0.167495
O O11 0.132170 0.275848 0.073777
O O12 0.015101 0.540465 0.103290
O O13 0.301262 0.081117 0.680112
O O14 0.464508 0.890657 0.897736
O O15 0.535715 0.186619 0.943447
O O16 0.677983 0.637860 0.990105
#
# Coordination Sequence:
#
# PCOD8046166 Si02
#       8
#     2   2   2   2   2   2   2   2
#     4   9  20  38  57  83 118 155 199 248 295 351
#     4  10  21  38  60  87 117 158 201 245 299 351
#     4  10  22  39  58  87 122 159 202 249 299 359
#     4  10  22  39  59  87 120 156 199 247 297 355
#     4  11  23  39  61  89 121 160 203 251 303 358
#     4  11  23  41  63  90 122 159 202 251 303 359
#     4  10  22  40  61  87 121 159 201 250 301 358
#     4   9  21  38  57  84 119 154 197 245 295 353
#
# _framework density 21.340243999999998
#
# number of rings (size 3 to 8) (size 9 to 14) (size 15 to 20)
#    0.000    2.000    0.000    3.000    0.000   11.000 
#    0.000    1.250    0.000    0.000    0.000    0.000 
#    0.000    0.000    0.000    0.000    0.000    0.000 
#
# Total GULP energy -198435.910134 kJ/mol
# GULP energy per Si atom -12402.244383 kJ/mol
# Density = 2.129167 g / cm^3
# Si number density = 21.340244 Si / 1000 Ang^3
#
#
#
# Elastic Constant Matrix: (Units=GPa)
#
#
# Indices 1 2 3 4 5 6 
#
# 1 61.4597 19.6767 37.0145 0.0000 5.1675 0.0000
# 2 19.6767 56.9836 15.8851 0.0000 7.9560 0.0000
# 3 37.0145 15.8851 77.6957 0.0000 5.5052 0.0000
# 4 0.0000 0.0000 0.0000 43.6278 0.0000 -1.1120
# 5 5.1675 7.9560 5.5052 0.0000 40.5568 0.0000
# 6 0.0000 0.0000 0.0000 -1.1120 0.0000 31.6354
#
#
#
# Elastic Compliance Matrix: (Units=1/GPa)
#
#
# Indices 1 2 3 4 5 6 
#
# 1 0.024348 -0.005407 -0.010450 0.000000 -0.000623 0.000000
# 2 -0.005407 0.020222 -0.001339 0.000000 -0.003096 0.000000
# 3 -0.010450 -0.001339 0.018185 0.000000 -0.000874 0.000000
# 4 0.000000 0.000000 0.000000 0.022942 0.000000 0.000806
# 5 -0.000623 -0.003096 -0.000874 0.000000 0.025462 0.000000
# 6 0.000000 0.000000 0.000000 0.000806 0.000000 0.031639
#
#
# Mechanical properties :
#
#
# Convention : Reuss Voigt Hill
#
# Bulk Modulus (GPa) = 35.25820 37.92129 36.58975
# Shear Modulus (GPa) = 26.78919 31.40151 29.09535
#
# Velocity S-wave (km/s) = 3.54692 3.84014 3.69643
# Velocity P-wave (km/s) = 5.77338 6.12132 5.94990
#
# Compressibility (1/GPa) = 0.02836220
#
# Stress axis : x y z
#
# Youngs Moduli (GPa) = 41.07152 49.45198 54.99141
#
# Poissons Ratio (x) = 0.26741 0.57464
# Poissons Ratio (y) = 0.22209 0.07363
# Poissons Ratio (z) = 0.42918 0.06621
#
# Static dielectric constant tensor:
#      x y z
#    x 3.724770 0.000000 -0.058850 
#    y 0.000000 3.835180 0.000000 
#    z -0.058850 0.000000 3.861570 
# 
# 
# High freq. dielectric constant tensor:
#      x y z
#    x 1.829570 0.000000 -0.003030 
#    y 0.000000 1.839640 0.000000 
#    z -0.003030 0.000000 1.838450 
# 
# From -- ./inp_files/5677.got.cif
#   From: 2010.03.12/outbox.cif.g09.slc.cpg/sg4_3_cif.got.tgz:5677.got - 2010.03.31 09:31:35.
