data_PCOD8046478
_publ_section_title
;
Structure prediction by ZEFSAII (Michael W. Deem and Ramdas Pophale) SiO2 
 PCOD8046478
Probable space group: P 21
;
_chemical_formula_sum "Si O2"
_cell_formula_units_Z 12
_cell_length_a 13.664359
_cell_length_b 7.760391
_cell_length_c 9.533099
_cell_angle_alpha 90.000000
_cell_angle_beta 150.167751
_cell_angle_gamma 90.000000
_cell_volume 502.883224
_symmetry_space_group_name_H-M "P 21"
_symmetry_group_IT_number 4
_symmetry_cell_setting 'monoclinic'
loop_
_space_group_symop_operation_xyz
x,y,z
-x,1/2+y,-z
loop_
_atom_site_type_symbol
_atom_site_label
_atom_site_fract_x
_atom_site_fract_y
_atom_site_fract_z
Si Si1 0.123178 0.508810 0.036449
Si Si2 0.379917 0.505175 0.829658
Si Si3 0.036971 0.261793 0.368758
Si Si4 0.595115 0.889763 0.836247
Si Si5 0.217290 0.052332 0.816317
Si Si6 0.200232 0.728924 0.382618
O O1 0.008864 0.676522 0.837219
O O2 0.999882 0.335110 0.862407
O O3 0.324393 0.488873 0.199231
O O4 0.171520 0.551770 0.258328
O O5 0.258396 0.334674 0.637526
O O6 0.271602 0.673122 0.627887
O O7 0.387950 0.517213 0.008368
O O8 0.597419 0.478140 0.038860
O O9 0.041530 0.110775 0.492426
O O10 0.874632 0.406875 0.198756
O O11 0.367911 0.847428 0.521670
O O12 0.716595 0.713535 0.007673
#
# Coordination Sequence:
#
# PCOD8046478 Si02
#       6
#     2   2   2   2   2   2
#     4  12  26  43  67  97 133 175 216 268 333 397
#     4  10  22  43  68  95 130 172 221 273 321 380
#     4  11  22  37  63  94 130 174 219 270 325 387
#     4  10  24  43  68  97 129 173 223 272 320 383
#     4  10  22  38  62  98 133 170 220 273 324 380
#     4  11  26  46  66  97 137 174 217 268 331 395
#
# _framework density 23.862399
#
# number of rings (size 3 to 8) (size 9 to 14) (size 15 to 20)
#    0.000    1.333    0.000    5.000    0.000   16.000 
#    0.000    0.000    0.000    0.000    0.000    0.000 
#    0.000    0.000    0.000    0.000    0.000    0.000 
#
# Total GULP energy -148847.533916 kJ/mol
# GULP energy per Si atom -12403.961160 kJ/mol
# Density = 2.380809 g / cm^3
# Si number density = 23.862399 Si / 1000 Ang^3
#
#
#
# Elastic Constant Matrix: (Units=GPa)
#
#
# Indices 1 2 3 4 5 6 
#
# 1 96.5871 43.2629 27.1779 0.0000 6.2894 0.0000
# 2 43.2629 83.1142 17.3645 0.0000 -1.6725 0.0000
# 3 27.1779 17.3645 65.5331 0.0000 5.8966 0.0000
# 4 0.0000 0.0000 0.0000 46.0740 0.0000 2.8146
# 5 6.2894 -1.6725 5.8966 0.0000 27.2143 0.0000
# 6 0.0000 0.0000 0.0000 2.8146 0.0000 50.1077
#
#
#
# Elastic Compliance Matrix: (Units=1/GPa)
#
#
# Indices 1 2 3 4 5 6 
#
# 1 0.014775 -0.006908 -0.004030 0.000000 -0.002966 0.000000
# 2 -0.006908 0.016031 -0.001647 0.000000 0.002939 0.000000
# 3 -0.004030 -0.001647 0.017636 0.000000 -0.002991 0.000000
# 4 0.000000 0.000000 0.000000 0.021779 0.000000 -0.001223
# 5 -0.002966 0.002939 -0.002991 0.000000 0.038259 0.000000
# 6 0.000000 0.000000 0.000000 -0.001223 0.000000 0.020026
#
#
# Mechanical properties :
#
#
# Convention : Reuss Voigt Hill
#
# Bulk Modulus (GPa) = 42.97183 46.76055 44.86619
# Shear Modulus (GPa) = 30.97237 35.17448 33.07342
#
# Velocity S-wave (km/s) = 3.60663 3.84351 3.72695
# Velocity P-wave (km/s) = 5.94903 6.27178 6.11253
#
# Compressibility (1/GPa) = 0.02327106
#
# Stress axis : x y z
#
# Youngs Moduli (GPa) = 67.68275 62.37972 56.70100
#
# Poissons Ratio (x) = 0.43094 0.22851
# Poissons Ratio (y) = 0.46758 0.09339
# Poissons Ratio (z) = 0.27276 0.10275
#
# Static dielectric constant tensor:
#      x y z
#    x 4.172060 0.000000 0.105400 
#    y 0.000000 4.214890 0.000000 
#    z 0.105400 0.000000 4.289750 
# 
# 
# High freq. dielectric constant tensor:
#      x y z
#    x 1.941370 0.000000 0.012750 
#    y 0.000000 1.945380 0.000000 
#    z 0.012750 0.000000 1.943230 
# 
# From -- ./inp_files/8078.got.cif
#   From: 2010.03.12/outbox.cif.g09.slc.cpg/sg4_5_cif.got.tgz:8078.got - 2010.03.31 09:31:35.
