data_PCOD8046708
_publ_section_title
;
Structure prediction by ZEFSAII (Michael W. Deem and Ramdas Pophale) SiO2 
 PCOD8046708
Probable space group: P 21
;
_chemical_formula_sum "Si O2"
_cell_formula_units_Z 12
_cell_length_a 9.882875
_cell_length_b 10.942618
_cell_length_c 10.421421
_cell_angle_alpha 90.000000
_cell_angle_beta 152.282487
_cell_angle_gamma 90.000000
_cell_volume 524.191091
_symmetry_space_group_name_H-M "P 21"
_symmetry_group_IT_number 4
_symmetry_cell_setting 'monoclinic'
loop_
_space_group_symop_operation_xyz
x,y,z
-x,1/2+y,-z
loop_
_atom_site_type_symbol
_atom_site_label
_atom_site_fract_x
_atom_site_fract_y
_atom_site_fract_z
Si Si1 0.294957 0.036020 0.452836
Si Si2 0.673601 0.457556 0.804160
Si Si3 0.250876 0.812213 0.594157
Si Si4 0.685080 0.709711 0.164298
Si Si5 0.269698 0.689633 0.053964
Si Si6 0.917379 0.080271 0.669134
O O1 0.304066 0.959697 0.330121
O O2 0.590331 0.115147 0.710166
O O3 0.289786 0.946127 0.569631
O O4 0.031862 0.130904 0.241146
O O5 0.780352 0.328694 0.948419
O O6 0.341473 0.482545 0.570450
O O7 0.905019 0.556527 0.051016
O O8 0.949225 0.802663 0.422982
O O9 0.229750 0.715668 0.456106
O O10 0.516452 0.777173 0.907924
O O11 0.488360 0.678439 0.118529
O O12 0.837902 0.582770 0.240521
#
# Coordination Sequence:
#
# PCOD8046708 Si02
#       6
#     2   2   2   2   2   2
#     4  12  28  44  71  98 145 180 227 286 334 419
#     4  12  26  44  71  96 143 181 223 287 330 419
#     4  10  22  45  70 101 130 184 220 275 353 398
#     4  10  22  44  72 103 136 168 234 279 342 414
#     4  12  28  46  66 111 131 181 235 284 342 396
#     4  10  22  45  70  99 129 184 223 273 351 396
#
# _framework density 22.892416000000001
#
# number of rings (size 3 to 8) (size 9 to 14) (size 15 to 20)
#    1.000    0.000    1.667    4.000    4.667    4.000 
#    0.000    0.000    0.000    0.000    0.000    0.000 
#    0.000    0.000    0.000    0.000    0.000    0.000 
#
# Total GULP energy -148728.472619 kJ/mol
# GULP energy per Si atom -12394.039385 kJ/mol
# Density = 2.284031 g / cm^3
# Si number density = 22.892416 Si / 1000 Ang^3
#
#
#
# Elastic Constant Matrix: (Units=GPa)
#
#
# Indices 1 2 3 4 5 6 
#
# 1 79.2335 30.7746 4.5098 0.0000 5.7025 0.0000
# 2 30.7746 83.4925 32.6222 0.0000 -1.1818 0.0000
# 3 4.5098 32.6222 107.1192 0.0000 14.0539 0.0000
# 4 0.0000 0.0000 0.0000 32.7417 0.0000 0.5596
# 5 5.7025 -1.1818 14.0539 0.0000 25.4595 0.0000
# 6 0.0000 0.0000 0.0000 0.5596 0.0000 26.4613
#
#
#
# Elastic Compliance Matrix: (Units=1/GPa)
#
#
# Indices 1 2 3 4 5 6 
#
# 1 0.015385 -0.006508 0.001969 0.000000 -0.004835 0.000000
# 2 -0.006508 0.016586 -0.005465 0.000000 0.005244 0.000000
# 3 0.001969 -0.005465 0.011867 0.000000 -0.007246 0.000000
# 4 0.000000 0.000000 0.000000 0.030553 0.000000 -0.000646
# 5 -0.004835 0.005244 -0.007246 0.000000 0.044604 0.000000
# 6 0.000000 0.000000 0.000000 -0.000646 0.000000 0.037805
#
#
# Mechanical properties :
#
#
# Convention : Reuss Voigt Hill
#
# Bulk Modulus (GPa) = 41.96683 45.07315 43.51999
# Shear Modulus (GPa) = 27.06335 30.39507 28.72921
#
# Velocity S-wave (km/s) = 3.44204 3.64776 3.54639
# Velocity P-wave (km/s) = 5.84541 6.12155 5.98508
#
# Compressibility (1/GPa) = 0.02382834
#
# Stress axis : x y z
#
# Youngs Moduli (GPa) = 64.99973 60.29345 84.26406
#
# Poissons Ratio (x) = 0.39241 -0.16589
# Poissons Ratio (y) = 0.42304 0.46051
# Poissons Ratio (z) = -0.12796 0.32951
#
# Static dielectric constant tensor:
#      x y z
#    x 3.892760 0.000000 0.141400 
#    y 0.000000 3.876950 0.000000 
#    z 0.141400 0.000000 4.309960 
# 
# 
# High freq. dielectric constant tensor:
#      x y z
#    x 1.889450 0.000000 0.008350 
#    y 0.000000 1.892650 0.000000 
#    z 0.008350 0.000000 1.927620 
# 
# From -- ./inp_files/12058.got.cif
#   From: 2010.03.12/outbox.cif.g09.slc.cpg/sg4_7_cif.got.tgz:12058.got - 2010.03.31 09:31:35.
