data_PCOD8046434
_publ_section_title
;
Structure prediction by ZEFSAII (Michael W. Deem and Ramdas Pophale) SiO2 
 PCOD8046434
Probable space group: P 21
;
_chemical_formula_sum "Si O2"
_cell_formula_units_Z 16
_cell_length_a 12.157636
_cell_length_b 10.107390
_cell_length_c 8.938139
_cell_angle_alpha 90.000000
_cell_angle_beta 141.694286
_cell_angle_gamma 90.000000
_cell_volume 680.811651
_symmetry_space_group_name_H-M "P 21"
_symmetry_group_IT_number 4
_symmetry_cell_setting 'monoclinic'
loop_
_space_group_symop_operation_xyz
x,y,z
-x,1/2+y,-z
loop_
_atom_site_type_symbol
_atom_site_label
_atom_site_fract_x
_atom_site_fract_y
_atom_site_fract_z
Si Si1 0.444441 0.755980 0.496582
Si Si2 0.123468 0.450700 0.810978
Si Si3 0.512708 0.855910 0.876756
Si Si4 0.862779 0.232394 0.033191
Si Si5 0.162256 0.291503 0.140055
Si Si6 0.573657 0.555444 0.986574
Si Si7 0.941588 0.475497 0.317833
Si Si8 0.259647 0.520458 0.464786
O O1 0.460380 0.865646 0.644820
O O2 0.647548 0.715195 0.670401
O O3 0.330238 0.638144 0.440377
O O4 0.321330 0.799518 0.225430
O O5 0.175798 0.591734 0.935479
O O6 0.965221 0.461522 0.522393
O O7 0.286490 0.400871 0.885295
O O8 0.083921 0.343466 0.898599
O O9 0.391383 0.966296 0.828270
O O10 0.497406 0.705175 0.925991
O O11 0.934070 0.329667 0.237664
O O12 0.009438 0.205767 0.057978
O O13 0.194440 0.414330 0.279957
O O14 0.761066 0.559512 0.098836
O O15 0.427313 0.470129 0.740262
O O16 0.097332 0.559098 0.402833
#
# Coordination Sequence:
#
# PCOD8046434 Si02
#       8
#     2   2   2   2   2   2   2   2
#     4  10  22  44  71  96 140 188 233 296 358 419
#     4  11  24  48  68 104 149 181 237 304 355 425
#     4  10  25  45  71 105 145 184 243 303 350 430
#     4  11  25  46  72 103 140 193 241 297 361 437
#     4  10  23  45  68 102 138 181 240 296 352 428
#     4  11  24  44  71 105 140 191 234 297 367 426
#     4  11  26  41  73 104 142 190 235 292 370 428
#     4  10  21  45  66  99 142 178 241 301 345 425
#
# _framework density 23.501359000000001
#
# number of rings (size 3 to 8) (size 9 to 14) (size 15 to 20)
#    0.000    1.500    2.500    0.750    5.250    3.000 
#    4.500    0.000    0.000    0.000    0.000    0.000 
#    0.000    0.000    0.000    0.000    0.000    0.000 
#
# Total GULP energy -198279.486881 kJ/mol
# GULP energy per Si atom -12392.467930 kJ/mol
# Density = 2.344787 g / cm^3
# Si number density = 23.501359 Si / 1000 Ang^3
#
#
#
# Elastic Constant Matrix: (Units=GPa)
#
#
# Indices 1 2 3 4 5 6 
#
# 1 97.8520 41.1248 44.6985 0.0000 4.2474 0.0000
# 2 41.1248 71.5378 15.4434 0.0000 -1.3802 0.0000
# 3 44.6985 15.4434 101.9967 0.0000 -1.0545 0.0000
# 4 0.0000 0.0000 0.0000 22.2834 0.0000 -0.0809
# 5 4.2474 -1.3802 -1.0545 0.0000 37.2466 0.0000
# 6 0.0000 0.0000 0.0000 -0.0809 0.0000 38.7535
#
#
#
# Elastic Compliance Matrix: (Units=1/GPa)
#
#
# Indices 1 2 3 4 5 6 
#
# 1 0.016544 -0.008255 -0.006024 0.000000 -0.002363 0.000000
# 2 -0.008255 0.018579 0.000822 0.000000 0.001653 0.000000
# 3 -0.006024 0.000822 0.012331 0.000000 0.001067 0.000000
# 4 0.000000 0.000000 0.000000 0.044877 0.000000 0.000094
# 5 -0.002363 0.001653 0.001067 0.000000 0.027209 0.000000
# 6 0.000000 0.000000 0.000000 0.000094 0.000000 0.025804
#
#
# Mechanical properties :
#
#
# Convention : Reuss Voigt Hill
#
# Bulk Modulus (GPa) = 48.69167 52.65777 50.67472
# Shear Modulus (GPa) = 27.91653 30.99801 29.45727
#
# Velocity S-wave (km/s) = 3.45029 3.63573 3.54422
# Velocity P-wave (km/s) = 6.05279 6.33084 6.19338
#
# Compressibility (1/GPa) = 0.02053739
#
# Stress axis : x y z
#
# Youngs Moduli (GPa) = 60.44639 53.82456 81.09677
#
# Poissons Ratio (x) = 0.44434 0.48856
# Poissons Ratio (y) = 0.49901 -0.06665
# Poissons Ratio (z) = 0.36416 -0.04424
#
# Static dielectric constant tensor:
#      x y z
#    x 4.670560 0.000000 0.242130 
#    y 0.000000 3.910880 0.000000 
#    z 0.242130 0.000000 5.152580 
# 
# 
# High freq. dielectric constant tensor:
#      x y z
#    x 1.938520 0.000000 0.000410 
#    y 0.000000 1.902640 0.000000 
#    z 0.000410 0.000000 1.946240 
# 
# From -- ./inp_files/8400.got.cif
#   From: 2010.03.12/outbox.cif.g09.slc.cpg/sg4_5_cif.got.tgz:8400.got - 2010.03.31 09:31:35.
