data_PCOD8046928
_publ_section_title
;
Structure prediction by ZEFSAII (Michael W. Deem and Ramdas Pophale) SiO2 
 PCOD8046928
Probable space group: P 21
;
_chemical_formula_sum "Si O2"
_cell_formula_units_Z 16
_cell_length_a 8.573162
_cell_length_b 5.225317
_cell_length_c 16.089305
_cell_angle_alpha 90.000000
_cell_angle_beta 68.680783
_cell_angle_gamma 90.000000
_cell_volume 671.438352
_symmetry_space_group_name_H-M "P 21"
_symmetry_group_IT_number 4
_symmetry_cell_setting 'monoclinic'
loop_
_space_group_symop_operation_xyz
x,y,z
-x,1/2+y,-z
loop_
_atom_site_type_symbol
_atom_site_label
_atom_site_fract_x
_atom_site_fract_y
_atom_site_fract_z
Si Si1 0.280003 0.676880 0.034100
Si Si2 0.478964 0.701029 0.146584
Si Si3 0.725639 0.310313 0.145866
Si Si4 0.186698 0.360507 0.277957
Si Si5 0.953481 0.533790 0.458996
Si Si6 0.459790 0.069214 0.293614
Si Si7 0.096986 0.181038 0.125101
Si Si8 0.572581 0.402314 0.524332
O O1 0.448832 0.749614 0.053891
O O2 0.222244 0.394941 0.068657
O O3 0.141218 0.899131 0.080724
O O4 0.323660 0.650951 0.928109
O O5 0.665776 0.596832 0.131654
O O6 0.329900 0.514249 0.203247
O O7 0.450012 0.951967 0.204298
O O8 0.918879 0.277288 0.125908
O O9 0.625712 0.243070 0.250713
O O10 0.097057 0.178553 0.226357
O O11 0.049771 0.532382 0.351752
O O12 0.281226 0.212518 0.335626
O O13 0.761299 0.487287 0.473482
O O14 0.980906 0.813209 0.492219
O O15 0.475469 0.881140 0.368718
O O16 0.455695 0.621948 0.507443
#
# Coordination Sequence:
#
# PCOD8046928 Si02
#       8
#     2   2   2   2   2   2   2   2
#     4  11  25  46  69 101 147 187 242 282 352 417
#     4  10  24  42  71 100 141 188 235 292 340 433
#     4  11  27  40  73 103 144 188 234 295 355 419
#     4  10  23  44  69 100 136 186 240 285 351 425
#     4  12  25  45  78 103 136 189 240 289 357 436
#     4  11  24  47  69 101 145 182 238 291 360 420
#     4  11  25  45  67 104 141 189 235 297 345 416
#     4  12  29  49  72 108 148 183 230 307 368 426
#
# _framework density 23.829436999999999
#
# number of rings (size 3 to 8) (size 9 to 14) (size 15 to 20)
#    0.000    1.000    2.500    2.250   10.500    0.000 
#    2.250    0.000    0.000    0.000    0.000    0.000 
#    0.000    0.000    0.000    0.000    0.000    0.000 
#
# Total GULP energy -198274.926428 kJ/mol
# GULP energy per Si atom -12392.182902 kJ/mol
# Density = 2.377520 g / cm^3
# Si number density = 23.829437 Si / 1000 Ang^3
#
#
#
# Elastic Constant Matrix: (Units=GPa)
#
#
# Indices 1 2 3 4 5 6 
#
# 1 97.5573 -0.3330 13.4967 0.0000 0.4920 0.0000
# 2 -0.3330 58.5721 3.5541 0.0000 0.1958 0.0000
# 3 13.4967 3.5541 108.3192 0.0000 12.4700 0.0000
# 4 0.0000 0.0000 0.0000 27.2972 0.0000 12.3744
# 5 0.4920 0.1958 12.4700 0.0000 23.2583 0.0000
# 6 0.0000 0.0000 0.0000 12.3744 0.0000 29.8805
#
#
#
# Elastic Compliance Matrix: (Units=1/GPa)
#
#
# Indices 1 2 3 4 5 6 
#
# 1 0.010437 0.000140 -0.001364 0.000000 0.000509 0.000000
# 2 0.000140 0.017110 -0.000599 0.000000 0.000174 0.000000
# 3 -0.001364 -0.000599 0.010037 0.000000 -0.005348 0.000000
# 4 0.000000 0.000000 0.000000 0.045101 0.000000 -0.018678
# 5 0.000509 0.000174 -0.005348 0.000000 0.045850 0.000000
# 6 0.000000 0.000000 0.000000 -0.018678 0.000000 0.041202
#
#
# Mechanical properties :
#
#
# Convention : Reuss Voigt Hill
#
# Bulk Modulus (GPa) = 29.46444 33.09826 31.28135
# Shear Modulus (GPa) = 27.07185 32.60259 29.83722
#
# Velocity S-wave (km/s) = 3.37422 3.70288 3.54236
# Velocity P-wave (km/s) = 5.25091 5.67465 5.46688
#
# Compressibility (1/GPa) = 0.03393921
#
# Stress axis : x y z
#
# Youngs Moduli (GPa) = 95.81341 58.44690 99.62976
#
# Poissons Ratio (x) = -0.00820 0.13586
# Poissons Ratio (y) = -0.01345 0.05967
# Poissons Ratio (z) = 0.13066 0.03501
#
# Static dielectric constant tensor:
#      x y z
#    x 4.433200 0.000000 0.046800 
#    y 0.000000 4.368740 0.000000 
#    z 0.046800 0.000000 4.565680 
# 
# 
# High freq. dielectric constant tensor:
#      x y z
#    x 1.945350 0.000000 -0.000010 
#    y 0.000000 1.941560 0.000000 
#    z -0.000010 0.000000 1.957330 
# 
# From -- ./inp_files/8716.got.cif
#   From: 2010.03.12/outbox.cif.g09.slc.cpg/sg4_5_cif.got.tgz:8716.got - 2010.03.31 09:31:35.
