data_PCOD8046704
_publ_section_title
;
Structure prediction by ZEFSAII (Michael W. Deem and Ramdas Pophale) SiO2 
 PCOD8046704
Probable space group: P 21
;
_chemical_formula_sum "Si O2"
_cell_formula_units_Z 14
_cell_length_a 10.223875
_cell_length_b 5.222848
_cell_length_c 10.005961
_cell_angle_alpha 90.000000
_cell_angle_beta 99.949028
_cell_angle_gamma 90.000000
_cell_volume 526.260933
_symmetry_space_group_name_H-M "P 21"
_symmetry_group_IT_number 4
_symmetry_cell_setting 'monoclinic'
loop_
_space_group_symop_operation_xyz
x,y,z
-x,1/2+y,-z
loop_
_atom_site_type_symbol
_atom_site_label
_atom_site_fract_x
_atom_site_fract_y
_atom_site_fract_z
Si Si1 0.283733 0.333490 0.694070
Si Si2 0.164107 0.052486 0.036644
Si Si3 0.975685 0.561059 0.411293
Si Si4 0.414972 0.522455 0.468163
Si Si5 0.111415 0.552534 0.158922
Si Si6 0.664824 0.228890 0.098655
Si Si7 0.456036 0.532104 0.188090
O O1 0.173965 0.111814 0.667332
O O2 0.294489 0.465500 0.548666
O O3 0.429324 0.236755 0.758397
O O4 0.238599 0.542659 0.798094
O O5 0.185005 0.823073 0.148221
O O6 0.261281 0.997163 0.925870
O O7 0.202108 0.315231 0.119693
O O8 0.015618 0.061644 0.958978
O O9 0.971997 0.309066 0.500709
O O10 0.074168 0.511056 0.305853
O O11 0.470218 0.806434 0.505744
O O12 0.362430 0.508725 0.304063
O O13 0.631017 0.100828 0.953202
O O14 0.533127 0.269575 0.164873
#
# Coordination Sequence:
#
# PCOD8046704 Si02
#       7
#     2   2   2   2   2   2   2
#     4  11  26  46  77 105 155 202 254 317 385 447
#     4  10  24  40  77 103 146 193 244 306 390 442
#     4  12  29  48  76 109 147 202 267 315 375 460
#     4  10  22  44  71 105 145 198 240 297 370 448
#     4  10  23  48  69 107 143 194 246 315 378 447
#     4  12  24  42  74 115 149 202 248 318 376 462
#     4  11  24  44  72 112 153 191 253 304 380 462
#
# _framework density 26.602775000000001
#
# number of rings (size 3 to 8) (size 9 to 14) (size 15 to 20)
#    0.000    1.143    2.857    1.714   12.000    1.143 
#    0.000   10.000    0.000    0.000    0.000    0.000 
#    0.000    0.000    0.000    0.000    0.000    0.000 
#
# Total GULP energy -173592.982302 kJ/mol
# GULP energy per Si atom -12399.498736 kJ/mol
# Density = 2.654223 g / cm^3
# Si number density = 26.602775 Si / 1000 Ang^3
#
#
#
# Elastic Constant Matrix: (Units=GPa)
#
#
# Indices 1 2 3 4 5 6 
#
# 1 64.7008 8.4399 30.1162 0.0000 -29.8061 0.0000
# 2 8.4399 129.7722 66.3425 0.0000 -8.1950 0.0000
# 3 30.1162 66.3425 187.1672 0.0000 -32.2297 0.0000
# 4 0.0000 0.0000 0.0000 48.3674 0.0000 -6.2148
# 5 -29.8061 -8.1950 -32.2297 0.0000 31.6482 0.0000
# 6 0.0000 0.0000 0.0000 -6.2148 0.0000 42.9568
#
#
#
# Elastic Compliance Matrix: (Units=1/GPa)
#
#
# Indices 1 2 3 4 5 6 
#
# 1 0.027305 -0.000209 0.000121 0.000000 0.025784 0.000000
# 2 -0.000209 0.009448 -0.003551 0.000000 -0.001366 0.000000
# 3 0.000121 -0.003551 0.007813 0.000000 0.007151 0.000000
# 4 0.000000 0.000000 0.000000 0.021067 0.000000 0.003048
# 5 0.025784 -0.001366 0.007151 0.000000 0.062810 0.000000
# 6 0.000000 0.000000 0.000000 0.003048 0.000000 0.023720
#
#
# Mechanical properties :
#
#
# Convention : Reuss Voigt Hill
#
# Bulk Modulus (GPa) = 26.81800 65.71528 46.26664
# Shear Modulus (GPa) = 29.09155 43.04392 36.06773
#
# Velocity S-wave (km/s) = 3.31048 4.02683 3.68610
# Velocity P-wave (km/s) = 4.97143 6.81003 5.96203
#
# Compressibility (1/GPa) = 0.03728838
#
# Stress axis : x y z
#
# Youngs Moduli (GPa) = 36.62309 105.83922 127.98616
#
# Poissons Ratio (x) = 0.02214 -0.01544
# Poissons Ratio (y) = 0.00766 0.45443
# Poissons Ratio (z) = -0.00442 0.37579
#
# Static dielectric constant tensor:
#      x y z
#    x 4.816410 0.000000 -0.299050 
#    y 0.000000 5.126320 0.000000 
#    z -0.299050 0.000000 5.139250 
# 
# 
# High freq. dielectric constant tensor:
#      x y z
#    x 2.061570 0.000000 -0.009330 
#    y 0.000000 2.074480 0.000000 
#    z -0.009330 0.000000 2.090730 
# 
# From -- ./inp_files/7384.got.cif
#   From: 2010.03.12/outbox.cif.g09.slc.cpg/sg4_4_cif.got.tgz:7384.got - 2010.03.31 09:31:35.
