data_PCOD8046438
_publ_section_title
;
Structure prediction by ZEFSAII (Michael W. Deem and Ramdas Pophale) SiO2 
 PCOD8046438
Probable space group: P 21
;
_chemical_formula_sum "Si O2"
_cell_formula_units_Z 16
_cell_length_a 5.128859
_cell_length_b 20.071556
_cell_length_c 6.604488
_cell_angle_alpha 90.000000
_cell_angle_beta 75.429340
_cell_angle_gamma 90.000000
_cell_volume 658.026951
_symmetry_space_group_name_H-M "P 21"
_symmetry_group_IT_number 4
_symmetry_cell_setting 'monoclinic'
loop_
_space_group_symop_operation_xyz
x,y,z
-x,1/2+y,-z
loop_
_atom_site_type_symbol
_atom_site_label
_atom_site_fract_x
_atom_site_fract_y
_atom_site_fract_z
Si Si1 0.552454 0.224570 0.673286
Si Si2 0.686597 0.788893 0.657127
Si Si3 0.057186 0.392709 0.163103
Si Si4 0.596235 0.077190 0.543910
Si Si5 0.197660 0.785581 0.023194
Si Si6 0.160032 0.048717 0.287516
Si Si7 0.586444 0.475694 0.106680
Si Si8 0.868444 0.683806 0.903219
O O1 0.426327 0.278143 0.544122
O O2 0.664457 0.156237 0.551291
O O3 0.784603 0.268173 0.740717
O O4 0.339705 0.202835 0.881587
O O5 0.911107 0.847972 0.636164
O O6 0.466431 0.814535 0.866084
O O7 0.801269 0.717363 0.700947
O O8 0.309300 0.441583 0.092075
O O9 0.039326 0.339395 0.977274
O O10 0.776128 0.433801 0.224072
O O11 0.390067 0.067527 0.401091
O O12 0.873534 0.036460 0.451027
O O13 0.477135 0.046147 0.772749
O O14 0.152234 0.714284 0.920445
O O15 0.109302 0.105920 0.130944
O O16 0.249908 0.985815 0.135220
#
# Coordination Sequence:
#
# PCOD8046438 Si02
#       8
#     2   2   2   2   2   2   2   2
#     4  11  23  41  74 114 150 184 245 309 380 446
#     4  10  21  45  69 106 145 188 241 308 364 433
#     4  11  24  49  77  99 148 202 252 299 368 439
#     4  12  27  46  75 117 145 192 250 303 381 446
#     4  10  23  42  72 108 142 196 241 303 375 433
#     4  12  26  47  74 109 150 189 244 307 369 445
#     4  12  26  51  76 103 152 202 246 309 361 443
#     4  10  22  39  69 108 148 183 233 300 382 429
#
# _framework density 24.315114999999999
#
# number of rings (size 3 to 8) (size 9 to 14) (size 15 to 20)
#    0.000    1.000    3.750    2.250    3.500    3.000 
#    2.250    6.250    0.000    0.000    0.000    0.000 
#    0.000    0.000    0.000    0.000    0.000    0.000 
#
# Total GULP energy -198306.878138 kJ/mol
# GULP energy per Si atom -12394.179884 kJ/mol
# Density = 2.425977 g / cm^3
# Si number density = 24.315115 Si / 1000 Ang^3
#
#
#
# Elastic Constant Matrix: (Units=GPa)
#
#
# Indices 1 2 3 4 5 6 
#
# 1 135.7213 42.8081 35.7191 0.0000 27.5861 0.0000
# 2 42.8081 97.4000 34.0422 0.0000 18.8535 0.0000
# 3 35.7191 34.0422 93.3823 0.0000 28.8173 0.0000
# 4 0.0000 0.0000 0.0000 21.9838 0.0000 1.0997
# 5 27.5861 18.8535 28.8173 0.0000 43.8865 0.0000
# 6 0.0000 0.0000 0.0000 1.0997 0.0000 39.8454
#
#
#
# Elastic Compliance Matrix: (Units=1/GPa)
#
#
# Indices 1 2 3 4 5 6 
#
# 1 0.009418 -0.002932 -0.001374 0.000000 -0.003759 0.000000
# 2 -0.002932 0.012961 -0.003078 0.000000 -0.001704 0.000000
# 3 -0.001374 -0.003078 0.014650 0.000000 -0.007434 0.000000
# 4 0.000000 0.000000 0.000000 0.045551 0.000000 -0.001257
# 5 -0.003759 -0.001704 -0.007434 0.000000 0.030762 0.000000
# 6 0.000000 0.000000 0.000000 -0.001257 0.000000 0.025132
#
#
# Mechanical properties :
#
#
# Convention : Reuss Voigt Hill
#
# Bulk Modulus (GPa) = 44.91724 61.29361 53.10542
# Shear Modulus (GPa) = 31.12131 35.40542 33.26336
#
# Velocity S-wave (km/s) = 3.58147 3.82004 3.70268
# Velocity P-wave (km/s) = 5.96789 6.68728 6.33780
#
# Compressibility (1/GPa) = 0.02226317
#
# Stress axis : x y z
#
# Youngs Moduli (GPa) = 106.17681 77.15466 68.25836
#
# Poissons Ratio (x) = 0.22619 0.09378
# Poissons Ratio (y) = 0.31128 0.21007
# Poissons Ratio (z) = 0.14588 0.23745
#
# Static dielectric constant tensor:
#      x y z
#    x 4.626710 0.000000 0.174130 
#    y 0.000000 4.441420 0.000000 
#    z 0.174130 0.000000 4.147690 
# 
# 
# High freq. dielectric constant tensor:
#      x y z
#    x 1.981430 0.000000 0.014010 
#    y 0.000000 1.963940 0.000000 
#    z 0.014010 0.000000 1.947880 
# 
# From -- ./inp_files/659.got.cif
#   From: 2010.03.12/outbox.cif.g09.slc.cpg/sg4_1_cif.got.tgz:659.got - 2010.03.31 09:31:35.
