data_PCOD8046625
_publ_section_title
;
Structure prediction by ZEFSAII (Michael W. Deem and Ramdas Pophale) SiO2 
 PCOD8046625
Probable space group: P 21
;
_chemical_formula_sum "Si O2"
_cell_formula_units_Z 16
_cell_length_a 9.447193
_cell_length_b 8.911852
_cell_length_c 9.873617
_cell_angle_alpha 90.000000
_cell_angle_beta 121.813711
_cell_angle_gamma 90.000000
_cell_volume 706.393461
_symmetry_space_group_name_H-M "P 21"
_symmetry_group_IT_number 4
_symmetry_cell_setting 'monoclinic'
loop_
_space_group_symop_operation_xyz
x,y,z
-x,1/2+y,-z
loop_
_atom_site_type_symbol
_atom_site_label
_atom_site_fract_x
_atom_site_fract_y
_atom_site_fract_z
Si Si1 0.654142 0.779290 0.951470
Si Si2 0.897577 0.211012 0.420275
Si Si3 0.879109 0.247647 0.098471
Si Si4 0.601209 0.456990 0.035690
Si Si5 0.199793 0.027852 0.598367
Si Si6 0.022169 0.434402 0.950093
Si Si7 0.560547 0.186492 0.384031
Si Si8 0.321523 0.952388 0.387486
O O1 0.560134 0.801341 0.760349
O O2 0.583391 0.892657 0.030240
O O3 0.607865 0.604560 0.949614
O O4 0.850607 0.810572 0.046943
O O5 0.932617 0.204286 0.276864
O O6 0.900650 0.376145 0.482132
O O7 0.721119 0.135607 0.374116
O O8 0.060245 0.144469 0.573819
O O9 0.694025 0.317175 0.010556
O O10 0.993296 0.379782 0.090653
O O11 0.890186 0.098488 0.010107
O O12 0.675419 0.501754 0.217395
O O13 0.292900 0.060954 0.503754
O O14 0.847226 0.436920 0.784328
O O15 0.619624 0.284617 0.543064
O O16 0.465925 0.033939 0.375266
#
# Coordination Sequence:
#
# PCOD8046625 Si02
#       8
#     2   2   2   2   2   2   2   2
#     4  12  25  45  72 103 143 186 234 293 344 422
#     4  10  22  43  70  96 137 178 231 281 342 414
#     4  11  22  45  65 104 138 183 232 286 341 420
#     4  11  24  45  71 104 141 186 237 286 351 413
#     4  10  22  42  69 102 134 177 229 283 340 416
#     4  12  26  43  72 102 144 185 234 286 356 418
#     4  11  25  48  68 100 139 182 229 291 348 418
#     4  11  24  47  67 101 138 179 232 284 356 415
#
# _framework density 22.650265999999998
#
# number of rings (size 3 to 8) (size 9 to 14) (size 15 to 20)
#    0.000    1.000    5.000    3.000    3.500    2.000 
#    6.750    0.000    0.000    0.000    0.000    0.000 
#    0.000    0.000    0.000    0.000    0.000    0.000 
#
# Total GULP energy -198280.576427 kJ/mol
# GULP energy per Si atom -12392.536027 kJ/mol
# Density = 2.259871 g / cm^3
# Si number density = 22.650266 Si / 1000 Ang^3
#
#
#
# Elastic Constant Matrix: (Units=GPa)
#
#
# Indices 1 2 3 4 5 6 
#
# 1 130.8866 34.3721 45.6457 0.0000 -13.3543 0.0000
# 2 34.3721 55.6681 32.1848 0.0000 -5.0432 0.0000
# 3 45.6457 32.1848 58.8020 0.0000 0.9682 0.0000
# 4 0.0000 0.0000 0.0000 30.5544 0.0000 3.5192
# 5 -13.3543 -5.0432 0.9682 0.0000 29.6097 0.0000
# 6 0.0000 0.0000 0.0000 3.5192 0.0000 55.5043
#
#
#
# Elastic Compliance Matrix: (Units=1/GPa)
#
#
# Indices 1 2 3 4 5 6 
#
# 1 0.011428 -0.002079 -0.007816 0.000000 0.005056 0.000000
# 2 -0.002079 0.027403 -0.013454 0.000000 0.004170 0.000000
# 3 -0.007816 -0.013454 0.030550 0.000000 -0.006816 0.000000
# 4 0.000000 0.000000 0.000000 0.032969 0.000000 -0.002090
# 5 0.005056 0.004170 -0.006816 0.000000 0.036986 0.000000
# 6 0.000000 0.000000 0.000000 -0.002090 0.000000 0.018149
#
#
# Mechanical properties :
#
#
# Convention : Reuss Voigt Hill
#
# Bulk Modulus (GPa) = 44.08638 52.19577 48.14108
# Shear Modulus (GPa) = 23.61335 32.01064 27.81199
#
# Velocity S-wave (km/s) = 3.23231 3.76341 3.50793
# Velocity P-wave (km/s) = 5.78244 6.47909 6.14065
#
# Compressibility (1/GPa) = 0.02268274
#
# Stress axis : x y z
#
# Youngs Moduli (GPa) = 87.50536 36.49173 32.73351
#
# Poissons Ratio (x) = 0.07587 0.25585
# Poissons Ratio (y) = 0.18193 0.44039
# Poissons Ratio (z) = 0.68397 0.49095
#
# Static dielectric constant tensor:
#      x y z
#    x 4.418840 0.000000 -0.131510 
#    y 0.000000 4.220790 0.000000 
#    z -0.131510 0.000000 3.849110 
# 
# 
# High freq. dielectric constant tensor:
#      x y z
#    x 1.911930 0.000000 -0.004660 
#    y 0.000000 1.886090 0.000000 
#    z -0.004660 0.000000 1.876590 
# 
# From -- ./inp_files/11051.got.cif
#   From: 2010.03.12/outbox.cif.g09.slc.cpg/sg4_6_cif.got.tgz:11051.got - 2010.03.31 09:31:35.
