data_PCOD8046809
_publ_section_title
;
Structure prediction by ZEFSAII (Michael W. Deem and Ramdas Pophale) SiO2 
 PCOD8046809
Probable space group: P 21
;
_chemical_formula_sum "Si O2"
_cell_formula_units_Z 16
_cell_length_a 8.486290
_cell_length_b 7.355806
_cell_length_c 9.872936
_cell_angle_alpha 90.000000
_cell_angle_beta 67.415420
_cell_angle_gamma 90.000000
_cell_volume 569.041177
_symmetry_space_group_name_H-M "P 21"
_symmetry_group_IT_number 4
_symmetry_cell_setting 'monoclinic'
loop_
_space_group_symop_operation_xyz
x,y,z
-x,1/2+y,-z
loop_
_atom_site_type_symbol
_atom_site_label
_atom_site_fract_x
_atom_site_fract_y
_atom_site_fract_z
Si Si1 0.191982 0.820340 0.972060
Si Si2 0.416972 0.515843 0.777388
Si Si3 0.212145 0.016957 0.233724
Si Si4 0.830300 0.826409 0.964696
Si Si5 0.056377 0.260307 0.487362
Si Si6 0.611449 0.817350 0.461815
Si Si7 0.191819 0.573497 0.259983
Si Si8 0.450216 0.023009 0.737619
O O1 0.342650 0.689935 0.876002
O O2 0.269713 0.008032 0.879446
O O3 0.011124 0.768253 0.968212
O O4 0.179880 0.842248 0.141177
O O5 0.614273 0.490456 0.743349
O O6 0.385295 0.508744 0.624924
O O7 0.314022 0.340288 0.872194
O O8 0.232091 0.188572 0.127773
O O9 0.063620 0.074844 0.390319
O O10 0.849514 0.030004 0.885935
O O11 0.203000 0.255528 0.551811
O O12 0.076194 0.428256 0.379842
O O13 0.879058 0.259236 0.637409
O O14 0.492746 0.837683 0.635455
O O15 0.538404 0.678022 0.377544
O O16 0.393753 0.553523 0.210055
#
# Coordination Sequence:
#
# PCOD8046809 Si02
#       8
#     2   2   2   2   2   2   2   2
#     4  12  25  43  68  97 139 179 228 289 341 407
#     4  12  25  43  68  99 134 179 229 283 346 412
#     4  11  24  46  69  98 138 182 230 282 345 412
#     4  11  25  43  65  99 136 179 230 282 343 409
#     4  10  23  42  66  97 133 178 228 284 340 406
#     4  11  24  42  68  99 135 176 230 282 342 410
#     4  10  23  41  64  94 134 177 229 281 343 411
#     4  11  23  42  66  97 133 180 226 281 344 409
#
# _framework density 28.117474000000001
#
# number of rings (size 3 to 8) (size 9 to 14) (size 15 to 20)
#    0.000    1.000    0.000    7.500    0.000   13.000 
#    0.000    0.000    0.000    0.000    0.000    0.000 
#    0.000    0.000    0.000    0.000    0.000    0.000 
#
# Total GULP energy -198402.744514 kJ/mol
# GULP energy per Si atom -12400.171532 kJ/mol
# Density = 2.805348 g / cm^3
# Si number density = 28.117474 Si / 1000 Ang^3
#
#
#
# Elastic Constant Matrix: (Units=GPa)
#
#
# Indices 1 2 3 4 5 6 
#
# 1 128.9937 -8.3506 61.8542 0.0000 -1.2781 0.0000
# 2 -8.3506 38.8548 4.1768 0.0000 7.1132 0.0000
# 3 61.8542 4.1768 195.7359 0.0000 -8.5431 0.0000
# 4 0.0000 0.0000 0.0000 45.0810 0.0000 7.8911
# 5 -1.2781 7.1132 -8.5431 0.0000 55.9809 0.0000
# 6 0.0000 0.0000 0.0000 7.8911 0.0000 36.5101
#
#
#
# Elastic Compliance Matrix: (Units=1/GPa)
#
#
# Indices 1 2 3 4 5 6 
#
# 1 0.009360 0.002440 -0.003034 0.000000 -0.000559 0.000000
# 2 0.002440 0.027085 -0.001507 0.000000 -0.003616 0.000000
# 3 -0.003034 -0.001507 0.006146 0.000000 0.001060 0.000000
# 4 0.000000 0.000000 0.000000 0.023055 0.000000 -0.004983
# 5 -0.000559 -0.003616 0.001060 0.000000 0.018472 0.000000
# 6 0.000000 0.000000 0.000000 -0.004983 0.000000 0.028467
#
#
# Mechanical properties :
#
#
# Convention : Reuss Voigt Hill
#
# Bulk Modulus (GPa) = 26.04899 53.21612 39.63255
# Shear Modulus (GPa) = 38.58551 47.90800 43.24675
#
# Velocity S-wave (km/s) = 3.70847 4.13225 3.92608
# Velocity P-wave (km/s) = 5.25561 6.46025 5.88881
#
# Compressibility (1/GPa) = 0.03838921
#
# Stress axis : x y z
#
# Youngs Moduli (GPa) = 106.84109 36.92047 162.70225
#
# Poissons Ratio (x) = -0.09009 0.49368
# Poissons Ratio (y) = -0.26071 0.24518
# Poissons Ratio (z) = 0.32418 0.05564
#
# Static dielectric constant tensor:
#      x y z
#    x 4.382960 0.000000 -0.149450 
#    y 0.000000 6.472130 0.000000 
#    z -0.149450 0.000000 6.197570 
# 
# 
# High freq. dielectric constant tensor:
#      x y z
#    x 2.099160 0.000000 -0.014400 
#    y 0.000000 2.200560 0.000000 
#    z -0.014400 0.000000 2.193360 
# 
# From -- ./inp_files/5582.got.cif
#   From: 2010.03.12/outbox.cif.g09.slc.cpg/sg4_3_cif.got.tgz:5582.got - 2010.03.31 09:31:35.
