data_PCOD8046561
_publ_section_title
;
Structure prediction by ZEFSAII (Michael W. Deem and Ramdas Pophale) SiO2 
 PCOD8046561
Probable space group: P 21
;
_chemical_formula_sum "Si O2"
_cell_formula_units_Z 16
_cell_length_a 9.763545
_cell_length_b 9.333560
_cell_length_c 18.332850
_cell_angle_alpha 90.000000
_cell_angle_beta 29.281203
_cell_angle_gamma 90.000000
_cell_volume 817.107584
_symmetry_space_group_name_H-M "P 21"
_symmetry_group_IT_number 4
_symmetry_cell_setting 'monoclinic'
loop_
_space_group_symop_operation_xyz
x,y,z
-x,1/2+y,-z
loop_
_atom_site_type_symbol
_atom_site_label
_atom_site_fract_x
_atom_site_fract_y
_atom_site_fract_z
Si Si1 0.308478 0.861980 0.031783
Si Si2 0.799629 0.768503 0.025075
Si Si3 0.763496 0.456752 0.096116
Si Si4 0.228288 0.540042 0.426715
Si Si5 0.841284 0.287838 0.650694
Si Si6 0.656933 0.081287 0.465999
Si Si7 0.836615 0.769652 0.353520
Si Si8 0.208784 0.173363 0.130771
O O1 0.036801 0.784495 0.190827
O O2 0.347529 0.018880 0.049536
O O3 0.265417 0.871099 0.965567
O O4 0.581372 0.767735 0.919156
O O5 0.856225 0.619557 0.039577
O O6 0.482626 0.819074 0.184050
O O7 0.865808 0.754412 0.909076
O O8 0.000423 0.888588 0.963469
O O9 0.467533 0.449873 0.274780
O O10 0.109419 0.666641 0.432209
O O11 0.350056 0.608940 0.444139
O O12 0.971190 0.436313 0.563917
O O13 0.979166 0.232370 0.661344
O O14 0.375481 0.140463 0.560881
O O15 0.927161 0.158649 0.307499
O O16 0.658729 0.913213 0.448034
#
# Coordination Sequence:
#
# PCOD8046561 Si02
#       8
#     2   2   2   2   2   2   2   2
#     4  10  22  41  63  91 121 157 206 251 300 364
#     4  10  22  43  61  91 123 160 205 253 298 360
#     4  10  24  40  62  91 124 158 205 247 305 364
#     4  10  24  42  60  92 124 162 204 244 308 368
#     4  10  22  42  62  90 126 162 202 252 300 362
#     4  10  24  40  62  91 124 158 205 247 305 364
#     4  10  22  43  61  91 123 160 205 253 298 360
#     4  10  22  41  63  91 121 157 206 251 300 364
#
# _framework density 19.581265999999999
#
# number of rings (size 3 to 8) (size 9 to 14) (size 15 to 20)
#    0.000    2.000    1.250    0.000    8.750    4.000 
#    2.250    0.000    0.000    0.000    0.000    0.000 
#    0.000    0.000    0.000    0.000    0.000    0.000 
#
# Total GULP energy -198490.940782 kJ/mol
# GULP energy per Si atom -12405.683799 kJ/mol
# Density = 1.953670 g / cm^3
# Si number density = 19.581266 Si / 1000 Ang^3
#
#
#
# Elastic Constant Matrix: (Units=GPa)
#
#
# Indices 1 2 3 4 5 6 
#
# 1 63.7219 23.0325 13.0288 0.0000 -0.1170 0.0000
# 2 23.0325 39.9544 1.3502 0.0000 -13.8906 0.0000
# 3 13.0288 1.3502 29.5455 0.0000 12.3975 0.0000
# 4 0.0000 0.0000 0.0000 22.8670 0.0000 -12.5485
# 5 -0.1170 -13.8906 12.3975 0.0000 38.9553 0.0000
# 6 0.0000 0.0000 0.0000 -12.5485 0.0000 39.3885
#
#
#
# Elastic Compliance Matrix: (Units=1/GPa)
#
#
# Indices 1 2 3 4 5 6 
#
# 1 0.022158 -0.013180 -0.008338 0.000000 -0.001980 0.000000
# 2 -0.013180 0.037513 -0.001729 0.000000 0.013887 0.000000
# 3 -0.008338 -0.001729 0.043708 0.000000 -0.014552 0.000000
# 4 0.000000 0.000000 0.000000 0.052996 0.000000 0.016884
# 5 -0.001980 0.013887 -0.014552 0.000000 0.035247 0.000000
# 6 0.000000 0.000000 0.000000 0.016884 0.000000 0.030767
#
#
# Mechanical properties :
#
#
# Convention : Reuss Voigt Hill
#
# Bulk Modulus (GPa) = 17.57966 23.11611 20.34788
# Shear Modulus (GPa) = 17.37030 26.62950 21.99990
#
# Velocity S-wave (km/s) = 2.98163 3.69175 3.35553
# Velocity P-wave (km/s) = 4.56627 5.47749 5.04250
#
# Compressibility (1/GPa) = 0.05688392
#
# Stress axis : x y z
#
# Youngs Moduli (GPa) = 45.12941 26.65743 22.87895
#
# Poissons Ratio (x) = 0.35135 0.19077
# Poissons Ratio (y) = 0.59481 0.03957
# Poissons Ratio (z) = 0.37631 0.04610
#
# Static dielectric constant tensor:
#      x y z
#    x 3.630990 0.000000 0.209080 
#    y 0.000000 3.514370 0.000000 
#    z 0.209080 0.000000 3.623120 
# 
# 
# High freq. dielectric constant tensor:
#      x y z
#    x 1.771610 0.000000 0.009950 
#    y 0.000000 1.760410 0.000000 
#    z 0.009950 0.000000 1.772920 
# 
# From -- ./inp_files/5391.got.cif
#   From: 2010.03.12/outbox.cif.g09.slc.cpg/sg4_3_cif.got.tgz:5391.got - 2010.03.31 09:31:35.
