data_PCOD8046350
_publ_section_title
;
Structure prediction by ZEFSAII (Michael W. Deem and Ramdas Pophale) SiO2 
 PCOD8046350
Probable space group: P 21
;
_chemical_formula_sum "Si O2"
_cell_formula_units_Z 10
_cell_length_a 7.011541
_cell_length_b 10.120547
_cell_length_c 7.782813
_cell_angle_alpha 90.000000
_cell_angle_beta 106.910861
_cell_angle_gamma 90.000000
_cell_volume 528.392168
_symmetry_space_group_name_H-M "P 21"
_symmetry_group_IT_number 4
_symmetry_cell_setting 'monoclinic'
loop_
_space_group_symop_operation_xyz
x,y,z
-x,1/2+y,-z
loop_
_atom_site_type_symbol
_atom_site_label
_atom_site_fract_x
_atom_site_fract_y
_atom_site_fract_z
Si Si1 0.983097 0.284880 0.896815
Si Si2 0.616000 0.154212 0.681449
Si Si3 0.169545 0.233093 0.607224
Si Si4 0.168543 0.556017 0.955195
Si Si5 0.834221 0.030647 0.431738
O O1 0.153564 0.233218 0.810378
O O2 0.028750 0.432265 0.969148
O O3 0.770605 0.277864 0.737912
O O4 0.970867 0.186633 0.057539
O O5 0.394308 0.205890 0.610464
O O6 0.665086 0.073507 0.521252
O O7 0.649283 0.061020 0.859344
O O8 0.106683 0.377843 0.519890
O O9 0.032519 0.118580 0.493544
O O10 0.253159 0.546740 0.784532
#
# Coordination Sequence:
#
# PCOD8046350 Si02
#       5
#     2   2   2   2   2
#     4   8  19  38  58  83 118 150 191 238 287 340
#     4   9  21  39  58  85 120 150 196 238 282 351
#     4  10  21  42  59  87 122 150 197 246 282 353
#     4   9  19  39  60  83 117 156 188 240 291 340
#     4  10  22  38  63  86 117 156 192 242 298 338
#
# _framework density 18.925338
#
# number of rings (size 3 to 8) (size 9 to 14) (size 15 to 20)
#    1.200    1.600    0.000    0.000    2.800    4.800 
#   10.800    0.000    0.000    0.000    0.000    0.000 
#    0.000    0.000    0.000    0.000    0.000    0.000 
#
# Total GULP energy -123892.766641 kJ/mol
# GULP energy per Si atom -12389.276664 kJ/mol
# Density = 1.888226 g / cm^3
# Si number density = 18.925338 Si / 1000 Ang^3
#
#
#
# Elastic Constant Matrix: (Units=GPa)
#
#
# Indices 1 2 3 4 5 6 
#
# 1 106.4429 55.2775 34.3373 0.0000 -3.0707 0.0000
# 2 55.2775 134.7337 53.8402 0.0000 8.0015 0.0000
# 3 34.3373 53.8402 88.2840 0.0000 -19.1916 0.0000
# 4 0.0000 0.0000 0.0000 31.1054 0.0000 -1.6816
# 5 -3.0707 8.0015 -19.1916 0.0000 15.9376 0.0000
# 6 0.0000 0.0000 0.0000 -1.6816 0.0000 23.9808
#
#
#
# Elastic Compliance Matrix: (Units=1/GPa)
#
#
# Indices 1 2 3 4 5 6 
#
# 1 0.012364 -0.004841 -0.001097 0.000000 0.003491 0.000000
# 2 -0.004841 0.016410 -0.013707 0.000000 -0.025677 0.000000
# 3 -0.001097 -0.013707 0.029209 0.000000 0.041843 0.000000
# 4 0.000000 0.000000 0.000000 0.032271 0.000000 0.002263
# 5 0.003491 -0.025677 0.041843 0.000000 0.126695 0.000000
# 6 0.000000 0.000000 0.000000 0.002263 0.000000 0.041859
#
#
# Mechanical properties :
#
#
# Convention : Reuss Voigt Hill
#
# Bulk Modulus (GPa) = 53.49790 68.48564 60.99177
# Shear Modulus (GPa) = 16.42957 26.60511 21.51734
#
# Velocity S-wave (km/s) = 2.94959 3.75346 3.37554
# Velocity P-wave (km/s) = 6.31897 7.41960 6.89129
#
# Compressibility (1/GPa) = 0.01869232
#
# Stress axis : x y z
#
# Youngs Moduli (GPa) = 80.88290 60.93661 34.23599
#
# Poissons Ratio (x) = 0.29501 0.03757
# Poissons Ratio (y) = 0.39158 0.46927
# Poissons Ratio (z) = 0.08875 0.83525
#
# Static dielectric constant tensor:
#      x y z
#    x 3.191530 0.000000 -0.236610 
#    y 0.000000 3.494810 0.000000 
#    z -0.236610 0.000000 3.318800 
# 
# 
# High freq. dielectric constant tensor:
#      x y z
#    x 1.719220 0.000000 -0.023660 
#    y 0.000000 1.737880 0.000000 
#    z -0.023660 0.000000 1.722630 
# 
# From -- ./inp_files/973.got.cif
#   From: 2010.03.12/outbox.cif.g09.slc.cpg/sg4_1_cif.got.tgz:973.got - 2010.03.31 09:31:35.
