data_PCOD8046137
_publ_section_title
;
Structure prediction by ZEFSAII (Michael W. Deem and Ramdas Pophale) SiO2 
 PCOD8046137
Probable space group: P 21
;
_chemical_formula_sum "Si O2"
_cell_formula_units_Z 14
_cell_length_a 8.550061
_cell_length_b 12.453096
_cell_length_c 8.962240
_cell_angle_alpha 90.000000
_cell_angle_beta 51.711742
_cell_angle_gamma 90.000000
_cell_volume 748.995679
_symmetry_space_group_name_H-M "P 21"
_symmetry_group_IT_number 4
_symmetry_cell_setting 'monoclinic'
loop_
_space_group_symop_operation_xyz
x,y,z
-x,1/2+y,-z
loop_
_atom_site_type_symbol
_atom_site_label
_atom_site_fract_x
_atom_site_fract_y
_atom_site_fract_z
Si Si1 0.159409 0.803880 0.056882
Si Si2 0.391245 0.933465 0.148611
Si Si3 0.731174 0.089247 0.841517
Si Si4 0.172703 0.034671 0.547373
Si Si5 0.275875 0.252509 0.620973
Si Si6 0.434166 0.728476 0.310229
Si Si7 0.680367 0.346250 0.354091
O O1 0.187252 0.811333 0.863456
O O2 0.275012 0.901948 0.066569
O O3 0.238014 0.689010 0.065876
O O4 0.926487 0.817439 0.231319
O O5 0.477017 0.826406 0.172827
O O6 0.238828 0.994439 0.346766
O O7 0.575319 0.009608 0.006727
O O8 0.651269 0.127017 0.727247
O O9 0.934701 0.024540 0.697527
O O10 0.240406 0.157845 0.523549
O O11 0.270701 0.967076 0.624327
O O12 0.356741 0.201898 0.730195
O O13 0.442689 0.334963 0.456858
O O14 0.273700 0.766482 0.532160
#
# Coordination Sequence:
#
# PCOD8046137 Si02
#       7
#     2   2   2   2   2   2   2
#     4  10  21  37  59  85 112 151 187 230 290 325
#     4  10  21  38  57  84 115 147 190 230 280 341
#     4  10  21  39  57  83 117 149 188 234 276 345
#     4  10  21  37  58  83 113 154 188 229 287 332
#     4   9  20  39  59  79 119 143 190 238 271 336
#     4   8  20  40  55  81 118 144 182 238 280 321
#     4   9  20  36  59  83 112 146 189 233 280 332
#
# _framework density 18.691697000000001
#
# number of rings (size 3 to 8) (size 9 to 14) (size 15 to 20)
#    0.857    1.714    0.000    0.857    4.000    1.143 
#    2.571    2.857    0.000    0.000    0.000    0.000 
#    0.000    0.000    0.000    0.000    0.000    0.000 
#
# Total GULP energy -173532.010349 kJ/mol
# GULP energy per Si atom -12395.143596 kJ/mol
# Density = 1.864915 g / cm^3
# Si number density = 18.691697 Si / 1000 Ang^3
#
#
#
# Elastic Constant Matrix: (Units=GPa)
#
#
# Indices 1 2 3 4 5 6 
#
# 1 73.1840 34.1606 33.1828 0.0000 -10.8673 0.0000
# 2 34.1606 63.3903 51.1332 0.0000 -15.2878 0.0000
# 3 33.1828 51.1332 109.0980 0.0000 -9.7757 0.0000
# 4 0.0000 0.0000 0.0000 24.4087 0.0000 -4.7125
# 5 -10.8673 -15.2878 -9.7757 0.0000 38.0318 0.0000
# 6 0.0000 0.0000 0.0000 -4.7125 0.0000 30.7511
#
#
#
# Elastic Compliance Matrix: (Units=1/GPa)
#
#
# Indices 1 2 3 4 5 6 
#
# 1 0.018494 -0.008312 -0.001592 0.000000 0.001534 0.000000
# 2 -0.008312 0.031254 -0.011472 0.000000 0.007239 0.000000
# 3 -0.001592 -0.011472 0.014916 0.000000 -0.001232 0.000000
# 4 0.000000 0.000000 0.000000 0.042218 0.000000 0.006470
# 5 0.001534 0.007239 -0.001232 0.000000 0.029326 0.000000
# 6 0.000000 0.000000 0.000000 0.006470 0.000000 0.033511
#
#
# Mechanical properties :
#
#
# Convention : Reuss Voigt Hill
#
# Bulk Modulus (GPa) = 45.63462 53.62505 49.62983
# Shear Modulus (GPa) = 22.75069 27.11804 24.93436
#
# Velocity S-wave (km/s) = 3.49256 3.81308 3.65633
# Velocity P-wave (km/s) = 6.38211 6.93813 6.66592
#
# Compressibility (1/GPa) = 0.02191319
#
# Stress axis : x y z
#
# Youngs Moduli (GPa) = 54.07274 31.99585 67.04038
#
# Poissons Ratio (x) = 0.26596 0.10670
# Poissons Ratio (y) = 0.44947 0.76906
# Poissons Ratio (z) = 0.08606 0.36704
#
# Static dielectric constant tensor:
#      x y z
#    x 3.469020 0.000000 0.054080 
#    y 0.000000 3.278240 0.000000 
#    z 0.054080 0.000000 3.298690 
# 
# 
# High freq. dielectric constant tensor:
#      x y z
#    x 1.726030 0.000000 0.003900 
#    y 0.000000 1.715340 0.000000 
#    z 0.003900 0.000000 1.721510 
# 
# From -- ./inp_files/6176.got.cif
#   From: 2010.03.12/outbox.cif.g09.slc.cpg/sg4_4_cif.got.tgz:6176.got - 2010.03.31 09:31:35.
