data_PCOD8046355
_publ_section_title
;
Structure prediction by ZEFSAII (Michael W. Deem and Ramdas Pophale) SiO2 
 PCOD8046355
Probable space group: P 21
;
_chemical_formula_sum "Si O2"
_cell_formula_units_Z 14
_cell_length_a 7.147044
_cell_length_b 5.228287
_cell_length_c 25.680210
_cell_angle_alpha 90.000000
_cell_angle_beta 139.126706
_cell_angle_gamma 90.000000
_cell_volume 627.942765
_symmetry_space_group_name_H-M "P 21"
_symmetry_group_IT_number 4
_symmetry_cell_setting 'monoclinic'
loop_
_space_group_symop_operation_xyz
x,y,z
-x,1/2+y,-z
loop_
_atom_site_type_symbol
_atom_site_label
_atom_site_fract_x
_atom_site_fract_y
_atom_site_fract_z
Si Si1 0.371979 0.042760 0.950274
Si Si2 0.506593 0.916407 0.568751
Si Si3 0.390537 0.652707 0.747569
Si Si4 0.189349 0.761630 0.818729
Si Si5 0.098288 0.868527 0.178512
Si Si6 0.432923 0.483123 0.305922
Si Si7 0.824058 0.413745 0.601902
O O1 0.044484 0.148168 0.888262
O O2 0.386321 0.962431 0.892220
O O3 0.586055 0.279363 0.007895
O O4 0.389459 0.968333 0.602676
O O5 0.658721 0.641192 0.596829
O O6 0.239177 0.932660 0.473237
O O7 0.735704 0.137453 0.604494
O O8 0.324907 0.755098 0.790803
O O9 0.373704 0.874219 0.700323
O O10 0.717004 0.552296 0.819645
O O11 0.162007 0.436093 0.683086
O O12 0.172168 0.496466 0.848017
O O13 0.855968 0.826514 0.744634
O O14 0.330680 0.767214 0.269425
#
# Coordination Sequence:
#
# PCOD8046355 Si02
#       7
#     2   2   2   2   2   2   2
#     4  11  22  44  77  99 132 180 215 267 344 402
#     4  10  21  42  64  93 132 184 229 277 341 383
#     4  11  23  40  67 106 132 177 232 276 329 398
#     4  10  21  42  72  95 134 179 220 270 339 395
#     4  10  23  40  70 100 132 174 222 277 324 409
#     4  10  22  38  63  96 137 172 228 282 326 402
#     4  10  22  40  67  93 133 182 228 281 333 393
#
# _framework density 22.295027999999999
#
# number of rings (size 3 to 8) (size 9 to 14) (size 15 to 20)
#    0.000    1.714    2.857    0.857    4.000    2.286 
#    2.571    0.000   12.571    0.000    0.000    0.000 
#    0.000    0.000    0.000    0.000    0.000    0.000 
#
# Total GULP energy -173453.399537 kJ/mol
# GULP energy per Si atom -12389.528538 kJ/mol
# Density = 2.224428 g / cm^3
# Si number density = 22.295028 Si / 1000 Ang^3
#
#
#
# Elastic Constant Matrix: (Units=GPa)
#
#
# Indices 1 2 3 4 5 6 
#
# 1 134.3518 32.5581 46.1189 0.0000 -25.3174 0.0000
# 2 32.5581 94.3779 18.8579 0.0000 -9.6135 0.0000
# 3 46.1189 18.8579 98.0767 0.0000 -21.6396 0.0000
# 4 0.0000 0.0000 0.0000 39.7166 0.0000 -0.8133
# 5 -25.3174 -9.6135 -21.6396 0.0000 20.2776 0.0000
# 6 0.0000 0.0000 0.0000 -0.8133 0.0000 16.9271
#
#
#
# Elastic Compliance Matrix: (Units=1/GPa)
#
#
# Indices 1 2 3 4 5 6 
#
# 1 0.010629 -0.002197 -0.002456 0.000000 0.009609 0.000000
# 2 -0.002197 0.011711 -0.000783 0.000000 0.001973 0.000000
# 3 -0.002456 -0.000783 0.014052 0.000000 0.011558 0.000000
# 4 0.000000 0.000000 0.000000 0.025203 0.000000 0.001211
# 5 0.009609 0.001973 0.011558 0.000000 0.074582 0.000000
# 6 0.000000 0.000000 0.000000 0.001211 0.000000 0.059135
#
#
# Mechanical properties :
#
#
# Convention : Reuss Voigt Hill
#
# Bulk Modulus (GPa) = 39.18574 57.98625 48.58600
# Shear Modulus (GPa) = 23.28921 30.66902 26.97911
#
# Velocity S-wave (km/s) = 3.23552 3.71293 3.48242
# Velocity P-wave (km/s) = 5.61892 6.66680 6.16516
#
# Compressibility (1/GPa) = 0.02551949
#
# Stress axis : x y z
#
# Youngs Moduli (GPa) = 94.07974 85.38826 71.16618
#
# Poissons Ratio (x) = 0.18763 0.17476
# Poissons Ratio (y) = 0.20673 0.05574
# Poissons Ratio (z) = 0.23103 0.06688
#
# Static dielectric constant tensor:
#      x y z
#    x 3.650000 0.000000 -0.192490 
#    y 0.000000 4.313650 0.000000 
#    z -0.192490 0.000000 4.312510 
# 
# 
# High freq. dielectric constant tensor:
#      x y z
#    x 1.836750 0.000000 -0.012330 
#    y 0.000000 1.895470 0.000000 
#    z -0.012330 0.000000 1.883210 
# 
# From -- ./inp_files/4358.got.cif
#   From: 2010.03.12/outbox.cif.g09.slc.cpg/sg4_3_cif.got.tgz:4358.got - 2010.03.31 09:31:35.
