data_PCOD8046623
_publ_section_title
;
Structure prediction by ZEFSAII (Michael W. Deem and Ramdas Pophale) SiO2 
 PCOD8046623
Probable space group: P 21
;
_chemical_formula_sum "Si O2"
_cell_formula_units_Z 16
_cell_length_a 14.180674
_cell_length_b 8.400498
_cell_length_c 11.419759
_cell_angle_alpha 90.000000
_cell_angle_beta 149.805334
_cell_angle_gamma 90.000000
_cell_volume 684.186620
_symmetry_space_group_name_H-M "P 21"
_symmetry_group_IT_number 4
_symmetry_cell_setting 'monoclinic'
loop_
_space_group_symop_operation_xyz
x,y,z
-x,1/2+y,-z
loop_
_atom_site_type_symbol
_atom_site_label
_atom_site_fract_x
_atom_site_fract_y
_atom_site_fract_z
Si Si1 0.528946 0.662300 0.682577
Si Si2 0.835129 0.025726 0.771427
Si Si3 0.390674 0.946535 0.672703
Si Si4 0.369245 0.208953 0.465726
Si Si5 0.771755 0.022425 0.169880
Si Si6 0.216872 0.696168 0.042997
Si Si7 0.085050 0.765050 0.498498
Si Si8 0.897058 0.524646 0.134164
O O1 0.331033 0.579255 0.493832
O O2 0.495704 0.843941 0.684881
O O3 0.589306 0.625140 0.613811
O O4 0.689432 0.589481 0.936542
O O5 0.792613 0.837500 0.737364
O O6 0.849032 0.126554 0.904313
O O7 0.030092 0.068821 0.918137
O O8 0.221238 0.865917 0.560869
O O9 0.304750 0.092482 0.503227
O O10 0.548053 0.986016 0.941466
O O11 0.574690 0.275229 0.724764
O O12 0.810226 0.190098 0.277096
O O13 0.797290 0.047568 0.058612
O O14 0.910954 0.876480 0.353667
O O15 0.086439 0.833491 0.847696
O O16 0.024121 0.603446 0.368791
#
# Coordination Sequence:
#
# PCOD8046623 Si02
#       8
#     2   2   2   2   2   2   2   2
#     4  11  21  43  65 100 146 181 224 287 346 421
#     4  11  24  40  66 106 144 180 233 274 354 437
#     4  11  25  47  73 101 142 187 242 288 353 425
#     4  10  22  42  68  99 144 189 225 285 348 421
#     4  11  26  50  71  99 139 180 242 301 352 412
#     4  10  24  44  68 103 141 190 230 290 356 415
#     4  12  27  48  74 102 135 188 240 300 356 416
#     4  12  25  40  69 102 143 183 230 287 355 417
#
# _framework density 23.385432999999999
#
# number of rings (size 3 to 8) (size 9 to 14) (size 15 to 20)
#    0.000    1.000    3.750    3.000    5.250    1.000 
#    6.750    0.000    0.000    0.000    0.000    0.000 
#    0.000    0.000    0.000    0.000    0.000    0.000 
#
# Total GULP energy -198221.715032 kJ/mol
# GULP energy per Si atom -12388.857190 kJ/mol
# Density = 2.333221 g / cm^3
# Si number density = 23.385433 Si / 1000 Ang^3
#
#
#
# Elastic Constant Matrix: (Units=GPa)
#
#
# Indices 1 2 3 4 5 6 
#
# 1 60.8489 22.0609 10.0209 0.0000 -1.8926 0.0000
# 2 22.0609 102.8385 32.2667 0.0000 4.1317 0.0000
# 3 10.0209 32.2667 72.4378 0.0000 2.5263 0.0000
# 4 0.0000 0.0000 0.0000 51.2507 0.0000 -6.0085
# 5 -1.8926 4.1317 2.5263 0.0000 22.2678 0.0000
# 6 0.0000 0.0000 0.0000 -6.0085 0.0000 40.3427
#
#
#
# Elastic Compliance Matrix: (Units=1/GPa)
#
#
# Indices 1 2 3 4 5 6 
#
# 1 0.017987 -0.003656 -0.000940 0.000000 0.002314 0.000000
# 2 -0.003656 0.012099 -0.004814 0.000000 -0.002010 0.000000
# 3 -0.000940 -0.004814 0.016115 0.000000 -0.001015 0.000000
# 4 0.000000 0.000000 0.000000 0.019859 0.000000 0.002958
# 5 0.002314 -0.002010 -0.001015 0.000000 0.045593 0.000000
# 6 0.000000 0.000000 0.000000 0.002958 0.000000 0.025228
#
#
# Mechanical properties :
#
#
# Convention : Reuss Voigt Hill
#
# Bulk Modulus (GPa) = 36.52296 40.53581 38.52939
# Shear Modulus (GPa) = 30.33477 34.22402 32.27940
#
# Velocity S-wave (km/s) = 3.60553 3.82969 3.71930
# Velocity P-wave (km/s) = 5.74324 6.07674 5.91234
#
# Compressibility (1/GPa) = 0.02738003
#
# Stress axis : x y z
#
# Youngs Moduli (GPa) = 55.59697 82.64836 62.05544
#
# Poissons Ratio (x) = 0.30220 0.05834
# Poissons Ratio (y) = 0.20329 0.29871
# Poissons Ratio (z) = 0.05227 0.39784
#
# Static dielectric constant tensor:
#      x y z
#    x 3.969740 0.000000 0.173270 
#    y 0.000000 4.112630 0.000000 
#    z 0.173270 0.000000 4.405500 
# 
# 
# High freq. dielectric constant tensor:
#      x y z
#    x 1.903840 0.000000 0.008140 
#    y 0.000000 1.928060 0.000000 
#    z 0.008140 0.000000 1.934490 
# 
# From -- ./inp_files/11843.got.cif
#   From: 2010.03.12/outbox.cif.g09.slc.cpg/sg4_6_cif.got.tgz:11843.got - 2010.03.31 09:31:35.
