data_PCOD8046543
_publ_section_title
;
Structure prediction by ZEFSAII (Michael W. Deem and Ramdas Pophale) SiO2 
 PCOD8046543
Probable space group: P 21
;
_chemical_formula_sum "Si O2"
_cell_formula_units_Z 16
_cell_length_a 12.708963
_cell_length_b 9.506101
_cell_length_c 11.784573
_cell_angle_alpha 90.000000
_cell_angle_beta 32.558887
_cell_angle_gamma 90.000000
_cell_volume 766.201079
_symmetry_space_group_name_H-M "P 21"
_symmetry_group_IT_number 4
_symmetry_cell_setting 'monoclinic'
loop_
_space_group_symop_operation_xyz
x,y,z
-x,1/2+y,-z
loop_
_atom_site_type_symbol
_atom_site_label
_atom_site_fract_x
_atom_site_fract_y
_atom_site_fract_z
Si Si1 0.685172 0.568170 0.115656
Si Si2 0.420071 0.106535 0.357338
Si Si3 0.706305 0.886657 0.165746
Si Si4 0.629435 0.728608 0.843936
Si Si5 0.011026 0.147095 0.329199
Si Si6 0.370138 0.535956 0.219384
Si Si7 0.131159 0.881569 0.703950
Si Si8 0.435430 0.844349 0.603845
O O1 0.654619 0.729732 0.174702
O O2 0.503833 0.515819 0.207141
O O3 0.683956 0.469294 0.226163
O O4 0.889848 0.554021 0.861052
O O5 0.364923 0.181640 0.291341
O O6 0.501007 0.219466 0.372989
O O7 0.591834 0.991509 0.184388
O O8 0.226504 0.029734 0.580511
O O9 0.627433 0.907583 0.366181
O O10 0.935738 0.918074 0.951814
O O11 0.825927 0.681000 0.726361
O O12 0.614359 0.895680 0.869219
O O13 0.439533 0.665622 0.078851
O O14 0.850534 0.055440 0.538797
O O15 0.917341 0.289133 0.363026
O O16 0.281287 0.793413 0.647175
#
# Coordination Sequence:
#
# PCOD8046543 Si02
#       8
#     2   2   2   2   2   2   2   2
#     4  10  22  44  64  95 129 176 217 259 336 387
#     4  11  24  42  65 101 132 171 217 276 324 388
#     4  10  22  40  68  92 134 176 214 266 323 392
#     4  11  27  42  70  98 127 173 220 271 332 390
#     4  10  25  43  68  94 132 174 221 265 331 392
#     4  11  24  45  67  93 130 173 213 276 325 392
#     4  10  24  42  68  97 132 177 218 266 328 395
#     4  11  22  42  66  98 136 166 222 273 325 386
#
# _framework density 20.882245999999999
#
# number of rings (size 3 to 8) (size 9 to 14) (size 15 to 20)
#    0.000    1.500    1.250    3.000    8.750    5.000 
#    2.250    0.000    0.000    0.000    0.000    0.000 
#    0.000    0.000    0.000    0.000    0.000    0.000 
#
# Total GULP energy -198420.467005 kJ/mol
# GULP energy per Si atom -12401.279188 kJ/mol
# Density = 2.083472 g / cm^3
# Si number density = 20.882246 Si / 1000 Ang^3
#
#
#
# Elastic Constant Matrix: (Units=GPa)
#
#
# Indices 1 2 3 4 5 6 
#
# 1 85.8128 22.1825 49.2770 0.0000 6.4077 0.0000
# 2 22.1825 107.7525 60.6604 0.0000 7.0573 0.0000
# 3 49.2770 60.6604 164.3779 0.0000 -0.3743 0.0000
# 4 0.0000 0.0000 0.0000 30.1779 0.0000 4.5966
# 5 6.4077 7.0573 -0.3743 0.0000 28.1790 0.0000
# 6 0.0000 0.0000 0.0000 4.5966 0.0000 32.3605
#
#
#
# Elastic Compliance Matrix: (Units=1/GPa)
#
#
# Indices 1 2 3 4 5 6 
#
# 1 0.014395 -0.000402 -0.004174 0.000000 -0.003228 0.000000
# 2 -0.000402 0.011983 -0.004308 0.000000 -0.002967 0.000000
# 3 -0.004174 -0.004308 0.008930 0.000000 0.002147 0.000000
# 4 0.000000 0.000000 0.000000 0.033870 0.000000 -0.004811
# 5 -0.003228 -0.002967 0.002147 0.000000 0.036993 0.000000
# 6 0.000000 0.000000 0.000000 -0.004811 0.000000 0.031585
#
#
# Mechanical properties :
#
#
# Convention : Reuss Voigt Hill
#
# Bulk Modulus (GPa) = 57.01726 69.13144 63.07435
# Shear Modulus (GPa) = 30.98435 33.19837 32.09136
#
# Velocity S-wave (km/s) = 3.85615 3.99154 3.92443
# Velocity P-wave (km/s) = 6.86949 7.37702 7.12778
#
# Compressibility (1/GPa) = 0.01753855
#
# Stress axis : x y z
#
# Youngs Moduli (GPa) = 69.46688 83.45131 111.98544
#
# Poissons Ratio (x) = 0.03355 0.46747
# Poissons Ratio (y) = 0.02793 0.48247
# Poissons Ratio (z) = 0.28998 0.35954
#
# Static dielectric constant tensor:
#      x y z
#    x 3.869150 0.000000 0.100460 
#    y 0.000000 3.744060 0.000000 
#    z 0.100460 0.000000 3.994640 
# 
# 
# High freq. dielectric constant tensor:
#      x y z
#    x 1.823700 0.000000 0.002710 
#    y 0.000000 1.813890 0.000000 
#    z 0.002710 0.000000 1.827170 
# 
# From -- ./inp_files/11952.got.cif
#   From: 2010.03.12/outbox.cif.g09.slc.cpg/sg4_6_cif.got.tgz:11952.got - 2010.03.31 09:31:35.
