data_PCOD8046295
_publ_section_title
;
Structure prediction by ZEFSAII (Michael W. Deem and Ramdas Pophale) SiO2 
 PCOD8046295
Probable space group: P 21
;
_chemical_formula_sum "Si O2"
_cell_formula_units_Z 14
_cell_length_a 9.932697
_cell_length_b 8.840708
_cell_length_c 11.124491
_cell_angle_alpha 90.000000
_cell_angle_beta 39.851999
_cell_angle_gamma 90.000000
_cell_volume 625.981391
_symmetry_space_group_name_H-M "P 21"
_symmetry_group_IT_number 4
_symmetry_cell_setting 'monoclinic'
loop_
_space_group_symop_operation_xyz
x,y,z
-x,1/2+y,-z
loop_
_atom_site_type_symbol
_atom_site_label
_atom_site_fract_x
_atom_site_fract_y
_atom_site_fract_z
Si Si1 0.568106 0.671080 0.861944
Si Si2 0.252641 0.274373 0.745472
Si Si3 0.666009 0.188037 0.588840
Si Si4 0.281576 0.859097 0.210532
Si Si5 0.869245 0.473690 0.073160
Si Si6 0.436378 0.352466 0.365463
Si Si7 0.083193 0.103359 0.214134
O O1 0.544046 0.488608 0.877413
O O2 0.626965 0.726296 0.688013
O O3 0.750425 0.715065 0.834209
O O4 0.355934 0.750768 0.051548
O O5 0.472201 0.280656 0.666991
O O6 0.297144 0.326097 0.579234
O O7 0.151341 0.105569 0.811476
O O8 0.095341 0.392605 0.917753
O O9 0.764665 0.263053 0.639633
O O10 0.599247 0.018039 0.666113
O O11 0.855842 0.181872 0.362169
O O12 0.074430 0.946579 0.301098
O O13 0.688103 0.347578 0.219696
O O14 0.830842 0.565581 0.975971
#
# Coordination Sequence:
#
# PCOD8046295 Si02
#       7
#     2   2   2   2   2   2   2
#     4  10  21  40  69 101 140 179 232 280 360 413
#     4  11  27  44  74 101 141 194 230 298 349 418
#     4  11  24  44  68 101 142 178 242 285 350 420
#     4  10  22  41  69 101 137 185 226 290 354 417
#     4  11  24  48  70  99 143 186 238 292 357 412
#     4  11  23  45  72 100 147 183 235 294 344 428
#     4  10  23  42  70  99 142 183 227 295 354 414
#
# _framework density 22.364881
#
# number of rings (size 3 to 8) (size 9 to 14) (size 15 to 20)
#    0.857    0.571    2.857    2.571    4.000    3.429 
#    0.000    0.000    3.143    0.000    0.000    0.000 
#    0.000    0.000    0.000    0.000    0.000    0.000 
#
# Total GULP energy -173510.139324 kJ/mol
# GULP energy per Si atom -12393.581380 kJ/mol
# Density = 2.231398 g / cm^3
# Si number density = 22.364881 Si / 1000 Ang^3
#
#
#
# Elastic Constant Matrix: (Units=GPa)
#
#
# Indices 1 2 3 4 5 6 
#
# 1 64.1523 28.9259 23.7928 0.0000 -6.4031 0.0000
# 2 28.9259 86.9865 35.3028 0.0000 6.9863 0.0000
# 3 23.7928 35.3028 98.2586 0.0000 -12.1508 0.0000
# 4 0.0000 0.0000 0.0000 41.3006 0.0000 0.5640
# 5 -6.4031 6.9863 -12.1508 0.0000 35.8722 0.0000
# 6 0.0000 0.0000 0.0000 0.5640 0.0000 40.7913
#
#
#
# Elastic Compliance Matrix: (Units=1/GPa)
#
#
# Indices 1 2 3 4 5 6 
#
# 1 0.019426 -0.005925 -0.002091 0.000000 0.003913 0.000000
# 2 -0.005925 0.015981 -0.005033 0.000000 -0.005875 0.000000
# 3 -0.002091 -0.005033 0.013116 0.000000 0.005050 0.000000
# 4 0.000000 0.000000 0.000000 0.024217 0.000000 -0.000335
# 5 0.003913 -0.005875 0.005050 0.000000 0.031430 0.000000
# 6 0.000000 0.000000 0.000000 -0.000335 0.000000 0.024520
#
#
# Mechanical properties :
#
#
# Convention : Reuss Voigt Hill
#
# Bulk Modulus (GPa) = 44.59599 47.27115 45.93357
# Shear Modulus (GPa) = 30.81389 34.35120 32.58254
#
# Velocity S-wave (km/s) = 3.71587 3.92336 3.82103
# Velocity P-wave (km/s) = 6.19627 6.45801 6.32849
#
# Compressibility (1/GPa) = 0.02242354
#
# Stress axis : x y z
#
# Youngs Moduli (GPa) = 51.47820 62.57402 76.23987
#
# Poissons Ratio (x) = 0.37077 0.15942
# Poissons Ratio (y) = 0.30503 0.38375
# Poissons Ratio (z) = 0.10764 0.31497
#
# Static dielectric constant tensor:
#      x y z
#    x 3.799440 0.000000 -0.058860 
#    y 0.000000 3.930910 0.000000 
#    z -0.058860 0.000000 3.972310 
# 
# 
# High freq. dielectric constant tensor:
#      x y z
#    x 1.864540 0.000000 0.000530 
#    y 0.000000 1.871600 0.000000 
#    z 0.000530 0.000000 1.885870 
# 
# From -- ./inp_files/11938.got.cif
#   From: 2010.03.12/outbox.cif.g09.slc.cpg/sg4_6_cif.got.tgz:11938.got - 2010.03.31 09:31:35.
