data_PCOD8046771
_publ_section_title
;
Structure prediction by ZEFSAII (Michael W. Deem and Ramdas Pophale) SiO2 
 PCOD8046771
Probable space group: P 21
;
_chemical_formula_sum "Si O2"
_cell_formula_units_Z 14
_cell_length_a 9.630109
_cell_length_b 9.307800
_cell_length_c 7.747373
_cell_angle_alpha 90.000000
_cell_angle_beta 104.636176
_cell_angle_gamma 90.000000
_cell_volume 671.902179
_symmetry_space_group_name_H-M "P 21"
_symmetry_group_IT_number 4
_symmetry_cell_setting 'monoclinic'
loop_
_space_group_symop_operation_xyz
x,y,z
-x,1/2+y,-z
loop_
_atom_site_type_symbol
_atom_site_label
_atom_site_fract_x
_atom_site_fract_y
_atom_site_fract_z
Si Si1 0.401371 0.775510 0.603140
Si Si2 0.667866 0.547259 0.226524
Si Si3 0.799747 0.055259 0.633224
Si Si4 0.142134 0.479622 0.983648
Si Si5 0.580363 0.044459 0.113760
Si Si6 0.367449 0.331879 0.598273
Si Si7 0.068817 0.151338 0.883193
O O1 0.307318 0.902499 0.657595
O O2 0.308272 0.686268 0.436868
O O3 0.459079 0.679178 0.778908
O O4 0.535600 0.839738 0.542011
O O5 0.681739 0.672694 0.372029
O O6 0.784834 0.567384 0.112794
O O7 0.512519 0.545503 0.088486
O O8 0.961029 0.121421 0.686837
O O9 0.769291 0.980177 0.808661
O O10 0.773427 0.931552 0.481627
O O11 0.000824 0.581518 0.964251
O O12 0.249260 0.547219 0.876531
O O13 0.095083 0.319686 0.916575
O O14 0.547917 0.898487 0.210849
#
# Coordination Sequence:
#
# PCOD8046771 Si02
#       7
#     2   2   2   2   2   2   2
#     4  11  24  41  66 102 134 176 220 275 337 387
#     4  12  24  40  69 105 124 180 236 254 335 409
#     4   9  24  44  64  92 145 170 213 281 335 380
#     4  10  22  48  65  95 131 176 225 272 332 388
#     4  11  23  40  72  92 138 173 222 281 322 393
#     4  11  22  43  65  98 137 176 215 284 334 377
#     4  10  25  42  69  98 131 177 223 273 333 396
#
# _framework density 20.836366000000002
#
# number of rings (size 3 to 8) (size 9 to 14) (size 15 to 20)
#    0.857    0.571    1.429    4.286    4.000    2.286 
#    2.571    0.000    0.000    0.000    0.000    0.000 
#    0.000    0.000    0.000    0.000    0.000    0.000 
#
# Total GULP energy -173529.994003 kJ/mol
# GULP energy per Si atom -12394.999572 kJ/mol
# Density = 2.078894 g / cm^3
# Si number density = 20.836366 Si / 1000 Ang^3
#
#
#
# Elastic Constant Matrix: (Units=GPa)
#
#
# Indices 1 2 3 4 5 6 
#
# 1 113.4049 35.9030 27.6063 0.0000 -14.5989 0.0000
# 2 35.9030 110.2703 40.2882 0.0000 10.6303 0.0000
# 3 27.6063 40.2882 80.2081 0.0000 4.2150 0.0000
# 4 0.0000 0.0000 0.0000 47.8874 0.0000 -6.6421
# 5 -14.5989 10.6303 4.2150 0.0000 36.8736 0.0000
# 6 0.0000 0.0000 0.0000 -6.6421 0.0000 30.6639
#
#
#
# Elastic Compliance Matrix: (Units=1/GPa)
#
#
# Indices 1 2 3 4 5 6 
#
# 1 0.011194 -0.003275 -0.002505 0.000000 0.005662 0.000000
# 2 -0.003275 0.012315 -0.004833 0.000000 -0.004294 0.000000
# 3 -0.002505 -0.004833 0.015831 0.000000 -0.001408 0.000000
# 4 0.000000 0.000000 0.000000 0.021529 0.000000 0.004663
# 5 0.005662 -0.004294 -0.001408 0.000000 0.030761 0.000000
# 6 0.000000 0.000000 0.000000 0.004663 0.000000 0.033622
#
#
# Mechanical properties :
#
#
# Convention : Reuss Voigt Hill
#
# Bulk Modulus (GPa) = 55.20710 56.83093 56.01902
# Shear Modulus (GPa) = 32.78377 36.42404 34.60391
#
# Velocity S-wave (km/s) = 3.97090 4.18556 4.07965
# Velocity P-wave (km/s) = 6.89762 7.11988 7.00963
#
# Compressibility (1/GPa) = 0.01811361
#
# Stress axis : x y z
#
# Youngs Moduli (GPa) = 89.33697 81.20435 63.16635
#
# Poissons Ratio (x) = 0.26595 0.15824
# Poissons Ratio (y) = 0.29259 0.30526
# Poissons Ratio (z) = 0.22380 0.39243
#
# Static dielectric constant tensor:
#      x y z
#    x 3.627320 0.000000 -0.084970 
#    y 0.000000 3.800660 0.000000 
#    z -0.084970 0.000000 3.645600 
# 
# 
# High freq. dielectric constant tensor:
#      x y z
#    x 1.802260 0.000000 -0.008960 
#    y 0.000000 1.825680 0.000000 
#    z -0.008960 0.000000 1.811890 
# 
# From -- ./inp_files/5719.got.cif
#   From: 2010.03.12/outbox.cif.g09.slc.cpg/sg4_3_cif.got.tgz:5719.got - 2010.03.31 09:31:35.
