data_PCOD8046103
_publ_section_title
;
Structure prediction by ZEFSAII (Michael W. Deem and Ramdas Pophale) SiO2 
 PCOD8046103
Probable space group: P 21
;
_chemical_formula_sum "Si O2"
_cell_formula_units_Z 10
_cell_length_a 9.702257
_cell_length_b 7.474508
_cell_length_c 6.800334
_cell_angle_alpha 90.000000
_cell_angle_beta 79.812795
_cell_angle_gamma 90.000000
_cell_volume 485.382921
_symmetry_space_group_name_H-M "P 21"
_symmetry_group_IT_number 4
_symmetry_cell_setting 'monoclinic'
loop_
_space_group_symop_operation_xyz
x,y,z
-x,1/2+y,-z
loop_
_atom_site_type_symbol
_atom_site_label
_atom_site_fract_x
_atom_site_fract_y
_atom_site_fract_z
Si Si1 0.732293 0.732600 0.069084
Si Si2 0.340171 0.928359 0.661103
Si Si3 0.613394 0.021335 0.377821
Si Si4 0.821534 0.883695 0.651241
Si Si5 0.070033 0.117975 0.676524
O O1 0.649141 0.547095 0.139559
O O2 0.888149 0.719061 0.129722
O O3 0.647278 0.894986 0.187109
O O4 0.743792 0.764293 0.834822
O O5 0.359412 0.721409 0.704470
O O6 0.451716 0.000781 0.475401
O O7 0.187387 0.965050 0.603853
O O8 0.705106 0.974270 0.545449
O O9 0.926583 0.760071 0.501201
O O10 0.915268 0.036038 0.732542
#
# Coordination Sequence:
#
# PCOD8046103 Si02
#       5
#     2   2   2   2   2
#     4   9  23  40  61  92 124 161 208 254 307 374
#     4  10  20  44  62  89 131 162 196 266 310 361
#     4  11  20  42  66  88 127 166 204 254 319 365
#     4  11  21  42  63  94 121 167 213 253 308 382
#     4   9  22  38  62  85 131 158 205 259 308 358
#
# _framework density 20.602291000000001
#
# number of rings (size 3 to 8) (size 9 to 14) (size 15 to 20)
#    1.200    0.800    2.000    1.200    0.000    4.800 
#   14.400    0.000    0.000    0.000    0.000    0.000 
#    0.000    0.000    0.000    0.000    0.000    0.000 
#
# Total GULP energy -123941.314893 kJ/mol
# GULP energy per Si atom -12394.131489 kJ/mol
# Density = 2.055540 g / cm^3
# Si number density = 20.602291 Si / 1000 Ang^3
#
#
#
# Elastic Constant Matrix: (Units=GPa)
#
#
# Indices 1 2 3 4 5 6 
#
# 1 54.6535 7.2515 11.7074 0.0000 -6.5992 0.0000
# 2 7.2515 139.8337 44.2869 0.0000 1.8418 0.0000
# 3 11.7074 44.2869 76.4125 0.0000 2.2307 0.0000
# 4 0.0000 0.0000 0.0000 29.2824 0.0000 -10.8550
# 5 -6.5992 1.8418 2.2307 0.0000 12.6206 0.0000
# 6 0.0000 0.0000 0.0000 -10.8550 0.0000 33.5769
#
#
#
# Elastic Compliance Matrix: (Units=1/GPa)
#
#
# Indices 1 2 3 4 5 6 
#
# 1 0.020401 -0.000138 -0.003375 0.000000 0.011284 0.000000
# 2 -0.000138 0.008762 -0.005044 0.000000 -0.000459 0.000000
# 3 -0.003375 -0.005044 0.016643 0.000000 -0.003971 0.000000
# 4 0.000000 0.000000 0.000000 0.038800 0.000000 0.012544
# 5 0.011284 -0.000459 -0.003971 0.000000 0.085905 0.000000
# 6 0.000000 0.000000 0.000000 0.012544 0.000000 0.033838
#
#
# Mechanical properties :
#
#
# Convention : Reuss Voigt Hill
#
# Bulk Modulus (GPa) = 34.85212 44.15459 39.50335
# Shear Modulus (GPa) = 21.64258 28.93957 25.29108
#
# Velocity S-wave (km/s) = 3.24465 3.75197 3.50749
# Velocity P-wave (km/s) = 5.56690 6.34414 5.96818
#
# Compressibility (1/GPa) = 0.02869266
#
# Stress axis : x y z
#
# Youngs Moduli (GPa) = 49.01746 114.12994 60.08477
#
# Poissons Ratio (x) = 0.01570 0.20281
# Poissons Ratio (y) = 0.00674 0.30305
# Poissons Ratio (z) = 0.16545 0.57564
#
# Static dielectric constant tensor:
#      x y z
#    x 3.531540 0.000000 -0.069310 
#    y 0.000000 3.751930 0.000000 
#    z -0.069310 0.000000 3.350090 
# 
# 
# High freq. dielectric constant tensor:
#      x y z
#    x 1.797290 0.000000 -0.007060 
#    y 0.000000 1.813040 0.000000 
#    z -0.007060 0.000000 1.783620 
# 
# From -- ./inp_files/938.got.cif
#   From: 2010.03.12/outbox.cif.g09.slc.cpg/sg4_1_cif.got.tgz:938.got - 2010.03.31 09:31:35.
