data_PCOD8046157
_publ_section_title
;
Structure prediction by ZEFSAII (Michael W. Deem and Ramdas Pophale) SiO2 
 PCOD8046157
Probable space group: P 21
;
_chemical_formula_sum "Si O2"
_cell_formula_units_Z 16
_cell_length_a 17.248865
_cell_length_b 9.669579
_cell_length_c 8.518835
_cell_angle_alpha 90.000000
_cell_angle_beta 29.010553
_cell_angle_gamma 90.000000
_cell_volume 689.070726
_symmetry_space_group_name_H-M "P 21"
_symmetry_group_IT_number 4
_symmetry_cell_setting 'monoclinic'
loop_
_space_group_symop_operation_xyz
x,y,z
-x,1/2+y,-z
loop_
_atom_site_type_symbol
_atom_site_label
_atom_site_fract_x
_atom_site_fract_y
_atom_site_fract_z
Si Si1 0.432063 0.067510 0.399682
Si Si2 0.930611 0.248023 0.380307
Si Si3 0.416429 0.563979 0.525591
Si Si4 0.763684 0.337724 0.137102
Si Si5 0.734178 0.470556 0.853507
Si Si6 0.082730 0.250875 0.451494
Si Si7 0.760813 0.837001 0.319199
Si Si8 0.264692 0.470806 0.298184
O O1 0.522065 0.056896 0.406153
O O2 0.372377 0.220372 0.471395
O O3 0.276905 0.966176 0.676148
O O4 0.556342 0.025809 0.044724
O O5 0.787202 0.361968 0.624197
O O6 0.020849 0.266656 0.385313
O O7 0.862094 0.095424 0.481674
O O8 0.060391 0.277600 0.015859
O O9 0.354501 0.716620 0.600607
O O10 0.273265 0.455319 0.750396
O O11 0.555879 0.531718 0.150302
O O12 0.731965 0.382846 0.016149
O O13 0.946269 0.285166 0.823493
O O14 0.860496 0.594566 0.628329
O O15 0.223688 0.361019 0.232996
O O16 0.743238 0.895746 0.522881
#
# Coordination Sequence:
#
# PCOD8046157 Si02
#       8
#     2   2   2   2   2   2   2   2
#     4  11  22  44  68  95 132 176 225 273 327 401
#     4  11  22  44  68  95 132 176 225 273 327 401
#     4  11  21  41  68  99 129 174 225 270 326 399
#     4  10  21  37  66  99 128 167 222 278 321 379
#     4  10  21  37  66  99 128 167 222 278 321 379
#     4  11  21  41  68  99 129 174 225 270 326 399
#     4  12  27  44  67 101 137 175 219 279 340 391
#     4  12  27  44  67 101 137 175 219 279 340 391
#
# _framework density 23.219677000000001
#
# number of rings (size 3 to 8) (size 9 to 14) (size 15 to 20)
#    0.000    1.000    0.000    9.750    0.000    4.000 
#    0.000    3.750    0.000    0.000    0.000    0.000 
#    0.000    0.000    0.000    0.000    0.000    0.000 
#
# Total GULP energy -198407.841251 kJ/mol
# GULP energy per Si atom -12400.490078 kJ/mol
# Density = 2.316683 g / cm^3
# Si number density = 23.219677 Si / 1000 Ang^3
#
#
#
# Elastic Constant Matrix: (Units=GPa)
#
#
# Indices 1 2 3 4 5 6 
#
# 1 50.2957 28.9397 24.2355 0.0000 12.9637 0.0000
# 2 28.9397 120.6926 12.5788 0.0000 2.3986 0.0000
# 3 24.2355 12.5788 91.4450 0.0000 3.8821 0.0000
# 4 0.0000 0.0000 0.0000 58.9467 0.0000 -7.1797
# 5 12.9637 2.3986 3.8821 0.0000 23.2160 0.0000
# 6 0.0000 0.0000 0.0000 -7.1797 0.0000 30.2307
#
#
#
# Elastic Compliance Matrix: (Units=1/GPa)
#
#
# Indices 1 2 3 4 5 6 
#
# 1 0.030691 -0.006365 -0.006606 0.000000 -0.015375 0.000000
# 2 -0.006365 0.009737 0.000241 0.000000 0.002508 0.000000
# 3 -0.006606 0.000241 0.012587 0.000000 0.001559 0.000000
# 4 0.000000 0.000000 0.000000 0.017470 0.000000 0.004149
# 5 -0.015375 0.002508 0.001559 0.000000 0.051140 0.000000
# 6 0.000000 0.000000 0.000000 0.004149 0.000000 0.034064
#
#
# Mechanical properties :
#
#
# Convention : Reuss Voigt Hill
#
# Bulk Modulus (GPa) = 36.29072 43.77125 40.03099
# Shear Modulus (GPa) = 26.26982 35.59063 30.93023
#
# Velocity S-wave (km/s) = 3.36722 3.91932 3.65371
# Velocity P-wave (km/s) = 5.54804 6.27481 5.92259
#
# Compressibility (1/GPa) = 0.02755525
#
# Stress axis : x y z
#
# Youngs Moduli (GPa) = 32.58303 102.70361 79.44779
#
# Poissons Ratio (x) = 0.65371 0.52481
# Poissons Ratio (y) = 0.20739 -0.01915
# Poissons Ratio (z) = 0.21523 -0.02476
#
# Static dielectric constant tensor:
#      x y z
#    x 3.761390 0.000000 -0.219830 
#    y 0.000000 4.594980 0.000000 
#    z -0.219830 0.000000 4.774810 
# 
# 
# High freq. dielectric constant tensor:
#      x y z
#    x 1.877590 0.000000 -0.009170 
#    y 0.000000 1.942340 0.000000 
#    z -0.009170 0.000000 1.935020 
# 
# From -- ./inp_files/9627.got.cif
#   From: 2010.03.12/outbox.cif.g09.slc.cpg/sg4_5_cif.got.tgz:9627.got - 2010.03.31 09:31:35.
