data_PCOD8046077
_publ_section_title
;
Structure prediction by ZEFSAII (Michael W. Deem and Ramdas Pophale) SiO2 
 PCOD8046077
Probable space group: P 21
;
_chemical_formula_sum "Si O2"
_cell_formula_units_Z 16
_cell_length_a 9.132582
_cell_length_b 11.111521
_cell_length_c 8.675044
_cell_angle_alpha 90.000000
_cell_angle_beta 102.513173
_cell_angle_gamma 90.000000
_cell_volume 859.405528
_symmetry_space_group_name_H-M "P 21"
_symmetry_group_IT_number 4
_symmetry_cell_setting 'monoclinic'
loop_
_space_group_symop_operation_xyz
x,y,z
-x,1/2+y,-z
loop_
_atom_site_type_symbol
_atom_site_label
_atom_site_fract_x
_atom_site_fract_y
_atom_site_fract_z
Si Si1 0.276214 0.835340 0.533796
Si Si2 0.574727 0.917589 0.754565
Si Si3 0.842355 0.180941 0.224761
Si Si4 0.898577 0.498194 0.735269
Si Si5 0.695395 0.158170 0.722597
Si Si6 0.036603 0.769271 0.060781
Si Si7 0.273219 0.183927 0.109078
Si Si8 0.556546 0.104597 0.990096
O O1 0.409450 0.904037 0.648686
O O2 0.172007 0.763470 0.628693
O O3 0.350884 0.742917 0.429070
O O4 0.170334 0.932280 0.427738
O O5 0.663886 0.793414 0.774369
O O6 0.667942 0.016905 0.675352
O O7 0.558345 0.966663 0.927430
O O8 0.959640 0.075197 0.288427
O O9 0.902047 0.263552 0.099346
O O10 0.681403 0.121846 0.150269
O O11 0.953605 0.405711 0.878821
O O12 0.770231 0.580829 0.780361
O O13 0.869505 0.180232 0.806377
O O14 0.594047 0.190800 0.850690
O O15 0.865822 0.725504 0.027011
O O16 0.395358 0.135084 0.018927
#
# Coordination Sequence:
#
# PCOD8046077 Si02
#       8
#     2   2   2   2   2   2   2   2
#     4  11  22  41  63  87 130 162 197 247 314 363
#     4  10  22  37  62  92 122 154 201 248 304 361
#     4  10  20  42  62  87 125 157 203 251 298 359
#     4  10  24  41  60  93 121 163 201 250 306 366
#     4   8  21  41  60  88 126 155 196 249 305 358
#     4   9  20  40  65  88 121 153 205 253 296 355
#     4  11  21  36  68  93 116 157 206 253 303 349
#     4   9  20  38  64  92 115 155 207 251 292 353
#
# _framework density 18.617522000000001
#
# number of rings (size 3 to 8) (size 9 to 14) (size 15 to 20)
#    0.750    1.500    1.250    0.750    5.250    1.000 
#    9.000    1.250    0.000    0.000    0.000    0.000 
#    0.000    0.000    0.000    0.000    0.000    0.000 
#
# Total GULP energy -198352.620355 kJ/mol
# GULP energy per Si atom -12397.038772 kJ/mol
# Density = 1.857515 g / cm^3
# Si number density = 18.617522 Si / 1000 Ang^3
#
#
#
# Elastic Constant Matrix: (Units=GPa)
#
#
# Indices 1 2 3 4 5 6 
#
# 1 133.2298 61.5374 55.5365 0.0000 5.7478 0.0000
# 2 61.5374 126.8676 59.8375 0.0000 6.4375 0.0000
# 3 55.5365 59.8375 93.5925 0.0000 7.6273 0.0000
# 4 0.0000 0.0000 0.0000 36.9074 0.0000 2.7541
# 5 5.7478 6.4375 7.6273 0.0000 21.4825 0.0000
# 6 0.0000 0.0000 0.0000 2.7541 0.0000 36.4817
#
#
#
# Elastic Compliance Matrix: (Units=1/GPa)
#
#
# Indices 1 2 3 4 5 6 
#
# 1 0.010799 -0.003165 -0.004352 0.000000 -0.000396 0.000000
# 2 -0.003165 0.012228 -0.005880 0.000000 -0.000730 0.000000
# 3 -0.004352 -0.005880 0.017288 0.000000 -0.003212 0.000000
# 4 0.000000 0.000000 0.000000 0.027248 0.000000 -0.002057
# 5 -0.000396 -0.000730 -0.003212 0.000000 0.048014 0.000000
# 6 0.000000 0.000000 0.000000 -0.002057 0.000000 0.027566
#
#
# Mechanical properties :
#
#
# Convention : Reuss Voigt Hill
#
# Bulk Modulus (GPa) = 73.96324 78.61252 76.28788
# Shear Modulus (GPa) = 28.66218 30.75956 29.71087
#
# Velocity S-wave (km/s) = 3.92794 4.06912 3.99915
# Velocity P-wave (km/s) = 7.77082 8.02456 7.89871
#
# Compressibility (1/GPa) = 0.01352023
#
# Stress axis : x y z
#
# Youngs Moduli (GPa) = 92.60045 81.77950 57.84311
#
# Poissons Ratio (x) = 0.25887 0.25173
# Poissons Ratio (y) = 0.29312 0.34012
# Poissons Ratio (z) = 0.40300 0.48087
#
# Static dielectric constant tensor:
#      x y z
#    x 3.369380 0.000000 0.099080 
#    y 0.000000 3.456200 0.000000 
#    z 0.099080 0.000000 3.321470 
# 
# 
# High freq. dielectric constant tensor:
#      x y z
#    x 1.723340 0.000000 0.011290 
#    y 0.000000 1.723940 0.000000 
#    z 0.011290 0.000000 1.713120 
# 
# From -- ./inp_files/5981.got.cif
#   From: 2010.03.12/outbox.cif.g09.slc.cpg/sg4_3_cif.got.tgz:5981.got - 2010.03.31 09:31:35.
