data_PCOD8046063
_publ_section_title
;
Structure prediction by ZEFSAII (Michael W. Deem and Ramdas Pophale) SiO2 
 PCOD8046063
Probable space group: P 21
;
_chemical_formula_sum "Si O2"
_cell_formula_units_Z 16
_cell_length_a 5.475192
_cell_length_b 11.346686
_cell_length_c 10.255613
_cell_angle_alpha 90.000000
_cell_angle_beta 84.433796
_cell_angle_gamma 90.000000
_cell_volume 634.128657
_symmetry_space_group_name_H-M "P 21"
_symmetry_group_IT_number 4
_symmetry_cell_setting 'monoclinic'
loop_
_space_group_symop_operation_xyz
x,y,z
-x,1/2+y,-z
loop_
_atom_site_type_symbol
_atom_site_label
_atom_site_fract_x
_atom_site_fract_y
_atom_site_fract_z
Si Si1 0.017010 0.270210 0.361679
Si Si2 0.970939 0.016625 0.749491
Si Si3 0.320465 0.366096 0.927410
Si Si4 0.567665 0.192245 0.757603
Si Si5 0.314642 0.112043 0.520003
Si Si6 0.189085 0.953871 0.989253
Si Si7 0.220365 0.895439 0.394503
Si Si8 0.087268 0.540967 0.767141
O O1 0.108352 0.382119 0.273908
O O2 0.255534 0.212234 0.417022
O O3 0.830482 0.309063 0.483105
O O4 0.870214 0.176791 0.276985
O O5 0.736208 0.091547 0.814257
O O6 0.068273 0.077848 0.613426
O O7 0.186208 0.021925 0.849124
O O8 0.344525 0.233931 0.862676
O O9 0.320652 0.474056 0.820087
O O10 0.052668 0.366673 0.011026
O O11 0.550472 0.386947 0.013285
O O12 0.510033 0.156437 0.613102
O O13 0.702855 0.319814 0.735977
O O14 0.412880 0.995249 0.438381
O O15 0.140100 0.038880 0.115940
O O16 0.982183 0.968565 0.360068
#
# Coordination Sequence:
#
# PCOD8046063 Si02
#       8
#     2   2   2   2   2   2   2   2
#     4  10  21  45  64 100 143 181 233 303 358 436
#     4  11  26  43  68 101 145 182 246 295 369 428
#     4  10  23  44  73  98 137 186 242 290 361 420
#     4  12  23  40  70 102 139 193 234 301 361 441
#     4  10  24  39  68  99 137 184 233 296 358 438
#     4  10  24  47  69 105 136 183 244 297 353 434
#     4  10  20  41  63 101 136 176 240 282 363 425
#     4   9  21  43  69  96 135 185 236 294 361 424
#
# _framework density 25.231472
#
# number of rings (size 3 to 8) (size 9 to 14) (size 15 to 20)
#    0.750    1.000    2.500    0.750    5.250    2.000 
#    0.000    0.000    0.000    0.000    0.000    0.000 
#    0.000    0.000    0.000    0.000    0.000    0.000 
#
# Total GULP energy -198223.623010 kJ/mol
# GULP energy per Si atom -12388.976438 kJ/mol
# Density = 2.517404 g / cm^3
# Si number density = 25.231472 Si / 1000 Ang^3
#
#
#
# Elastic Constant Matrix: (Units=GPa)
#
#
# Indices 1 2 3 4 5 6 
#
# 1 84.6702 28.3650 10.6729 0.0000 31.5881 0.0000
# 2 28.3650 137.2668 24.6830 0.0000 15.4534 0.0000
# 3 10.6729 24.6830 93.1154 0.0000 21.7276 0.0000
# 4 0.0000 0.0000 0.0000 12.2632 0.0000 5.6138
# 5 31.5881 15.4534 21.7276 0.0000 36.1389 0.0000
# 6 0.0000 0.0000 0.0000 5.6138 0.0000 30.3088
#
#
#
# Elastic Compliance Matrix: (Units=1/GPa)
#
#
# Indices 1 2 3 4 5 6 
#
# 1 0.018493 -0.002383 0.002380 0.000000 -0.016576 0.000000
# 2 -0.002383 0.008138 -0.001812 0.000000 -0.000307 0.000000
# 3 0.002380 -0.001812 0.013088 0.000000 -0.009174 0.000000
# 4 0.000000 0.000000 0.000000 0.089100 0.000000 -0.016503
# 5 -0.016576 -0.000307 -0.009174 0.000000 0.047807 0.000000
# 6 0.000000 0.000000 0.000000 -0.016503 0.000000 0.036050
#
#
# Mechanical properties :
#
#
# Convention : Reuss Voigt Hill
#
# Bulk Modulus (GPa) = 27.71065 49.16603 38.43834
# Shear Modulus (GPa) = 21.89755 32.49761 27.19758
#
# Velocity S-wave (km/s) = 2.94915 3.59274 3.28674
# Velocity P-wave (km/s) = 4.75427 6.06124 5.44710
#
# Compressibility (1/GPa) = 0.03608721
#
# Stress axis : x y z
#
# Youngs Moduli (GPa) = 54.07461 122.87978 76.40794
#
# Poissons Ratio (x) = 0.29285 -0.18185
# Poissons Ratio (y) = 0.12887 0.13848
# Poissons Ratio (z) = -0.12869 0.22271
#
# Static dielectric constant tensor:
#      x y z
#    x 3.925110 0.000000 0.040700 
#    y 0.000000 4.652650 0.000000 
#    z 0.040700 0.000000 4.532260 
# 
# 
# High freq. dielectric constant tensor:
#      x y z
#    x 1.969210 0.000000 0.005220 
#    y 0.000000 2.007990 0.000000 
#    z 0.005220 0.000000 2.012920 
# 
# From -- ./inp_files/3085.got.cif
#   From: 2010.03.12/outbox.cif.g09.slc.cpg/sg4_2_cif.got.tgz:3085.got - 2010.03.31 09:31:35.
