data_PCOD8046603
_publ_section_title
;
Structure prediction by ZEFSAII (Michael W. Deem and Ramdas Pophale) SiO2 
 PCOD8046603
Probable space group: P 21
;
_chemical_formula_sum "Si O2"
_cell_formula_units_Z 16
_cell_length_a 13.911776
_cell_length_b 11.140392
_cell_length_c 6.862051
_cell_angle_alpha 90.000000
_cell_angle_beta 137.722330
_cell_angle_gamma 90.000000
_cell_volume 715.441362
_symmetry_space_group_name_H-M "P 21"
_symmetry_group_IT_number 4
_symmetry_cell_setting 'monoclinic'
loop_
_space_group_symop_operation_xyz
x,y,z
-x,1/2+y,-z
loop_
_atom_site_type_symbol
_atom_site_label
_atom_site_fract_x
_atom_site_fract_y
_atom_site_fract_z
Si Si1 0.502689 0.474800 0.092885
Si Si2 0.114809 0.577288 0.172204
Si Si3 0.300451 0.790577 0.409134
Si Si4 0.300449 0.363996 0.492200
Si Si5 0.502684 0.679772 0.415171
Si Si6 0.910680 0.437013 0.129556
Si Si7 0.910672 0.717569 0.602464
Si Si8 0.698935 0.577285 0.048402
O O1 0.571535 0.352107 0.280440
O O2 0.470634 0.577291 0.205941
O O3 0.603778 0.533404 0.083433
O O4 0.357602 0.428656 0.775363
O O5 0.216301 0.686217 0.400061
O O6 0.216289 0.468353 0.248807
O O7 0.016207 0.540232 0.208126
O O8 0.016208 0.614351 0.840476
O O9 0.357593 0.725924 0.297403
O O10 0.185929 0.894382 0.196589
O O11 0.428453 0.302464 0.565792
O O12 0.185932 0.260191 0.361205
O O13 0.603745 0.621152 0.727870
O O14 0.804593 0.472670 0.141707
O O15 0.000009 0.327295 0.351182
O O16 0.804582 0.681913 0.272044
#
# Coordination Sequence:
#
# PCOD8046603 Si02
#       8
#     2   2   2   2   2   2   2   2
#     4  12  26  45  73 106 147 185 241 306 361 434
#     4  10  23  44  70  98 143 182 240 298 354 430
#     4  11  24  44  71 103 142 187 234 297 364 421
#     4  11  24  44  71 103 142 187 234 297 364 421
#     4  12  26  45  73 106 147 185 241 306 361 434
#     4  10  22  42  64 100 136 185 237 288 352 428
#     4  10  22  42  64 100 136 185 237 288 352 428
#     4  12  23  44  70 100 141 188 236 298 358 430
#
# _framework density 22.363817000000001
#
# number of rings (size 3 to 8) (size 9 to 14) (size 15 to 20)
#    0.000    1.000    2.500    3.750    3.500    2.000 
#    9.000    0.000    0.000    0.000    0.000    0.000 
#    0.000    0.000    0.000    0.000    0.000    0.000 
#
# Total GULP energy -198366.869105 kJ/mol
# GULP energy per Si atom -12397.929319 kJ/mol
# Density = 2.231292 g / cm^3
# Si number density = 22.363817 Si / 1000 Ang^3
#
#
#
# Elastic Constant Matrix: (Units=GPa)
#
#
# Indices 1 2 3 4 5 6 
#
# 1 92.0894 51.5710 37.6370 0.0000 4.1884 0.0000
# 2 51.5710 121.9288 51.4977 0.0000 0.6491 0.0000
# 3 37.6370 51.4977 91.5834 0.0000 3.9295 0.0000
# 4 0.0000 0.0000 0.0000 38.2552 0.0000 -1.8901
# 5 4.1884 0.6491 3.9295 0.0000 31.9910 0.0000
# 6 0.0000 0.0000 0.0000 -1.8901 0.0000 38.1542
#
#
#
# Elastic Compliance Matrix: (Units=1/GPa)
#
#
# Indices 1 2 3 4 5 6 
#
# 1 0.015065 -0.004952 -0.003344 0.000000 -0.001461 0.000000
# 2 -0.004952 0.012392 -0.004977 0.000000 0.001008 0.000000
# 3 -0.003344 -0.004977 0.015148 0.000000 -0.001322 0.000000
# 4 0.000000 0.000000 0.000000 0.026204 0.000000 0.001298
# 5 -0.001461 0.001008 -0.001322 0.000000 0.031592 0.000000
# 6 0.000000 0.000000 0.000000 0.001298 0.000000 0.026274
#
#
# Mechanical properties :
#
#
# Convention : Reuss Voigt Hill
#
# Bulk Modulus (GPa) = 62.26221 65.22367 63.74294
# Shear Modulus (GPa) = 31.53083 32.67313 32.10198
#
# Velocity S-wave (km/s) = 3.75894 3.82643 3.79283
# Velocity P-wave (km/s) = 6.83671 6.98213 6.90980
#
# Compressibility (1/GPa) = 0.01606111
#
# Stress axis : x y z
#
# Youngs Moduli (GPa) = 66.37787 80.69419 66.01381
#
# Poissons Ratio (x) = 0.39958 0.22075
# Poissons Ratio (y) = 0.32869 0.32852
# Poissons Ratio (z) = 0.22197 0.40158
#
# Static dielectric constant tensor:
#      x y z
#    x 4.085880 0.000000 0.256710 
#    y 0.000000 4.021430 0.000000 
#    z 0.256710 0.000000 4.072120 
# 
# 
# High freq. dielectric constant tensor:
#      x y z
#    x 1.877120 0.000000 0.027410 
#    y 0.000000 1.899710 0.000000 
#    z 0.027410 0.000000 1.875650 
# 
# From -- ./inp_files/2917.got.cif
#   From: 2010.03.12/outbox.cif.g09.slc.cpg/sg4_2_cif.got.tgz:2917.got - 2010.03.31 09:31:35.
