data_PCOD8046605
_publ_section_title
;
Structure prediction by ZEFSAII (Michael W. Deem and Ramdas Pophale) SiO2 
 PCOD8046605
Probable space group: P 21
;
_chemical_formula_sum "Si O2"
_cell_formula_units_Z 16
_cell_length_a 8.276152
_cell_length_b 11.122644
_cell_length_c 8.426164
_cell_angle_alpha 90.000000
_cell_angle_beta 73.336968
_cell_angle_gamma 90.000000
_cell_volume 743.079713
_symmetry_space_group_name_H-M "P 21"
_symmetry_group_IT_number 4
_symmetry_cell_setting 'monoclinic'
loop_
_space_group_symop_operation_xyz
x,y,z
-x,1/2+y,-z
loop_
_atom_site_type_symbol
_atom_site_label
_atom_site_fract_x
_atom_site_fract_y
_atom_site_fract_z
Si Si1 0.183462 0.152070 0.148962
Si Si2 0.885341 0.698334 0.193408
Si Si3 0.354361 0.804419 0.292280
Si Si4 0.238226 0.590879 0.122098
Si Si5 0.983839 0.424897 0.675788
Si Si6 0.511273 0.042153 0.197179
Si Si7 0.435069 0.204744 0.498179
Si Si8 0.240401 0.373632 0.340682
O O1 0.368768 0.097822 0.123088
O O2 0.147497 0.266523 0.271325
O O3 0.043116 0.052646 0.231610
O O4 0.174120 0.191872 0.969947
O O5 0.731065 0.668407 0.354471
O O6 0.035479 0.602511 0.182695
O O7 0.954513 0.831924 0.207272
O O8 0.329503 0.709323 0.160456
O O9 0.184799 0.880586 0.365418
O O10 0.405920 0.737629 0.438786
O O11 0.502144 0.897094 0.202068
O O12 0.302506 0.476129 0.203610
O O13 0.305047 0.575637 0.923510
O O14 0.118728 0.439131 0.499092
O O15 0.491955 0.089147 0.381846
O O16 0.398241 0.316498 0.390715
#
# Coordination Sequence:
#
# PCOD8046605 Si02
#       8
#     2   2   2   2   2   2   2   2
#     4  10  22  42  66  89 130 172 207 265 319 374
#     4  10  23  41  65  96 127 167 210 262 319 384
#     4  10  23  41  66  92 130 167 209 269 310 382
#     4  11  25  40  65  95 130 163 218 260 319 376
#     4   9  22  42  62  97 128 167 214 262 319 382
#     4  10  24  42  64  92 127 170 210 262 318 380
#     4  10  23  43  66  92 128 166 213 258 325 381
#     4  10  24  39  66  93 128 168 213 262 319 377
#
# _framework density 21.53201
#
# number of rings (size 3 to 8) (size 9 to 14) (size 15 to 20)
#    0.000    2.000    0.000    0.750   17.500    2.000 
#    0.000    0.000    0.000    0.000    0.000    0.000 
#    0.000    0.000    0.000    0.000    0.000    0.000 
#
# Total GULP energy -198444.389971 kJ/mol
# GULP energy per Si atom -12402.774373 kJ/mol
# Density = 2.148300 g / cm^3
# Si number density = 21.532010 Si / 1000 Ang^3
#
#
#
# Elastic Constant Matrix: (Units=GPa)
#
#
# Indices 1 2 3 4 5 6 
#
# 1 56.9349 19.1043 36.4206 0.0000 10.6428 0.0000
# 2 19.1043 99.3622 41.8876 0.0000 -7.9440 0.0000
# 3 36.4206 41.8876 124.6886 0.0000 2.6482 0.0000
# 4 0.0000 0.0000 0.0000 31.0440 0.0000 -0.9116
# 5 10.6428 -7.9440 2.6482 0.0000 36.8858 0.0000
# 6 0.0000 0.0000 0.0000 -0.9116 0.0000 22.0305
#
#
#
# Elastic Compliance Matrix: (Units=1/GPa)
#
#
# Indices 1 2 3 4 5 6 
#
# 1 0.023460 -0.002605 -0.005830 0.000000 -0.006911 0.000000
# 2 -0.002605 0.012313 -0.003453 0.000000 0.003651 0.000000
# 3 -0.005830 -0.003453 0.010880 0.000000 0.000158 0.000000
# 4 0.000000 0.000000 0.000000 0.032252 0.000000 0.001335
# 5 -0.006911 0.003651 0.000158 0.000000 0.029880 0.000000
# 6 0.000000 0.000000 0.000000 0.001335 0.000000 0.045447
#
#
# Mechanical properties :
#
#
# Convention : Reuss Voigt Hill
#
# Bulk Modulus (GPa) = 43.71606 52.86786 48.29196
# Shear Modulus (GPa) = 26.93499 30.23028 28.58264
#
# Velocity S-wave (km/s) = 3.54068 3.75102 3.64737
# Velocity P-wave (km/s) = 6.08787 6.58534 6.34148
#
# Compressibility (1/GPa) = 0.02287489
#
# Stress axis : x y z
#
# Youngs Moduli (GPa) = 42.62633 81.21746 91.91512
#
# Poissons Ratio (x) = 0.21159 0.53590
# Poissons Ratio (y) = 0.11105 0.31737
# Poissons Ratio (z) = 0.24853 0.28043
#
# Static dielectric constant tensor:
#      x y z
#    x 3.849560 0.000000 0.075620 
#    y 0.000000 3.964530 0.000000 
#    z 0.075620 0.000000 3.802570 
# 
# 
# High freq. dielectric constant tensor:
#      x y z
#    x 1.837800 0.000000 0.004960 
#    y 0.000000 1.850940 0.000000 
#    z 0.004960 0.000000 1.845710 
# 
# From -- ./inp_files/5931.got.cif
#   From: 2010.03.12/outbox.cif.g09.slc.cpg/sg4_3_cif.got.tgz:5931.got - 2010.03.31 09:31:35.
