data_PCOD8046879
_publ_section_title
;
Structure prediction by ZEFSAII (Michael W. Deem and Ramdas Pophale) SiO2 
 PCOD8046879
Probable space group: P 21
;
_chemical_formula_sum "Si O2"
_cell_formula_units_Z 16
_cell_length_a 13.649878
_cell_length_b 7.103311
_cell_length_c 16.846932
_cell_angle_alpha 90.000000
_cell_angle_beta 23.524152
_cell_angle_gamma 90.000000
_cell_volume 651.974923
_symmetry_space_group_name_H-M "P 21"
_symmetry_group_IT_number 4
_symmetry_cell_setting 'monoclinic'
loop_
_space_group_symop_operation_xyz
x,y,z
-x,1/2+y,-z
loop_
_atom_site_type_symbol
_atom_site_label
_atom_site_fract_x
_atom_site_fract_y
_atom_site_fract_z
Si Si1 0.294322 0.369190 0.270114
Si Si2 0.947291 0.380707 0.937549
Si Si3 0.693427 0.072294 0.591658
Si Si4 0.045047 0.272722 0.686417
Si Si5 0.733078 0.410503 0.684240
Si Si6 0.251080 0.247745 0.856144
Si Si7 0.431641 0.675879 0.051457
Si Si8 0.511396 0.121155 0.265666
O O1 0.415695 0.402909 0.267857
O O2 0.456206 0.494160 0.088554
O O3 0.021115 0.448656 0.486072
O O4 0.334802 0.178032 0.186069
O O5 0.012148 0.307266 0.802981
O O6 0.153863 0.293737 0.841464
O O7 0.936430 0.609534 0.955623
O O8 0.682260 0.299191 0.157273
O O9 0.748098 0.248196 0.606584
O O10 0.505086 0.131088 0.662340
O O11 0.925934 0.979481 0.375450
O O12 0.814544 0.167610 0.818676
O O13 0.284663 0.139573 0.495804
O O14 0.579864 0.349019 0.875818
O O15 0.614485 0.597277 0.729834
O O16 0.310458 0.439999 0.858450
#
# Coordination Sequence:
#
# PCOD8046879 Si02
#       8
#     2   2   2   2   2   2   2   2
#     4  11  23  41  62  97 140 185 232 279 342 413
#     4  12  26  47  77 106 141 186 239 303 362 436
#     4  10  23  44  68  96 145 182 228 295 349 421
#     4  12  25  43  70 106 139 187 239 293 357 425
#     4  10  23  43  66  96 144 192 224 284 345 413
#     4  11  24  51  74 103 139 187 235 303 371 417
#     4  11  25  37  65  98 134 188 236 277 342 418
#     4  11  25  48  72 104 146 185 241 298 356 427
#
# _framework density 24.540818999999999
#
# number of rings (size 3 to 8) (size 9 to 14) (size 15 to 20)
#    0.000    1.000    5.000    0.750    3.500    1.000 
#    4.500    0.000    0.000    0.000    0.000    0.000 
#    0.000    0.000    0.000    0.000    0.000    0.000 
#
# Total GULP energy -198238.455967 kJ/mol
# GULP energy per Si atom -12389.903498 kJ/mol
# Density = 2.448496 g / cm^3
# Si number density = 24.540819 Si / 1000 Ang^3
#
#
#
# Elastic Constant Matrix: (Units=GPa)
#
#
# Indices 1 2 3 4 5 6 
#
# 1 107.9429 2.6217 25.8337 0.0000 -10.5595 0.0000
# 2 2.6217 91.9843 -9.6444 0.0000 -4.7519 0.0000
# 3 25.8337 -9.6444 93.5975 0.0000 3.5031 0.0000
# 4 0.0000 0.0000 0.0000 32.1919 0.0000 -3.5768
# 5 -10.5595 -4.7519 3.5031 0.0000 34.4485 0.0000
# 6 0.0000 0.0000 0.0000 -3.5768 0.0000 40.2790
#
#
#
# Elastic Compliance Matrix: (Units=1/GPa)
#
#
# Indices 1 2 3 4 5 6 
#
# 1 0.010333 -0.000435 -0.003025 0.000000 0.003415 0.000000
# 2 -0.000435 0.011077 0.001214 0.000000 0.001271 0.000000
# 3 -0.003025 0.001214 0.011717 0.000000 -0.001951 0.000000
# 4 0.000000 0.000000 0.000000 0.031373 0.000000 0.002786
# 5 0.003415 0.001271 -0.001951 0.000000 0.030449 0.000000
# 6 0.000000 0.000000 0.000000 0.002786 0.000000 0.025074
#
#
# Mechanical properties :
#
#
# Convention : Reuss Voigt Hill
#
# Bulk Modulus (GPa) = 34.92270 36.79408 35.85839
# Shear Modulus (GPa) = 37.29681 39.69813 38.49747
#
# Velocity S-wave (km/s) = 3.90267 4.02635 3.96499
# Velocity P-wave (km/s) = 5.87955 6.05317 5.96699
#
# Compressibility (1/GPa) = 0.02863467
#
# Stress axis : x y z
#
# Youngs Moduli (GPa) = 96.78071 90.27908 85.34642
#
# Poissons Ratio (x) = 0.03929 0.25813
# Poissons Ratio (y) = 0.04212 -0.10360
# Poissons Ratio (z) = 0.29272 -0.10959
#
# Static dielectric constant tensor:
#      x y z
#    x 4.682880 0.000000 -0.102650 
#    y 0.000000 5.133320 0.000000 
#    z -0.102650 0.000000 4.266240 
# 
# 
# High freq. dielectric constant tensor:
#      x y z
#    x 1.987870 0.000000 -0.001020 
#    y 0.000000 2.026330 0.000000 
#    z -0.001020 0.000000 1.956250 
# 
# From -- ./inp_files/15255.got.cif
#   From: 2010.03.12/outbox.cif.g09.slc.cpg/sg4_8_cif.got.tgz:15255.got - 2010.03.31 09:31:35.
