data_PCOD8046557
_publ_section_title
;
Structure prediction by ZEFSAII (Michael W. Deem and Ramdas Pophale) SiO2 
 PCOD8046557
Probable space group: P 21
;
_chemical_formula_sum "Si O2"
_cell_formula_units_Z 14
_cell_length_a 11.052145
_cell_length_b 9.207212
_cell_length_c 11.022499
_cell_angle_alpha 90.000000
_cell_angle_beta 36.783745
_cell_angle_gamma 90.000000
_cell_volume 671.636004
_symmetry_space_group_name_H-M "P 21"
_symmetry_group_IT_number 4
_symmetry_cell_setting 'monoclinic'
loop_
_space_group_symop_operation_xyz
x,y,z
-x,1/2+y,-z
loop_
_atom_site_type_symbol
_atom_site_label
_atom_site_fract_x
_atom_site_fract_y
_atom_site_fract_z
Si Si1 0.781879 0.841200 0.252614
Si Si2 0.185214 0.926639 0.056275
Si Si3 0.999014 0.255041 0.580913
Si Si4 0.957377 0.427454 0.379345
Si Si5 0.423763 0.270636 0.337376
Si Si6 0.518891 0.459317 0.677215
Si Si7 0.232397 0.248962 0.990590
O O1 0.667699 0.759355 0.453083
O O2 0.620986 0.961034 0.331993
O O3 0.991000 0.914608 0.125535
O O4 0.835690 0.732734 0.097050
O O5 0.150575 0.831671 0.203387
O O6 0.395015 0.884891 0.821736
O O7 0.214557 0.094914 0.071148
O O8 0.232130 0.309208 0.406433
O O9 0.928231 0.305143 0.505610
O O10 0.979061 0.081426 0.612293
O O11 0.755360 0.443979 0.461942
O O12 0.112134 0.374360 0.155507
O O13 0.515831 0.113777 0.228492
O O14 0.456795 0.320546 0.811061
#
# Coordination Sequence:
#
# PCOD8046557 Si02
#       7
#     2   2   2   2   2   2   2
#     4   9  24  35  60  94 121 159 202 231 307 358
#     4  11  23  39  63  91 126 159 199 250 297 360
#     4  10  24  42  64  92 113 165 204 247 308 353
#     4  11  22  44  65  84 127 153 204 260 295 356
#     4  10  22  41  62  87 127 157 199 253 296 357
#     4   9  23  38  61  90 118 161 200 241 306 350
#     4  10  24  37  61  94 118 162 202 240 307 354
#
# _framework density 20.844625000000001
#
# number of rings (size 3 to 8) (size 9 to 14) (size 15 to 20)
#    0.857    1.143    0.000    1.714    6.000    5.714 
#    0.000    0.000    0.000    0.000    0.000    0.000 
#    0.000    0.000    0.000    0.000    0.000    0.000 
#
# Total GULP energy -173441.690247 kJ/mol
# GULP energy per Si atom -12388.692161 kJ/mol
# Density = 2.079718 g / cm^3
# Si number density = 20.844625 Si / 1000 Ang^3
#
#
#
# Elastic Constant Matrix: (Units=GPa)
#
#
# Indices 1 2 3 4 5 6 
#
# 1 63.7046 10.0942 25.0199 0.0000 -1.0226 0.0000
# 2 10.0942 120.3957 48.2472 0.0000 -10.3085 0.0000
# 3 25.0199 48.2472 90.9285 0.0000 2.8083 0.0000
# 4 0.0000 0.0000 0.0000 33.6304 0.0000 0.6448
# 5 -1.0226 -10.3085 2.8083 0.0000 24.1670 0.0000
# 6 0.0000 0.0000 0.0000 0.6448 0.0000 29.1205
#
#
#
# Elastic Compliance Matrix: (Units=1/GPa)
#
#
# Indices 1 2 3 4 5 6 
#
# 1 0.017699 0.000807 -0.005351 0.000000 0.001715 0.000000
# 2 0.000807 0.011271 -0.006375 0.000000 0.005583 0.000000
# 3 -0.005351 -0.006375 0.016001 0.000000 -0.004805 0.000000
# 4 0.000000 0.000000 0.000000 0.029748 0.000000 -0.000659
# 5 0.001715 0.005583 -0.004805 0.000000 0.044391 0.000000
# 6 0.000000 0.000000 0.000000 -0.000659 0.000000 0.034355
#
#
# Mechanical properties :
#
#
# Convention : Reuss Voigt Hill
#
# Bulk Modulus (GPa) = 43.22832 49.08349 46.15590
# Shear Modulus (GPa) = 27.32041 30.16141 28.74091
#
# Velocity S-wave (km/s) = 3.62424 3.80802 3.71727
# Velocity P-wave (km/s) = 6.18845 6.55234 6.37299
#
# Compressibility (1/GPa) = 0.02313298
#
# Stress axis : x y z
#
# Youngs Moduli (GPa) = 56.50094 88.72351 62.49530
#
# Poissons Ratio (x) = -0.07164 0.33444
# Poissons Ratio (y) = -0.04562 0.39841
# Poissons Ratio (z) = 0.30236 0.56562
#
# Static dielectric constant tensor:
#      x y z
#    x 3.630100 0.000000 -0.097290 
#    y 0.000000 3.693720 0.000000 
#    z -0.097290 0.000000 3.691540 
# 
# 
# High freq. dielectric constant tensor:
#      x y z
#    x 1.801060 0.000000 -0.007480 
#    y 0.000000 1.814570 0.000000 
#    z -0.007480 0.000000 1.820330 
# 
# From -- ./inp_files/11945.got.cif
#   From: 2010.03.12/outbox.cif.g09.slc.cpg/sg4_6_cif.got.tgz:11945.got - 2010.03.31 09:31:35.
