data_PCOD8046664
_publ_section_title
;
Structure prediction by ZEFSAII (Michael W. Deem and Ramdas Pophale) SiO2 
 PCOD8046664
Probable space group: P 21
;
_chemical_formula_sum "Si O2"
_cell_formula_units_Z 14
_cell_length_a 5.155941
_cell_length_b 14.215625
_cell_length_c 9.735760
_cell_angle_alpha 90.000000
_cell_angle_beta 69.385484
_cell_angle_gamma 90.000000
_cell_volume 667.891406
_symmetry_space_group_name_H-M "P 21"
_symmetry_group_IT_number 4
_symmetry_cell_setting 'monoclinic'
loop_
_space_group_symop_operation_xyz
x,y,z
-x,1/2+y,-z
loop_
_atom_site_type_symbol
_atom_site_label
_atom_site_fract_x
_atom_site_fract_y
_atom_site_fract_z
Si Si1 0.741901 0.473090 0.789925
Si Si2 0.657071 0.330274 0.034090
Si Si3 0.867233 0.070335 0.763279
Si Si4 0.843055 0.733476 0.186646
Si Si5 0.413053 0.139136 0.013903
Si Si6 0.360355 0.407216 0.636851
Si Si7 0.424729 0.958206 0.690694
O O1 0.778576 0.576485 0.851150
O O2 0.546593 0.478410 0.692507
O O3 0.044033 0.439824 0.689697
O O4 0.590882 0.401829 0.923057
O O5 0.451825 0.241341 0.072760
O O6 0.606117 0.381084 0.186075
O O7 0.969982 0.294647 0.953112
O O8 0.660137 0.036556 0.680905
O O9 0.983500 0.178158 0.725715
O O10 0.120684 0.999493 0.725836
O O11 0.696060 0.078224 0.939656
O O12 0.623788 0.801841 0.302284
O O13 0.700906 0.652567 0.120248
O O14 0.484006 0.403577 0.462208
#
# Coordination Sequence:
#
# PCOD8046664 Si02
#       7
#     2   2   2   2   2   2   2
#     4  11  23  43  70  93 134 175 221 276 325 397
#     4  10  23  38  72 100 125 173 228 274 325 393
#     4  11  23  41  71  95 132 175 224 267 332 393
#     4  10  22  43  70 101 127 178 225 280 323 395
#     4  11  22  41  72 103 126 169 235 279 324 384
#     4  11  26  45  65  98 141 175 214 272 345 395
#     4  12  25  45  66 100 137 179 213 274 340 403
#
# _framework density 20.961493000000001
#
# number of rings (size 3 to 8) (size 9 to 14) (size 15 to 20)
#    0.000    1.143    4.286    0.857   10.000    0.000 
#    5.143    0.000    0.000    0.000    0.000    0.000 
#    0.000    0.000    0.000    0.000    0.000    0.000 
#
# Total GULP energy -173518.993604 kJ/mol
# GULP energy per Si atom -12394.213829 kJ/mol
# Density = 2.091378 g / cm^3
# Si number density = 20.961493 Si / 1000 Ang^3
#
#
#
# Elastic Constant Matrix: (Units=GPa)
#
#
# Indices 1 2 3 4 5 6 
#
# 1 99.2060 31.6473 34.2674 0.0000 3.7130 0.0000
# 2 31.6473 84.1379 52.4911 0.0000 -5.9657 0.0000
# 3 34.2674 52.4911 134.6262 0.0000 7.0067 0.0000
# 4 0.0000 0.0000 0.0000 5.5915 0.0000 -0.2318
# 5 3.7130 -5.9657 7.0067 0.0000 22.0078 0.0000
# 6 0.0000 0.0000 0.0000 -0.2318 0.0000 34.0747
#
#
#
# Elastic Compliance Matrix: (Units=1/GPa)
#
#
# Indices 1 2 3 4 5 6 
#
# 1 0.011866 -0.003759 -0.001421 0.000000 -0.002568 0.000000
# 2 -0.003759 0.017809 -0.006377 0.000000 0.007492 0.000000
# 3 -0.001421 -0.006377 0.010528 0.000000 -0.004841 0.000000
# 4 0.000000 0.000000 0.000000 0.178893 0.000000 0.001217
# 5 -0.002568 0.007492 -0.004841 0.000000 0.049444 0.000000
# 6 0.000000 0.000000 0.000000 0.001217 0.000000 0.029356
#
#
# Mechanical properties :
#
#
# Convention : Reuss Voigt Hill
#
# Bulk Modulus (GPa) = 58.51629 61.64240 60.07935
# Shear Modulus (GPa) = 15.30434 25.63907 20.47171
#
# Velocity S-wave (km/s) = 2.70500 3.50115 3.12850
# Velocity P-wave (km/s) = 6.14270 6.76871 6.46328
#
# Compressibility (1/GPa) = 0.01708926
#
# Stress axis : x y z
#
# Youngs Moduli (GPa) = 84.27357 56.15289 94.98526
#
# Poissons Ratio (x) = 0.21107 0.13499
# Poissons Ratio (y) = 0.31677 0.60570
# Poissons Ratio (z) = 0.11976 0.35807
#
# Static dielectric constant tensor:
#      x y z
#    x 4.003650 0.000000 -0.050490 
#    y 0.000000 3.978360 0.000000 
#    z -0.050490 0.000000 3.551280 
# 
# 
# High freq. dielectric constant tensor:
#      x y z
#    x 1.829930 0.000000 -0.007180 
#    y 0.000000 1.826760 0.000000 
#    z -0.007180 0.000000 1.792310 
# 
# From -- ./inp_files/1499.got.cif
#   From: 2010.03.12/outbox.cif.g09.slc.cpg/sg4_1_cif.got.tgz:1499.got - 2010.03.31 09:31:35.
