data_PCOD8046335
_publ_section_title
;
Structure prediction by ZEFSAII (Michael W. Deem and Ramdas Pophale) SiO2 
 PCOD8046335
Probable space group: P 21
;
_chemical_formula_sum "Si O2"
_cell_formula_units_Z 16
_cell_length_a 21.717178
_cell_length_b 5.169783
_cell_length_c 18.764179
_cell_angle_alpha 90.000000
_cell_angle_beta 21.489129
_cell_angle_gamma 90.000000
_cell_volume 771.740799
_symmetry_space_group_name_H-M "P 21"
_symmetry_group_IT_number 4
_symmetry_cell_setting 'monoclinic'
loop_
_space_group_symop_operation_xyz
x,y,z
-x,1/2+y,-z
loop_
_atom_site_type_symbol
_atom_site_label
_atom_site_fract_x
_atom_site_fract_y
_atom_site_fract_z
Si Si1 0.572961 0.083080 0.384928
Si Si2 0.617179 0.082788 0.792610
Si Si3 0.598346 0.082793 0.978598
Si Si4 0.957870 0.082556 0.337762
Si Si5 0.734997 0.083642 0.446803
Si Si6 0.482268 0.083631 0.318985
Si Si7 0.110689 0.583087 0.874603
Si Si8 0.823606 0.082551 0.864048
O O1 0.500057 0.333086 0.499956
O O2 0.530645 0.083067 0.348692
O O3 0.772136 0.082990 0.182099
O O4 0.512323 0.333487 0.882440
O O5 0.794688 0.082500 0.562836
O O6 0.511927 0.832485 0.882859
O O7 0.654267 0.082655 0.836612
O O8 0.771191 0.082607 0.837319
O O9 0.902935 0.082601 0.313983
O O10 0.068307 0.332533 0.234345
O O11 0.068255 0.832467 0.234340
O O12 0.626851 0.334185 0.583074
O O13 0.782798 0.083118 0.312478
O O14 0.625137 0.834849 0.584906
O O15 0.652070 0.082387 0.092343
O O16 0.000017 0.333057 0.999951
#
# Coordination Sequence:
#
# PCOD8046335 Si02
#       8
#     2   2   2   2   2   2   2   2
#     4  12  23  44  65  93 118 159 214 253 309 370
#     4  10  21  41  68  94 125 169 206 254 298 373
#     4  10  21  41  68  94 124 167 216 243 301 369
#     4  12  26  41  62  95 132 162 204 258 317 360
#     4  12  25  45  64  89 123 170 208 248 314 373
#     4  12  24  44  67  87 122 167 211 257 298 375
#     4  12  26  41  65  93 125 159 198 262 320 370
#     4  12  26  41  63  97 127 165 205 261 309 358
#
# _framework density 20.732348000000002
#
# number of rings (size 3 to 8) (size 9 to 14) (size 15 to 20)
#    0.000    0.500    2.500    6.000    3.500    1.000 
#    0.000    0.000    0.000    0.000    0.000    0.000 
#    0.000    0.000    0.000    0.000    0.000    0.000 
#
# Total GULP energy -198490.785791 kJ/mol
# GULP energy per Si atom -12405.674112 kJ/mol
# Density = 2.068516 g / cm^3
# Si number density = 20.732348 Si / 1000 Ang^3
#
#
#
# Elastic Constant Matrix: (Units=GPa)
#
#
# Indices 1 2 3 4 5 6 
#
# 1 137.8885 45.8022 25.7787 0.0000 -33.9123 0.0000
# 2 45.8022 204.1907 56.7470 0.0000 -28.1011 0.0000
# 3 25.7787 56.7470 99.4415 0.0000 -13.1030 0.0000
# 4 0.0000 0.0000 0.0000 42.7181 0.0000 -15.9381
# 5 -33.9123 -28.1011 -13.1030 0.0000 44.8405 0.0000
# 6 0.0000 0.0000 0.0000 -15.9381 0.0000 31.2970
#
#
#
# Elastic Compliance Matrix: (Units=1/GPa)
#
#
# Indices 1 2 3 4 5 6 
#
# 1 0.009265 -0.000944 -0.001059 0.000000 0.006107 0.000000
# 2 -0.000944 0.006271 -0.003027 0.000000 0.002332 0.000000
# 3 -0.001059 -0.003027 0.012171 0.000000 0.000859 0.000000
# 4 0.000000 0.000000 0.000000 0.028900 0.000000 0.014718
# 5 0.006107 0.002332 0.000859 0.000000 0.028632 0.000000
# 6 0.000000 0.000000 0.000000 0.014718 0.000000 0.039447
#
#
# Mechanical properties :
#
#
# Convention : Reuss Voigt Hill
#
# Bulk Modulus (GPa) = 56.65973 77.57515 67.11744
# Shear Modulus (GPa) = 35.55465 44.65065 40.10265
#
# Velocity S-wave (km/s) = 4.14567 4.64580 4.40284
# Velocity P-wave (km/s) = 7.09253 8.14105 7.63481
#
# Compressibility (1/GPa) = 0.01764922
#
# Stress axis : x y z
#
# Youngs Moduli (GPa) = 107.92733 159.46005 82.16207
#
# Poissons Ratio (x) = 0.15048 0.08699
# Poissons Ratio (y) = 0.10185 0.24869
# Poissons Ratio (z) = 0.11427 0.48265
#
# Static dielectric constant tensor:
#      x y z
#    x 3.791430 0.000000 -0.027800 
#    y 0.000000 4.093370 0.000000 
#    z -0.027800 0.000000 3.797650 
# 
# 
# High freq. dielectric constant tensor:
#      x y z
#    x 1.833420 0.000000 -0.006200 
#    y 0.000000 1.838510 0.000000 
#    z -0.006200 0.000000 1.814050 
# 
# From -- ./inp_files/15365.got.cif
#   From: 2010.03.12/outbox.cif.g09.slc.cpg/sg4_8_cif.got.tgz:15365.got - 2010.03.31 09:31:35.
