data_PCOD8046774
_publ_section_title
;
Structure prediction by ZEFSAII (Michael W. Deem and Ramdas Pophale) SiO2 
 PCOD8046774
Probable space group: P 21
;
_chemical_formula_sum "Si O2"
_cell_formula_units_Z 16
_cell_length_a 11.934924
_cell_length_b 6.031123
_cell_length_c 15.356449
_cell_angle_alpha 90.000000
_cell_angle_beta 39.808123
_cell_angle_gamma 90.000000
_cell_volume 707.680034
_symmetry_space_group_name_H-M "P 21"
_symmetry_group_IT_number 4
_symmetry_cell_setting 'monoclinic'
loop_
_space_group_symop_operation_xyz
x,y,z
-x,1/2+y,-z
loop_
_atom_site_type_symbol
_atom_site_label
_atom_site_fract_x
_atom_site_fract_y
_atom_site_fract_z
Si Si1 0.972303 0.567970 0.557120
Si Si2 0.301908 0.777850 0.084338
Si Si3 0.410229 0.006075 0.183131
Si Si4 0.982989 0.495486 0.233724
Si Si5 0.168127 0.107790 0.032852
Si Si6 0.819465 0.882674 0.244410
Si Si7 0.223415 0.636494 0.553734
Si Si8 0.440154 0.273838 0.742375
O O1 0.775229 0.629889 0.701927
O O2 0.964279 0.315054 0.517174
O O3 0.094336 0.506759 0.566104
O O4 0.391379 0.804083 0.125405
O O5 0.121185 0.644767 0.204009
O O6 0.439040 0.668176 0.937788
O O7 0.252829 0.013394 0.070935
O O8 0.461032 0.929676 0.248894
O O9 0.844789 0.628174 0.256814
O O10 0.865296 0.374933 0.376335
O O11 0.097497 0.349054 0.099331
O O12 0.310987 0.109130 0.871016
O O13 0.006506 0.961672 0.095344
O O14 0.673919 0.916337 0.257471
O O15 0.759561 0.018658 0.364084
O O16 0.415600 0.639876 0.397683
#
# Coordination Sequence:
#
# PCOD8046774 Si02
#       8
#     2   2   2   2   2   2   2   2
#     4  12  29  50  77 112 155 204 256 322 393 465
#     4  11  25  44  73 105 142 193 241 316 393 462
#     4  12  26  43  75 108 148 191 256 319 386 465
#     4  10  22  48  73  99 143 192 244 301 382 466
#     4  10  23  47  72 107 140 187 247 308 386 454
#     4  10  26  46  73  99 145 203 244 313 384 457
#     4  11  27  48  72 105 148 202 249 310 393 457
#     4  12  26  46  71 113 145 190 261 315 375 462
#
# _framework density 22.609089000000001
#
# number of rings (size 3 to 8) (size 9 to 14) (size 15 to 20)
#    0.000    1.000    2.500    3.000   10.500    0.000 
#    2.250    0.000    0.000    0.000    0.000    0.000 
#    0.000    0.000    0.000    0.000    0.000    0.000 
#
# Total GULP energy -198271.310756 kJ/mol
# GULP energy per Si atom -12391.956922 kJ/mol
# Density = 2.255763 g / cm^3
# Si number density = 22.609089 Si / 1000 Ang^3
#
#
#
# Elastic Constant Matrix: (Units=GPa)
#
#
# Indices 1 2 3 4 5 6 
#
# 1 163.6926 28.1815 44.2842 0.0000 -1.8282 0.0000
# 2 28.1815 87.7708 37.6455 0.0000 5.8603 0.0000
# 3 44.2842 37.6455 163.6297 0.0000 -9.8454 0.0000
# 4 0.0000 0.0000 0.0000 30.9850 0.0000 -0.0637
# 5 -1.8282 5.8603 -9.8454 0.0000 32.5948 0.0000
# 6 0.0000 0.0000 0.0000 -0.0637 0.0000 24.3351
#
#
#
# Elastic Compliance Matrix: (Units=1/GPa)
#
#
# Indices 1 2 3 4 5 6 
#
# 1 0.006776 -0.001564 -0.001461 0.000000 0.000220 0.000000
# 2 -0.001564 0.013340 -0.002847 0.000000 -0.003346 0.000000
# 3 -0.001461 -0.002847 0.007321 0.000000 0.002641 0.000000
# 4 0.000000 0.000000 0.000000 0.032274 0.000000 0.000085
# 5 0.000220 -0.003346 0.002641 0.000000 0.032091 0.000000
# 6 0.000000 0.000000 0.000000 0.000085 0.000000 0.041093
#
#
# Mechanical properties :
#
#
# Convention : Reuss Voigt Hill
#
# Bulk Modulus (GPa) = 63.72246 70.59061 67.15654
# Shear Modulus (GPa) = 33.36236 37.91510 35.63873
#
# Velocity S-wave (km/s) = 3.84554 4.09954 3.97457
# Velocity P-wave (km/s) = 6.92555 7.32792 7.12957
#
# Compressibility (1/GPa) = 0.01569305
#
# Stress axis : x y z
#
# Youngs Moduli (GPa) = 147.58234 74.96261 136.59963
#
# Poissons Ratio (x) = 0.11722 0.19955
# Poissons Ratio (y) = 0.23078 0.38892
# Poissons Ratio (z) = 0.21559 0.21343
#
# Static dielectric constant tensor:
#      x y z
#    x 4.132940 0.000000 -0.128060 
#    y 0.000000 4.222370 0.000000 
#    z -0.128060 0.000000 4.232090 
# 
# 
# High freq. dielectric constant tensor:
#      x y z
#    x 1.900770 0.000000 -0.009590 
#    y 0.000000 1.881120 0.000000 
#    z -0.009590 0.000000 1.903910 
# 
# From -- ./inp_files/10708.got.cif
#   From: 2010.03.12/outbox.cif.g09.slc.cpg/sg4_6_cif.got.tgz:10708.got - 2010.03.31 09:31:35.
