data_PCOD8046636
_publ_section_title
;
Structure prediction by ZEFSAII (Michael W. Deem and Ramdas Pophale) SiO2 
 PCOD8046636
Probable space group: P 21
;
_chemical_formula_sum "Si O2"
_cell_formula_units_Z 14
_cell_length_a 17.746489
_cell_length_b 5.058564
_cell_length_c 15.808454
_cell_angle_alpha 90.000000
_cell_angle_beta 152.959966
_cell_angle_gamma 90.000000
_cell_volume 645.165154
_symmetry_space_group_name_H-M "P 21"
_symmetry_group_IT_number 4
_symmetry_cell_setting 'monoclinic'
loop_
_space_group_symop_operation_xyz
x,y,z
-x,1/2+y,-z
loop_
_atom_site_type_symbol
_atom_site_label
_atom_site_fract_x
_atom_site_fract_y
_atom_site_fract_z
Si Si1 0.540883 0.802500 0.431675
Si Si2 0.664587 0.283746 0.093876
Si Si3 0.459264 0.785462 0.850045
Si Si4 0.062430 0.303073 0.865120
Si Si5 0.335498 0.304291 0.264691
Si Si6 0.253295 0.043287 0.503245
Si Si7 0.062533 0.781660 0.759848
O O1 0.394538 0.594155 0.297807
O O2 0.668699 0.774983 0.638199
O O3 0.637801 0.745558 0.442219
O O4 0.461163 0.093467 0.347688
O O5 0.538984 0.494529 0.925644
O O6 0.605488 0.993909 0.008877
O O7 0.668890 0.313029 0.199489
O O8 0.851145 0.317795 0.245107
O O9 0.362794 0.841747 0.667056
O O10 0.148291 0.541158 0.897740
O O11 0.865300 0.367610 0.677698
O O12 0.092784 0.040905 0.843544
O O13 0.148873 0.270403 0.042920
O O14 0.134692 0.218317 0.447202
#
# Coordination Sequence:
#
# PCOD8046636 Si02
#       7
#     2   2   2   2   2   2   2
#     4  10  23  40  67  90 126 158 216 259 300 368
#     4  10  22  43  62  93 120 171 205 254 315 364
#     4  10  23  40  67  90 126 158 216 259 300 368
#     4  10  23  40  59  93 124 164 203 250 317 375
#     4  10  22  43  62  93 120 171 205 254 315 364
#     4  10  26  40  62 100 122 164 206 262 308 366
#     4  10  23  40  59  93 124 164 203 250 317 375
#
# _framework density 21.699871000000002
#
# number of rings (size 3 to 8) (size 9 to 14) (size 15 to 20)
#    0.857    1.143    0.000    1.714   10.000    0.000 
#    5.143    0.000    0.000    0.000    0.000    0.000 
#    0.000    0.000    0.000    0.000    0.000    0.000 
#
# Total GULP energy -173545.282198 kJ/mol
# GULP energy per Si atom -12396.091586 kJ/mol
# Density = 2.165048 g / cm^3
# Si number density = 21.699871 Si / 1000 Ang^3
#
#
#
# Elastic Constant Matrix: (Units=GPa)
#
#
# Indices 1 2 3 4 5 6 
#
# 1 71.9787 -11.7687 18.7956 0.0000 4.1236 0.0000
# 2 -11.7687 85.1121 -11.1649 0.0000 -3.9538 0.0000
# 3 18.7956 -11.1649 67.8250 0.0000 -6.8634 0.0000
# 4 0.0000 0.0000 0.0000 -70.0233 0.0000 -61.6733
# 5 4.1236 -3.9538 -6.8634 0.0000 17.8489 0.0000
# 6 0.0000 0.0000 0.0000 -61.6733 0.0000 -11.1892
#
#
#
# Elastic Compliance Matrix: (Units=1/GPa)
#
#
# Indices 1 2 3 4 5 6 
#
# 1 0.015607 0.001315 -0.004624 0.000000 -0.005092 0.000000
# 2 0.001315 0.012341 0.001990 0.000000 0.003195 0.000000
# 3 -0.004624 0.001990 0.017174 0.000000 0.008113 0.000000
# 4 0.000000 0.000000 0.000000 0.003705 0.000000 -0.020421
# 5 -0.005092 0.003195 0.008113 0.000000 0.061030 0.000000
# 6 0.000000 0.000000 0.000000 -0.020421 0.000000 0.023186
#
#
# Mechanical properties :
#
#
# Convention : Reuss Voigt Hill
#
# Bulk Modulus (GPa) = 23.53811 24.07108 23.80459
# Shear Modulus (GPa) = 33.36878 2.59754 17.98316
#
# Velocity S-wave (km/s) = 3.92566 1.09528 2.88188
# Velocity P-wave (km/s) = 5.60521 3.56599 4.69759
#
# Compressibility (1/GPa) = 0.04248430
#
# Stress axis : x y z
#
# Youngs Moduli (GPa) = 64.07312 81.03366 58.22820
#
# Poissons Ratio (x) = -0.10655 0.26924
# Poissons Ratio (y) = -0.08425 -0.11589
# Poissons Ratio (z) = 0.29627 -0.16129
#
# Static dielectric constant tensor:
#      x y z
#    x 4.283710 0.000000 -0.383420 
#    y 0.000000 4.185040 0.000000 
#    z -0.383420 0.000000 3.826810 
# 
# 
# High freq. dielectric constant tensor:
#      x y z
#    x 1.835410 0.000000 -0.003020 
#    y 0.000000 1.871100 0.000000 
#    z -0.003020 0.000000 1.832440 
# 
# From -- ./inp_files/14275.got.cif
#   From: 2010.03.12/outbox.cif.g09.slc.cpg/sg4_8_cif.got.tgz:14275.got - 2010.03.31 09:31:35.
