data_PCOD8046868
_publ_section_title
;
Structure prediction by ZEFSAII (Michael W. Deem and Ramdas Pophale) SiO2 
 PCOD8046868
Probable space group: P 21
;
_chemical_formula_sum "Si O2"
_cell_formula_units_Z 16
_cell_length_a 8.957113
_cell_length_b 12.424199
_cell_length_c 9.877150
_cell_angle_alpha 90.000000
_cell_angle_beta 44.442926
_cell_angle_gamma 90.000000
_cell_volume 769.642838
_symmetry_space_group_name_H-M "P 21"
_symmetry_group_IT_number 4
_symmetry_cell_setting 'monoclinic'
loop_
_space_group_symop_operation_xyz
x,y,z
-x,1/2+y,-z
loop_
_atom_site_type_symbol
_atom_site_label
_atom_site_fract_x
_atom_site_fract_y
_atom_site_fract_z
Si Si1 0.948612 0.163860 0.867349
Si Si2 0.436873 0.219950 0.553906
Si Si3 0.307224 0.292886 0.379178
Si Si4 0.990772 0.968229 0.329594
Si Si5 0.722549 0.042952 0.251103
Si Si6 0.890454 0.562339 0.489712
Si Si7 0.562813 0.372523 0.694931
Si Si8 0.370731 0.838479 0.047896
O O1 0.183325 0.210701 0.749577
O O2 0.966620 0.074018 0.737386
O O3 0.783422 0.249273 0.915044
O O4 0.856303 0.119720 0.066729
O O5 0.463018 0.301540 0.409162
O O6 0.528530 0.103435 0.452265
O O7 0.573592 0.270357 0.587138
O O8 0.090318 0.355326 0.553700
O O9 0.262969 0.165419 0.390333
O O10 0.417220 0.347071 0.179288
O O11 0.240582 0.951014 0.130745
O O12 0.873989 0.001331 0.270454
O O13 0.969359 0.056913 0.462973
O O14 0.643180 0.942808 0.212869
O O15 0.767120 0.449548 0.553303
O O16 0.545877 0.318256 0.853707
#
# Coordination Sequence:
#
# PCOD8046868 Si02
#       8
#     2   2   2   2   2   2   2   2
#     4  11  22  43  62  88 128 167 204 262 318 362
#     4  11  23  43  64  91 132 166 205 264 315 371
#     4  11  21  44  67  88 133 166 205 265 322 362
#     4  11  25  41  65  96 128 167 216 253 319 382
#     4  12  24  42  64  95 130 167 208 265 310 381
#     4  10  23  43  64  92 129 167 207 265 314 376
#     4  11  23  42  64  98 125 164 220 252 316 380
#     4  11  23  40  66  92 125 170 209 264 306 378
#
# _framework density 20.788865000000001
#
# number of rings (size 3 to 8) (size 9 to 14) (size 15 to 20)
#    0.000    1.000    7.500    0.000    3.500    3.000 
#    2.250    0.000    0.000    0.000    0.000    0.000 
#    0.000    0.000    0.000    0.000    0.000    0.000 
#
# Total GULP energy -198296.516654 kJ/mol
# GULP energy per Si atom -12393.532291 kJ/mol
# Density = 2.074155 g / cm^3
# Si number density = 20.788865 Si / 1000 Ang^3
#
#
#
# Elastic Constant Matrix: (Units=GPa)
#
#
# Indices 1 2 3 4 5 6 
#
# 1 121.7575 36.6474 43.9381 0.0000 28.9120 0.0000
# 2 36.6474 67.0318 39.3449 0.0000 10.3175 0.0000
# 3 43.9381 39.3449 107.7970 0.0000 14.6327 0.0000
# 4 0.0000 0.0000 0.0000 28.2109 0.0000 7.9021
# 5 28.9120 10.3175 14.6327 0.0000 28.3574 0.0000
# 6 0.0000 0.0000 0.0000 7.9021 0.0000 34.8956
#
#
#
# Elastic Compliance Matrix: (Units=1/GPa)
#
#
# Indices 1 2 3 4 5 6 
#
# 1 0.012697 -0.003996 -0.002320 0.000000 -0.010295 0.000000
# 2 -0.003996 0.020588 -0.005830 0.000000 -0.000408 0.000000
# 3 -0.002320 -0.005830 0.012626 0.000000 -0.002029 0.000000
# 4 0.000000 0.000000 0.000000 0.037848 0.000000 -0.008571
# 5 -0.010295 -0.000408 -0.002029 0.000000 0.046956 0.000000
# 6 0.000000 0.000000 0.000000 -0.008571 0.000000 0.030598
#
#
# Mechanical properties :
#
#
# Convention : Reuss Voigt Hill
#
# Bulk Modulus (GPa) = 46.25459 59.60524 52.92992
# Shear Modulus (GPa) = 25.93227 30.06984 28.00105
#
# Velocity S-wave (km/s) = 3.53570 3.80733 3.67403
# Velocity P-wave (km/s) = 6.24230 6.93265 6.59651
#
# Compressibility (1/GPa) = 0.02161947
#
# Stress axis : x y z
#
# Youngs Moduli (GPa) = 78.75649 48.57237 79.20456
#
# Poissons Ratio (x) = 0.19409 0.18372
# Poissons Ratio (y) = 0.31470 0.46178
# Poissons Ratio (z) = 0.18268 0.28319
#
# Static dielectric constant tensor:
#      x y z
#    x 3.982440 0.000000 0.195500 
#    y 0.000000 3.716690 0.000000 
#    z 0.195500 0.000000 3.880270 
# 
# 
# High freq. dielectric constant tensor:
#      x y z
#    x 1.826520 0.000000 0.013920 
#    y 0.000000 1.801710 0.000000 
#    z 0.013920 0.000000 1.809580 
# 
# From -- ./inp_files/6386.got.cif
#   From: 2010.03.12/outbox.cif.g09.slc.cpg/sg4_4_cif.got.tgz:6386.got - 2010.03.31 09:31:35.
