data_PCOD8046254
_publ_section_title
;
Structure prediction by ZEFSAII (Michael W. Deem and Ramdas Pophale) SiO2 
 PCOD8046254
Probable space group: P 21
;
_chemical_formula_sum "Si O2"
_cell_formula_units_Z 16
_cell_length_a 6.435179
_cell_length_b 8.544711
_cell_length_c 15.573377
_cell_angle_alpha 90.000000
_cell_angle_beta 116.107848
_cell_angle_gamma 90.000000
_cell_volume 768.955722
_symmetry_space_group_name_H-M "P 21"
_symmetry_group_IT_number 4
_symmetry_cell_setting 'monoclinic'
loop_
_space_group_symop_operation_xyz
x,y,z
-x,1/2+y,-z
loop_
_atom_site_type_symbol
_atom_site_label
_atom_site_fract_x
_atom_site_fract_y
_atom_site_fract_z
Si Si1 0.519718 0.811270 0.300217
Si Si2 0.474644 0.886379 0.609427
Si Si3 0.133433 0.562205 0.244726
Si Si4 0.092823 0.063480 0.614796
Si Si5 0.408714 0.552079 0.540307
Si Si6 0.501391 0.396308 0.895771
Si Si7 0.731894 0.112805 0.014271
Si Si8 0.973755 0.421506 0.050372
O O1 0.272536 0.723040 0.252483
O O2 0.729896 0.703894 0.370936
O O3 0.573662 0.884345 0.216864
O O4 0.500542 0.944066 0.367464
O O5 0.519490 0.717763 0.580246
O O6 0.681058 0.922579 0.713002
O O7 0.229785 0.904292 0.614444
O O8 0.487876 0.006859 0.532574
O O9 0.963213 0.520329 0.136257
O O10 0.971764 0.572540 0.297800
O O11 0.868922 0.069914 0.513462
O O12 0.323895 0.516090 0.909441
O O13 0.514691 0.220079 0.940952
O O14 0.756012 0.472687 0.951777
O O15 0.950523 0.233799 0.066110
O O16 0.793829 0.976469 0.956493
#
# Coordination Sequence:
#
# PCOD8046254 Si02
#       8
#     2   2   2   2   2   2   2   2
#     4  11  23  41  65  94 129 169 219 266 329 391
#     4  10  22  38  60  88 122 164 209 266 324 387
#     4  10  21  40  62  93 122 173 205 267 323 392
#     4  10  22  38  66  88 122 168 210 260 332 383
#     4  11  22  41  60  89 127 163 215 267 328 388
#     4  10  25  41  66  99 128 181 221 279 332 399
#     4  10  24  40  67  90 136 172 222 275 335 386
#     4  10  23  41  64  91 132 172 219 272 333 396
#
# _framework density 20.807438999999999
#
# number of rings (size 3 to 8) (size 9 to 14) (size 15 to 20)
#    0.750    1.000    1.250    3.000    3.500    4.000 
#    0.000    1.250    0.000    0.000    0.000    0.000 
#    0.000    0.000    0.000    0.000    0.000    0.000 
#
# Total GULP energy -198283.734679 kJ/mol
# GULP energy per Si atom -12392.733417 kJ/mol
# Density = 2.076008 g / cm^3
# Si number density = 20.807439 Si / 1000 Ang^3
#
#
#
# Elastic Constant Matrix: (Units=GPa)
#
#
# Indices 1 2 3 4 5 6 
#
# 1 76.2315 44.4421 18.3486 0.0000 -18.2121 0.0000
# 2 44.4421 98.9476 29.5707 0.0000 -6.7252 0.0000
# 3 18.3486 29.5707 92.9427 0.0000 -4.0668 0.0000
# 4 0.0000 0.0000 0.0000 32.6251 0.0000 -9.0833
# 5 -18.2121 -6.7252 -4.0668 0.0000 32.7156 0.0000
# 6 0.0000 0.0000 0.0000 -9.0833 0.0000 34.8095
#
#
#
# Elastic Compliance Matrix: (Units=1/GPa)
#
#
# Indices 1 2 3 4 5 6 
#
# 1 0.020443 -0.008234 -0.000998 0.000000 0.009564 0.000000
# 2 -0.008234 0.014599 -0.003105 0.000000 -0.001969 0.000000
# 3 -0.000998 -0.003105 0.011957 0.000000 0.000293 0.000000
# 4 0.000000 0.000000 0.000000 0.033053 0.000000 0.008625
# 5 0.009564 -0.001969 0.000293 0.000000 0.035522 0.000000
# 6 0.000000 0.000000 0.000000 0.008625 0.000000 0.030978
#
#
# Mechanical properties :
#
#
# Convention : Reuss Voigt Hill
#
# Bulk Modulus (GPa) = 44.79243 50.31604 47.55424
# Shear Modulus (GPa) = 27.98496 31.74741 29.86619
#
# Velocity S-wave (km/s) = 3.67133 3.91035 3.79273
# Velocity P-wave (km/s) = 6.28852 6.67997 6.48720
#
# Compressibility (1/GPa) = 0.02232520
#
# Stress axis : x y z
#
# Youngs Moduli (GPa) = 48.91631 68.49883 83.63235
#
# Poissons Ratio (x) = 0.56400 0.08344
# Poissons Ratio (y) = 0.40277 0.25971
# Poissons Ratio (z) = 0.04880 0.21272
#
# Static dielectric constant tensor:
#      x y z
#    x 3.673250 0.000000 -0.038710 
#    y 0.000000 3.727250 0.000000 
#    z -0.038710 0.000000 3.660240 
# 
# 
# High freq. dielectric constant tensor:
#      x y z
#    x 1.807860 0.000000 -0.009220 
#    y 0.000000 1.809680 0.000000 
#    z -0.009220 0.000000 1.812150 
# 
# From -- ./inp_files/13262.got.cif
#   From: 2010.03.12/outbox.cif.g09.slc.cpg/sg4_7_cif.got.tgz:13262.got - 2010.03.31 09:31:35.
