data_PCOD8046034
_publ_section_title
;
Structure prediction by ZEFSAII (Michael W. Deem and Ramdas Pophale) SiO2 
 PCOD8046034
Probable space group: P 21
;
_chemical_formula_sum "Si O2"
_cell_formula_units_Z 16
_cell_length_a 9.054901
_cell_length_b 15.401605
_cell_length_c 6.492848
_cell_angle_alpha 90.000000
_cell_angle_beta 119.955524
_cell_angle_gamma 90.000000
_cell_volume 784.530836
_symmetry_space_group_name_H-M "P 21"
_symmetry_group_IT_number 4
_symmetry_cell_setting 'monoclinic'
loop_
_space_group_symop_operation_xyz
x,y,z
-x,1/2+y,-z
loop_
_atom_site_type_symbol
_atom_site_label
_atom_site_fract_x
_atom_site_fract_y
_atom_site_fract_z
Si Si1 0.937675 0.029790 0.260759
Si Si2 0.590156 0.514145 0.122461
Si Si3 0.696835 0.088886 0.785901
Si Si4 0.666206 0.972466 0.385111
Si Si5 0.827576 0.388512 0.484567
Si Si6 0.091665 0.745129 0.147493
Si Si7 0.121380 0.157237 0.655843
Si Si8 0.111110 0.317599 0.381835
O O1 0.977968 0.120001 0.402191
O O2 0.799980 0.978628 0.296164
O O3 0.868607 0.042899 0.984043
O O4 0.103452 0.972158 0.346212
O O5 0.456542 0.568356 0.166089
O O6 0.647728 0.424028 0.272387
O O7 0.741958 0.583042 0.190705
O O8 0.517721 0.478144 0.854239
O O9 0.745932 0.190956 0.824516
O O10 0.661652 0.054151 0.534386
O O11 0.727107 0.883372 0.542458
O O12 0.810154 0.313873 0.640394
O O13 0.951344 0.361552 0.385080
O O14 0.966577 0.684604 0.193413
O O15 0.967398 0.786637 0.890057
O O16 0.192180 0.240469 0.578847
#
# Coordination Sequence:
#
# PCOD8046034 Si02
#       8
#     2   2   2   2   2   2   2   2
#     4   9  17  37  63  83 117 159 204 246 294 356
#     4  10  24  42  60  89 130 164 195 247 317 370
#     4  11  21  37  63  90 121 159 202 253 302 360
#     4  10  21  39  59  88 122 163 196 247 308 365
#     4   9  21  39  61  88 121 161 205 250 299 365
#     4  11  21  37  68  95 114 155 218 257 291 356
#     4  10  20  40  63  89 120 158 204 254 299 356
#     4  10  21  39  65  90 117 159 210 256 296 354
#
# _framework density 20.394355000000001
#
# number of rings (size 3 to 8) (size 9 to 14) (size 15 to 20)
#    0.000    2.000    2.500    0.750    0.000    3.000 
#    6.750    0.000    0.000    0.000    0.000    0.000 
#    0.000    0.000    0.000    0.000    0.000    0.000 
#
# Total GULP energy -198228.404301 kJ/mol
# GULP energy per Si atom -12389.275269 kJ/mol
# Density = 2.034794 g / cm^3
# Si number density = 20.394355 Si / 1000 Ang^3
#
#
#
# Elastic Constant Matrix: (Units=GPa)
#
#
# Indices 1 2 3 4 5 6 
#
# 1 53.6110 36.7889 44.3395 0.0000 9.4289 0.0000
# 2 36.7889 112.5050 54.9952 0.0000 12.5246 0.0000
# 3 44.3395 54.9952 140.7696 0.0000 22.2693 0.0000
# 4 0.0000 0.0000 0.0000 42.8952 0.0000 4.1847
# 5 9.4289 12.5246 22.2693 0.0000 27.3887 0.0000
# 6 0.0000 0.0000 0.0000 4.1847 0.0000 33.9592
#
#
#
# Elastic Compliance Matrix: (Units=1/GPa)
#
#
# Indices 1 2 3 4 5 6 
#
# 1 0.028269 -0.005966 -0.006272 0.000000 -0.001904 0.000000
# 2 -0.005966 0.012320 -0.002717 0.000000 -0.001371 0.000000
# 3 -0.006272 -0.002717 0.011020 0.000000 -0.005559 0.000000
# 4 0.000000 0.000000 0.000000 0.023596 0.000000 -0.002908
# 5 -0.001904 -0.001371 -0.005559 0.000000 0.042313 0.000000
# 6 0.000000 0.000000 0.000000 -0.002908 0.000000 0.029805
#
#
# Mechanical properties :
#
#
# Convention : Reuss Voigt Hill
#
# Bulk Modulus (GPa) = 46.08525 64.34808 55.21666
# Shear Modulus (GPa) = 27.10487 32.23275 29.66881
#
# Velocity S-wave (km/s) = 3.64955 3.97983 3.81826
# Velocity P-wave (km/s) = 6.35650 7.26217 6.82438
#
# Compressibility (1/GPa) = 0.02169892
#
# Stress axis : x y z
#
# Youngs Moduli (GPa) = 35.37408 81.16761 90.74132
#
# Poissons Ratio (x) = 0.48424 0.56915
# Poissons Ratio (y) = 0.21104 0.24656
# Poissons Ratio (z) = 0.22188 0.22055
#
# Static dielectric constant tensor:
#      x y z
#    x 3.427940 0.000000 0.203510 
#    y 0.000000 4.005390 0.000000 
#    z 0.203510 0.000000 3.924810 
# 
# 
# High freq. dielectric constant tensor:
#      x y z
#    x 1.767020 0.000000 0.004040 
#    y 0.000000 1.805990 0.000000 
#    z 0.004040 0.000000 1.810600 
# 
# From -- ./inp_files/1586.got.cif
#   From: 2010.03.12/outbox.cif.g09.slc.cpg/sg4_1_cif.got.tgz:1586.got - 2010.03.31 09:31:35.
