data_PCOD8046756
_publ_section_title
;
Structure prediction by ZEFSAII (Michael W. Deem and Ramdas Pophale) SiO2 
 PCOD8046756
Probable space group: P 21
;
_chemical_formula_sum "Si O2"
_cell_formula_units_Z 16
_cell_length_a 11.814585
_cell_length_b 10.754601
_cell_length_c 8.623200
_cell_angle_alpha 90.000000
_cell_angle_beta 142.141391
_cell_angle_gamma 90.000000
_cell_volume 672.431376
_symmetry_space_group_name_H-M "P 21"
_symmetry_group_IT_number 4
_symmetry_cell_setting 'monoclinic'
loop_
_space_group_symop_operation_xyz
x,y,z
-x,1/2+y,-z
loop_
_atom_site_type_symbol
_atom_site_label
_atom_site_fract_x
_atom_site_fract_y
_atom_site_fract_z
Si Si1 0.479739 0.682150 0.622117
Si Si2 0.578844 0.114059 0.784166
Si Si3 0.030103 0.543514 0.894526
Si Si4 0.288529 0.835033 0.881561
Si Si5 0.685495 0.405557 0.424843
Si Si6 0.151919 0.523673 0.375593
Si Si7 0.896014 0.757395 0.561432
Si Si8 0.199494 0.110987 0.835569
O O1 0.502026 0.633481 0.473565
O O2 0.389874 0.819930 0.516732
O O3 0.344638 0.594828 0.577199
O O4 0.683052 0.692224 0.915809
O O5 0.434367 0.030036 0.719225
O O6 0.580858 0.246231 0.874659
O O7 0.776319 0.044744 0.988731
O O8 0.901584 0.435114 0.685027
O O9 0.932311 0.676661 0.756447
O O10 0.053674 0.520266 0.101720
O O11 0.343037 0.824685 0.760763
O O12 0.081508 0.790282 0.674271
O O13 0.301603 0.977843 0.947759
O O14 0.201449 0.385247 0.490718
O O15 0.013254 0.595478 0.341856
O O16 0.783090 0.675048 0.314435
#
# Coordination Sequence:
#
# PCOD8046756 Si02
#       8
#     2   2   2   2   2   2   2   2
#     4  11  27  44  70 108 136 186 239 283 354 421
#     4  10  26  48  69 103 143 180 232 293 352 418
#     4  10  23  45  71 104 136 184 230 282 354 417
#     4  10  24  44  73  97 144 180 232 292 344 427
#     4  12  25  44  71 104 139 186 231 284 355 424
#     4  10  24  45  75  98 142 183 234 291 352 427
#     4  10  22  46  71 104 141 183 230 291 360 415
#     4  11  23  46  68 104 141 184 232 294 351 415
#
# _framework density 23.794250000000002
#
# number of rings (size 3 to 8) (size 9 to 14) (size 15 to 20)
#    0.000    1.500    1.250    1.500   10.500    4.000 
#    6.750    1.250    0.000    0.000    0.000    0.000 
#    0.000    0.000    0.000    0.000    0.000    0.000 
#
# Total GULP energy -198420.565345 kJ/mol
# GULP energy per Si atom -12401.285334 kJ/mol
# Density = 2.374009 g / cm^3
# Si number density = 23.794250 Si / 1000 Ang^3
#
#
#
# Elastic Constant Matrix: (Units=GPa)
#
#
# Indices 1 2 3 4 5 6 
#
# 1 73.3043 46.6909 25.6268 0.0000 -14.7491 0.0000
# 2 46.6909 118.2680 44.7849 0.0000 -12.0526 0.0000
# 3 25.6268 44.7849 96.2638 0.0000 -7.7627 0.0000
# 4 0.0000 0.0000 0.0000 38.7027 0.0000 -4.0907
# 5 -14.7491 -12.0526 -7.7627 0.0000 29.2742 0.0000
# 6 0.0000 0.0000 0.0000 -4.0907 0.0000 43.5841
#
#
#
# Elastic Compliance Matrix: (Units=1/GPa)
#
#
# Indices 1 2 3 4 5 6 
#
# 1 0.019714 -0.006443 -0.001700 0.000000 0.006829 0.000000
# 2 -0.006443 0.012638 -0.004094 0.000000 0.000871 0.000000
# 3 -0.001700 -0.004094 0.012814 0.000000 0.000856 0.000000
# 4 0.000000 0.000000 0.000000 0.026097 0.000000 0.002449
# 5 0.006829 0.000871 0.000856 0.000000 0.038186 0.000000
# 6 0.000000 0.000000 0.000000 0.002449 0.000000 0.023174
#
#
# Mechanical properties :
#
#
# Convention : Reuss Voigt Hill
#
# Bulk Modulus (GPa) = 48.32756 58.00460 53.16608
# Shear Modulus (GPa) = 30.48862 33.69444 32.09153
#
# Velocity S-wave (km/s) = 3.58347 3.76716 3.67646
# Velocity P-wave (km/s) = 6.12179 6.58426 6.35723
#
# Compressibility (1/GPa) = 0.02069213
#
# Stress axis : x y z
#
# Youngs Moduli (GPa) = 50.72528 79.12490 78.03714
#
# Poissons Ratio (x) = 0.50982 0.13265
# Poissons Ratio (y) = 0.32684 0.31950
# Poissons Ratio (z) = 0.08623 0.32395
#
# Static dielectric constant tensor:
#      x y z
#    x 4.196910 0.000000 0.038800 
#    y 0.000000 4.508590 0.000000 
#    z 0.038800 0.000000 4.085130 
# 
# 
# High freq. dielectric constant tensor:
#      x y z
#    x 1.945890 0.000000 0.002520 
#    y 0.000000 1.948830 0.000000 
#    z 0.002520 0.000000 1.938020 
# 
# From -- ./inp_files/8476.got.cif
#   From: 2010.03.12/outbox.cif.g09.slc.cpg/sg4_5_cif.got.tgz:8476.got - 2010.03.31 09:31:35.
