data_PCOD8046703
_publ_section_title
;
Structure prediction by ZEFSAII (Michael W. Deem and Ramdas Pophale) SiO2 
 PCOD8046703
Probable space group: P 21
;
_chemical_formula_sum "Si O2"
_cell_formula_units_Z 16
_cell_length_a 10.429680
_cell_length_b 8.126796
_cell_length_c 12.823600
_cell_angle_alpha 90.000000
_cell_angle_beta 144.692902
_cell_angle_gamma 90.000000
_cell_volume 628.198839
_symmetry_space_group_name_H-M "P 21"
_symmetry_group_IT_number 4
_symmetry_cell_setting 'monoclinic'
loop_
_space_group_symop_operation_xyz
x,y,z
-x,1/2+y,-z
loop_
_atom_site_type_symbol
_atom_site_label
_atom_site_fract_x
_atom_site_fract_y
_atom_site_fract_z
Si Si1 0.708946 0.826560 0.392759
Si Si2 0.329619 0.749476 0.986665
Si Si3 0.699153 0.613552 0.093418
Si Si4 0.942482 0.642227 0.858563
Si Si5 0.953415 0.155441 0.502781
Si Si6 0.492197 0.518025 0.573464
Si Si7 0.744484 0.987648 0.784966
Si Si8 0.494612 0.774424 0.762329
O O1 0.473946 0.796869 0.182611
O O2 0.881654 0.676246 0.488158
O O3 0.832184 0.980076 0.418634
O O4 0.636776 0.856017 0.465889
O O5 0.465872 0.635043 0.998380
O O6 0.112986 0.644950 0.875335
O O7 0.251943 0.920055 0.883125
O O8 0.904343 0.686348 0.296509
O O9 0.673127 0.705514 0.964949
O O10 0.753894 0.500484 0.719004
O O11 0.834565 0.818941 0.798783
O O12 0.062851 0.605894 0.048152
O O13 0.755873 0.292490 0.359647
O O14 0.377268 0.579037 0.390919
O O15 0.468820 0.652225 0.647752
O O16 0.580984 0.949353 0.775277
#
# Coordination Sequence:
#
# PCOD8046703 Si02
#       8
#     2   2   2   2   2   2   2   2
#     4  10  22  44  71 104 148 177 245 293 358 434
#     4  11  25  45  72 106 140 191 238 307 357 450
#     4  11  25  44  71 104 145 185 243 297 376 429
#     4  11  27  47  77 104 144 198 244 303 374 429
#     4  10  23  40  70 104 138 198 220 299 371 425
#     4  10  23  47  67 104 143 190 239 303 344 435
#     4  11  27  46  72 108 141 196 250 305 362 437
#     4  10  24  45  68 100 153 181 245 305 350 445
#
# _framework density 25.469642
#
# number of rings (size 3 to 8) (size 9 to 14) (size 15 to 20)
#    0.000    1.500    2.500    0.750    8.750    6.000 
#    2.250    0.000    0.000    0.000    0.000    0.000 
#    0.000    0.000    0.000    0.000    0.000    0.000 
#
# Total GULP energy -198309.450456 kJ/mol
# GULP energy per Si atom -12394.340654 kJ/mol
# Density = 2.541167 g / cm^3
# Si number density = 25.469642 Si / 1000 Ang^3
#
#
#
# Elastic Constant Matrix: (Units=GPa)
#
#
# Indices 1 2 3 4 5 6 
#
# 1 114.9473 31.7639 51.9483 0.0000 13.3368 0.0000
# 2 31.7639 38.6690 21.6598 0.0000 5.3193 0.0000
# 3 51.9483 21.6598 141.9017 0.0000 -1.7271 0.0000
# 4 0.0000 0.0000 0.0000 24.2095 0.0000 4.5053
# 5 13.3368 5.3193 -1.7271 0.0000 48.3519 0.0000
# 6 0.0000 0.0000 0.0000 4.5053 0.0000 40.0401
#
#
#
# Elastic Compliance Matrix: (Units=1/GPa)
#
#
# Indices 1 2 3 4 5 6 
#
# 1 0.012875 -0.008241 -0.003489 0.000000 -0.002769 0.000000
# 2 -0.008241 0.034078 -0.002204 0.000000 -0.001555 0.000000
# 3 -0.003489 -0.002204 0.008679 0.000000 0.001515 0.000000
# 4 0.000000 0.000000 0.000000 0.042189 0.000000 -0.004747
# 5 -0.002769 -0.001555 0.001515 0.000000 0.021671 0.000000
# 6 0.000000 0.000000 0.000000 -0.004747 0.000000 0.025509
#
#
# Mechanical properties :
#
#
# Convention : Reuss Voigt Hill
#
# Bulk Modulus (GPa) = 36.01656 56.25134 46.13395
# Shear Modulus (GPa) = 27.45388 35.19670 31.32529
#
# Velocity S-wave (km/s) = 3.28671 3.72143 3.51081
# Velocity P-wave (km/s) = 5.34556 6.37174 5.88107
#
# Compressibility (1/GPa) = 0.02776500
#
# Stress axis : x y z
#
# Youngs Moduli (GPa) = 77.66995 29.34461 115.21637
#
# Poissons Ratio (x) = 0.24181 0.40202
# Poissons Ratio (y) = 0.64004 0.25392
# Poissons Ratio (z) = 0.27101 0.06467
#
# Static dielectric constant tensor:
#      x y z
#    x 5.318460 0.000000 0.597300 
#    y 0.000000 4.543320 0.000000 
#    z 0.597300 0.000000 5.075610 
# 
# 
# High freq. dielectric constant tensor:
#      x y z
#    x 2.023780 0.000000 0.009170 
#    y 0.000000 1.990000 0.000000 
#    z 0.009170 0.000000 2.029850 
# 
# From -- ./inp_files/13983.got.cif
#   From: 2010.03.12/outbox.cif.g09.slc.cpg/sg4_7_cif.got.tgz:13983.got - 2010.03.31 09:31:35.
