data_PCOD8046951
_publ_section_title
;
Structure prediction by ZEFSAII (Michael W. Deem and Ramdas Pophale) SiO2 
 PCOD8046951
Probable space group: P 21
;
_chemical_formula_sum "Si O2"
_cell_formula_units_Z 16
_cell_length_a 8.337153
_cell_length_b 7.245501
_cell_length_c 20.333326
_cell_angle_alpha 90.000000
_cell_angle_beta 32.653335
_cell_angle_gamma 90.000000
_cell_volume 662.720110
_symmetry_space_group_name_H-M "P 21"
_symmetry_group_IT_number 4
_symmetry_cell_setting 'monoclinic'
loop_
_space_group_symop_operation_xyz
x,y,z
-x,1/2+y,-z
loop_
_atom_site_type_symbol
_atom_site_label
_atom_site_fract_x
_atom_site_fract_y
_atom_site_fract_z
Si Si1 0.133347 0.526000 0.115903
Si Si2 0.634642 0.980254 0.306274
Si Si3 0.189555 0.308476 0.439555
Si Si4 0.213775 0.935242 0.645380
Si Si5 0.708546 0.203941 0.497119
Si Si6 0.434295 0.124425 0.752099
Si Si7 0.776782 0.416141 0.848498
Si Si8 0.889432 0.243766 0.680025
O O1 0.161997 0.717463 0.142689
O O2 0.010221 0.395116 0.216652
O O3 0.891127 0.531707 0.139946
O O4 0.442841 0.471557 0.978353
O O5 0.530151 0.866808 0.406596
O O6 0.591051 0.836932 0.262019
O O7 0.978012 0.043730 0.199805
O O8 0.458623 0.167453 0.355730
O O9 0.320001 0.510660 0.375819
O O10 0.987862 0.231668 0.449317
O O11 0.996611 0.328482 0.573137
O O12 0.540294 0.002285 0.560402
O O13 0.120283 0.097101 0.627851
O O14 0.211630 0.741268 0.607136
O O15 0.571361 0.136855 0.778027
O O16 0.828409 0.410498 0.751856
#
# Coordination Sequence:
#
# PCOD8046951 Si02
#       8
#     2   2   2   2   2   2   2   2
#     4  10  23  45  68  94 131 191 235 299 342 400
#     4  11  23  42  65 103 140 184 226 282 351 416
#     4  12  24  40  71 105 147 185 219 281 372 433
#     4  11  23  40  68 100 141 180 235 288 351 423
#     4  12  23  43  65 109 145 182 225 289 364 429
#     4  11  23  42  70 101 144 181 224 289 355 415
#     4  10  24  47  70  96 138 184 246 297 338 413
#     4  11  21  41  69 100 142 179 226 291 351 425
#
# _framework density 24.142923
#
# number of rings (size 3 to 8) (size 9 to 14) (size 15 to 20)
#    0.000    1.000    7.500    0.000    3.500    1.000 
#    2.250    5.000    0.000    0.000    0.000    0.000 
#    0.000    0.000    0.000    0.000    0.000    0.000 
#
# Total GULP energy -198244.792425 kJ/mol
# GULP energy per Si atom -12390.299527 kJ/mol
# Density = 2.408797 g / cm^3
# Si number density = 24.142923 Si / 1000 Ang^3
#
#
#
# Elastic Constant Matrix: (Units=GPa)
#
#
# Indices 1 2 3 4 5 6 
#
# 1 141.8117 8.8658 60.4424 0.0000 -22.2646 0.0000
# 2 8.8658 53.3034 19.1532 0.0000 3.2051 0.0000
# 3 60.4424 19.1532 118.9784 0.0000 -27.1656 0.0000
# 4 0.0000 0.0000 0.0000 36.0208 0.0000 -1.0630
# 5 -22.2646 3.2051 -27.1656 0.0000 37.5044 0.0000
# 6 0.0000 0.0000 0.0000 -1.0630 0.0000 32.8592
#
#
#
# Elastic Compliance Matrix: (Units=1/GPa)
#
#
# Indices 1 2 3 4 5 6 
#
# 1 0.009192 -0.000225 -0.004054 0.000000 0.002540 0.000000
# 2 -0.000225 0.020673 -0.004370 0.000000 -0.005066 0.000000
# 3 -0.004054 -0.004370 0.012824 0.000000 0.007256 0.000000
# 4 0.000000 0.000000 0.000000 0.027788 0.000000 0.000899
# 5 0.002540 -0.005066 0.007256 0.000000 0.033860 0.000000
# 6 0.000000 0.000000 0.000000 0.000899 0.000000 0.030462
#
#
# Mechanical properties :
#
#
# Convention : Reuss Voigt Hill
#
# Bulk Modulus (GPa) = 39.38282 54.55734 46.97008
# Shear Modulus (GPa) = 31.14071 36.31902 33.72987
#
# Velocity S-wave (km/s) = 3.59534 3.88278 3.74182
# Velocity P-wave (km/s) = 5.79509 6.53820 6.17783
#
# Compressibility (1/GPa) = 0.02539178
#
# Stress axis : x y z
#
# Youngs Moduli (GPa) = 108.78847 48.37254 77.97636
#
# Poissons Ratio (x) = 0.01089 0.31608
# Poissons Ratio (y) = 0.02449 0.34077
# Poissons Ratio (z) = 0.44098 0.21140
#
# Static dielectric constant tensor:
#      x y z
#    x 4.804590 0.000000 0.250200 
#    y 0.000000 4.376500 0.000000 
#    z 0.250200 0.000000 1.656290 
# 
# 
# High freq. dielectric constant tensor:
#      x y z
#    x 1.990210 0.000000 -0.024370 
#    y 0.000000 1.958990 0.000000 
#    z -0.024370 0.000000 1.921900 
# 
# From -- ./inp_files/15616.got.cif
#   From: 2010.03.12/outbox.cif.g09.slc.cpg/sg4_8_cif.got.tgz:15616.got - 2010.03.31 09:31:35.
