data_PCOD8046164
_publ_section_title
;
Structure prediction by ZEFSAII (Michael W. Deem and Ramdas Pophale) SiO2 
 PCOD8046164
Probable space group: P 21
;
_chemical_formula_sum "Si O2"
_cell_formula_units_Z 12
_cell_length_a 14.479944
_cell_length_b 8.975347
_cell_length_c 9.128567
_cell_angle_alpha 90.000000
_cell_angle_beta 29.611053
_cell_angle_gamma 90.000000
_cell_volume 586.197583
_symmetry_space_group_name_H-M "P 21"
_symmetry_group_IT_number 4
_symmetry_cell_setting 'monoclinic'
loop_
_space_group_symop_operation_xyz
x,y,z
-x,1/2+y,-z
loop_
_atom_site_type_symbol
_atom_site_label
_atom_site_fract_x
_atom_site_fract_y
_atom_site_fract_z
Si Si1 0.059458 0.243720 0.321575
Si Si2 0.568122 0.020642 0.593003
Si Si3 0.563916 0.838002 0.315888
Si Si4 0.770724 0.466853 0.390421
Si Si5 0.771550 0.493718 0.728456
Si Si6 0.943738 0.149472 0.176426
O O1 0.115943 0.140777 0.379516
O O2 0.888559 0.346658 0.606959
O O3 0.001025 0.136779 0.267376
O O4 0.230512 0.350674 0.037885
O O5 0.506808 0.168663 0.591415
O O6 0.769481 0.040837 0.389063
O O7 0.574401 0.885255 0.470478
O O8 0.424823 0.980608 0.918869
O O9 0.428106 0.946630 0.413214
O O10 0.731510 0.506873 0.612191
O O11 0.894968 0.318827 0.203297
O O12 0.880638 0.602249 0.164248
#
# Coordination Sequence:
#
# PCOD8046164 Si02
#       6
#     2   2   2   2   2   2
#     4  10  22  40  58  84 116 152 192 234 284 340
#     4  10  21  38  60  86 116 151 191 235 282 336
#     4  10  21  39  60  84 115 151 192 231 282 348
#     4  10  21  38  60  86 116 151 191 235 282 336
#     4  10  22  38  58  88 118 148 190 240 284 328
#     4  10  21  39  60  84 115 151 192 231 282 348
#
# _framework density 20.470914
#
# number of rings (size 3 to 8) (size 9 to 14) (size 15 to 20)
#    0.000    2.000    0.000    4.000    0.000    6.667 
#    0.000   16.667    0.000    0.000    0.000    0.000 
#    0.000    0.000    0.000    0.000    0.000    0.000 
#
# Total GULP energy -148861.946897 kJ/mol
# GULP energy per Si atom -12405.162241 kJ/mol
# Density = 2.042432 g / cm^3
# Si number density = 20.470914 Si / 1000 Ang^3
#
#
#
# Elastic Constant Matrix: (Units=GPa)
#
#
# Indices 1 2 3 4 5 6 
#
# 1 124.2715 47.2619 82.2492 0.0000 -6.2657 0.0000
# 2 47.2619 63.4685 62.1375 0.0000 15.0506 0.0000
# 3 82.2492 62.1375 126.2231 0.0000 8.3756 0.0000
# 4 0.0000 0.0000 0.0000 37.0532 0.0000 9.6195
# 5 -6.2657 15.0506 8.3756 0.0000 32.7898 0.0000
# 6 0.0000 0.0000 0.0000 9.6195 0.0000 27.5804
#
#
#
# Elastic Compliance Matrix: (Units=1/GPa)
#
#
# Indices 1 2 3 4 5 6 
#
# 1 0.016012 -0.005898 -0.008049 0.000000 0.007823 0.000000
# 2 -0.005898 0.036449 -0.013138 0.000000 -0.014501 0.000000
# 3 -0.008049 -0.013138 0.019670 0.000000 -0.000532 0.000000
# 4 0.000000 0.000000 0.000000 0.029675 0.000000 -0.010350
# 5 0.007823 -0.014501 -0.000532 0.000000 0.038784 0.000000
# 6 0.000000 0.000000 0.000000 -0.010350 0.000000 0.039867
#
#
# Mechanical properties :
#
#
# Convention : Reuss Voigt Hill
#
# Bulk Modulus (GPa) = 55.67558 77.47333 66.57445
# Shear Modulus (GPa) = 20.78019 27.63897 24.20958
#
# Velocity S-wave (km/s) = 3.18953 3.67844 3.44267
# Velocity P-wave (km/s) = 6.38910 7.48124 6.95663
#
# Compressibility (1/GPa) = 0.01796120
#
# Stress axis : x y z
#
# Youngs Moduli (GPa) = 62.45443 27.43592 50.83817
#
# Poissons Ratio (x) = 0.16181 0.40921
# Poissons Ratio (y) = 0.36834 0.66790
# Poissons Ratio (z) = 0.50271 0.36044
#
# Static dielectric constant tensor:
#      x y z
#    x 3.887930 0.000000 -0.213800 
#    y 0.000000 3.590330 0.000000 
#    z -0.213800 0.000000 3.676500 
# 
# 
# High freq. dielectric constant tensor:
#      x y z
#    x 1.814050 0.000000 -0.011980 
#    y 0.000000 1.793060 0.000000 
#    z -0.011980 0.000000 1.802210 
# 
# From -- ./inp_files/5205.got.cif
#   From: 2010.03.12/outbox.cif.g09.slc.cpg/sg4_3_cif.got.tgz:5205.got - 2010.03.31 09:31:35.
