data_PCOD8046507
_publ_section_title
;
Structure prediction by ZEFSAII (Michael W. Deem and Ramdas Pophale) SiO2 
 PCOD8046507
Probable space group: P 21
;
_chemical_formula_sum "Si O2"
_cell_formula_units_Z 14
_cell_length_a 5.130932
_cell_length_b 12.750387
_cell_length_c 10.617629
_cell_angle_alpha 90.000000
_cell_angle_beta 71.616675
_cell_angle_gamma 90.000000
_cell_volume 659.171869
_symmetry_space_group_name_H-M "P 21"
_symmetry_group_IT_number 4
_symmetry_cell_setting 'monoclinic'
loop_
_space_group_symop_operation_xyz
x,y,z
-x,1/2+y,-z
loop_
_atom_site_type_symbol
_atom_site_label
_atom_site_fract_x
_atom_site_fract_y
_atom_site_fract_z
Si Si1 0.282095 0.002260 0.487204
Si Si2 0.963617 0.381725 0.957500
Si Si3 0.774797 0.725586 0.439510
Si Si4 0.458005 0.357756 0.731251
Si Si5 0.222920 0.702808 0.160404
Si Si6 0.378530 0.463783 0.096336
Si Si7 0.716881 0.914172 0.611551
O O1 0.360250 0.124482 0.474968
O O2 0.341010 0.952566 0.340422
O O3 0.455415 0.946613 0.569860
O O4 0.959300 0.998640 0.566455
O O5 0.162867 0.411100 0.808823
O O6 0.914725 0.254992 0.944425
O O7 0.125407 0.411172 0.060150
O O8 0.677908 0.445314 0.989183
O O9 0.548450 0.779652 0.386183
O O10 0.849011 0.805024 0.541757
O O11 0.028118 0.694064 0.311585
O O12 0.548550 0.290185 0.838506
O O13 0.342269 0.589306 0.109938
O O14 0.384969 0.406449 0.229811
#
# Coordination Sequence:
#
# PCOD8046507 Si02
#       7
#     2   2   2   2   2   2   2
#     4  11  22  40  67 100 130 167 214 270 326 384
#     4  11  26  44  65  99 132 175 229 273 314 394
#     4  10  22  39  69 101 129 173 213 271 333 388
#     4  10  22  44  68  98 135 172 221 271 324 395
#     4  11  22  44  74  91 129 180 226 266 336 394
#     4  12  25  43  70  96 134 179 220 271 331 394
#     4  11  23  40  65 101 133 162 221 268 320 393
#
# _framework density 21.238769000000001
#
# number of rings (size 3 to 8) (size 9 to 14) (size 15 to 20)
#    0.000    1.143    4.286    1.714    4.000    0.000 
#    2.571    1.429    3.143    0.000    0.000    0.000 
#    0.000    0.000    0.000    0.000    0.000    0.000 
#
# Total GULP energy -173481.267201 kJ/mol
# GULP energy per Si atom -12391.519086 kJ/mol
# Density = 2.119043 g / cm^3
# Si number density = 21.238769 Si / 1000 Ang^3
#
#
#
# Elastic Constant Matrix: (Units=GPa)
#
#
# Indices 1 2 3 4 5 6 
#
# 1 94.7962 32.9405 32.5381 0.0000 4.7281 0.0000
# 2 32.9405 135.4578 70.8773 0.0000 8.5144 0.0000
# 3 32.5381 70.8773 76.8583 0.0000 3.3156 0.0000
# 4 0.0000 0.0000 0.0000 37.3164 0.0000 -0.5133
# 5 4.7281 8.5144 3.3156 0.0000 36.3695 0.0000
# 6 0.0000 0.0000 0.0000 -0.5133 0.0000 27.1644
#
#
#
# Elastic Compliance Matrix: (Units=1/GPa)
#
#
# Indices 1 2 3 4 5 6 
#
# 1 0.012402 -0.000436 -0.004802 0.000000 -0.001072 0.000000
# 2 -0.000436 0.014451 -0.013050 0.000000 -0.002137 0.000000
# 3 -0.004802 -0.013050 0.027026 0.000000 0.001216 0.000000
# 4 0.000000 0.000000 0.000000 0.026805 0.000000 0.000506
# 5 -0.001072 -0.002137 0.001216 0.000000 0.028024 0.000000
# 6 0.000000 0.000000 0.000000 0.000506 0.000000 0.036822
#
#
# Mechanical properties :
#
#
# Convention : Reuss Voigt Hill
#
# Bulk Modulus (GPa) = 57.79259 64.42491 61.10875
# Shear Modulus (GPa) = 26.61366 31.55383 29.08375
#
# Velocity S-wave (km/s) = 3.54371 3.85862 3.70452
# Velocity P-wave (km/s) = 6.63429 7.08883 6.86532
#
# Compressibility (1/GPa) = 0.01730326
#
# Stress axis : x y z
#
# Youngs Moduli (GPa) = 80.63063 69.20074 37.00186
#
# Poissons Ratio (x) = 0.03015 0.17770
# Poissons Ratio (y) = 0.03513 0.48286
# Poissons Ratio (z) = 0.38722 0.90304
#
# Static dielectric constant tensor:
#      x y z
#    x 3.899640 0.000000 -0.017250 
#    y 0.000000 3.842930 0.000000 
#    z -0.017250 0.000000 3.888370 
# 
# 
# High freq. dielectric constant tensor:
#      x y z
#    x 1.840530 0.000000 -0.006020 
#    y 0.000000 1.825330 0.000000 
#    z -0.006020 0.000000 1.824840 
# 
# From -- ./inp_files/1665.got.cif
#   From: 2010.03.12/outbox.cif.g09.slc.cpg/sg4_1_cif.got.tgz:1665.got - 2010.03.31 09:31:35.
