data_PCOD8046875
_publ_section_title
;
Structure prediction by ZEFSAII (Michael W. Deem and Ramdas Pophale) SiO2 
 PCOD8046875
Probable space group: P 21
;
_chemical_formula_sum "Si O2"
_cell_formula_units_Z 12
_cell_length_a 21.195165
_cell_length_b 4.893006
_cell_length_c 16.179372
_cell_angle_alpha 90.000000
_cell_angle_beta 18.201928
_cell_angle_gamma 90.000000
_cell_volume 524.130216
_symmetry_space_group_name_H-M "P 21"
_symmetry_group_IT_number 4
_symmetry_cell_setting 'monoclinic'
loop_
_space_group_symop_operation_xyz
x,y,z
-x,1/2+y,-z
loop_
_atom_site_type_symbol
_atom_site_label
_atom_site_fract_x
_atom_site_fract_y
_atom_site_fract_z
Si Si1 0.448660 0.539890 0.616199
Si Si2 0.013887 0.972859 0.763533
Si Si3 0.112932 0.683038 0.374822
Si Si4 0.818598 0.981761 0.531982
Si Si5 0.381019 0.009056 0.422096
Si Si6 0.537529 0.509352 0.140744
O O1 0.488696 0.340273 0.490285
O O2 0.593352 0.454548 0.512493
O O3 0.214083 0.546704 0.931914
O O4 0.103877 0.175854 0.581721
O O5 0.021159 0.673778 0.714424
O O6 0.151073 0.965101 0.676416
O O7 0.205908 0.556977 0.341919
O O8 0.059658 0.408794 0.388608
O O9 0.248070 0.880492 0.148677
O O10 0.592414 0.015319 0.780865
O O11 0.539862 0.816135 0.174296
O O12 0.435434 0.323306 0.337982
#
# Coordination Sequence:
#
# PCOD8046875 Si02
#       6
#     2   2   2   2   2   2
#     4  12  26  42  68 100 128 166 210 276 344 404
#     4  10  23  43  68  94 128 174 217 267 330 396
#     4  12  26  38  62 104 134 172 228 280 324 376
#     4  10  23  43  65  90 131 179 218 266 322 385
#     4  10  23  43  68  94 128 174 217 267 330 396
#     4  10  23  43  65  90 131 179 218 266 322 385
#
# _framework density 22.895074000000001
#
# number of rings (size 3 to 8) (size 9 to 14) (size 15 to 20)
#    0.000    1.333    0.000    4.000    7.000    6.667 
#    0.000    0.000    0.000    0.000    0.000    0.000 
#    0.000    0.000    0.000    0.000    0.000    0.000 
#
# Total GULP energy -148774.208515 kJ/mol
# GULP energy per Si atom -12397.850710 kJ/mol
# Density = 2.284296 g / cm^3
# Si number density = 22.895074 Si / 1000 Ang^3
#
#
#
# Elastic Constant Matrix: (Units=GPa)
#
#
# Indices 1 2 3 4 5 6 
#
# 1 114.2062 25.8092 8.0856 0.0000 -0.6507 0.0000
# 2 25.8092 97.9665 -8.8671 0.0000 -5.9427 0.0000
# 3 8.0856 -8.8671 23.4212 0.0000 0.5836 0.0000
# 4 0.0000 0.0000 0.0000 32.6454 0.0000 -0.0801
# 5 -0.6507 -5.9427 0.5836 0.0000 16.4811 0.0000
# 6 0.0000 0.0000 0.0000 -0.0801 0.0000 35.3931
#
#
#
# Elastic Compliance Matrix: (Units=1/GPa)
#
#
# Indices 1 2 3 4 5 6 
#
# 1 0.009751 -0.003008 -0.004492 0.000000 -0.000541 0.000000
# 2 -0.003008 0.011725 0.005380 0.000000 0.003918 0.000000
# 3 -0.004492 0.005380 0.046281 0.000000 0.000124 0.000000
# 4 0.000000 0.000000 0.000000 0.030632 0.000000 0.000069
# 5 -0.000541 0.003918 0.000124 0.000000 0.062063 0.000000
# 6 0.000000 0.000000 0.000000 0.000069 0.000000 0.028254
#
#
# Mechanical properties :
#
#
# Convention : Reuss Voigt Hill
#
# Bulk Modulus (GPa) = 15.74408 31.73883 23.74145
# Shear Modulus (GPa) = 23.35163 30.94166 27.14665
#
# Velocity S-wave (km/s) = 3.19712 3.68020 3.44713
# Velocity P-wave (km/s) = 4.52993 5.65255 5.12209
#
# Compressibility (1/GPa) = 0.06351595
#
# Stress axis : x y z
#
# Youngs Moduli (GPa) = 102.55543 85.29004 21.60732
#
# Poissons Ratio (x) = 0.25657 0.09705
# Poissons Ratio (y) = 0.30851 -0.11624
# Poissons Ratio (z) = 0.46064 -0.45884
#
# Static dielectric constant tensor:
#      x y z
#    x 4.132490 0.000000 -0.245870 
#    y 0.000000 4.441830 0.000000 
#    z -0.245870 0.000000 3.740770 
# 
# 
# High freq. dielectric constant tensor:
#      x y z
#    x 1.906600 0.000000 -0.012860 
#    y 0.000000 1.930290 0.000000 
#    z -0.012860 0.000000 1.879880 
# 
# From -- ./inp_files/13490.got.cif
#   From: 2010.03.12/outbox.cif.g09.slc.cpg/sg4_7_cif.got.tgz:13490.got - 2010.03.31 09:31:35.
