data_PCOD8046505
_publ_section_title
;
Structure prediction by ZEFSAII (Michael W. Deem and Ramdas Pophale) SiO2 
 PCOD8046505
Probable space group: P 21
;
_chemical_formula_sum "Si O2"
_cell_formula_units_Z 14
_cell_length_a 26.863533
_cell_length_b 5.073183
_cell_length_c 13.106327
_cell_angle_alpha 90.000000
_cell_angle_beta 19.227076
_cell_angle_gamma 90.000000
_cell_volume 588.211331
_symmetry_space_group_name_H-M "P 21"
_symmetry_group_IT_number 4
_symmetry_cell_setting 'monoclinic'
loop_
_space_group_symop_operation_xyz
x,y,z
-x,1/2+y,-z
loop_
_atom_site_type_symbol
_atom_site_label
_atom_site_fract_x
_atom_site_fract_y
_atom_site_fract_z
Si Si1 0.540399 0.642010 0.367246
Si Si2 0.255762 0.023865 0.385106
Si Si3 0.552989 0.062702 0.678747
Si Si4 0.723694 0.548407 0.425593
Si Si5 0.932738 0.008558 0.297296
Si Si6 0.064016 0.860879 0.247847
Si Si7 0.835894 0.854754 0.866994
O O1 0.569813 0.369031 0.373095
O O2 0.486679 0.533321 0.362917
O O3 0.695136 0.812565 0.064307
O O4 0.315525 0.962657 0.382819
O O5 0.150290 0.280998 0.605770
O O6 0.165707 0.775800 0.511375
O O7 0.396123 0.098331 0.042355
O O8 0.659275 0.317238 0.480113
O O9 0.642546 0.815821 0.550196
O O10 0.903937 0.572026 0.065031
O O11 0.945718 0.875257 0.384381
O O12 0.173091 0.606287 0.039681
O O13 0.984642 0.869442 0.511592
O O14 0.164168 0.123447 0.048454
#
# Coordination Sequence:
#
# PCOD8046505 Si02
#       7
#     2   2   2   2   2   2   2
#     4  12  27  43  67  97 139 181 230 283 340 411
#     4  12  25  48  73 104 142 186 235 287 351 428
#     4  12  27  47  73 103 143 191 233 286 354 426
#     4  12  26  46  74 108 142 181 234 295 355 412
#     4  12  25  42  74 104 144 178 235 290 356 408
#     4  10  22  39  67  93 130 179 224 281 333 411
#     4  10  22  41  62  93 132 176 233 274 333 398
#
# _framework density 23.800968999999998
#
# number of rings (size 3 to 8) (size 9 to 14) (size 15 to 20)
#    0.000    0.571    0.000    7.714    6.000    3.429 
#    0.000    0.000    0.000    0.000    0.000    0.000 
#    0.000    0.000    0.000    0.000    0.000    0.000 
#
# Total GULP energy -173556.474391 kJ/mol
# GULP energy per Si atom -12396.891028 kJ/mol
# Density = 2.374680 g / cm^3
# Si number density = 23.800969 Si / 1000 Ang^3
#
#
#
# Elastic Constant Matrix: (Units=GPa)
#
#
# Indices 1 2 3 4 5 6 
#
# 1 101.2662 34.5730 27.3002 0.0000 -2.9104 0.0000
# 2 34.5730 164.3492 47.2923 0.0000 -10.7061 0.0000
# 3 27.3002 47.2923 67.5662 0.0000 -17.7301 0.0000
# 4 0.0000 0.0000 0.0000 34.8588 0.0000 -12.2335
# 5 -2.9104 -10.7061 -17.7301 0.0000 31.1035 0.0000
# 6 0.0000 0.0000 0.0000 -12.2335 0.0000 45.7091
#
#
#
# Elastic Compliance Matrix: (Units=1/GPa)
#
#
# Indices 1 2 3 4 5 6 
#
# 1 0.011391 -0.001319 -0.004137 0.000000 -0.001747 0.000000
# 2 -0.001319 0.007778 -0.004987 0.000000 -0.000289 0.000000
# 3 -0.004137 -0.004987 0.022825 0.000000 0.010907 0.000000
# 4 0.000000 0.000000 0.000000 0.031661 0.000000 0.008474
# 5 -0.001747 -0.000289 0.010907 0.000000 0.038105 0.000000
# 6 0.000000 0.000000 0.000000 0.008474 0.000000 0.024145
#
#
# Mechanical properties :
#
#
# Convention : Reuss Voigt Hill
#
# Bulk Modulus (GPa) = 47.37930 61.27919 54.32925
# Shear Modulus (GPa) = 30.51977 37.26869 33.89423
#
# Velocity S-wave (km/s) = 3.58479 3.96137 3.77778
# Velocity P-wave (km/s) = 6.08966 6.83562 6.47340
#
# Compressibility (1/GPa) = 0.02110626
#
# Stress axis : x y z
#
# Youngs Moduli (GPa) = 87.79187 128.56093 43.81208
#
# Poissons Ratio (x) = 0.16963 0.18126
# Poissons Ratio (y) = 0.11584 0.21850
# Poissons Ratio (z) = 0.36321 0.64115
#
# Static dielectric constant tensor:
#      x y z
#    x 4.215380 0.000000 -0.127610 
#    y 0.000000 4.773730 0.000000 
#    z -0.127610 0.000000 4.190370 
# 
# 
# High freq. dielectric constant tensor:
#      x y z
#    x 1.949190 0.000000 -0.009150 
#    y 0.000000 1.967570 0.000000 
#    z -0.009150 0.000000 1.944760 
# 
# From -- ./inp_files/13084.got.cif
#   From: 2010.03.12/outbox.cif.g09.slc.cpg/sg4_7_cif.got.tgz:13084.got - 2010.03.31 09:31:35.
