data_PCOD8046332
_publ_section_title
;
Structure prediction by ZEFSAII (Michael W. Deem and Ramdas Pophale) SiO2 
 PCOD8046332
Probable space group: P 21
;
_chemical_formula_sum "Si O2"
_cell_formula_units_Z 16
_cell_length_a 5.233354
_cell_length_b 12.149076
_cell_length_c 12.258293
_cell_angle_alpha 90.000000
_cell_angle_beta 59.472321
_cell_angle_gamma 90.000000
_cell_volume 671.351705
_symmetry_space_group_name_H-M "P 21"
_symmetry_group_IT_number 4
_symmetry_cell_setting 'monoclinic'
loop_
_space_group_symop_operation_xyz
x,y,z
-x,1/2+y,-z
loop_
_atom_site_type_symbol
_atom_site_label
_atom_site_fract_x
_atom_site_fract_y
_atom_site_fract_z
Si Si1 0.826205 0.587910 0.356211
Si Si2 0.823222 0.668392 0.963647
Si Si3 0.139085 0.876704 0.388754
Si Si4 0.504154 0.244532 0.171660
Si Si5 0.334392 0.443069 0.348548
Si Si6 0.672182 0.752984 0.220326
Si Si7 0.982814 0.970313 0.196107
Si Si8 0.558594 0.593162 0.626736
O O1 0.607611 0.500279 0.348745
O O2 0.885695 0.686833 0.257757
O O3 0.656930 0.650814 0.492846
O O4 0.130464 0.531932 0.330109
O O5 0.659808 0.741724 0.908301
O O6 0.153822 0.711861 0.915269
O O7 0.806102 0.537693 0.934071
O O8 0.644480 0.684699 0.114658
O O9 0.340889 0.765826 0.346443
O O10 0.830380 0.868091 0.522205
O O11 0.138386 0.910309 0.262030
O O12 0.301020 0.973274 0.417955
O O13 0.475186 0.365950 0.226050
O O14 0.335146 0.160765 0.290657
O O15 0.800058 0.876401 0.170329
O O16 0.791947 0.071781 0.287791
#
# Coordination Sequence:
#
# PCOD8046332 Si02
#       8
#     2   2   2   2   2   2   2   2
#     4  11  25  43  65 107 146 177 230 297 361 421
#     4  11  26  47  68 101 140 190 245 283 340 423
#     4  10  21  41  68 101 136 176 231 287 361 422
#     4  11  24  43  71  97 135 191 236 286 354 419
#     4  11  25  43  70 105 148 178 227 303 366 419
#     4  11  28  43  70 106 137 196 236 292 346 423
#     4  10  21  43  69  96 137 185 232 285 353 413
#     4   9  20  39  65  99 133 175 225 285 355 422
#
# _framework density 23.832518
#
# number of rings (size 3 to 8) (size 9 to 14) (size 15 to 20)
#    0.000    1.500    2.500    0.750    5.250    5.000 
#    0.000    0.000    0.000    0.000    0.000    0.000 
#    0.000    0.000    0.000    0.000    0.000    0.000 
#
# Total GULP energy -198292.298119 kJ/mol
# GULP energy per Si atom -12393.268632 kJ/mol
# Density = 2.377827 g / cm^3
# Si number density = 23.832518 Si / 1000 Ang^3
#
#
#
# Elastic Constant Matrix: (Units=GPa)
#
#
# Indices 1 2 3 4 5 6 
#
# 1 73.4361 6.2785 8.8145 0.0000 15.5669 0.0000
# 2 6.2785 69.8482 29.1021 0.0000 1.5855 0.0000
# 3 8.8145 29.1021 95.8499 0.0000 26.1074 0.0000
# 4 0.0000 0.0000 0.0000 35.0743 0.0000 6.8759
# 5 15.5669 1.5855 26.1074 0.0000 33.2612 0.0000
# 6 0.0000 0.0000 0.0000 6.8759 0.0000 28.9215
#
#
#
# Elastic Compliance Matrix: (Units=1/GPa)
#
#
# Indices 1 2 3 4 5 6 
#
# 1 0.015333 -0.001752 0.001340 0.000000 -0.008144 0.000000
# 2 -0.001752 0.017014 -0.006369 0.000000 0.005008 0.000000
# 3 0.001340 -0.006369 0.015685 0.000000 -0.012635 0.000000
# 4 0.000000 0.000000 0.000000 0.029905 0.000000 -0.007110
# 5 -0.008144 0.005008 -0.012635 0.000000 0.043556 0.000000
# 6 0.000000 0.000000 0.000000 -0.007110 0.000000 0.036267
#
#
# Mechanical properties :
#
#
# Convention : Reuss Voigt Hill
#
# Bulk Modulus (GPa) = 29.00979 36.39159 32.70069
# Shear Modulus (GPa) = 27.35089 32.44734 29.89912
#
# Velocity S-wave (km/s) = 3.39134 3.69382 3.54581
# Velocity P-wave (km/s) = 5.24726 5.78751 5.52399
#
# Compressibility (1/GPa) = 0.03447112
#
# Stress axis : x y z
#
# Youngs Moduli (GPa) = 65.22033 58.77494 63.75552
#
# Poissons Ratio (x) = 0.10296 -0.08545
# Poissons Ratio (y) = 0.11425 0.40604
# Poissons Ratio (z) = -0.08741 0.37432
#
# Static dielectric constant tensor:
#      x y z
#    x 4.124880 0.000000 0.036170 
#    y 0.000000 4.371030 0.000000 
#    z 0.036170 0.000000 4.479800 
# 
# 
# High freq. dielectric constant tensor:
#      x y z
#    x 1.941370 0.000000 0.010330 
#    y 0.000000 1.942460 0.000000 
#    z 0.010330 0.000000 1.940020 
# 
# From -- ./inp_files/2966.got.cif
#   From: 2010.03.12/outbox.cif.g09.slc.cpg/sg4_2_cif.got.tgz:2966.got - 2010.03.31 09:31:35.
