data_PCOD8046746
_publ_section_title
;
Structure prediction by ZEFSAII (Michael W. Deem and Ramdas Pophale) SiO2 
 PCOD8046746
Probable space group: P 21
;
_chemical_formula_sum "Si O2"
_cell_formula_units_Z 14
_cell_length_a 23.076497
_cell_length_b 5.105928
_cell_length_c 25.287379
_cell_angle_alpha 90.000000
_cell_angle_beta 169.501150
_cell_angle_gamma 90.000000
_cell_volume 542.918195
_symmetry_space_group_name_H-M "P 21"
_symmetry_group_IT_number 4
_symmetry_cell_setting 'monoclinic'
loop_
_space_group_symop_operation_xyz
x,y,z
-x,1/2+y,-z
loop_
_atom_site_type_symbol
_atom_site_label
_atom_site_fract_x
_atom_site_fract_y
_atom_site_fract_z
Si Si1 0.556073 0.267880 0.852363
Si Si2 0.194439 0.217272 0.059285
Si Si3 0.640141 0.539182 0.528162
Si Si4 0.319901 0.766829 0.695634
Si Si5 0.716859 0.865797 0.497817
Si Si6 0.596727 0.790751 0.056159
Si Si7 0.865224 0.969747 0.853944
O O1 0.330576 0.500492 0.670988
O O2 0.433869 0.184575 0.683739
O O3 0.541160 0.003041 0.872913
O O4 0.907745 0.394815 0.172359
O O5 0.337237 0.381818 0.234686
O O6 0.495350 0.123925 0.293836
O O7 0.975031 0.390378 0.823707
O O8 0.963255 0.996652 0.879171
O O9 0.663037 0.788492 0.510731
O O10 0.507053 0.572800 0.469177
O O11 0.960380 0.868923 0.372227
O O12 0.428918 0.695504 0.852217
O O13 0.581749 0.549061 0.083286
O O14 0.079079 0.168735 0.080856
#
# Coordination Sequence:
#
# PCOD8046746 Si02
#       7
#     2   2   2   2   2   2   2
#     4  12  28  45  76  98 155 200 248 304 354 430
#     4  11  25  44  71  99 140 182 244 312 393 462
#     4  11  25  44  71  99 140 182 244 312 393 462
#     4  12  26  49  70 114 151 198 244 290 364 420
#     4  12  26  47  70 104 137 198 258 308 366 446
#     4  12  24  45  80 114 153 190 240 296 354 424
#     4  10  22  46  68 102 138 180 228 314 398 478
#
# _framework density 25.786574999999999
#
# number of rings (size 3 to 8) (size 9 to 14) (size 15 to 20)
#    0.000    0.571    1.429    6.000    6.000    4.571 
#    2.571    0.000    0.000    0.000    0.000    0.000 
#    0.000    0.000    0.000    0.000    0.000    0.000 
#
# Total GULP energy -173531.050754 kJ/mol
# GULP energy per Si atom -12395.075054 kJ/mol
# Density = 2.572788 g / cm^3
# Si number density = 25.786575 Si / 1000 Ang^3
#
#
#
# Elastic Constant Matrix: (Units=GPa)
#
#
# Indices 1 2 3 4 5 6 
#
# 1 79.4310 15.6617 20.5618 0.0000 -9.1945 0.0000
# 2 15.6617 94.7363 8.7660 0.0000 14.2028 0.0000
# 3 20.5618 8.7660 143.4759 0.0000 -5.8634 0.0000
# 4 0.0000 0.0000 0.0000 31.6687 0.0000 2.8354
# 5 -9.1945 14.2028 -5.8634 0.0000 42.9607 0.0000
# 6 0.0000 0.0000 0.0000 2.8354 0.0000 27.0024
#
#
#
# Elastic Compliance Matrix: (Units=1/GPa)
#
#
# Indices 1 2 3 4 5 6 
#
# 1 0.013983 -0.002703 -0.001689 0.000000 0.003656 0.000000
# 2 -0.002703 0.011729 -0.000514 0.000000 -0.004526 0.000000
# 3 -0.001689 -0.000514 0.007276 0.000000 0.000801 0.000000
# 4 0.000000 0.000000 0.000000 0.031877 0.000000 -0.003347
# 5 0.003656 -0.004526 0.000801 0.000000 0.025665 0.000000
# 6 0.000000 0.000000 0.000000 -0.003347 0.000000 0.037385
#
#
# Mechanical properties :
#
#
# Convention : Reuss Voigt Hill
#
# Bulk Modulus (GPa) = 43.15181 45.29136 44.22159
# Shear Modulus (GPa) = 34.37525 38.50328 36.43927
#
# Velocity S-wave (km/s) = 3.65508 3.86832 3.76321
# Velocity P-wave (km/s) = 5.88076 6.12813 6.00572
#
# Compressibility (1/GPa) = 0.02317400
#
# Stress axis : x y z
#
# Youngs Moduli (GPa) = 71.51493 85.26100 137.43660
#
# Poissons Ratio (x) = 0.23050 0.23218
# Poissons Ratio (y) = 0.19334 0.07066
# Poissons Ratio (z) = 0.12081 0.04384
#
# Static dielectric constant tensor:
#      x y z
#    x 4.834270 0.000000 0.235920 
#    y 0.000000 4.259390 0.000000 
#    z 0.235920 0.000000 4.300320 
# 
# 
# High freq. dielectric constant tensor:
#      x y z
#    x 2.037350 0.000000 0.004590 
#    y 0.000000 2.022780 0.000000 
#    z 0.004590 0.000000 2.045520 
# 
# From -- ./inp_files/15916.got.cif
#   From: 2010.03.12/outbox.cif.g09.slc.cpg/sg4_8_cif.got.tgz:15916.got - 2010.03.31 09:31:35.
