data_PCOD8046986
_publ_section_title
;
Structure prediction by ZEFSAII (Michael W. Deem and Ramdas Pophale) SiO2 
 PCOD8046986
Probable space group: P 21
;
_chemical_formula_sum "Si O2"
_cell_formula_units_Z 14
_cell_length_a 9.679061
_cell_length_b 9.789730
_cell_length_c 6.643670
_cell_angle_alpha 90.000000
_cell_angle_beta 107.604960
_cell_angle_gamma 90.000000
_cell_volume 600.039509
_symmetry_space_group_name_H-M "P 21"
_symmetry_group_IT_number 4
_symmetry_cell_setting 'monoclinic'
loop_
_space_group_symop_operation_xyz
x,y,z
-x,1/2+y,-z
loop_
_atom_site_type_symbol
_atom_site_label
_atom_site_fract_x
_atom_site_fract_y
_atom_site_fract_z
Si Si1 0.531570 0.685550 0.407230
Si Si2 0.742094 0.533098 0.765071
Si Si3 0.896122 0.253330 0.252199
Si Si4 0.403783 0.419315 0.284829
Si Si5 0.996699 0.950202 0.362970
Si Si6 0.126869 0.288386 0.025812
Si Si7 0.582143 0.340056 0.987797
O O1 0.681194 0.613153 0.540611
O O2 0.407543 0.570282 0.382868
O O3 0.503318 0.813438 0.540127
O O4 0.524225 0.730779 0.169487
O O5 0.870925 0.443491 0.734815
O O6 0.800460 0.639557 0.957874
O O7 0.625621 0.443691 0.830039
O O8 0.956562 0.379424 0.410086
O O9 0.723185 0.266618 0.146624
O O10 0.973265 0.271973 0.071118
O O11 0.934657 0.104556 0.365916
O O12 0.234560 0.384616 0.202374
O O13 0.485693 0.419035 0.106929
O O14 0.880850 0.852235 0.200697
#
# Coordination Sequence:
#
# PCOD8046986 Si02
#       7
#     2   2   2   2   2   2   2
#     4  11  24  45  66 105 140 176 233 288 348 406
#     4  10  23  46  71 100 142 186 223 295 353 403
#     4  11  26  42  72 102 134 189 230 280 350 411
#     4  11  26  42  72 101 141 183 230 290 347 413
#     4  11  24  46  70 103 138 184 231 288 341 414
#     4  10  24  45  66  99 140 180 228 287 341 406
#     4  12  25  44  73 102 139 188 237 282 354 415
#
# _framework density 23.331799
#
# number of rings (size 3 to 8) (size 9 to 14) (size 15 to 20)
#    0.000    1.143    2.857    1.714    6.000    4.571 
#    0.000    0.000    0.000    0.000    0.000    0.000 
#    0.000    0.000    0.000    0.000    0.000    0.000 
#
# Total GULP energy -173505.800155 kJ/mol
# GULP energy per Si atom -12393.271440 kJ/mol
# Density = 2.327869 g / cm^3
# Si number density = 23.331799 Si / 1000 Ang^3
#
#
#
# Elastic Constant Matrix: (Units=GPa)
#
#
# Indices 1 2 3 4 5 6 
#
# 1 50.6874 -3.3972 12.0847 0.0000 9.9020 0.0000
# 2 -3.3972 100.4738 47.9382 0.0000 8.7451 0.0000
# 3 12.0847 47.9382 104.0587 0.0000 27.0845 0.0000
# 4 0.0000 0.0000 0.0000 47.0547 0.0000 4.9856
# 5 9.9020 8.7451 27.0845 0.0000 20.8210 0.0000
# 6 0.0000 0.0000 0.0000 4.9856 0.0000 28.0613
#
#
#
# Elastic Compliance Matrix: (Units=1/GPa)
#
#
# Indices 1 2 3 4 5 6 
#
# 1 0.022069 0.002035 -0.000826 0.000000 -0.010276 0.000000
# 2 0.002035 0.013111 -0.006941 0.000000 0.002555 0.000000
# 3 -0.000826 -0.006941 0.018207 0.000000 -0.020376 0.000000
# 4 0.000000 0.000000 0.000000 0.021660 0.000000 -0.003848
# 5 -0.010276 0.002555 -0.020376 0.000000 0.078348 0.000000
# 6 0.000000 0.000000 0.000000 -0.003848 0.000000 0.036320
#
#
# Mechanical properties :
#
#
# Convention : Reuss Voigt Hill
#
# Bulk Modulus (GPa) = 23.85330 40.94124 32.39727
# Shear Modulus (GPa) = 23.23907 32.42703 27.83305
#
# Velocity S-wave (km/s) = 3.15941 3.73208 3.45762
# Velocity P-wave (km/s) = 4.85334 6.01304 5.46404
#
# Compressibility (1/GPa) = 0.04192291
#
# Stress axis : x y z
#
# Youngs Moduli (GPa) = 45.31147 76.27094 54.92334
#
# Poissons Ratio (x) = -0.15518 0.04534
# Poissons Ratio (y) = -0.09219 0.38125
# Poissons Ratio (z) = 0.03741 0.52943
#
# Static dielectric constant tensor:
#      x y z
#    x 3.932220 0.000000 0.327360 
#    y 0.000000 4.442530 0.000000 
#    z 0.327360 0.000000 4.170840 
# 
# 
# High freq. dielectric constant tensor:
#      x y z
#    x 1.902680 0.000000 0.023070 
#    y 0.000000 1.938860 0.000000 
#    z 0.023070 0.000000 1.925200 
# 
# From -- ./inp_files/2529.got.cif
#   From: 2010.03.12/outbox.cif.g09.slc.cpg/sg4_2_cif.got.tgz:2529.got - 2010.03.31 09:31:35.
