data_PCOD8046556
_publ_section_title
;
Structure prediction by ZEFSAII (Michael W. Deem and Ramdas Pophale) SiO2 
 PCOD8046556
Probable space group: P 21
;
_chemical_formula_sum "Si O2"
_cell_formula_units_Z 16
_cell_length_a 8.802210
_cell_length_b 8.317810
_cell_length_c 9.266869
_cell_angle_alpha 90.000000
_cell_angle_beta 92.329642
_cell_angle_gamma 90.000000
_cell_volume 677.914077
_symmetry_space_group_name_H-M "P 21"
_symmetry_group_IT_number 4
_symmetry_cell_setting 'monoclinic'
loop_
_space_group_symop_operation_xyz
x,y,z
-x,1/2+y,-z
loop_
_atom_site_type_symbol
_atom_site_label
_atom_site_fract_x
_atom_site_fract_y
_atom_site_fract_z
Si Si1 0.094444 0.633950 0.802882
Si Si2 0.937291 0.824338 0.016817
Si Si3 0.562950 0.061055 0.196353
Si Si4 0.386160 0.878894 0.423912
Si Si5 0.397225 0.360170 0.067128
Si Si6 0.879779 0.669889 0.303485
Si Si7 0.044484 0.960881 0.441572
Si Si8 0.538199 0.572215 0.309714
O O1 0.034066 0.492093 0.904289
O O2 0.268346 0.622671 0.760819
O O3 0.996005 0.622799 0.652147
O O4 0.065648 0.793031 0.898777
O O5 0.943695 0.686886 0.143469
O O6 0.780960 0.827264 0.921315
O O7 0.483721 0.199201 0.104046
O O8 0.469582 0.016306 0.334100
O O9 0.570665 0.901735 0.098502
O O10 0.205978 0.893145 0.395634
O O11 0.430398 0.698837 0.385783
O O12 0.434029 0.914889 0.590257
O O13 0.452244 0.510817 0.164852
O O14 0.949396 0.513647 0.389099
O O15 0.697991 0.658330 0.283191
O O16 0.915511 0.828639 0.401717
#
# Coordination Sequence:
#
# PCOD8046556 Si02
#       8
#     2   2   2   2   2   2   2   2
#     4  10  23  40  60  90 126 165 208 262 318 377
#     4  10  22  41  61  90 126 163 210 262 316 380
#     4  11  23  41  63  92 129 168 215 268 320 384
#     4  11  23  41  64  93 128 166 213 263 318 389
#     4  11  23  40  65  92 123 171 216 265 326 381
#     4  10  23  43  63  93 129 162 210 264 319 383
#     4  10  23  40  64  92 125 167 208 259 321 379
#     4  11  24  42  64  92 126 168 214 269 324 383
#
# _framework density 23.60181
#
# number of rings (size 3 to 8) (size 9 to 14) (size 15 to 20)
#    0.000    1.500    0.000    5.250    0.000   14.000 
#    0.000    1.250    0.000    0.000    0.000    0.000 
#    0.000    0.000    0.000    0.000    0.000    0.000 
#
# Total GULP energy -198410.344464 kJ/mol
# GULP energy per Si atom -12400.646529 kJ/mol
# Density = 2.354809 g / cm^3
# Si number density = 23.601810 Si / 1000 Ang^3
#
#
#
# Elastic Constant Matrix: (Units=GPa)
#
#
# Indices 1 2 3 4 5 6 
#
# 1 83.3593 11.7815 35.7599 0.0000 19.0381 0.0000
# 2 11.7815 35.4872 -4.7677 0.0000 5.1609 0.0000
# 3 35.7599 -4.7677 79.1678 0.0000 13.6079 0.0000
# 4 0.0000 0.0000 0.0000 26.8980 0.0000 12.9017
# 5 19.0381 5.1609 13.6079 0.0000 35.5249 0.0000
# 6 0.0000 0.0000 0.0000 12.9017 0.0000 37.5827
#
#
#
# Elastic Compliance Matrix: (Units=1/GPa)
#
#
# Indices 1 2 3 4 5 6 
#
# 1 0.017168 -0.005842 -0.007141 0.000000 -0.005616 0.000000
# 2 -0.005842 0.031294 0.005103 0.000000 -0.003370 0.000000
# 3 -0.007141 0.005103 0.016736 0.000000 -0.003325 0.000000
# 4 0.000000 0.000000 0.000000 0.044506 0.000000 -0.015278
# 5 -0.005616 -0.003370 -0.003325 0.000000 0.032922 0.000000
# 6 0.000000 0.000000 0.000000 -0.015278 0.000000 0.031853
#
#
# Mechanical properties :
#
#
# Convention : Reuss Voigt Hill
#
# Bulk Modulus (GPa) = 20.22780 31.50687 25.86734
# Shear Modulus (GPa) = 24.18733 30.35051 27.26892
#
# Velocity S-wave (km/s) = 3.20474 3.58989 3.40277
# Velocity P-wave (km/s) = 4.72047 5.52824 5.14024
#
# Compressibility (1/GPa) = 0.04943692
#
# Stress axis : x y z
#
# Youngs Moduli (GPa) = 58.24727 31.95456 59.75171
#
# Poissons Ratio (x) = 0.18669 0.42670
# Poissons Ratio (y) = 0.34030 -0.30490
# Poissons Ratio (z) = 0.41596 -0.16306
#
# Static dielectric constant tensor:
#      x y z
#    x 4.189660 0.000000 0.204040 
#    y 0.000000 4.135030 0.000000 
#    z 0.204040 0.000000 4.418660 
# 
# 
# High freq. dielectric constant tensor:
#      x y z
#    x 1.928480 0.000000 0.013880 
#    y 0.000000 1.937100 0.000000 
#    z 0.013880 0.000000 1.945190 
# 
# From -- ./inp_files/5613.got.cif
#   From: 2010.03.12/outbox.cif.g09.slc.cpg/sg4_3_cif.got.tgz:5613.got - 2010.03.31 09:31:35.
