data_PCOD8046638
_publ_section_title
;
Structure prediction by ZEFSAII (Michael W. Deem and Ramdas Pophale) SiO2 
 PCOD8046638
Probable space group: P 21
;
_chemical_formula_sum "Si O2"
_cell_formula_units_Z 16
_cell_length_a 15.219811
_cell_length_b 9.215602
_cell_length_c 15.105799
_cell_angle_alpha 90.000000
_cell_angle_beta 18.614796
_cell_angle_gamma 90.000000
_cell_volume 676.308839
_symmetry_space_group_name_H-M "P 21"
_symmetry_group_IT_number 4
_symmetry_cell_setting 'monoclinic'
loop_
_space_group_symop_operation_xyz
x,y,z
-x,1/2+y,-z
loop_
_atom_site_type_symbol
_atom_site_label
_atom_site_fract_x
_atom_site_fract_y
_atom_site_fract_z
Si Si1 0.792917 0.403050 0.725590
Si Si2 0.973674 0.428899 0.905357
Si Si3 0.748888 0.214919 0.388618
Si Si4 0.248683 0.243302 0.195807
Si Si5 0.971901 0.273381 0.734823
Si Si6 0.487483 0.605966 0.735253
Si Si7 0.504700 0.285984 0.439724
Si Si8 0.312116 0.287762 0.930877
O O1 0.777218 0.579164 0.740120
O O2 0.970755 0.338463 0.474078
O O3 0.957618 0.344846 0.652925
O O4 0.491137 0.332610 0.012333
O O5 0.110173 0.580659 0.794149
O O6 0.963598 0.409573 0.809235
O O7 0.175759 0.306903 0.754319
O O8 0.669619 0.420497 0.237341
O O9 0.603200 0.292559 0.445981
O O10 0.506892 0.174368 0.690470
O O11 0.000988 0.305311 0.191730
O O12 0.309114 0.234098 0.034071
O O13 0.235188 0.173669 0.493639
O O14 0.728431 0.164605 0.988295
O O15 0.426739 0.647934 0.689942
O O16 0.484962 0.433857 0.747584
#
# Coordination Sequence:
#
# PCOD8046638 Si02
#       8
#     2   2   2   2   2   2   2   2
#     4  12  27  48  77 111 145 196 241 309 366 448
#     4  10  22  43  63  96 131 174 233 282 345 423
#     4  12  25  41  70  93 140 187 224 293 355 419
#     4  12  29  48  77 111 154 186 255 300 378 437
#     4  10  22  43  73  94 135 181 235 280 363 415
#     4  10  23  42  69 103 137 181 231 294 343 430
#     4  10  23  39  65 100 131 179 232 288 338 424
#     4  12  27  46  68 104 145 184 235 294 368 414
#
# _framework density 23.657830000000001
#
# number of rings (size 3 to 8) (size 9 to 14) (size 15 to 20)
#    0.000    1.000    0.000    5.250    8.750    3.000 
#    0.000    0.000    0.000    0.000    0.000    0.000 
#    0.000    0.000    0.000    0.000    0.000    0.000 
#
# Total GULP energy -198340.802513 kJ/mol
# GULP energy per Si atom -12396.300157 kJ/mol
# Density = 2.360398 g / cm^3
# Si number density = 23.657830 Si / 1000 Ang^3
#
#
#
# Elastic Constant Matrix: (Units=GPa)
#
#
# Indices 1 2 3 4 5 6 
#
# 1 109.7371 24.3597 24.5236 0.0000 1.7790 0.0000
# 2 24.3597 93.3911 16.4876 0.0000 8.2504 0.0000
# 3 24.5236 16.4876 122.4791 0.0000 -0.9339 0.0000
# 4 0.0000 0.0000 0.0000 28.8124 0.0000 -3.6142
# 5 1.7790 8.2504 -0.9339 0.0000 33.7825 0.0000
# 6 0.0000 0.0000 0.0000 -3.6142 0.0000 21.1708
#
#
#
# Elastic Compliance Matrix: (Units=1/GPa)
#
#
# Indices 1 2 3 4 5 6 
#
# 1 0.010004 -0.002310 -0.001692 0.000000 -0.000009 0.000000
# 2 -0.002310 0.011757 -0.001141 0.000000 -0.002781 0.000000
# 3 -0.001692 -0.001141 0.008662 0.000000 0.000607 0.000000
# 4 0.000000 0.000000 0.000000 0.035467 0.000000 0.006055
# 5 -0.000009 -0.002781 0.000607 0.000000 0.030298 0.000000
# 6 0.000000 0.000000 0.000000 0.006055 0.000000 0.048269
#
#
# Mechanical properties :
#
#
# Convention : Reuss Voigt Hill
#
# Bulk Modulus (GPa) = 49.66203 50.70545 50.18374
# Shear Modulus (GPa) = 30.96844 34.10223 32.53534
#
# Velocity S-wave (km/s) = 3.62196 3.80080 3.71245
# Velocity P-wave (km/s) = 6.20716 6.38285 6.29562
#
# Compressibility (1/GPa) = 0.02013611
#
# Stress axis : x y z
#
# Youngs Moduli (GPa) = 99.96285 85.05328 115.44998
#
# Poissons Ratio (x) = 0.19645 0.19536
# Poissons Ratio (y) = 0.23089 0.13178
# Poissons Ratio (z) = 0.16915 0.09708
#
# Static dielectric constant tensor:
#      x y z
#    x 4.243690 0.000000 -0.029190 
#    y 0.000000 4.149940 0.000000 
#    z -0.029190 0.000000 4.558710 
# 
# 
# High freq. dielectric constant tensor:
#      x y z
#    x 1.940900 0.000000 -0.003050 
#    y 0.000000 1.927590 0.000000 
#    z -0.003050 0.000000 1.961090 
# 
# From -- ./inp_files/14184.got.cif
#   From: 2010.03.12/outbox.cif.g09.slc.cpg/sg4_8_cif.got.tgz:14184.got - 2010.03.31 09:31:35.
