data_PCOD8046869
_publ_section_title
;
Structure prediction by ZEFSAII (Michael W. Deem and Ramdas Pophale) SiO2 
 PCOD8046869
Probable space group: P 21
;
_chemical_formula_sum "Si O2"
_cell_formula_units_Z 10
_cell_length_a 6.672889
_cell_length_b 8.609480
_cell_length_c 7.705483
_cell_angle_alpha 90.000000
_cell_angle_beta 126.892630
_cell_angle_gamma 90.000000
_cell_volume 354.039233
_symmetry_space_group_name_H-M "P 21"
_symmetry_group_IT_number 4
_symmetry_cell_setting 'monoclinic'
loop_
_space_group_symop_operation_xyz
x,y,z
-x,1/2+y,-z
loop_
_atom_site_type_symbol
_atom_site_label
_atom_site_fract_x
_atom_site_fract_y
_atom_site_fract_z
Si Si1 0.573297 0.123960 0.039805
Si Si2 0.043974 0.236699 0.121831
Si Si3 0.818429 0.298243 0.654211
Si Si4 0.470058 0.528706 0.624222
Si Si5 0.189360 0.915253 0.712452
O O1 0.809293 0.117466 0.031815
O O2 0.585221 0.995024 0.201256
O O3 0.578103 0.292327 0.140085
O O4 0.311424 0.087423 0.801382
O O5 0.029680 0.374359 0.261399
O O6 0.293745 0.142660 0.269262
O O7 0.015163 0.309420 0.914092
O O8 0.546619 0.369791 0.569166
O O9 0.772736 0.116740 0.581803
O O10 0.917974 0.395661 0.538488
#
# Coordination Sequence:
#
# PCOD8046869 Si02
#       5
#     2   2   2   2   2
#     4   9  19  41  63  90 135 160 211 271 314 373
#     4  10  23  43  64  93 134 171 213 267 326 378
#     4  11  23  43  70  96 129 175 218 265 330 387
#     4  11  23  44  68  97 132 175 215 270 325 388
#     4   9  20  41  63  98 126 169 215 263 323 384
#
# _framework density 28.245460999999999
#
# number of rings (size 3 to 8) (size 9 to 14) (size 15 to 20)
#    1.200    0.800    2.000    1.200    0.000    4.800 
#   10.800    0.000    0.000    0.000    0.000    0.000 
#    0.000    0.000    0.000    0.000    0.000    0.000 
#
# Total GULP energy -123907.782498 kJ/mol
# GULP energy per Si atom -12390.778250 kJ/mol
# Density = 2.818117 g / cm^3
# Si number density = 28.245461 Si / 1000 Ang^3
#
#
#
# Elastic Constant Matrix: (Units=GPa)
#
#
# Indices 1 2 3 4 5 6 
#
# 1 70.2788 -12.3858 40.4472 0.0000 -0.7715 0.0000
# 2 -12.3858 35.7155 9.5262 0.0000 -4.2784 0.0000
# 3 40.4472 9.5262 113.8117 0.0000 -61.6374 0.0000
# 4 0.0000 0.0000 0.0000 45.7924 0.0000 0.2757
# 5 -0.7715 -4.2784 -61.6374 0.0000 48.3776 0.0000
# 6 0.0000 0.0000 0.0000 0.2757 0.0000 33.6830
#
#
#
# Elastic Compliance Matrix: (Units=1/GPa)
#
#
# Indices 1 2 3 4 5 6 
#
# 1 0.056114 0.027380 -0.065932 0.000000 -0.080687 0.000000
# 2 0.027380 0.042040 -0.035483 0.000000 -0.041054 0.000000
# 3 -0.065932 -0.035483 0.106194 0.000000 0.131112 0.000000
# 4 0.000000 0.000000 0.000000 0.021839 0.000000 -0.000179
# 5 -0.080687 -0.041054 0.131112 0.000000 0.182801 0.000000
# 6 0.000000 0.000000 0.000000 -0.000179 0.000000 0.029690
#
#
# Mechanical properties :
#
#
# Convention : Reuss Voigt Hill
#
# Bulk Modulus (GPa) = 17.76862 32.77569 25.27216
# Shear Modulus (GPa) = 8.25753 37.71850 22.98801
#
# Velocity S-wave (km/s) = 1.71168 3.65825 2.85593
# Velocity P-wave (km/s) = 3.19545 5.42889 4.45442
#
# Compressibility (1/GPa) = 0.05627899
#
# Stress axis : x y z
#
# Youngs Moduli (GPa) = 17.82085 23.78664 9.41670
#
# Poissons Ratio (x) = -0.65127 0.62086
# Poissons Ratio (y) = -0.48793 0.33413
# Poissons Ratio (z) = 1.17496 0.84402
#
# Static dielectric constant tensor:
#      x y z
#    x 5.017550 0.000000 -0.389410 
#    y 0.000000 5.142230 0.000000 
#    z -0.389410 0.000000 4.889180 
# 
# 
# High freq. dielectric constant tensor:
#      x y z
#    x 2.139170 0.000000 -0.013830 
#    y 0.000000 2.130460 0.000000 
#    z -0.013830 0.000000 2.134770 
# 
# From -- ./inp_files/1047.got.cif
#   From: 2010.03.12/outbox.cif.g09.slc.cpg/sg4_1_cif.got.tgz:1047.got - 2010.03.31 09:31:35.
