data_PCOD8046121
_publ_section_title
;
Structure prediction by ZEFSAII (Michael W. Deem and Ramdas Pophale) SiO2 
 PCOD8046121
Probable space group: P 21
;
_chemical_formula_sum "Si O2"
_cell_formula_units_Z 14
_cell_length_a 16.962263
_cell_length_b 8.395436
_cell_length_c 6.976762
_cell_angle_alpha 90.000000
_cell_angle_beta 41.182479
_cell_angle_gamma 90.000000
_cell_volume 654.199065
_symmetry_space_group_name_H-M "P 21"
_symmetry_group_IT_number 4
_symmetry_cell_setting 'monoclinic'
loop_
_space_group_symop_operation_xyz
x,y,z
-x,1/2+y,-z
loop_
_atom_site_type_symbol
_atom_site_label
_atom_site_fract_x
_atom_site_fract_y
_atom_site_fract_z
Si Si1 0.497928 0.775260 0.769330
Si Si2 0.749751 0.650876 0.366804
Si Si3 0.446930 0.431586 0.702678
Si Si4 0.858987 0.100037 0.148336
Si Si5 0.182786 0.355936 0.099708
Si Si6 0.644661 0.315405 0.601689
Si Si7 0.074002 0.319176 0.697117
O O1 0.627880 0.749859 0.626723
O O2 0.458627 0.612840 0.741286
O O3 0.506355 0.916525 0.600228
O O4 0.398864 0.830224 0.100726
O O5 0.727682 0.463922 0.394684
O O6 0.834374 0.687293 0.391091
O O7 0.810691 0.703875 0.054164
O O8 0.526823 0.312561 0.685435
O O9 0.309663 0.380406 0.971399
O O10 0.722180 0.155083 0.436619
O O11 0.904252 0.988661 0.239608
O O12 0.940967 0.256579 0.984801
O O13 0.859779 0.007381 0.945917
O O14 0.086998 0.331450 0.443827
#
# Coordination Sequence:
#
# PCOD8046121 Si02
#       7
#     2   2   2   2   2   2   2
#     4  10  21  36  59  88 122 160 198 250 305 358
#     4   9  22  39  60  90 118 158 209 244 297 369
#     4  10  21  38  60  90 122 156 205 249 300 365
#     4  11  25  40  63  93 119 158 212 246 297 371
#     4  10  22  41  63  87 120 160 201 253 304 354
#     4  11  22  38  61  91 125 159 200 251 304 360
#     4  11  23  44  64  85 124 161 199 257 303 347
#
# _framework density 21.400214999999999
#
# number of rings (size 3 to 8) (size 9 to 14) (size 15 to 20)
#    0.000    1.714    0.000    3.429    0.000   14.857 
#    0.000    1.429    0.000    0.000    0.000    0.000 
#    0.000    0.000    0.000    0.000    0.000    0.000 
#
# Total GULP energy -173638.734741 kJ/mol
# GULP energy per Si atom -12402.766767 kJ/mol
# Density = 2.135151 g / cm^3
# Si number density = 21.400215 Si / 1000 Ang^3
#
#
#
# Elastic Constant Matrix: (Units=GPa)
#
#
# Indices 1 2 3 4 5 6 
#
# 1 79.8466 31.6694 31.4210 0.0000 5.8728 0.0000
# 2 31.6694 76.5980 34.5449 0.0000 3.8732 0.0000
# 3 31.4210 34.5449 114.9113 0.0000 16.1317 0.0000
# 4 0.0000 0.0000 0.0000 28.7156 0.0000 -1.9414
# 5 5.8728 3.8732 16.1317 0.0000 26.2501 0.0000
# 6 0.0000 0.0000 0.0000 -1.9414 0.0000 35.6650
#
#
#
# Elastic Compliance Matrix: (Units=1/GPa)
#
#
# Indices 1 2 3 4 5 6 
#
# 1 0.015708 -0.005289 -0.002540 0.000000 -0.001173 0.000000
# 2 -0.005289 0.016893 -0.003774 0.000000 0.001010 0.000000
# 3 -0.002540 -0.003774 0.011353 0.000000 -0.005852 0.000000
# 4 0.000000 0.000000 0.000000 0.034953 0.000000 0.001903
# 5 -0.001173 0.001010 -0.005852 0.000000 0.041804 0.000000
# 6 0.000000 0.000000 0.000000 0.001903 0.000000 0.028142
#
#
# Mechanical properties :
#
#
# Convention : Reuss Voigt Hill
#
# Bulk Modulus (GPa) = 48.20091 51.84738 50.02415
# Shear Modulus (GPa) = 27.93664 29.70751 28.82208
#
# Velocity S-wave (km/s) = 3.61700 3.72988 3.67388
# Velocity P-wave (km/s) = 6.32583 6.54442 6.43605
#
# Compressibility (1/GPa) = 0.02074650
#
# Stress axis : x y z
#
# Youngs Moduli (GPa) = 63.66234 59.19613 88.08249
#
# Poissons Ratio (x) = 0.31311 0.22376
# Poissons Ratio (y) = 0.33674 0.33241
# Poissons Ratio (z) = 0.16173 0.22340
#
# Static dielectric constant tensor:
#      x y z
#    x 3.973940 0.000000 -0.029470 
#    y 0.000000 3.703990 0.000000 
#    z -0.029470 0.000000 3.756270 
# 
# 
# High freq. dielectric constant tensor:
#      x y z
#    x 1.846370 0.000000 0.000410 
#    y 0.000000 1.837700 0.000000 
#    z 0.000410 0.000000 1.834890 
# 
# From -- ./inp_files/2391.got.cif
#   From: 2010.03.12/outbox.cif.g09.slc.cpg/sg4_2_cif.got.tgz:2391.got - 2010.03.31 09:31:35.
