data_PCOD8046645
_publ_section_title
;
Structure prediction by ZEFSAII (Michael W. Deem and Ramdas Pophale) SiO2 
 PCOD8046645
Probable space group: P 21
;
_chemical_formula_sum "Si O2"
_cell_formula_units_Z 16
_cell_length_a 9.966329
_cell_length_b 12.650308
_cell_length_c 7.837326
_cell_angle_alpha 90.000000
_cell_angle_beta 130.571346
_cell_angle_gamma 90.000000
_cell_volume 750.563227
_symmetry_space_group_name_H-M "P 21"
_symmetry_group_IT_number 4
_symmetry_cell_setting 'monoclinic'
loop_
_space_group_symop_operation_xyz
x,y,z
-x,1/2+y,-z
loop_
_atom_site_type_symbol
_atom_site_label
_atom_site_fract_x
_atom_site_fract_y
_atom_site_fract_z
Si Si1 0.529939 0.907510 0.202390
Si Si2 0.655209 0.246085 0.176383
Si Si3 0.407886 0.302522 0.415178
Si Si4 0.361499 0.125387 0.142512
Si Si5 0.977214 0.068106 0.746554
Si Si6 0.902920 0.921013 0.993636
Si Si7 0.820090 0.029928 0.261784
Si Si8 0.204071 0.776824 0.365182
O O1 0.638884 0.836939 0.430119
O O2 0.440510 0.007798 0.222734
O O3 0.659351 0.949179 0.162576
O O4 0.382261 0.833622 0.996416
O O5 0.477877 0.202969 0.120787
O O6 0.753842 0.148372 0.169684
O O7 0.781685 0.302356 0.420782
O O8 0.359973 0.180115 0.330297
O O9 0.618562 0.319007 0.576764
O O10 0.295821 0.377658 0.195160
O O11 0.166690 0.124622 0.902870
O O12 0.948265 0.023986 0.531768
O O13 0.818856 0.149253 0.663541
O O14 0.972912 0.976056 0.881224
O O15 0.917251 0.997251 0.168726
O O16 0.035136 0.825095 0.135207
#
# Coordination Sequence:
#
# PCOD8046645 Si02
#       8
#     2   2   2   2   2   2   2   2
#     4  11  22  41  70  99 132 184 229 274 346 404
#     4   9  22  42  65  96 133 177 223 280 337 398
#     4  11  23  42  69  93 134 183 217 280 339 394
#     4  10  22  43  65  96 141 173 227 289 327 408
#     4  11  23  44  63  98 140 171 221 284 333 398
#     4  12  24  44  69  98 132 180 223 274 340 407
#     4  10  23  41  64  98 134 172 223 280 330 404
#     4  10  23  43  65  94 132 174 223 279 332 395
#
# _framework density 21.317326000000001
#
# number of rings (size 3 to 8) (size 9 to 14) (size 15 to 20)
#    0.000    1.500    2.500    3.000    3.500    0.000 
#    2.250    0.000    0.000    0.000    0.000    0.000 
#    0.000    0.000    0.000    0.000    0.000    0.000 
#
# Total GULP energy -198369.726694 kJ/mol
# GULP energy per Si atom -12398.107918 kJ/mol
# Density = 2.126881 g / cm^3
# Si number density = 21.317326 Si / 1000 Ang^3
#
#
#
# Elastic Constant Matrix: (Units=GPa)
#
#
# Indices 1 2 3 4 5 6 
#
# 1 29.9970 10.5944 20.9740 0.0000 3.4833 0.0000
# 2 10.5944 94.5491 46.6500 0.0000 -18.3477 0.0000
# 3 20.9740 46.6500 127.3705 0.0000 -7.4850 0.0000
# 4 0.0000 0.0000 0.0000 48.1785 0.0000 -3.1261
# 5 3.4833 -18.3477 -7.4850 0.0000 35.6549 0.0000
# 6 0.0000 0.0000 0.0000 -3.1261 0.0000 13.2130
#
#
#
# Elastic Compliance Matrix: (Units=1/GPa)
#
#
# Indices 1 2 3 4 5 6 
#
# 1 0.039128 -0.002775 -0.005807 0.000000 -0.006469 0.000000
# 2 -0.002775 0.014372 -0.004411 0.000000 0.006741 0.000000
# 3 -0.005807 -0.004411 0.010452 0.000000 0.000492 0.000000
# 4 0.000000 0.000000 0.000000 0.021080 0.000000 0.004987
# 5 -0.006469 0.006741 0.000492 0.000000 0.032251 0.000000
# 6 0.000000 0.000000 0.000000 0.004987 0.000000 0.076863
#
#
# Mechanical properties :
#
#
# Convention : Reuss Voigt Hill
#
# Bulk Modulus (GPa) = 26.33888 45.37261 35.85574
# Shear Modulus (GPa) = 21.47899 30.98914 26.23406
#
# Velocity S-wave (km/s) = 3.17769 3.81689 3.51186
# Velocity P-wave (km/s) = 5.08390 6.38400 5.77068
#
# Compressibility (1/GPa) = 0.03796669
#
# Stress axis : x y z
#
# Youngs Moduli (GPa) = 25.55699 69.58127 95.67806
#
# Poissons Ratio (x) = 0.19306 0.55562
# Poissons Ratio (y) = 0.07091 0.42201
# Poissons Ratio (z) = 0.14841 0.30690
#
# Static dielectric constant tensor:
#      x y z
#    x 3.540200 0.000000 0.058350 
#    y 0.000000 3.855430 0.000000 
#    z 0.058350 0.000000 4.013840 
# 
# 
# High freq. dielectric constant tensor:
#      x y z
#    x 1.810210 0.000000 0.004640 
#    y 0.000000 1.839120 0.000000 
#    z 0.004640 0.000000 1.851530 
# 
# From -- ./inp_files/8157.got.cif
#   From: 2010.03.12/outbox.cif.g09.slc.cpg/sg4_5_cif.got.tgz:8157.got - 2010.03.31 09:31:35.
