data_PCOD8046207
_publ_section_title
;
Structure prediction by ZEFSAII (Michael W. Deem and Ramdas Pophale) SiO2 
 PCOD8046207
Probable space group: P 21
;
_chemical_formula_sum "Si O2"
_cell_formula_units_Z 16
_cell_length_a 15.089805
_cell_length_b 8.242931
_cell_length_c 11.871502
_cell_angle_alpha 90.000000
_cell_angle_beta 150.130533
_cell_angle_gamma 90.000000
_cell_volume 735.398459
_symmetry_space_group_name_H-M "P 21"
_symmetry_group_IT_number 4
_symmetry_cell_setting 'monoclinic'
loop_
_space_group_symop_operation_xyz
x,y,z
-x,1/2+y,-z
loop_
_atom_site_type_symbol
_atom_site_label
_atom_site_fract_x
_atom_site_fract_y
_atom_site_fract_z
Si Si1 0.659598 0.904520 0.743278
Si Si2 0.285705 0.648789 0.998034
Si Si3 0.007181 0.726623 0.207614
Si Si4 0.650311 0.159360 0.540303
Si Si5 0.946346 0.468144 0.539569
Si Si6 0.450051 0.011465 0.868684
Si Si7 0.869068 0.477196 0.202823
Si Si8 0.532484 0.648902 0.885361
O O1 0.479985 0.796768 0.550809
O O2 0.671245 0.998477 0.638331
O O3 0.828444 0.788382 0.949157
O O4 0.658485 0.048414 0.832056
O O5 0.247422 0.835590 0.983251
O O6 0.108060 0.585762 0.742390
O O7 0.452395 0.646393 0.097905
O O8 0.158372 0.740432 0.277889
O O9 0.051669 0.818341 0.372809
O O10 0.996265 0.541022 0.242491
O O11 0.577022 0.092184 0.342484
O O12 0.758474 0.555241 0.358781
O O13 0.957669 0.417531 0.418996
O O14 0.496706 0.835858 0.872922
O O15 0.526250 0.029833 0.078919
O O16 0.742192 0.631866 0.090333
#
# Coordination Sequence:
#
# PCOD8046207 Si02
#       8
#     2   2   2   2   2   2   2   2
#     4  11  27  47  72  96 134 179 233 293 330 406
#     4  11  23  42  66  98 140 180 225 280 339 402
#     4  11  23  47  69  98 140 176 235 277 342 404
#     4  12  26  49  74  97 135 183 228 287 348 391
#     4  10  21  39  64 100 137 183 215 278 335 403
#     4  11  21  41  67 102 139 177 224 271 342 417
#     4  11  23  39  67 103 144 179 221 274 344 410
#     4  11  22  42  69 102 139 179 217 282 338 413
#
# _framework density 21.756912
#
# number of rings (size 3 to 8) (size 9 to 14) (size 15 to 20)
#    0.000    1.000    3.750    3.000    3.500    3.000 
#    2.250    1.250    0.000    0.000    0.000    0.000 
#    0.000    0.000    0.000    0.000    0.000    0.000 
#
# Total GULP energy -198315.544307 kJ/mol
# GULP energy per Si atom -12394.721519 kJ/mol
# Density = 2.170739 g / cm^3
# Si number density = 21.756912 Si / 1000 Ang^3
#
#
#
# Elastic Constant Matrix: (Units=GPa)
#
#
# Indices 1 2 3 4 5 6 
#
# 1 121.3810 46.7115 56.2032 0.0000 0.1661 0.0000
# 2 46.7115 83.3056 39.6721 0.0000 -3.5073 0.0000
# 3 56.2032 39.6721 77.8161 0.0000 -4.2339 0.0000
# 4 0.0000 0.0000 0.0000 25.3339 0.0000 -7.7169
# 5 0.1661 -3.5073 -4.2339 0.0000 41.3926 0.0000
# 6 0.0000 0.0000 0.0000 -7.7169 0.0000 35.2942
#
#
#
# Elastic Compliance Matrix: (Units=1/GPa)
#
#
# Indices 1 2 3 4 5 6 
#
# 1 0.013280 -0.003827 -0.007704 0.000000 -0.001166 0.000000
# 2 -0.003827 0.016967 -0.005840 0.000000 0.000856 0.000000
# 3 -0.007704 -0.005840 0.021487 0.000000 0.001734 0.000000
# 4 0.000000 0.000000 0.000000 0.042289 0.000000 0.009246
# 5 -0.001166 0.000856 0.001734 0.000000 0.024413 0.000000
# 6 0.000000 0.000000 0.000000 0.009246 0.000000 0.030355
#
#
# Mechanical properties :
#
#
# Convention : Reuss Voigt Hill
#
# Bulk Modulus (GPa) = 58.84881 63.07515 60.96198
# Shear Modulus (GPa) = 26.42767 29.73187 28.07977
#
# Velocity S-wave (km/s) = 3.48901 3.70070 3.59641
# Velocity P-wave (km/s) = 6.58316 6.87852 6.73246
#
# Compressibility (1/GPa) = 0.01699270
#
# Stress axis : x y z
#
# Youngs Moduli (GPa) = 75.30137 58.93925 46.54064
#
# Poissons Ratio (x) = 0.22554 0.35855
# Poissons Ratio (y) = 0.28815 0.27178
# Poissons Ratio (z) = 0.58013 0.34418
#
# Static dielectric constant tensor:
#      x y z
#    x 4.158630 0.000000 0.100780 
#    y 0.000000 3.820930 0.000000 
#    z 0.100780 0.000000 4.056750 
# 
# 
# High freq. dielectric constant tensor:
#      x y z
#    x 1.860270 0.000000 0.005480 
#    y 0.000000 1.847170 0.000000 
#    z 0.005480 0.000000 1.857260 
# 
# From -- ./inp_files/12627.got.cif
#   From: 2010.03.12/outbox.cif.g09.slc.cpg/sg4_7_cif.got.tgz:12627.got - 2010.03.31 09:31:35.
