data_PCOD8046373
_publ_section_title
;
Structure prediction by ZEFSAII (Michael W. Deem and Ramdas Pophale) SiO2 
 PCOD8046373
Probable space group: P 21
;
_chemical_formula_sum "Si O2"
_cell_formula_units_Z 16
_cell_length_a 9.017475
_cell_length_b 8.302646
_cell_length_c 12.274822
_cell_angle_alpha 90.000000
_cell_angle_beta 128.765926
_cell_angle_gamma 90.000000
_cell_volume 716.555836
_symmetry_space_group_name_H-M "P 21"
_symmetry_group_IT_number 4
_symmetry_cell_setting 'monoclinic'
loop_
_space_group_symop_operation_xyz
x,y,z
-x,1/2+y,-z
loop_
_atom_site_type_symbol
_atom_site_label
_atom_site_fract_x
_atom_site_fract_y
_atom_site_fract_z
Si Si1 0.637870 0.577470 0.123451
Si Si2 0.106743 0.103999 0.347130
Si Si3 0.831918 0.239207 0.575355
Si Si4 0.315609 0.707013 0.850129
Si Si5 0.569790 0.060941 0.305351
Si Si6 0.202011 0.247161 0.607628
Si Si7 0.954536 0.699852 0.123954
Si Si8 0.142808 0.023445 0.136386
O O1 0.702255 0.395117 0.128633
O O2 0.672529 0.620410 0.265725
O O3 0.753627 0.697364 0.095578
O O4 0.416829 0.610531 0.995534
O O5 0.216778 0.213945 0.485077
O O6 0.143439 0.152568 0.237209
O O7 0.883432 0.121789 0.263969
O O8 0.189269 0.925089 0.402816
O O9 0.636758 0.157415 0.444320
O O10 0.894849 0.141801 0.713711
O O11 0.985264 0.229080 0.548098
O O12 0.441157 0.688811 0.798228
O O13 0.363917 0.977195 0.222182
O O14 0.721192 0.925861 0.340501
O O15 0.007944 0.877857 0.109916
O O16 0.952968 0.588509 0.017311
#
# Coordination Sequence:
#
# PCOD8046373 Si02
#       8
#     2   2   2   2   2   2   2   2
#     4  11  26  42  71 106 138 178 239 302 345 408
#     4  11  25  42  68  99 141 187 225 282 352 417
#     4  10  21  42  69  99 136 174 233 292 335 407
#     4  12  24  42  72 105 134 182 239 294 344 408
#     4  12  24  43  72 104 144 176 235 287 350 428
#     4  11  22  41  68 103 131 182 229 290 347 401
#     4  10  25  46  68  98 143 187 229 279 354 420
#     4  11  27  46  66 102 143 190 225 284 351 431
#
# _framework density 22.329035000000001
#
# number of rings (size 3 to 8) (size 9 to 14) (size 15 to 20)
#    0.000    1.000    3.750    1.500    8.750    2.000 
#    0.000    0.000    0.000    0.000    0.000    0.000 
#    0.000    0.000    0.000    0.000    0.000    0.000 
#
# Total GULP energy -198328.245405 kJ/mol
# GULP energy per Si atom -12395.515338 kJ/mol
# Density = 2.227821 g / cm^3
# Si number density = 22.329035 Si / 1000 Ang^3
#
#
#
# Elastic Constant Matrix: (Units=GPa)
#
#
# Indices 1 2 3 4 5 6 
#
# 1 71.2320 31.6773 40.7653 0.0000 -12.7422 0.0000
# 2 31.6773 81.0992 26.8292 0.0000 4.8075 0.0000
# 3 40.7653 26.8292 120.0355 0.0000 -16.1719 0.0000
# 4 0.0000 0.0000 0.0000 34.1534 0.0000 -6.0583
# 5 -12.7422 4.8075 -16.1719 0.0000 34.4761 0.0000
# 6 0.0000 0.0000 0.0000 -6.0583 0.0000 31.6512
#
#
#
# Elastic Compliance Matrix: (Units=1/GPa)
#
#
# Indices 1 2 3 4 5 6 
#
# 1 0.021028 -0.007054 -0.004681 0.000000 0.006560 0.000000
# 2 -0.007054 0.016082 -0.001977 0.000000 -0.005777 0.000000
# 3 -0.004681 -0.001977 0.010852 0.000000 0.003636 0.000000
# 4 0.000000 0.000000 0.000000 0.030309 0.000000 0.005801
# 5 0.006560 -0.005777 0.003636 0.000000 0.033941 0.000000
# 6 0.000000 0.000000 0.000000 0.005801 0.000000 0.032705
#
#
# Mechanical properties :
#
#
# Convention : Reuss Voigt Hill
#
# Bulk Modulus (GPa) = 48.68910 52.32336 50.50623
# Shear Modulus (GPa) = 27.90373 31.59580 29.74976
#
# Velocity S-wave (km/s) = 3.53889 3.76574 3.65408
# Velocity P-wave (km/s) = 6.20894 6.51088 6.36170
#
# Compressibility (1/GPa) = 0.02053848
#
# Stress axis : x y z
#
# Youngs Moduli (GPa) = 47.55632 62.17980 92.14528
#
# Poissons Ratio (x) = 0.43860 0.43132
# Poissons Ratio (y) = 0.33545 0.18221
# Poissons Ratio (z) = 0.22261 0.12295
#
# Static dielectric constant tensor:
#      x y z
#    x 3.861860 0.000000 -0.271340 
#    y 0.000000 3.739460 0.000000 
#    z -0.271340 0.000000 4.483270 
# 
# 
# High freq. dielectric constant tensor:
#      x y z
#    x 1.855120 0.000000 -0.013030 
#    y 0.000000 1.860820 0.000000 
#    z -0.013030 0.000000 1.908670 
# 
# From -- ./inp_files/5675.got.cif
#   From: 2010.03.12/outbox.cif.g09.slc.cpg/sg4_3_cif.got.tgz:5675.got - 2010.03.31 09:31:35.
