data_PCOD8046196
_publ_section_title
;
Structure prediction by ZEFSAII (Michael W. Deem and Ramdas Pophale) SiO2 
 PCOD8046196
Probable space group: P 21
;
_chemical_formula_sum "Si O2"
_cell_formula_units_Z 14
_cell_length_a 11.759011
_cell_length_b 7.457172
_cell_length_c 8.956477
_cell_angle_alpha 90.000000
_cell_angle_beta 54.167395
_cell_angle_gamma 90.000000
_cell_volume 636.735185
_symmetry_space_group_name_H-M "P 21"
_symmetry_group_IT_number 4
_symmetry_cell_setting 'monoclinic'
loop_
_space_group_symop_operation_xyz
x,y,z
-x,1/2+y,-z
loop_
_atom_site_type_symbol
_atom_site_label
_atom_site_fract_x
_atom_site_fract_y
_atom_site_fract_z
Si Si1 0.163755 0.583340 0.375232
Si Si2 0.411661 0.890390 0.709145
Si Si3 0.134149 0.973198 0.471974
Si Si4 0.285925 0.292336 0.489957
Si Si5 0.605751 0.948700 0.994039
Si Si6 0.619747 0.011942 0.326990
Si Si7 0.679229 0.551619 0.927852
O O1 0.150074 0.760515 0.489833
O O2 0.188359 0.417367 0.465005
O O3 0.293278 0.601204 0.156828
O O4 0.023844 0.543311 0.388036
O O5 0.550527 0.807962 0.687972
O O6 0.466860 0.016420 0.530970
O O7 0.324953 0.718485 0.713118
O O8 0.318519 0.002931 0.897584
O O9 0.231189 0.087753 0.512719
O O10 0.178803 0.991208 0.263167
O O11 0.276728 0.372483 0.667028
O O12 0.674094 0.760866 0.898032
O O13 0.599450 0.949663 0.175908
O O14 0.450411 0.954987 0.051072
#
# Coordination Sequence:
#
# PCOD8046196 Si02
#       7
#     2   2   2   2   2   2   2
#     4  12  23  43  70  94 128 174 225 279 326 391
#     4  10  21  39  60  98 131 174 213 272 332 390
#     4  12  23  41  72  94 129 170 225 277 329 386
#     4  10  23  43  60  98 130 169 219 264 334 392
#     4  12  22  39  63 101 130 171 222 276 332 392
#     4  10  22  37  62  92 140 165 219 261 342 396
#     4  12  22  38  65  99 132 167 227 279 325 387
#
# _framework density 21.987162999999999
#
# number of rings (size 3 to 8) (size 9 to 14) (size 15 to 20)
#    0.857    0.000    4.286    4.286    0.000    1.143 
#    0.000    0.000    6.286    0.000    0.000    0.000 
#    0.000    0.000    0.000    0.000    0.000    0.000 
#
# Total GULP energy -173512.560769 kJ/mol
# GULP energy per Si atom -12393.754341 kJ/mol
# Density = 2.193712 g / cm^3
# Si number density = 21.987163 Si / 1000 Ang^3
#
#
#
# Elastic Constant Matrix: (Units=GPa)
#
#
# Indices 1 2 3 4 5 6 
#
# 1 52.8036 9.1389 28.5432 0.0000 0.1237 0.0000
# 2 9.1389 110.7192 11.2803 0.0000 6.8361 0.0000
# 3 28.5432 11.2803 84.7586 0.0000 11.2069 0.0000
# 4 0.0000 0.0000 0.0000 33.5960 0.0000 4.7702
# 5 0.1237 6.8361 11.2069 0.0000 30.7595 0.0000
# 6 0.0000 0.0000 0.0000 4.7702 0.0000 33.6692
#
#
#
# Elastic Compliance Matrix: (Units=1/GPa)
#
#
# Indices 1 2 3 4 5 6 
#
# 1 0.023583 -0.001309 -0.008188 0.000000 0.003179 0.000000
# 2 -0.001309 0.009311 -0.000552 0.000000 -0.001863 0.000000
# 3 -0.008188 -0.000552 0.015348 0.000000 -0.005436 0.000000
# 4 0.000000 0.000000 0.000000 0.030376 0.000000 -0.004304
# 5 0.003179 -0.001863 -0.005436 0.000000 0.034892 0.000000
# 6 0.000000 0.000000 0.000000 -0.004304 0.000000 0.030310
#
#
# Mechanical properties :
#
#
# Convention : Reuss Voigt Hill
#
# Bulk Modulus (GPa) = 35.53097 38.46737 36.99917
# Shear Modulus (GPa) = 28.85159 32.89288 30.87224
#
# Velocity S-wave (km/s) = 3.62636 3.87202 3.75120
# Velocity P-wave (km/s) = 5.80766 6.12563 5.96877
#
# Compressibility (1/GPa) = 0.02814446
#
# Stress axis : x y z
#
# Youngs Moduli (GPa) = 42.40296 107.39805 65.15555
#
# Poissons Ratio (x) = 0.14055 0.53350
# Poissons Ratio (y) = 0.05549 0.03598
# Poissons Ratio (z) = 0.34720 0.05930
#
# Static dielectric constant tensor:
#      x y z
#    x 3.592140 0.000000 0.081480 
#    y 0.000000 4.230390 0.000000 
#    z 0.081480 0.000000 3.841640 
# 
# 
# High freq. dielectric constant tensor:
#      x y z
#    x 1.825670 0.000000 0.013240 
#    y 0.000000 1.888570 0.000000 
#    z 0.013240 0.000000 1.848470 
# 
# From -- ./inp_files/7798.got.cif
#   From: 2010.03.12/outbox.cif.g09.slc.cpg/sg4_4_cif.got.tgz:7798.got - 2010.03.31 09:31:35.
