data_PCOD8046382
_publ_section_title
;
Structure prediction by ZEFSAII (Michael W. Deem and Ramdas Pophale) SiO2 
 PCOD8046382
Probable space group: P 21
;
_chemical_formula_sum "Si O2"
_cell_formula_units_Z 16
_cell_length_a 8.997061
_cell_length_b 12.851134
_cell_length_c 9.573756
_cell_angle_alpha 90.000000
_cell_angle_beta 133.973321
_cell_angle_gamma 90.000000
_cell_volume 796.624677
_symmetry_space_group_name_H-M "P 21"
_symmetry_group_IT_number 4
_symmetry_cell_setting 'monoclinic'
loop_
_space_group_symop_operation_xyz
x,y,z
-x,1/2+y,-z
loop_
_atom_site_type_symbol
_atom_site_label
_atom_site_fract_x
_atom_site_fract_y
_atom_site_fract_z
Si Si1 0.695698 0.353100 0.890923
Si Si2 0.750629 0.857950 0.499666
Si Si3 0.123186 0.265759 0.131680
Si Si4 0.209179 0.406074 0.948549
Si Si5 0.330013 0.921233 0.820262
Si Si6 0.037664 0.795022 0.454808
Si Si7 0.030025 0.565613 0.335432
Si Si8 0.930721 0.544497 0.956923
O O1 0.479695 0.321544 0.683201
O O2 0.743043 0.467666 0.864012
O O3 0.687200 0.350170 0.052796
O O4 0.874411 0.276156 0.954128
O O5 0.798054 0.836104 0.691207
O O6 0.897253 0.786294 0.500994
O O7 0.798576 0.980529 0.503546
O O8 0.236289 0.306364 0.066450
O O9 0.172809 0.144771 0.183183
O O10 0.431370 0.450818 0.047385
O O11 0.077587 0.368998 0.730488
O O12 0.096263 0.497863 0.957908
O O13 0.250291 0.852669 0.636925
O O14 0.193723 0.025918 0.753822
O O15 0.084108 0.678655 0.432118
O O16 0.037559 0.575467 0.172907
#
# Coordination Sequence:
#
# PCOD8046382 Si02
#       8
#     2   2   2   2   2   2   2   2
#     4  10  21  43  64  86 130 167 198 256 315 361
#     4  11  22  42  65  92 125 165 207 253 312 365
#     4  11  22  42  64  90 129 164 203 257 309 367
#     4  11  22  40  65  93 124 160 210 255 302 370
#     4  10  22  42  64  91 124 163 207 257 305 366
#     4  11  22  40  67  93 121 165 210 252 303 373
#     4  10  21  43  63  91 130 161 202 258 314 364
#     4  10  22  42  62  92 131 163 199 260 312 362
#
# _framework density 20.084741999999999
#
# number of rings (size 3 to 8) (size 9 to 14) (size 15 to 20)
#    0.000    1.500    7.500    0.000    0.000    6.000 
#    2.250    0.000    0.000    0.000    0.000    0.000 
#    0.000    0.000    0.000    0.000    0.000    0.000 
#
# Total GULP energy -198375.876002 kJ/mol
# GULP energy per Si atom -12398.492250 kJ/mol
# Density = 2.003903 g / cm^3
# Si number density = 20.084742 Si / 1000 Ang^3
#
#
#
# Elastic Constant Matrix: (Units=GPa)
#
#
# Indices 1 2 3 4 5 6 
#
# 1 69.9450 7.4667 31.5476 0.0000 -9.3340 0.0000
# 2 7.4667 96.2149 21.7952 0.0000 -7.4881 0.0000
# 3 31.5476 21.7952 94.3557 0.0000 4.4562 0.0000
# 4 0.0000 0.0000 0.0000 23.3303 0.0000 -9.4852
# 5 -9.3340 -7.4881 4.4562 0.0000 25.2155 0.0000
# 6 0.0000 0.0000 0.0000 -9.4852 0.0000 17.3027
#
#
#
# Elastic Compliance Matrix: (Units=1/GPa)
#
#
# Indices 1 2 3 4 5 6 
#
# 1 0.018324 0.000728 -0.006681 0.000000 0.008180 0.000000
# 2 0.000728 0.011357 -0.003064 0.000000 0.004184 0.000000
# 3 -0.006681 -0.003064 0.013815 0.000000 -0.005825 0.000000
# 4 0.000000 0.000000 0.000000 0.055155 0.000000 0.030236
# 5 0.008180 0.004184 -0.005825 0.000000 0.044958 0.000000
# 6 0.000000 0.000000 0.000000 0.030236 0.000000 0.074370
#
#
# Mechanical properties :
#
#
# Convention : Reuss Voigt Hill
#
# Bulk Modulus (GPa) = 39.27572 42.45941 40.86757
# Shear Modulus (GPa) = 20.44986 26.48343 23.46664
#
# Velocity S-wave (km/s) = 3.19435 3.63517 3.42187
# Velocity P-wave (km/s) = 5.76217 6.22939 6.00033
#
# Compressibility (1/GPa) = 0.02546102
#
# Stress axis : x y z
#
# Youngs Moduli (GPa) = 54.57243 88.05431 72.38546
#
# Poissons Ratio (x) = -0.06411 0.48362
# Poissons Ratio (y) = -0.03973 0.22181
# Poissons Ratio (z) = 0.36461 0.26982
#
# Static dielectric constant tensor:
#      x y z
#    x 3.735600 0.000000 -0.115910 
#    y 0.000000 3.508870 0.000000 
#    z -0.115910 0.000000 3.672240 
# 
# 
# High freq. dielectric constant tensor:
#      x y z
#    x 1.786760 0.000000 -0.012910 
#    y 0.000000 1.771270 0.000000 
#    z -0.012910 0.000000 1.782880 
# 
# From -- ./inp_files/6466.got.cif
#   From: 2010.03.12/outbox.cif.g09.slc.cpg/sg4_4_cif.got.tgz:6466.got - 2010.03.31 09:31:35.
