data_PCOD8046147
_publ_section_title
;
Structure prediction by ZEFSAII (Michael W. Deem and Ramdas Pophale) SiO2 
 PCOD8046147
Probable space group: P 21
;
_chemical_formula_sum "Si O2"
_cell_formula_units_Z 14
_cell_length_a 16.868204
_cell_length_b 4.828745
_cell_length_c 10.755075
_cell_angle_alpha 90.000000
_cell_angle_beta 41.614458
_cell_angle_gamma 90.000000
_cell_volume 581.781326
_symmetry_space_group_name_H-M "P 21"
_symmetry_group_IT_number 4
_symmetry_cell_setting 'monoclinic'
loop_
_space_group_symop_operation_xyz
x,y,z
-x,1/2+y,-z
loop_
_atom_site_type_symbol
_atom_site_label
_atom_site_fract_x
_atom_site_fract_y
_atom_site_fract_z
Si Si1 0.866673 0.034370 0.919266
Si Si2 0.662531 0.778391 0.787059
Si Si3 0.553778 0.276975 0.783613
Si Si4 0.459292 0.718622 0.494014
Si Si5 0.762372 0.534786 0.169310
Si Si6 0.915847 0.796090 0.606135
Si Si7 0.948622 0.396728 0.123065
O O1 0.007236 0.983839 0.791056
O O2 0.851133 0.947526 0.796372
O O3 0.831404 0.351667 0.983475
O O4 0.783120 0.851351 0.107815
O O5 0.644650 0.081256 0.751487
O O6 0.609289 0.577581 0.743341
O O7 0.804354 0.731956 0.644872
O O8 0.582446 0.744685 0.006434
O O9 0.552340 0.208013 0.639755
O O10 0.570378 0.917384 0.409489
O O11 0.373545 0.943914 0.666892
O O12 0.811661 0.469959 0.251956
O O13 0.984604 0.512191 0.563724
O O14 0.972322 0.073454 0.070181
#
# Coordination Sequence:
#
# PCOD8046147 Si02
#       7
#     2   2   2   2   2   2   2
#     4  10  21  40  61  89 123 167 206 262 321 398
#     4  10  23  44  72  93 135 183 232 273 338 404
#     4  10  23  46  68 100 129 183 231 279 331 406
#     4  12  26  41  64 104 136 163 221 283 345 393
#     4  10  21  37  61  89 122 172 200 252 336 390
#     4  12  26  42  64 102 132 169 226 286 348 386
#     4   8  16  32  54  81 113 151 204 231 291 387
#
# _framework density 24.064025000000001
#
# number of rings (size 3 to 8) (size 9 to 14) (size 15 to 20)
#    0.000    1.714    0.000    3.429    4.000    2.286 
#    0.000    5.714    0.000    0.000    0.000    0.000 
#    0.000    0.000    0.000    0.000    0.000    0.000 
#
# Total GULP energy -173438.529649 kJ/mol
# GULP energy per Si atom -12388.466403 kJ/mol
# Density = 2.400925 g / cm^3
# Si number density = 24.064025 Si / 1000 Ang^3
#
#
#
# Elastic Constant Matrix: (Units=GPa)
#
#
# Indices 1 2 3 4 5 6 
#
# 1 92.5010 -3.9521 25.7780 0.0000 -5.9842 0.0000
# 2 -3.9521 70.5705 -12.8383 0.0000 -4.3622 0.0000
# 3 25.7780 -12.8383 54.3032 0.0000 3.7685 0.0000
# 4 0.0000 0.0000 0.0000 23.6918 0.0000 -2.2322
# 5 -5.9842 -4.3622 3.7685 0.0000 41.8431 0.0000
# 6 0.0000 0.0000 0.0000 -2.2322 0.0000 26.2854
#
#
#
# Elastic Compliance Matrix: (Units=1/GPa)
#
#
# Indices 1 2 3 4 5 6 
#
# 1 0.012694 -0.000282 -0.006256 0.000000 0.002349 0.000000
# 2 -0.000282 0.014877 0.003569 0.000000 0.001189 0.000000
# 3 -0.006256 0.003569 0.022405 0.000000 -0.002540 0.000000
# 4 0.000000 0.000000 0.000000 0.042549 0.000000 0.003613
# 5 0.002349 0.001189 -0.002540 0.000000 0.024588 0.000000
# 6 0.000000 0.000000 0.000000 0.003613 0.000000 0.038351
#
#
# Mechanical properties :
#
#
# Convention : Reuss Voigt Hill
#
# Bulk Modulus (GPa) = 22.70774 26.14998 24.42886
# Shear Modulus (GPa) = 28.39615 32.25656 30.32635
#
# Velocity S-wave (km/s) = 3.43888 3.66518 3.55383
# Velocity P-wave (km/s) = 5.02242 5.36674 5.19743
#
# Compressibility (1/GPa) = 0.04403785
#
# Stress axis : x y z
#
# Youngs Moduli (GPa) = 78.77779 67.21719 44.63361
#
# Poissons Ratio (x) = 0.01895 0.27921
# Poissons Ratio (y) = 0.02221 -0.15928
# Poissons Ratio (z) = 0.49280 -0.23987
#
# Static dielectric constant tensor:
#      x y z
#    x 4.550050 0.000000 -0.264390 
#    y 0.000000 4.478350 0.000000 
#    z -0.264390 0.000000 3.905020 
# 
# 
# High freq. dielectric constant tensor:
#      x y z
#    x 1.961900 0.000000 -0.014730 
#    y 0.000000 1.980530 0.000000 
#    z -0.014730 0.000000 1.922100 
# 
# From -- ./inp_files/7185.got.cif
#   From: 2010.03.12/outbox.cif.g09.slc.cpg/sg4_4_cif.got.tgz:7185.got - 2010.03.31 09:31:35.
