data_PCOD8046575
_publ_section_title
;
Structure prediction by ZEFSAII (Michael W. Deem and Ramdas Pophale) SiO2 
 PCOD8046575
Probable space group: P 21
;
_chemical_formula_sum "Si O2"
_cell_formula_units_Z 12
_cell_length_a 5.250014
_cell_length_b 8.703848
_cell_length_c 15.497065
_cell_angle_alpha 90.000000
_cell_angle_beta 126.805639
_cell_angle_gamma 90.000000
_cell_volume 566.990887
_symmetry_space_group_name_H-M "P 21"
_symmetry_group_IT_number 4
_symmetry_cell_setting 'monoclinic'
loop_
_space_group_symop_operation_xyz
x,y,z
-x,1/2+y,-z
loop_
_atom_site_type_symbol
_atom_site_label
_atom_site_fract_x
_atom_site_fract_y
_atom_site_fract_z
Si Si1 0.655478 0.227860 0.949938
Si Si2 0.856865 0.033958 0.400726
Si Si3 0.216733 0.065072 0.979082
Si Si4 0.935708 0.587319 0.237974
Si Si5 0.669910 0.365343 0.621273
Si Si6 0.030632 0.370672 0.411268
O O1 0.670148 0.410983 0.951826
O O2 0.405303 0.174814 0.825202
O O3 0.527206 0.167112 0.017058
O O4 0.003126 0.159815 0.002693
O O5 0.828042 0.216298 0.383985
O O6 0.500248 0.962986 0.336482
O O7 0.050033 0.992289 0.528378
O O8 0.034230 0.960985 0.355027
O O9 0.016731 0.027801 0.850814
O O10 0.218065 0.702632 0.319512
O O11 0.937714 0.441361 0.300877
O O12 0.408885 0.329940 0.493125
#
# Coordination Sequence:
#
# PCOD8046575 Si02
#       6
#     2   2   2   2   2   2
#     4  10  23  44  72  96 127 170 212 281 333 394
#     4  10  23  37  62  90 136 175 219 262 316 368
#     4  10  23  45  70  96 130 167 217 277 341 380
#     4  10  24  43  70  93 133 173 222 262 332 387
#     4  10  23  40  63  93 134 176 216 266 312 383
#     4  10  22  41  65  94 136 179 218 266 314 384
#
# _framework density 21.164362000000001
#
# number of rings (size 3 to 8) (size 9 to 14) (size 15 to 20)
#    2.000    0.000    0.000    3.000    4.667    1.333 
#    3.000    0.000    0.000    0.000    0.000    0.000 
#    0.000    0.000    0.000    0.000    0.000    0.000 
#
# Total GULP energy -148719.209334 kJ/mol
# GULP energy per Si atom -12393.267445 kJ/mol
# Density = 2.111619 g / cm^3
# Si number density = 21.164362 Si / 1000 Ang^3
#
#
#
# Elastic Constant Matrix: (Units=GPa)
#
#
# Indices 1 2 3 4 5 6 
#
# 1 149.2370 30.1937 1.2930 0.0000 -2.3574 0.0000
# 2 30.1937 91.4708 3.6203 0.0000 0.4912 0.0000
# 3 1.2930 3.6203 42.1722 0.0000 0.4178 0.0000
# 4 0.0000 0.0000 0.0000 41.7225 0.0000 -0.8348
# 5 -2.3574 0.4912 0.4178 0.0000 11.1400 0.0000
# 6 0.0000 0.0000 0.0000 -0.8348 0.0000 39.6627
#
#
#
# Elastic Compliance Matrix: (Units=1/GPa)
#
#
# Indices 1 2 3 4 5 6 
#
# 1 0.007210 -0.002387 -0.000032 0.000000 0.001632 0.000000
# 2 -0.002387 0.011763 -0.000927 0.000000 -0.000989 0.000000
# 3 -0.000032 -0.000927 0.023801 0.000000 -0.000859 0.000000
# 4 0.000000 0.000000 0.000000 0.023978 0.000000 0.000505
# 5 0.001632 -0.000989 -0.000859 0.000000 0.090188 0.000000
# 6 0.000000 0.000000 0.000000 0.000505 0.000000 0.025223
#
#
# Mechanical properties :
#
#
# Convention : Reuss Voigt Hill
#
# Bulk Modulus (GPa) = 27.71556 39.23269 33.47412
# Shear Modulus (GPa) = 24.89012 35.02321 29.95666
#
# Velocity S-wave (km/s) = 3.43306 4.07236 3.76630
# Velocity P-wave (km/s) = 5.37014 6.37884 5.89610
#
# Compressibility (1/GPa) = 0.03608081
#
# Stress axis : x y z
#
# Youngs Moduli (GPa) = 138.69945 85.01591 42.01439
#
# Poissons Ratio (x) = 0.20297 0.00136
# Poissons Ratio (y) = 0.33113 0.03894
# Poissons Ratio (z) = 0.00448 0.07879
#
# Static dielectric constant tensor:
#      x y z
#    x 3.770290 0.000000 -0.011850 
#    y 0.000000 3.589360 0.000000 
#    z -0.011850 0.000000 3.402500 
# 
# 
# High freq. dielectric constant tensor:
#      x y z
#    x 1.832550 0.000000 -0.002140 
#    y 0.000000 1.829310 0.000000 
#    z -0.002140 0.000000 1.791940 
# 
# From -- ./inp_files/13299.got.cif
#   From: 2010.03.12/outbox.cif.g09.slc.cpg/sg4_7_cif.got.tgz:13299.got - 2010.03.31 09:31:35.
