data_PCOD8046380
_publ_section_title
;
Structure prediction by ZEFSAII (Michael W. Deem and Ramdas Pophale) SiO2 
 PCOD8046380
Probable space group: P 21
;
_chemical_formula_sum "Si O2"
_cell_formula_units_Z 14
_cell_length_a 9.324742
_cell_length_b 9.701509
_cell_length_c 13.126750
_cell_angle_alpha 90.000000
_cell_angle_beta 146.150122
_cell_angle_gamma 90.000000
_cell_volume 661.459392
_symmetry_space_group_name_H-M "P 21"
_symmetry_group_IT_number 4
_symmetry_cell_setting 'monoclinic'
loop_
_space_group_symop_operation_xyz
x,y,z
-x,1/2+y,-z
loop_
_atom_site_type_symbol
_atom_site_label
_atom_site_fract_x
_atom_site_fract_y
_atom_site_fract_z
Si Si1 0.126380 0.069840 0.090982
Si Si2 0.159827 0.258869 0.533012
Si Si3 0.790222 0.441091 0.438372
Si Si4 0.746304 0.206647 0.136135
Si Si5 0.046682 0.957021 0.248523
Si Si6 0.364073 0.273029 0.083689
Si Si7 0.727181 0.291092 0.901283
O O1 0.340362 0.156309 0.156681
O O2 0.090550 0.921947 0.015067
O O3 0.206965 0.041937 0.256862
O O4 0.856484 0.152098 0.934025
O O5 0.450447 0.309578 0.683853
O O6 0.029436 0.346450 0.545723
O O7 0.996878 0.280159 0.333567
O O8 0.156943 0.098153 0.563496
O O9 0.525453 0.397508 0.228266
O O10 0.764802 0.422044 0.546232
O O11 0.506447 0.207879 0.070907
O O12 0.809205 0.047205 0.151645
O O13 0.677727 0.286483 0.992824
O O14 0.917416 0.823867 0.118723
#
# Coordination Sequence:
#
# PCOD8046380 Si02
#       7
#     2   2   2   2   2   2   2
#     4  11  24  42  65  90 129 170 213 254 323 376
#     4  10  22  40  66  95 128 162 208 266 311 372
#     4  10  22  41  66  96 127 162 212 263 318 370
#     4   9  22  39  66  93 123 158 216 259 319 369
#     4  10  21  43  59  93 126 167 207 259 313 380
#     4  11  22  40  65  94 124 167 211 266 309 378
#     4  11  23  45  63  91 129 172 205 267 313 379
#
# _framework density 21.165319
#
# number of rings (size 3 to 8) (size 9 to 14) (size 15 to 20)
#    0.000    1.714    1.429    2.571    8.000    0.000 
#   10.286    1.429    0.000    0.000    0.000    0.000 
#    0.000    0.000    0.000    0.000    0.000    0.000 
#
# Total GULP energy -173583.977270 kJ/mol
# GULP energy per Si atom -12398.855519 kJ/mol
# Density = 2.111715 g / cm^3
# Si number density = 21.165319 Si / 1000 Ang^3
#
#
#
# Elastic Constant Matrix: (Units=GPa)
#
#
# Indices 1 2 3 4 5 6 
#
# 1 131.8598 44.2542 26.0764 0.0000 -15.1741 0.0000
# 2 44.2542 101.1705 13.5061 0.0000 -8.2519 0.0000
# 3 26.0764 13.5061 63.6957 0.0000 -2.0824 0.0000
# 4 0.0000 0.0000 0.0000 22.5825 0.0000 -3.0895
# 5 -15.1741 -8.2519 -2.0824 0.0000 27.7160 0.0000
# 6 0.0000 0.0000 0.0000 -3.0895 0.0000 44.1787
#
#
#
# Elastic Compliance Matrix: (Units=1/GPa)
#
#
# Indices 1 2 3 4 5 6 
#
# 1 0.009876 -0.003564 -0.003153 0.000000 0.004109 0.000000
# 2 -0.003564 0.011692 -0.000972 0.000000 0.001457 0.000000
# 3 -0.003153 -0.000972 0.017173 0.000000 -0.000726 0.000000
# 4 0.000000 0.000000 0.000000 0.044710 0.000000 0.003127
# 5 0.004109 0.001457 -0.000726 0.000000 0.038709 0.000000
# 6 0.000000 0.000000 0.000000 0.003127 0.000000 0.022854
#
#
# Mechanical properties :
#
#
# Convention : Reuss Voigt Hill
#
# Bulk Modulus (GPa) = 42.80477 51.59993 47.20235
# Shear Modulus (GPa) = 29.72983 33.08805 31.40894
#
# Velocity S-wave (km/s) = 3.75193 3.95817 3.85643
# Velocity P-wave (km/s) = 6.24798 6.73215 6.49458
#
# Compressibility (1/GPa) = 0.02336188
#
# Stress axis : x y z
#
# Youngs Moduli (GPa) = 101.25126 85.52904 58.23078
#
# Poissons Ratio (x) = 0.30483 0.18362
# Poissons Ratio (y) = 0.36086 0.05663
# Poissons Ratio (z) = 0.31927 0.08317
#
# Static dielectric constant tensor:
#      x y z
#    x 3.935040 0.000000 -0.242890 
#    y 0.000000 3.834770 0.000000 
#    z -0.242890 0.000000 3.707850 
# 
# 
# High freq. dielectric constant tensor:
#      x y z
#    x 1.834590 0.000000 -0.014080 
#    y 0.000000 1.829260 0.000000 
#    z -0.014080 0.000000 1.812800 
# 
# From -- ./inp_files/5547.got.cif
#   From: 2010.03.12/outbox.cif.g09.slc.cpg/sg4_3_cif.got.tgz:5547.got - 2010.03.31 09:31:35.
