data_PCOD8046046
_publ_section_title
;
Structure prediction by ZEFSAII (Michael W. Deem and Ramdas Pophale) SiO2 
 PCOD8046046
Probable space group: P 21
;
_chemical_formula_sum "Si O2"
_cell_formula_units_Z 10
_cell_length_a 13.798271
_cell_length_b 4.803435
_cell_length_c 8.262369
_cell_angle_alpha 90.000000
_cell_angle_beta 54.362319
_cell_angle_gamma 90.000000
_cell_volume 445.062414
_symmetry_space_group_name_H-M "P 21"
_symmetry_group_IT_number 4
_symmetry_cell_setting 'monoclinic'
loop_
_space_group_symop_operation_xyz
x,y,z
-x,1/2+y,-z
loop_
_atom_site_type_symbol
_atom_site_label
_atom_site_fract_x
_atom_site_fract_y
_atom_site_fract_z
Si Si1 0.122128 0.728080 0.063450
Si Si2 0.747289 0.945579 0.558121
Si Si3 0.505283 0.518492 0.106243
Si Si4 0.754849 0.734794 0.914368
Si Si5 0.874067 0.456191 0.300444
O O1 0.225455 0.500039 0.988954
O O2 0.999432 0.582447 0.237560
O O3 0.146124 0.998622 0.149166
O O4 0.115995 0.821724 0.884741
O O5 0.608980 0.028481 0.663248
O O6 0.831292 0.215514 0.463784
O O7 0.765183 0.817097 0.717804
O O8 0.780718 0.711921 0.392742
O O9 0.525077 0.206904 0.021216
O O10 0.623325 0.617997 0.084809
#
# Coordination Sequence:
#
# PCOD8046046 Si02
#       5
#     2   2   2   2   2
#     4  12  25  44  65  91 132 175 209 257 326 379
#     4  11  23  42  70  98 124 165 218 263 309 378
#     4  10  20  40  66  96 132 164 200 262 332 370
#     4  11  23  42  70  98 124 165 218 263 309 378
#     4  12  25  44  65  91 132 175 209 257 326 379
#
# _framework density 22.468758999999999
#
# number of rings (size 3 to 8) (size 9 to 14) (size 15 to 20)
#    0.000    0.800    0.000   10.800    0.000    3.200 
#    0.000    8.000    0.000    4.800    0.000    0.000 
#    0.000    0.000    0.000    0.000    0.000    0.000 
#
# Total GULP energy -124027.852644 kJ/mol
# GULP energy per Si atom -12402.785264 kJ/mol
# Density = 2.241762 g / cm^3
# Si number density = 22.468759 Si / 1000 Ang^3
#
#
#
# Elastic Constant Matrix: (Units=GPa)
#
#
# Indices 1 2 3 4 5 6 
#
# 1 58.2135 20.5343 34.0316 0.0000 -10.8555 0.0000
# 2 20.5343 123.5463 35.3735 0.0000 -7.6480 0.0000
# 3 34.0316 35.3735 96.4975 0.0000 -23.4470 0.0000
# 4 0.0000 0.0000 0.0000 54.3146 0.0000 0.0815
# 5 -10.8555 -7.6480 -23.4470 0.0000 17.5618 0.0000
# 6 0.0000 0.0000 0.0000 0.0815 0.0000 51.2782
#
#
#
# Elastic Compliance Matrix: (Units=1/GPa)
#
#
# Indices 1 2 3 4 5 6 
#
# 1 0.022208 -0.001661 -0.006014 0.000000 0.004974 0.000000
# 2 -0.001661 0.009174 -0.003043 0.000000 -0.001094 0.000000
# 3 -0.006014 -0.003043 0.018316 0.000000 0.019411 0.000000
# 4 0.000000 0.000000 0.000000 0.018411 0.000000 -0.000029
# 5 0.004974 -0.001094 0.019411 0.000000 0.085456 0.000000
# 6 0.000000 0.000000 0.000000 -0.000029 0.000000 0.019501
#
#
# Mechanical properties :
#
#
# Convention : Reuss Voigt Hill
#
# Bulk Modulus (GPa) = 35.38520 50.90400 43.14460
# Shear Modulus (GPa) = 24.51907 37.18547 30.85227
#
# Velocity S-wave (km/s) = 3.30699 4.07256 3.70958
# Velocity P-wave (km/s) = 5.51039 6.69470 6.13121
#
# Compressibility (1/GPa) = 0.02826040
#
# Stress axis : x y z
#
# Youngs Moduli (GPa) = 45.02951 109.00702 54.59698
#
# Poissons Ratio (x) = 0.18107 0.32837
# Poissons Ratio (y) = 0.07480 0.16613
# Poissons Ratio (z) = 0.27083 0.33170
#
# Static dielectric constant tensor:
#      x y z
#    x 3.963110 0.000000 -0.359090 
#    y 0.000000 4.546180 0.000000 
#    z -0.359090 0.000000 3.995250 
# 
# 
# High freq. dielectric constant tensor:
#      x y z
#    x 1.868830 0.000000 -0.024110 
#    y 0.000000 1.921300 0.000000 
#    z -0.024110 0.000000 1.872040 
# 
# From -- ./inp_files/7015.got.cif
#   From: 2010.03.12/outbox.cif.g09.slc.cpg/sg4_4_cif.got.tgz:7015.got - 2010.03.31 09:31:35.
