data_PCOD8046198
_publ_section_title
;
Structure prediction by ZEFSAII (Michael W. Deem and Ramdas Pophale) SiO2 
 PCOD8046198
Probable space group: P 21
;
_chemical_formula_sum "Si O2"
_cell_formula_units_Z 16
_cell_length_a 15.508123
_cell_length_b 5.213430
_cell_length_c 12.353533
_cell_angle_alpha 90.000000
_cell_angle_beta 136.662455
_cell_angle_gamma 90.000000
_cell_volume 685.464336
_symmetry_space_group_name_H-M "P 21"
_symmetry_group_IT_number 4
_symmetry_cell_setting 'monoclinic'
loop_
_space_group_symop_operation_xyz
x,y,z
-x,1/2+y,-z
loop_
_atom_site_type_symbol
_atom_site_label
_atom_site_fract_x
_atom_site_fract_y
_atom_site_fract_z
Si Si1 0.922014 0.981250 0.405199
Si Si2 0.778656 0.303995 0.120355
Si Si3 0.591190 0.837075 0.701493
Si Si4 0.313751 0.199714 0.797184
Si Si5 0.039609 0.941336 0.894857
Si Si6 0.097298 0.937916 0.200221
Si Si7 0.540220 0.991237 0.887939
Si Si8 0.656238 0.341096 0.661416
O O1 0.791354 0.896939 0.347761
O O2 0.013224 0.730702 0.479218
O O3 0.870573 0.067431 0.239590
O O4 0.770037 0.493643 0.214752
O O5 0.838986 0.432017 0.070517
O O6 0.637546 0.223397 0.961099
O O7 0.540894 0.830872 0.777988
O O8 0.679347 0.082276 0.753259
O O9 0.479488 0.834044 0.514327
O O10 0.671774 0.580715 0.757760
O O11 0.396767 0.084308 0.775545
O O12 0.416376 0.323521 0.970784
O O13 0.976202 0.210651 0.807466
O O14 0.942864 0.707045 0.783446
O O15 0.078865 0.925221 0.054437
O O16 0.245410 0.879211 0.347510
#
# Coordination Sequence:
#
# PCOD8046198 Si02
#       8
#     2   2   2   2   2   2   2   2
#     4  11  24  47  70  94 133 183 227 281 349 409
#     4  11  24  43  70  98 135 177 230 284 339 414
#     4  10  23  39  68  94 131 174 223 266 347 402
#     4  11  24  43  69 105 143 176 237 295 338 413
#     4  10  23  37  62  94 124 169 216 265 337 389
#     4  10  21  39  61  92 132 163 212 276 323 396
#     4  11  24  41  69 106 137 182 232 293 348 402
#     4  10  21  43  63  95 131 172 219 278 327 417
#
# _framework density 23.341843000000001
#
# number of rings (size 3 to 8) (size 9 to 14) (size 15 to 20)
#    0.000    1.500    2.500    1.500    7.000    1.000 
#    2.250    1.250    5.500    0.000    0.000    0.000 
#    0.000    0.000    0.000    0.000    0.000    0.000 
#
# Total GULP energy -198307.585711 kJ/mol
# GULP energy per Si atom -12394.224107 kJ/mol
# Density = 2.328872 g / cm^3
# Si number density = 23.341843 Si / 1000 Ang^3
#
#
#
# Elastic Constant Matrix: (Units=GPa)
#
#
# Indices 1 2 3 4 5 6 
#
# 1 130.8363 34.4854 21.3987 0.0000 9.6946 0.0000
# 2 34.4854 127.9988 30.2305 0.0000 12.1070 0.0000
# 3 21.3987 30.2305 37.4234 0.0000 10.6255 0.0000
# 4 0.0000 0.0000 0.0000 26.5348 0.0000 5.1567
# 5 9.6946 12.1070 10.6255 0.0000 22.8671 0.0000
# 6 0.0000 0.0000 0.0000 5.1567 0.0000 43.6623
#
#
#
# Elastic Compliance Matrix: (Units=1/GPa)
#
#
# Indices 1 2 3 4 5 6 
#
# 1 0.008675 -0.001395 -0.003455 0.000000 -0.001334 0.000000
# 2 -0.001395 0.009938 -0.006801 0.000000 -0.001510 0.000000
# 3 -0.003455 -0.006801 0.037730 0.000000 -0.012466 0.000000
# 4 0.000000 0.000000 0.000000 0.038572 0.000000 -0.004556
# 5 -0.001334 -0.001510 -0.012466 0.000000 0.050889 0.000000
# 6 0.000000 0.000000 0.000000 -0.004556 0.000000 0.023441
#
#
# Mechanical properties :
#
#
# Convention : Reuss Voigt Hill
#
# Bulk Modulus (GPa) = 30.26566 52.05419 41.15993
# Shear Modulus (GPa) = 24.56295 32.62242 28.59269
#
# Velocity S-wave (km/s) = 3.24746 3.74250 3.50373
# Velocity P-wave (km/s) = 5.20151 6.40502 5.83438
#
# Compressibility (1/GPa) = 0.03304074
#
# Stress axis : x y z
#
# Youngs Moduli (GPa) = 115.27794 100.62876 26.50408
#
# Poissons Ratio (x) = 0.14039 0.09156
# Poissons Ratio (y) = 0.16082 0.18026
# Poissons Ratio (z) = 0.39823 0.68439
#
# Static dielectric constant tensor:
#      x y z
#    x 4.108690 0.000000 0.283060 
#    y 0.000000 4.667240 0.000000 
#    z 0.283060 0.000000 3.928380 
# 
# 
# High freq. dielectric constant tensor:
#      x y z
#    x 1.919370 0.000000 0.023030 
#    y 0.000000 1.937910 0.000000 
#    z 0.023030 0.000000 1.898750 
# 
# From -- ./inp_files/12499.got.cif
#   From: 2010.03.12/outbox.cif.g09.slc.cpg/sg4_7_cif.got.tgz:12499.got - 2010.03.31 09:31:35.
