data_PCOD8046859
_publ_section_title
;
Structure prediction by ZEFSAII (Michael W. Deem and Ramdas Pophale) SiO2 
 PCOD8046859
Probable space group: P 21
;
_chemical_formula_sum "Si O2"
_cell_formula_units_Z 14
_cell_length_a 9.407416
_cell_length_b 7.728593
_cell_length_c 13.542846
_cell_angle_alpha 90.000000
_cell_angle_beta 32.896304
_cell_angle_gamma 90.000000
_cell_volume 534.781964
_symmetry_space_group_name_H-M "P 21"
_symmetry_group_IT_number 4
_symmetry_cell_setting 'monoclinic'
loop_
_space_group_symop_operation_xyz
x,y,z
-x,1/2+y,-z
loop_
_atom_site_type_symbol
_atom_site_label
_atom_site_fract_x
_atom_site_fract_y
_atom_site_fract_z
Si Si1 0.004654 0.712760 0.202998
Si Si2 0.142058 0.007425 0.880701
Si Si3 0.719866 0.006013 0.458414
Si Si4 0.186646 0.923918 0.318429
Si Si5 0.067690 0.195544 0.113581
Si Si6 0.936740 0.034321 0.645412
Si Si7 0.420368 0.242029 0.086137
O O1 0.961595 0.545553 0.300303
O O2 0.023831 0.658176 0.078085
O O3 0.760178 0.838804 0.365070
O O4 0.275700 0.802262 0.084048
O O5 0.428759 0.028271 0.666049
O O6 0.133325 0.027067 0.005059
O O7 0.005606 0.831328 0.927921
O O8 0.900225 0.984756 0.449254
O O9 0.826216 0.165461 0.329679
O O10 0.210853 0.715241 0.296977
O O11 0.404280 0.040935 0.133662
O O12 0.187801 0.986986 0.431830
O O13 0.323826 0.247932 0.027755
O O14 0.736929 0.873668 0.752751
#
# Coordination Sequence:
#
# PCOD8046859 Si02
#       7
#     2   2   2   2   2   2   2
#     4  11  26  46  75 108 145 194 260 311 381 453
#     4  12  25  49  74 106 145 204 248 306 379 463
#     4  10  25  47  72 104 148 194 247 312 365 452
#     4  10  23  42  71 114 146 202 249 312 387 450
#     4  11  26  46  76 107 147 199 249 307 386 441
#     4  11  22  42  72 108 153 193 248 312 385 442
#     4  11  25  48  72 113 156 192 257 328 369 453
#
# _framework density 26.178895000000001
#
# number of rings (size 3 to 8) (size 9 to 14) (size 15 to 20)
#    0.000    1.143    2.857    1.714    8.000    1.143 
#    2.571    0.000    0.000    0.000    0.000    0.000 
#    0.000    0.000    0.000    0.000    0.000    0.000 
#
# Total GULP energy -173480.726369 kJ/mol
# GULP energy per Si atom -12391.480455 kJ/mol
# Density = 2.611931 g / cm^3
# Si number density = 26.178895 Si / 1000 Ang^3
#
#
#
# Elastic Constant Matrix: (Units=GPa)
#
#
# Indices 1 2 3 4 5 6 
#
# 1 99.4996 18.7786 43.0408 0.0000 8.9530 0.0000
# 2 18.7786 105.2671 9.3115 0.0000 -5.9821 0.0000
# 3 43.0408 9.3115 108.9453 0.0000 6.4939 0.0000
# 4 0.0000 0.0000 0.0000 43.9708 0.0000 11.3002
# 5 8.9530 -5.9821 6.4939 0.0000 40.7242 0.0000
# 6 0.0000 0.0000 0.0000 11.3002 0.0000 34.0941
#
#
#
# Elastic Compliance Matrix: (Units=1/GPa)
#
#
# Indices 1 2 3 4 5 6 
#
# 1 0.012664 -0.001976 -0.004695 0.000000 -0.002326 0.000000
# 2 -0.001976 0.009978 -0.000187 0.000000 0.001930 0.000000
# 3 -0.004695 -0.000187 0.011096 0.000000 -0.000765 0.000000
# 4 0.000000 0.000000 0.000000 0.024860 0.000000 -0.008240
# 5 -0.002326 0.001930 -0.000765 0.000000 0.025472 0.000000
# 6 0.000000 0.000000 0.000000 -0.008240 0.000000 0.032061
#
#
# Mechanical properties :
#
#
# Convention : Reuss Voigt Hill
#
# Bulk Modulus (GPa) = 49.94956 50.66378 50.30667
# Shear Modulus (GPa) = 36.62424 39.92990 38.27707
#
# Velocity S-wave (km/s) = 3.74438 3.90971 3.82794
# Velocity P-wave (km/s) = 6.14942 6.30682 6.22862
#
# Compressibility (1/GPa) = 0.02002020
#
# Stress axis : x y z
#
# Youngs Moduli (GPa) = 78.96657 100.21685 90.12637
#
# Poissons Ratio (x) = 0.19802 0.42319
# Poissons Ratio (y) = 0.15603 0.01688
# Poissons Ratio (z) = 0.37079 0.01877
#
# Static dielectric constant tensor:
#      x y z
#    x 4.632790 0.000000 0.346240 
#    y 0.000000 4.862400 0.000000 
#    z 0.346240 0.000000 4.608080 
# 
# 
# High freq. dielectric constant tensor:
#      x y z
#    x 2.029920 0.000000 0.027560 
#    y 0.000000 2.066950 0.000000 
#    z 0.027560 0.000000 2.049350 
# 
# From -- ./inp_files/10988.got.cif
#   From: 2010.03.12/outbox.cif.g09.slc.cpg/sg4_6_cif.got.tgz:10988.got - 2010.03.31 09:31:35.
