data_PCOD8046093
_publ_section_title
;
Structure prediction by ZEFSAII (Michael W. Deem and Ramdas Pophale) SiO2 
 PCOD8046093
Probable space group: P 21
;
_chemical_formula_sum "Si O2"
_cell_formula_units_Z 16
_cell_length_a 9.726930
_cell_length_b 10.100737
_cell_length_c 13.137250
_cell_angle_alpha 90.000000
_cell_angle_beta 146.788589
_cell_angle_gamma 90.000000
_cell_volume 706.967969
_symmetry_space_group_name_H-M "P 21"
_symmetry_group_IT_number 4
_symmetry_cell_setting 'monoclinic'
loop_
_space_group_symop_operation_xyz
x,y,z
-x,1/2+y,-z
loop_
_atom_site_type_symbol
_atom_site_label
_atom_site_fract_x
_atom_site_fract_y
_atom_site_fract_z
Si Si1 0.676486 0.623620 0.122762
Si Si2 0.099860 0.271693 0.370160
Si Si3 0.070384 0.032826 0.213313
Si Si4 0.306697 0.577930 0.197964
Si Si5 0.086527 0.974602 0.893596
Si Si6 0.859219 0.558563 0.455523
Si Si7 0.610388 0.375765 0.735458
Si Si8 0.763736 0.920472 0.190799
O O1 0.848830 0.608781 0.128247
O O2 0.816821 0.567790 0.309446
O O3 0.621422 0.779600 0.106521
O O4 0.421956 0.543383 0.945235
O O5 0.184298 0.161273 0.339765
O O6 0.008670 0.191294 0.414194
O O7 0.313886 0.370834 0.541030
O O8 0.902982 0.363014 0.188624
O O9 0.302888 0.973317 0.298286
O O10 0.966476 0.922819 0.226110
O O11 0.841902 0.068266 0.998439
O O12 0.594672 0.535876 0.353343
O O13 0.278281 0.729894 0.213357
O O14 0.173852 0.487925 0.203850
O O15 0.316086 0.935909 0.109500
O O16 0.064186 0.442337 0.601122
#
# Coordination Sequence:
#
# PCOD8046093 Si02
#       8
#     2   2   2   2   2   2   2   2
#     4  12  28  46  74 102 143 183 242 293 345 427
#     4  10  23  38  68  98 134 182 229 288 350 413
#     4  10  20  43  65  99 134 186 227 289 352 414
#     4  10  20  44  67 101 135 182 227 290 350 417
#     4  11  25  41  68 103 136 181 231 295 340 419
#     4  10  25  45  73  96 139 185 233 286 363 421
#     4  10  22  38  68  96 140 172 233 279 353 415
#     4  11  27  45  73 101 139 187 236 290 357 414
#
# _framework density 22.631858999999999
#
# number of rings (size 3 to 8) (size 9 to 14) (size 15 to 20)
#    0.000    1.500    2.500    0.750   14.000    0.000 
#    0.000    0.000    0.000    0.000    0.000    0.000 
#    0.000    0.000    0.000    0.000    0.000    0.000 
#
# Total GULP energy -198249.546972 kJ/mol
# GULP energy per Si atom -12390.596686 kJ/mol
# Density = 2.258035 g / cm^3
# Si number density = 22.631859 Si / 1000 Ang^3
#
#
#
# Elastic Constant Matrix: (Units=GPa)
#
#
# Indices 1 2 3 4 5 6 
#
# 1 77.5930 24.9592 47.7480 0.0000 -14.7477 0.0000
# 2 24.9592 103.4829 51.5947 0.0000 7.4564 0.0000
# 3 47.7480 51.5947 118.2350 0.0000 -20.9756 0.0000
# 4 0.0000 0.0000 0.0000 35.7088 0.0000 -3.4529
# 5 -14.7477 7.4564 -20.9756 0.0000 20.5614 0.0000
# 6 0.0000 0.0000 0.0000 -3.4529 0.0000 27.5417
#
#
#
# Elastic Compliance Matrix: (Units=1/GPa)
#
#
# Indices 1 2 3 4 5 6 
#
# 1 0.018408 -0.002940 -0.004419 0.000000 0.009761 0.000000
# 2 -0.002940 0.015953 -0.008760 0.000000 -0.016830 0.000000
# 3 -0.004419 -0.008760 0.017175 0.000000 0.017527 0.000000
# 4 0.000000 0.000000 0.000000 0.028348 0.000000 0.003554
# 5 0.009761 -0.016830 0.017527 0.000000 0.079620 0.000000
# 6 0.000000 0.000000 0.000000 0.003554 0.000000 0.036754
#
#
# Mechanical properties :
#
#
# Convention : Reuss Voigt Hill
#
# Bulk Modulus (GPa) = 51.82107 60.87941 56.35024
# Shear Modulus (GPa) = 21.28310 28.42964 24.85637
#
# Velocity S-wave (km/s) = 3.06993 3.54811 3.31764
# Velocity P-wave (km/s) = 5.95928 6.61390 6.29511
#
# Compressibility (1/GPa) = 0.01929717
#
# Stress axis : x y z
#
# Youngs Moduli (GPa) = 54.32360 62.68537 58.22569
#
# Poissons Ratio (x) = 0.18428 0.25733
# Poissons Ratio (y) = 0.15970 0.51005
# Poissons Ratio (z) = 0.24008 0.54912
#
# Static dielectric constant tensor:
#      x y z
#    x 3.988310 0.000000 -0.258370 
#    y 0.000000 4.070400 0.000000 
#    z -0.258370 0.000000 4.265120 
# 
# 
# High freq. dielectric constant tensor:
#      x y z
#    x 1.882740 0.000000 -0.019270 
#    y 0.000000 1.880630 0.000000 
#    z -0.019270 0.000000 1.911700 
# 
# From -- ./inp_files/13974.got.cif
#   From: 2010.03.12/outbox.cif.g09.slc.cpg/sg4_7_cif.got.tgz:13974.got - 2010.03.31 09:31:35.
