data_PCOD8046752
_publ_section_title
;
Structure prediction by ZEFSAII (Michael W. Deem and Ramdas Pophale) SiO2 
 PCOD8046752
Probable space group: P 21
;
_chemical_formula_sum "Si O2"
_cell_formula_units_Z 16
_cell_length_a 6.783484
_cell_length_b 13.348976
_cell_length_c 7.912686
_cell_angle_alpha 90.000000
_cell_angle_beta 75.380499
_cell_angle_gamma 90.000000
_cell_volume 693.315670
_symmetry_space_group_name_H-M "P 21"
_symmetry_group_IT_number 4
_symmetry_cell_setting 'monoclinic'
loop_
_space_group_symop_operation_xyz
x,y,z
-x,1/2+y,-z
loop_
_atom_site_type_symbol
_atom_site_label
_atom_site_fract_x
_atom_site_fract_y
_atom_site_fract_z
Si Si1 0.184564 0.953870 0.686492
Si Si2 0.872852 0.799180 0.603344
Si Si3 0.454553 0.726651 0.196599
Si Si4 0.868066 0.697444 0.947890
Si Si5 0.934116 0.015132 0.252677
Si Si6 0.066836 0.620582 0.390292
Si Si7 0.175832 0.852832 0.033895
Si Si8 0.430118 0.398094 0.576582
O O1 0.385960 0.967149 0.529488
O O2 0.052925 0.868293 0.628353
O O3 0.245516 0.919993 0.861039
O O4 0.059616 0.058637 0.723381
O O5 0.794382 0.734939 0.779521
O O6 0.693023 0.864253 0.563453
O O7 0.961271 0.727890 0.436877
O O8 0.299031 0.638234 0.281873
O O9 0.367948 0.790948 0.058745
O O10 0.491165 0.799453 0.346553
O O11 0.662793 0.672001 0.095475
O O12 0.016043 0.601301 0.894234
O O13 0.990817 0.780285 0.024544
O O14 0.942232 0.055590 0.439366
O O15 0.708695 0.968078 0.270676
O O16 0.097837 0.925782 0.200097
#
# Coordination Sequence:
#
# PCOD8046752 Si02
#       8
#     2   2   2   2   2   2   2   2
#     4  11  24  45  71 105 138 188 234 298 355 422
#     4  10  22  46  69 101 144 174 236 298 349 421
#     4  12  25  45  73 104 141 196 230 290 368 420
#     4  10  25  47  70 101 142 188 230 298 356 423
#     4  11  24  46  70 106 143 182 245 291 347 426
#     4  11  24  45  74 105 140 181 247 295 339 429
#     4  11  25  48  70 101 152 180 232 299 361 424
#     4  12  23  44  77  99 142 193 234 291 363 417
#
# _framework density 23.077511000000001
#
# number of rings (size 3 to 8) (size 9 to 14) (size 15 to 20)
#    0.000    1.000    3.750    2.250    1.750    2.000 
#   11.250    0.000    0.000    0.000    0.000    0.000 
#    0.000    0.000    0.000    0.000    0.000    0.000 
#
# Total GULP energy -198456.884486 kJ/mol
# GULP energy per Si atom -12403.555280 kJ/mol
# Density = 2.302499 g / cm^3
# Si number density = 23.077511 Si / 1000 Ang^3
#
#
#
# Elastic Constant Matrix: (Units=GPa)
#
#
# Indices 1 2 3 4 5 6 
#
# 1 91.0933 25.3791 48.3051 0.0000 -15.5202 0.0000
# 2 25.3791 96.5780 29.8432 0.0000 -10.5382 0.0000
# 3 48.3051 29.8432 88.3040 0.0000 -15.5652 0.0000
# 4 0.0000 0.0000 0.0000 41.4644 0.0000 -5.9042
# 5 -15.5202 -10.5382 -15.5652 0.0000 48.6997 0.0000
# 6 0.0000 0.0000 0.0000 -5.9042 0.0000 45.5613
#
#
#
# Elastic Compliance Matrix: (Units=1/GPa)
#
#
# Indices 1 2 3 4 5 6 
#
# 1 0.015921 -0.001529 -0.007796 0.000000 0.002251 0.000000
# 2 -0.001529 0.011790 -0.002950 0.000000 0.001121 0.000000
# 3 -0.007796 -0.002950 0.016993 0.000000 0.002308 0.000000
# 4 0.000000 0.000000 0.000000 0.024570 0.000000 0.003184
# 5 0.002251 0.001121 0.002308 0.000000 0.022232 0.000000
# 6 0.000000 0.000000 0.000000 0.003184 0.000000 0.022361
#
#
# Mechanical properties :
#
#
# Convention : Reuss Voigt Hill
#
# Bulk Modulus (GPa) = 49.61894 53.67001 51.64448
# Shear Modulus (GPa) = 34.45020 38.64161 36.54591
#
# Velocity S-wave (km/s) = 3.86787 4.09642 3.98378
# Velocity P-wave (km/s) = 6.44166 6.75878 6.60212
#
# Compressibility (1/GPa) = 0.02015359
#
# Stress axis : x y z
#
# Youngs Moduli (GPa) = 62.80865 84.81614 58.84744
#
# Poissons Ratio (x) = 0.12971 0.45876
# Poissons Ratio (y) = 0.09605 0.17363
# Poissons Ratio (z) = 0.48964 0.25025
#
# Static dielectric constant tensor:
#      x y z
#    x 4.098660 0.000000 -0.036760 
#    y 0.000000 4.319510 0.000000 
#    z -0.036760 0.000000 4.301540 
# 
# 
# High freq. dielectric constant tensor:
#      x y z
#    x 1.904190 0.000000 -0.002770 
#    y 0.000000 1.917600 0.000000 
#    z -0.002770 0.000000 1.921140 
# 
# From -- ./inp_files/1525.got.cif
#   From: 2010.03.12/outbox.cif.g09.slc.cpg/sg4_1_cif.got.tgz:1525.got - 2010.03.31 09:31:35.
