data_PCOD8046791
_publ_section_title
;
Structure prediction by ZEFSAII (Michael W. Deem and Ramdas Pophale) SiO2 
 PCOD8046791
Probable space group: P 21
;
_chemical_formula_sum "Si O2"
_cell_formula_units_Z 14
_cell_length_a 14.032196
_cell_length_b 8.468811
_cell_length_c 13.292481
_cell_angle_alpha 90.000000
_cell_angle_beta 159.881700
_cell_angle_gamma 90.000000
_cell_volume 543.327380
_symmetry_space_group_name_H-M "P 21"
_symmetry_group_IT_number 4
_symmetry_cell_setting 'monoclinic'
loop_
_space_group_symop_operation_xyz
x,y,z
-x,1/2+y,-z
loop_
_atom_site_type_symbol
_atom_site_label
_atom_site_fract_x
_atom_site_fract_y
_atom_site_fract_z
Si Si1 0.720808 0.164230 0.805964
Si Si2 0.616614 0.258278 0.304060
Si Si3 0.898252 0.949399 0.830185
Si Si4 0.120695 0.426172 0.721925
Si Si5 0.578499 0.642333 0.687612
Si Si6 0.132794 0.422849 0.503878
Si Si7 0.648258 0.234661 0.954594
O O1 0.990149 0.275981 0.072181
O O2 0.500932 0.220753 0.500684
O O3 0.589629 0.161996 0.785905
O O4 0.835413 0.990400 0.886652
O O5 0.495927 0.264523 0.297919
O O6 0.853417 0.390477 0.526184
O O7 0.744087 0.090485 0.402785
O O8 0.360650 0.296630 0.976982
O O9 0.106641 0.086348 0.996126
O O10 0.612361 0.981797 0.484862
O O11 0.027526 0.420944 0.513915
O O12 0.227814 0.600383 0.851662
O O13 0.359137 0.286993 0.713873
O O14 0.867471 0.381145 0.170098
#
# Coordination Sequence:
#
# PCOD8046791 Si02
#       7
#     2   2   2   2   2   2   2
#     4  10  26  41  70  96 142 169 225 266 335 398
#     4  12  25  44  74  98 135 184 229 273 352 408
#     4  10  23  39  64  93 137 177 212 267 323 387
#     4  12  26  44  70 104 133 176 235 292 335 400
#     4  10  24  39  67  94 136 168 222 263 326 402
#     4  12  25  47  69  98 140 180 228 285 346 407
#     4  12  27  44  74 103 139 178 229 282 351 398
#
# _framework density 25.767157000000001
#
# number of rings (size 3 to 8) (size 9 to 14) (size 15 to 20)
#    0.857    0.000    0.000    6.857    6.000    1.143 
#    0.000    0.000    0.000    0.000    0.000    0.000 
#    0.000    0.000    0.000    0.000    0.000    0.000 
#
# Total GULP energy -173613.927395 kJ/mol
# GULP energy per Si atom -12400.994814 kJ/mol
# Density = 2.570851 g / cm^3
# Si number density = 25.767157 Si / 1000 Ang^3
#
#
#
# Elastic Constant Matrix: (Units=GPa)
#
#
# Indices 1 2 3 4 5 6 
#
# 1 110.5461 4.9149 19.3783 0.0000 0.4265 0.0000
# 2 4.9149 24.8147 -27.5194 0.0000 -3.7315 0.0000
# 3 19.3783 -27.5194 64.7004 0.0000 2.4932 0.0000
# 4 0.0000 0.0000 0.0000 32.1770 0.0000 0.6068
# 5 0.4265 -3.7315 2.4932 0.0000 36.4466 0.0000
# 6 0.0000 0.0000 0.0000 0.6068 0.0000 32.4978
#
#
#
# Elastic Compliance Matrix: (Units=1/GPa)
#
#
# Indices 1 2 3 4 5 6 
#
# 1 0.010943 -0.011130 -0.007984 0.000000 -0.000721 0.000000
# 2 -0.011130 0.088759 0.040838 0.000000 0.006424 0.000000
# 3 -0.007984 0.040838 0.035145 0.000000 0.001870 0.000000
# 4 0.000000 0.000000 0.000000 0.031089 0.000000 -0.000580
# 5 -0.000721 0.006424 0.001870 0.000000 0.027976 0.000000
# 6 0.000000 0.000000 0.000000 -0.000580 0.000000 0.030782
#
#
# Mechanical properties :
#
#
# Convention : Reuss Voigt Hill
#
# Bulk Modulus (GPa) = 5.60863 21.51207 13.56035
# Shear Modulus (GPa) = 20.77478 33.77677 27.27578
#
# Velocity S-wave (km/s) = 2.84254 3.62449 3.25706
# Velocity P-wave (km/s) = 3.59927 5.08750 4.40666
#
# Compressibility (1/GPa) = 0.17829657
#
# Stress axis : x y z
#
# Youngs Moduli (GPa) = 91.38148 11.26648 28.45353
#
# Poissons Ratio (x) = 0.12539 0.22716
# Poissons Ratio (y) = 1.01706 -1.16199
# Poissons Ratio (z) = 0.72956 -0.46010
#
# Static dielectric constant tensor:
#      x y z
#    x 4.862490 0.000000 0.115750 
#    y 0.000000 4.450030 0.000000 
#    z 0.115750 0.000000 4.712300 
# 
# 
# High freq. dielectric constant tensor:
#      x y z
#    x 2.036530 0.000000 0.011580 
#    y 0.000000 2.025180 0.000000 
#    z 0.011580 0.000000 2.036870 
# 
# From -- ./inp_files/14199.got.cif
#   From: 2010.03.12/outbox.cif.g09.slc.cpg/sg4_8_cif.got.tgz:14199.got - 2010.03.31 09:31:35.
