data_PCOD8046183
_publ_section_title
;
Structure prediction by ZEFSAII (Michael W. Deem and Ramdas Pophale) SiO2 
 PCOD8046183
Probable space group: P 21
;
_chemical_formula_sum "Si O2"
_cell_formula_units_Z 16
_cell_length_a 6.501420
_cell_length_b 16.671821
_cell_length_c 8.745714
_cell_angle_alpha 90.000000
_cell_angle_beta 51.967309
_cell_angle_gamma 90.000000
_cell_volume 746.663575
_symmetry_space_group_name_H-M "P 21"
_symmetry_group_IT_number 4
_symmetry_cell_setting 'monoclinic'
loop_
_space_group_symop_operation_xyz
x,y,z
-x,1/2+y,-z
loop_
_atom_site_type_symbol
_atom_site_label
_atom_site_fract_x
_atom_site_fract_y
_atom_site_fract_z
Si Si1 0.176333 0.817070 0.086206
Si Si2 0.557393 0.079922 0.226637
Si Si3 0.641051 0.067232 0.539892
Si Si4 0.261675 0.257329 0.898303
Si Si5 0.140007 0.075254 0.939726
Si Si6 0.817557 0.226465 0.622578
Si Si7 0.330968 0.245690 0.218227
Si Si8 0.149853 0.986718 0.247152
O O1 0.158919 0.737825 0.204178
O O2 0.200057 0.896046 0.176170
O O3 0.924055 0.823187 0.094054
O O4 0.429292 0.806856 0.859899
O O5 0.587843 0.099598 0.392785
O O6 0.434261 0.156491 0.200023
O O7 0.358784 0.006845 0.284593
O O8 0.841889 0.054033 0.028909
O O9 0.365978 0.034118 0.732430
O O10 0.775562 0.135015 0.586815
O O11 0.851403 0.995217 0.442410
O O12 0.167350 0.169182 0.897572
O O13 0.552136 0.273948 0.698860
O O14 0.241043 0.262682 0.088200
O O15 0.195494 0.049012 0.087763
O O16 0.077752 0.265851 0.434813
#
# Coordination Sequence:
#
# PCOD8046183 Si02
#       8
#     2   2   2   2   2   2   2   2
#     4  11  26  41  64  93 137 167 207 275 329 364
#     4  11  21  38  67  91 125 162 214 266 315 377
#     4  10  23  38  66  96 125 164 219 264 314 384
#     4  10  21  39  61  91 123 162 212 265 311 381
#     4  10  21  38  65  93 120 169 215 257 311 386
#     4  10  23  38  62  97 122 163 220 261 311 391
#     4  11  21  38  64  96 119 166 217 257 313 390
#     4  11  24  44  61  95 135 167 212 271 324 375
#
# _framework density 21.428661000000002
#
# number of rings (size 3 to 8) (size 9 to 14) (size 15 to 20)
#    0.000    1.500    3.750    0.750    3.500    6.000 
#    0.000    2.500    0.000    0.000    0.000    0.000 
#    0.000    0.000    0.000    0.000    0.000    0.000 
#
# Total GULP energy -198270.886997 kJ/mol
# GULP energy per Si atom -12391.930437 kJ/mol
# Density = 2.137989 g / cm^3
# Si number density = 21.428661 Si / 1000 Ang^3
#
#
#
# Elastic Constant Matrix: (Units=GPa)
#
#
# Indices 1 2 3 4 5 6 
#
# 1 105.5341 21.0511 53.1384 0.0000 -30.5214 0.0000
# 2 21.0511 36.1003 5.4511 0.0000 2.5203 0.0000
# 3 53.1384 5.4511 139.0951 0.0000 -38.1624 0.0000
# 4 0.0000 0.0000 0.0000 16.0739 0.0000 -3.7261
# 5 -30.5214 2.5203 -38.1624 0.0000 36.3571 0.0000
# 6 0.0000 0.0000 0.0000 -3.7261 0.0000 23.5550
#
#
#
# Elastic Compliance Matrix: (Units=1/GPa)
#
#
# Indices 1 2 3 4 5 6 
#
# 1 0.016031 -0.009748 -0.002619 0.000000 0.011385 0.000000
# 2 -0.009748 0.034285 -0.000726 0.000000 -0.011322 0.000000
# 3 -0.002619 -0.000726 0.010714 0.000000 0.009098 0.000000
# 4 0.000000 0.000000 0.000000 0.064581 0.000000 0.010216
# 5 0.011385 -0.011322 0.009098 0.000000 0.047397 0.000000
# 6 0.000000 0.000000 0.000000 0.010216 0.000000 0.044070
#
#
# Mechanical properties :
#
#
# Convention : Reuss Voigt Hill
#
# Bulk Modulus (GPa) = 28.69799 48.89009 38.79404
# Shear Modulus (GPa) = 19.61717 28.60312 24.11015
#
# Velocity S-wave (km/s) = 3.02895 3.65746 3.35794
# Velocity P-wave (km/s) = 5.06499 6.37972 5.75999
#
# Compressibility (1/GPa) = 0.03484565
#
# Stress axis : x y z
#
# Youngs Moduli (GPa) = 62.37823 29.16747 93.33164
#
# Poissons Ratio (x) = 0.28431 0.24442
# Poissons Ratio (y) = 0.60804 0.06775
# Poissons Ratio (z) = 0.16336 0.02117
#
# Static dielectric constant tensor:
#      x y z
#    x 4.098010 0.000000 -0.335450 
#    y 0.000000 3.408130 0.000000 
#    z -0.335450 0.000000 4.179390 
# 
# 
# High freq. dielectric constant tensor:
#      x y z
#    x 1.855280 0.000000 -0.020950 
#    y 0.000000 1.797530 0.000000 
#    z -0.020950 0.000000 1.847350 
# 
# From -- ./inp_files/2129.got.cif
#   From: 2010.03.12/outbox.cif.g09.slc.cpg/sg4_2_cif.got.tgz:2129.got - 2010.03.31 09:31:35.
