data_PCOD8046299
_publ_section_title
;
Structure prediction by ZEFSAII (Michael W. Deem and Ramdas Pophale) SiO2 
 PCOD8046299
Probable space group: P 21
;
_chemical_formula_sum "Si O2"
_cell_formula_units_Z 16
_cell_length_a 5.117681
_cell_length_b 16.026943
_cell_length_c 9.132800
_cell_angle_alpha 90.000000
_cell_angle_beta 108.134426
_cell_angle_gamma 90.000000
_cell_volume 711.871791
_symmetry_space_group_name_H-M "P 21"
_symmetry_group_IT_number 4
_symmetry_cell_setting 'monoclinic'
loop_
_space_group_symop_operation_xyz
x,y,z
-x,1/2+y,-z
loop_
_atom_site_type_symbol
_atom_site_label
_atom_site_fract_x
_atom_site_fract_y
_atom_site_fract_z
Si Si1 0.536543 0.050890 0.003348
Si Si2 0.887601 0.238512 0.594170
Si Si3 0.482617 0.159772 0.713647
Si Si4 0.883648 0.872056 0.542012
Si Si5 0.483672 0.006857 0.510654
Si Si6 0.856950 0.579267 0.801389
Si Si7 0.611764 0.401474 0.220413
Si Si8 0.590908 0.747679 0.680309
O O1 0.281833 0.058460 0.067906
O O2 0.820905 0.059488 0.138483
O O3 0.531604 0.123941 0.883045
O O4 0.507740 0.959486 0.926304
O O5 0.709668 0.231401 0.715153
O O6 0.703957 0.207962 0.420592
O O7 0.164167 0.184071 0.649861
O O8 0.957556 0.336624 0.574611
O O9 0.562222 0.093350 0.601136
O O10 0.678770 0.796176 0.547569
O O11 0.062000 0.882035 0.725975
O O12 0.744817 0.960993 0.480123
O O13 0.257929 0.021156 0.347049
O O14 0.382789 0.944371 0.618180
O O15 0.805855 0.677027 0.762566
O O16 0.443208 0.314358 0.192439
#
# Coordination Sequence:
#
# PCOD8046299 Si02
#       8
#     2   2   2   2   2   2   2   2
#     4  11  28  44  63 100 137 186 214 271 335 411
#     4  11  20  39  68 102 123 166 223 289 318 391
#     4  11  23  41  69  92 134 171 227 270 335 394
#     4  10  21  40  71 104 127 170 232 279 344 388
#     4  10  23  38  69 100 127 172 224 289 322 394
#     4  12  26  43  68 100 140 170 230 273 337 385
#     4   9  23  42  72  92 135 179 231 265 341 408
#     4  10  22  41  72 100 131 174 227 278 336 401
#
# _framework density 22.475956
#
# number of rings (size 3 to 8) (size 9 to 14) (size 15 to 20)
#    0.000    1.500    2.500    0.750   15.750    0.000 
#    0.000    3.750    0.000    0.000    0.000    0.000 
#    0.000    0.000    0.000    0.000    0.000    0.000 
#
# Total GULP energy -198241.021717 kJ/mol
# GULP energy per Si atom -12390.063857 kJ/mol
# Density = 2.242480 g / cm^3
# Si number density = 22.475956 Si / 1000 Ang^3
#
#
#
# Elastic Constant Matrix: (Units=GPa)
#
#
# Indices 1 2 3 4 5 6 
#
# 1 78.3959 15.2209 4.2977 0.0000 13.1799 0.0000
# 2 15.2209 69.2869 22.9911 0.0000 15.1245 0.0000
# 3 4.2977 22.9911 72.4641 0.0000 10.1137 0.0000
# 4 0.0000 0.0000 0.0000 36.9020 0.0000 8.4421
# 5 13.1799 15.1245 10.1137 0.0000 40.7486 0.0000
# 6 0.0000 0.0000 0.0000 8.4421 0.0000 35.1242
#
#
#
# Elastic Compliance Matrix: (Units=1/GPa)
#
#
# Indices 1 2 3 4 5 6 
#
# 1 0.013814 -0.002377 0.000451 0.000000 -0.003698 0.000000
# 2 -0.002377 0.017537 -0.004788 0.000000 -0.004552 0.000000
# 3 0.000451 -0.004788 0.015605 0.000000 -0.002242 0.000000
# 4 0.000000 0.000000 0.000000 0.028676 0.000000 -0.006892
# 5 -0.003698 -0.004552 -0.002242 0.000000 0.027983 0.000000
# 6 0.000000 0.000000 0.000000 -0.006892 0.000000 0.030127
#
#
# Mechanical properties :
#
#
# Convention : Reuss Voigt Hill
#
# Bulk Modulus (GPa) = 29.82520 33.90735 31.86627
# Shear Modulus (GPa) = 31.57636 34.39744 32.98690
#
# Velocity S-wave (km/s) = 3.75226 3.91629 3.83515
# Velocity P-wave (km/s) = 5.66315 5.96394 5.81549
#
# Compressibility (1/GPa) = 0.03352870
#
# Stress axis : x y z
#
# Youngs Moduli (GPa) = 72.38899 57.02112 64.08133
#
# Poissons Ratio (x) = 0.13555 -0.02890
# Poissons Ratio (y) = 0.17208 0.30681
# Poissons Ratio (z) = -0.03265 0.27301
#
# Static dielectric constant tensor:
#      x y z
#    x 4.362830 0.000000 0.065830 
#    y 0.000000 4.311540 0.000000 
#    z 0.065830 0.000000 3.726190 
# 
# 
# High freq. dielectric constant tensor:
#      x y z
#    x 1.901400 0.000000 0.010930 
#    y 0.000000 1.891820 0.000000 
#    z 0.010930 0.000000 1.852080 
# 
# From -- ./inp_files/4951.got.cif
#   From: 2010.03.12/outbox.cif.g09.slc.cpg/sg4_3_cif.got.tgz:4951.got - 2010.03.31 09:31:35.
