data_PCOD8046776
_publ_section_title
;
Structure prediction by ZEFSAII (Michael W. Deem and Ramdas Pophale) SiO2 
 PCOD8046776
Probable space group: P 21
;
_chemical_formula_sum "Si O2"
_cell_formula_units_Z 16
_cell_length_a 22.176199
_cell_length_b 5.384529
_cell_length_c 8.479387
_cell_angle_alpha 90.000000
_cell_angle_beta 143.447734
_cell_angle_gamma 90.000000
_cell_volume 603.006185
_symmetry_space_group_name_H-M "P 21"
_symmetry_group_IT_number 4
_symmetry_cell_setting 'monoclinic'
loop_
_space_group_symop_operation_xyz
x,y,z
-x,1/2+y,-z
loop_
_atom_site_type_symbol
_atom_site_label
_atom_site_fract_x
_atom_site_fract_y
_atom_site_fract_z
Si Si1 0.399275 0.973810 0.633263
Si Si2 0.104811 0.048407 0.348510
Si Si3 0.129095 0.548108 0.227839
Si Si4 0.503315 0.605512 0.650378
Si Si5 0.768653 0.828777 0.845264
Si Si6 0.658219 0.954190 0.913180
Si Si7 0.594805 0.225806 0.053676
Si Si8 0.935667 0.583923 0.381210
O O1 0.411595 0.782736 0.516845
O O2 0.330922 0.201173 0.432190
O O3 0.515841 0.011932 0.942083
O O4 0.346095 0.849685 0.676106
O O5 0.154578 0.801281 0.376012
O O6 0.154960 0.300693 0.384928
O O7 0.122304 0.051100 0.573998
O O8 0.986613 0.045436 0.065855
O O9 0.193693 0.532445 0.201514
O O10 0.624360 0.678517 0.895718
O O11 0.458022 0.525477 0.386660
O O12 0.509420 0.385060 0.786030
O O13 0.743556 0.968877 0.958697
O O14 0.856094 0.628434 0.071146
O O15 0.682455 0.122343 0.117747
O O16 0.993893 0.330220 0.460667
#
# Coordination Sequence:
#
# PCOD8046776 Si02
#       8
#     2   2   2   2   2   2   2   2
#     4  11  24  43  72 108 144 199 258 309 381 458
#     4  10  22  48  78 108 148 203 256 305 407 478
#     4  10  23  45  80 109 149 198 256 321 385 474
#     4  11  20  41  70 100 144 207 242 300 382 461
#     4  12  27  48  77 116 151 197 271 331 381 469
#     4  11  23  41  70 107 149 194 256 313 380 452
#     4  11  22  43  73  99 150 203 244 307 385 461
#     4  12  27  51  84 119 157 207 259 330 411 477
#
# _framework density 26.533722999999998
#
# number of rings (size 3 to 8) (size 9 to 14) (size 15 to 20)
#    0.000    1.000    5.000    1.500    3.500    2.000 
#    2.250    1.250    0.000    0.000    0.000    0.000 
#    0.000    0.000    0.000    0.000    0.000    0.000 
#
# Total GULP energy -198238.618391 kJ/mol
# GULP energy per Si atom -12389.913649 kJ/mol
# Density = 2.647333 g / cm^3
# Si number density = 26.533723 Si / 1000 Ang^3
#
#
#
# Elastic Constant Matrix: (Units=GPa)
#
#
# Indices 1 2 3 4 5 6 
#
# 1 181.7560 53.9209 19.3429 0.0000 -21.1455 0.0000
# 2 53.9209 121.2728 14.3986 0.0000 -6.4797 0.0000
# 3 19.3429 14.3986 59.1960 0.0000 -6.5824 0.0000
# 4 0.0000 0.0000 0.0000 26.8528 0.0000 -12.6930
# 5 -21.1455 -6.4797 -6.5824 0.0000 39.8743 0.0000
# 6 0.0000 0.0000 0.0000 -12.6930 0.0000 39.7447
#
#
#
# Elastic Compliance Matrix: (Units=1/GPa)
#
#
# Indices 1 2 3 4 5 6 
#
# 1 0.006780 -0.002711 -0.001228 0.000000 0.002952 0.000000
# 2 -0.002711 0.009619 -0.001467 0.000000 -0.000117 0.000000
# 3 -0.001228 -0.001467 0.017880 0.000000 0.002062 0.000000
# 4 0.000000 0.000000 0.000000 0.043861 0.000000 0.014008
# 5 0.002952 -0.000117 0.002062 0.000000 0.026966 0.000000
# 6 0.000000 0.000000 0.000000 0.014008 0.000000 0.029634
#
#
# Mechanical properties :
#
#
# Convention : Reuss Voigt Hill
#
# Bulk Modulus (GPa) = 42.61066 59.72774 51.16920
# Shear Modulus (GPa) = 32.59971 39.59852 36.09911
#
# Velocity S-wave (km/s) = 3.50896 3.86733 3.69250
# Velocity P-wave (km/s) = 5.70184 6.51925 6.12420
#
# Compressibility (1/GPa) = 0.02346831
#
# Stress axis : x y z
#
# Youngs Moduli (GPa) = 147.48514 103.95818 55.92744
#
# Poissons Ratio (x) = 0.28185 0.06867
# Poissons Ratio (y) = 0.39986 0.08204
# Poissons Ratio (z) = 0.18108 0.15249
#
# Static dielectric constant tensor:
#      x y z
#    x 4.881990 0.000000 -0.241780 
#    y 0.000000 5.039910 0.000000 
#    z -0.241780 0.000000 4.384810 
# 
# 
# High freq. dielectric constant tensor:
#      x y z
#    x 2.077890 0.000000 -0.013280 
#    y 0.000000 2.068990 0.000000 
#    z -0.013280 0.000000 2.050050 
# 
# From -- ./inp_files/10071.got.cif
#   From: 2010.03.12/outbox.cif.g09.slc.cpg/sg4_6_cif.got.tgz:10071.got - 2010.03.31 09:31:35.
