data_PCOD8046413
_publ_section_title
;
Structure prediction by ZEFSAII (Michael W. Deem and Ramdas Pophale) SiO2 
 PCOD8046413
Probable space group: P 21
;
_chemical_formula_sum "Si O2"
_cell_formula_units_Z 14
_cell_length_a 5.519973
_cell_length_b 13.655333
_cell_length_c 7.632765
_cell_angle_alpha 90.000000
_cell_angle_beta 94.151999
_cell_angle_gamma 90.000000
_cell_volume 573.825481
_symmetry_space_group_name_H-M "P 21"
_symmetry_group_IT_number 4
_symmetry_cell_setting 'monoclinic'
loop_
_space_group_symop_operation_xyz
x,y,z
-x,1/2+y,-z
loop_
_atom_site_type_symbol
_atom_site_label
_atom_site_fract_x
_atom_site_fract_y
_atom_site_fract_z
Si Si1 0.897853 0.774890 0.053635
Si Si2 0.480082 0.174963 0.473914
Si Si3 0.880823 0.452450 0.122405
Si Si4 0.751252 0.114697 0.818839
Si Si5 0.218879 0.345040 0.594622
Si Si6 0.695739 0.371581 0.444408
Si Si7 0.599782 0.596473 0.892850
O O1 0.749220 0.832968 0.194867
O O2 0.122948 0.721185 0.160757
O O3 0.729740 0.698120 0.945937
O O4 0.982412 0.852547 0.914636
O O5 0.550277 0.118552 0.656052
O O6 0.233892 0.236893 0.503199
O O7 0.686436 0.253097 0.424966
O O8 0.448333 0.095741 0.317577
O O9 0.675573 0.425041 0.255078
O O10 0.060596 0.530064 0.222092
O O11 0.763313 0.501658 0.944332
O O12 0.642071 0.088917 0.003717
O O13 0.459334 0.406914 0.545215
O O14 0.962513 0.397763 0.538189
#
# Coordination Sequence:
#
# PCOD8046413 Si02
#       7
#     2   2   2   2   2   2   2
#     4  11  22  48  73 103 152 194 256 311 385 449
#     4  10  22  44  78 101 147 195 253 300 389 435
#     4  11  27  44  71 109 153 195 256 317 381 455
#     4  11  24  47  72 106 151 198 253 315 378 456
#     4  10  21  43  79 105 135 203 248 306 375 453
#     4  10  22  44  74 105 140 196 249 302 375 444
#     4  11  24  46  71 107 146 201 247 319 379 456
#
# _framework density 24.397662
#
# number of rings (size 3 to 8) (size 9 to 14) (size 15 to 20)
#    0.857    0.571    2.857    1.714    2.000    2.286 
#    5.143    1.429    0.000    0.000    0.000    0.000 
#    0.000    0.000    0.000    0.000    0.000    0.000 
#
# Total GULP energy -173552.967323 kJ/mol
# GULP energy per Si atom -12396.640523 kJ/mol
# Density = 2.434213 g / cm^3
# Si number density = 24.397662 Si / 1000 Ang^3
#
#
#
# Elastic Constant Matrix: (Units=GPa)
#
#
# Indices 1 2 3 4 5 6 
#
# 1 115.3297 8.2152 11.5328 0.0000 -5.5942 0.0000
# 2 8.2152 71.5300 -5.2831 0.0000 -1.2176 0.0000
# 3 11.5328 -5.2831 79.5321 0.0000 5.4545 0.0000
# 4 0.0000 0.0000 0.0000 26.2013 0.0000 -6.5556
# 5 -5.5942 -1.2176 5.4545 0.0000 37.8135 0.0000
# 6 0.0000 0.0000 0.0000 -6.5556 0.0000 21.6754
#
#
#
# Elastic Compliance Matrix: (Units=1/GPa)
#
#
# Indices 1 2 3 4 5 6 
#
# 1 0.008971 -0.001114 -0.001478 0.000000 0.001505 0.000000
# 2 -0.001114 0.014191 0.001095 0.000000 0.000134 0.000000
# 3 -0.001478 0.001095 0.013002 0.000000 -0.002059 0.000000
# 4 0.000000 0.000000 0.000000 0.041290 0.000000 0.012488
# 5 0.001505 0.000134 -0.002059 0.000000 0.026970 0.000000
# 6 0.000000 0.000000 0.000000 0.012488 0.000000 0.049912
#
#
# Mechanical properties :
#
#
# Convention : Reuss Voigt Hill
#
# Bulk Modulus (GPa) = 30.14759 32.81352 31.48055
# Shear Modulus (GPa) = 29.69356 33.93316 31.81336
#
# Velocity S-wave (km/s) = 3.49243 3.73344 3.61494
# Velocity P-wave (km/s) = 5.35223 5.66245 5.50953
#
# Compressibility (1/GPa) = 0.03317015
#
# Stress axis : x y z
#
# Youngs Moduli (GPa) = 111.47130 70.46603 76.91240
#
# Poissons Ratio (x) = 0.07849 0.11368
# Poissons Ratio (y) = 0.12416 -0.08422
# Poissons Ratio (z) = 0.16476 -0.07716
#
# Static dielectric constant tensor:
#      x y z
#    x 4.257150 0.000000 -0.175670 
#    y 0.000000 4.130450 0.000000 
#    z -0.175670 0.000000 4.134430 
# 
# 
# High freq. dielectric constant tensor:
#      x y z
#    x 1.961670 0.000000 -0.011490 
#    y 0.000000 1.959430 0.000000 
#    z -0.011490 0.000000 1.965460 
# 
# From -- ./inp_files/4597.got.cif
#   From: 2010.03.12/outbox.cif.g09.slc.cpg/sg4_3_cif.got.tgz:4597.got - 2010.03.31 09:31:35.
