data_PCOD8046136
_publ_section_title
;
Structure prediction by ZEFSAII (Michael W. Deem and Ramdas Pophale) SiO2 
 PCOD8046136
Probable space group: P 21
;
_chemical_formula_sum "Si O2"
_cell_formula_units_Z 16
_cell_length_a 18.586243
_cell_length_b 8.357903
_cell_length_c 6.882315
_cell_angle_alpha 90.000000
_cell_angle_beta 46.057132
_cell_angle_gamma 90.000000
_cell_volume 769.795470
_symmetry_space_group_name_H-M "P 21"
_symmetry_group_IT_number 4
_symmetry_cell_setting 'monoclinic'
loop_
_space_group_symop_operation_xyz
x,y,z
-x,1/2+y,-z
loop_
_atom_site_type_symbol
_atom_site_label
_atom_site_fract_x
_atom_site_fract_y
_atom_site_fract_z
Si Si1 0.897914 0.021850 0.405457
Si Si2 0.018452 0.193826 0.899768
Si Si3 0.388908 0.940861 0.028983
Si Si4 0.273350 0.433228 0.525614
Si Si5 0.852830 0.085204 0.918275
Si Si6 0.306124 0.857116 0.772937
Si Si7 0.441665 0.677100 0.216844
Si Si8 0.766880 0.575850 0.413799
O O1 0.785097 0.019440 0.540517
O O2 0.894790 0.008481 0.642154
O O3 0.955838 0.875640 0.194098
O O4 0.954400 0.181268 0.220985
O O5 0.117594 0.088134 0.744717
O O6 0.952106 0.127302 0.849362
O O7 0.283649 0.957342 0.337023
O O8 0.444907 0.784808 0.014795
O O9 0.448998 0.108406 0.938370
O O10 0.365469 0.917194 0.848178
O O11 0.380496 0.513020 0.312052
O O12 0.287558 0.246011 0.471016
O O13 0.213664 0.457338 0.840106
O O14 0.782203 0.235822 0.004564
O O15 0.393540 0.781453 0.478346
O O16 0.250585 0.003268 0.768109
#
# Coordination Sequence:
#
# PCOD8046136 Si02
#       8
#     2   2   2   2   2   2   2   2
#     4  10  21  37  57  82 113 155 197 242 297 349
#     4  10  22  37  57  85 118 154 197 247 290 348
#     4  11  23  40  64  88 118 160 196 241 301 354
#     4   9  20  39  58  83 119 150 193 248 291 347
#     4  10  21  38  60  85 117 159 198 240 298 351
#     4  10  23  40  61  90 121 153 197 248 293 349
#     4  10  22  40  61  88 117 153 197 243 296 352
#     4  10  22  39  58  87 121 154 197 245 294 350
#
# _framework density 20.784741
#
# number of rings (size 3 to 8) (size 9 to 14) (size 15 to 20)
#    0.000    2.000    0.000    2.250    0.000   13.000 
#    0.000    3.750    0.000    0.000    0.000    0.000 
#    0.000    0.000    0.000    0.000    0.000    0.000 
#
# Total GULP energy -198362.307070 kJ/mol
# GULP energy per Si atom -12397.644192 kJ/mol
# Density = 2.073743 g / cm^3
# Si number density = 20.784741 Si / 1000 Ang^3
#
#
#
# Elastic Constant Matrix: (Units=GPa)
#
#
# Indices 1 2 3 4 5 6 
#
# 1 122.4038 32.7064 48.0731 0.0000 9.7136 0.0000
# 2 32.7064 49.5999 18.1575 0.0000 -4.1329 0.0000
# 3 48.0731 18.1575 74.5624 0.0000 17.3511 0.0000
# 4 0.0000 0.0000 0.0000 21.0215 0.0000 -1.3936
# 5 9.7136 -4.1329 17.3511 0.0000 28.9692 0.0000
# 6 0.0000 0.0000 0.0000 -1.3936 0.0000 31.7669
#
#
#
# Elastic Compliance Matrix: (Units=1/GPa)
#
#
# Indices 1 2 3 4 5 6 
#
# 1 0.012285 -0.005945 -0.006178 0.000000 -0.001267 0.000000
# 2 -0.005945 0.026475 -0.004598 0.000000 0.008524 0.000000
# 3 -0.006178 -0.004598 0.021130 0.000000 -0.011240 0.000000
# 4 0.000000 0.000000 0.000000 0.047709 0.000000 0.002093
# 5 -0.001267 0.008524 -0.011240 0.000000 0.042893 0.000000
# 6 0.000000 0.000000 0.000000 0.002093 0.000000 0.031571
#
#
# Mechanical properties :
#
#
# Convention : Reuss Voigt Hill
#
# Bulk Modulus (GPa) = 37.80950 49.38222 43.59586
# Shear Modulus (GPa) = 22.28945 26.19346 24.24146
#
# Velocity S-wave (km/s) = 3.27830 3.55382 3.41883
# Velocity P-wave (km/s) = 5.70615 6.37573 6.05021
#
# Compressibility (1/GPa) = 0.02644838
#
# Stress axis : x y z
#
# Youngs Moduli (GPa) = 81.39959 37.77166 47.32535
#
# Poissons Ratio (x) = 0.22454 0.29238
# Poissons Ratio (y) = 0.48390 0.21761
# Poissons Ratio (z) = 0.50290 0.17368
#
# Static dielectric constant tensor:
#      x y z
#    x 3.831000 0.000000 -0.079750 
#    y 0.000000 3.751500 0.000000 
#    z -0.079750 0.000000 3.638050 
# 
# 
# High freq. dielectric constant tensor:
#      x y z
#    x 1.818900 0.000000 -0.008970 
#    y 0.000000 1.816020 0.000000 
#    z -0.008970 0.000000 1.810660 
# 
# From -- ./inp_files/3442.got.cif
#   From: 2010.03.12/outbox.cif.g09.slc.cpg/sg4_2_cif.got.tgz:3442.got - 2010.03.31 09:31:35.
