data_PCOD8046917
_publ_section_title
;
Structure prediction by ZEFSAII (Michael W. Deem and Ramdas Pophale) SiO2 
 PCOD8046917
Probable space group: P 21
;
_chemical_formula_sum "Si O2"
_cell_formula_units_Z 16
_cell_length_a 11.400025
_cell_length_b 9.251172
_cell_length_c 14.518911
_cell_angle_alpha 90.000000
_cell_angle_beta 151.311623
_cell_angle_gamma 90.000000
_cell_volume 735.053670
_symmetry_space_group_name_H-M "P 21"
_symmetry_group_IT_number 4
_symmetry_cell_setting 'monoclinic'
loop_
_space_group_symop_operation_xyz
x,y,z
-x,1/2+y,-z
loop_
_atom_site_type_symbol
_atom_site_label
_atom_site_fract_x
_atom_site_fract_y
_atom_site_fract_z
Si Si1 0.329669 0.783430 0.968696
Si Si2 0.283414 0.520596 0.298712
Si Si3 0.345736 0.182671 0.324972
Si Si4 0.189367 0.172445 0.017639
Si Si5 0.996838 0.579760 0.644903
Si Si6 0.461101 0.616312 0.221975
Si Si7 0.487435 0.093122 0.054197
Si Si8 0.965671 0.962853 0.145241
O O1 0.389926 0.767407 0.120325
O O2 0.331039 0.947789 0.937213
O O3 0.062530 0.719629 0.755573
O O4 0.535625 0.691720 0.053134
O O5 0.344557 0.351697 0.351526
O O6 0.413612 0.606216 0.470660
O O7 0.369246 0.598287 0.263168
O O8 0.990154 0.533751 0.106914
O O9 0.355629 0.176689 0.222041
O O10 0.110157 0.092487 0.195235
O O11 0.000672 0.309037 0.881461
O O12 0.381314 0.180346 0.067072
O O13 0.223749 0.551775 0.731586
O O14 0.961428 0.450988 0.696296
O O15 0.752831 0.599470 0.418387
O O16 0.325623 0.497198 0.064881
#
# Coordination Sequence:
#
# PCOD8046917 Si02
#       8
#     2   2   2   2   2   2   2   2
#     4   9  23  43  66  94 128 179 218 283 331 396
#     4  12  27  40  71  98 135 177 223 284 337 411
#     4  12  25  46  64 104 135 178 227 276 346 404
#     4  12  25  42  67 102 136 177 220 279 342 404
#     4   9  22  42  67  93 128 173 220 272 326 401
#     4  11  21  42  68  94 126 181 218 273 347 385
#     4  10  23  44  65  97 134 173 225 277 333 398
#     4  11  22  43  70  92 136 176 221 276 338 399
#
# _framework density 21.767118
#
# number of rings (size 3 to 8) (size 9 to 14) (size 15 to 20)
#    0.750    0.500    3.750    1.500    3.500    2.000 
#    6.750    0.000    0.000    0.000    0.000    0.000 
#    0.000    0.000    0.000    0.000    0.000    0.000 
#
# Total GULP energy -198231.290549 kJ/mol
# GULP energy per Si atom -12389.455659 kJ/mol
# Density = 2.171758 g / cm^3
# Si number density = 21.767118 Si / 1000 Ang^3
#
#
#
# Elastic Constant Matrix: (Units=GPa)
#
#
# Indices 1 2 3 4 5 6 
#
# 1 100.9638 28.4645 14.7503 0.0000 -3.7630 0.0000
# 2 28.4645 96.9232 15.8851 0.0000 -20.2531 0.0000
# 3 14.7503 15.8851 111.7243 0.0000 -9.4053 0.0000
# 4 0.0000 0.0000 0.0000 21.7847 0.0000 0.1011
# 5 -3.7630 -20.2531 -9.4053 0.0000 29.2990 0.0000
# 6 0.0000 0.0000 0.0000 0.1011 0.0000 29.6418
#
#
#
# Elastic Compliance Matrix: (Units=1/GPa)
#
#
# Indices 1 2 3 4 5 6 
#
# 1 0.010945 -0.003291 -0.001079 0.000000 -0.001216 0.000000
# 2 -0.003291 0.013168 -0.000727 0.000000 0.008447 0.000000
# 3 -0.001079 -0.000727 0.009396 0.000000 0.002375 0.000000
# 4 0.000000 0.000000 0.000000 0.045904 0.000000 -0.000157
# 5 -0.001216 0.008447 0.002375 0.000000 0.040576 0.000000
# 6 0.000000 0.000000 0.000000 -0.000157 0.000000 0.033737
#
#
# Mechanical properties :
#
#
# Convention : Reuss Voigt Hill
#
# Bulk Modulus (GPa) = 42.89192 47.53455 45.21323
# Shear Modulus (GPa) = 29.12174 32.84587 30.98380
#
# Velocity S-wave (km/s) = 3.66167 3.88876 3.77692
# Velocity P-wave (km/s) = 6.13390 6.48448 6.31162
#
# Compressibility (1/GPa) = 0.02331442
#
# Stress axis : x y z
#
# Youngs Moduli (GPa) = 91.36702 75.94064 106.42378
#
# Poissons Ratio (x) = 0.24996 0.11487
# Poissons Ratio (y) = 0.30073 0.07733
# Poissons Ratio (z) = 0.09862 0.05518
#
# Static dielectric constant tensor:
#      x y z
#    x 3.894980 0.000000 -0.056070 
#    y 0.000000 3.882340 0.000000 
#    z -0.056070 0.000000 3.859930 
# 
# 
# High freq. dielectric constant tensor:
#      x y z
#    x 1.851830 0.000000 -0.001950 
#    y 0.000000 1.847780 0.000000 
#    z -0.001950 0.000000 1.844780 
# 
# From -- ./inp_files/13984.got.cif
#   From: 2010.03.12/outbox.cif.g09.slc.cpg/sg4_7_cif.got.tgz:13984.got - 2010.03.31 09:31:35.
