data_PCOD8046657
_publ_section_title
;
Structure prediction by ZEFSAII (Michael W. Deem and Ramdas Pophale) SiO2 
 PCOD8046657
Probable space group: P 21
;
_chemical_formula_sum "Si O2"
_cell_formula_units_Z 14
_cell_length_a 7.200407
_cell_length_b 12.369677
_cell_length_c 7.628386
_cell_angle_alpha 90.000000
_cell_angle_beta 123.035908
_cell_angle_gamma 90.000000
_cell_volume 569.590309
_symmetry_space_group_name_H-M "P 21"
_symmetry_group_IT_number 4
_symmetry_cell_setting 'monoclinic'
loop_
_space_group_symop_operation_xyz
x,y,z
-x,1/2+y,-z
loop_
_atom_site_type_symbol
_atom_site_label
_atom_site_fract_x
_atom_site_fract_y
_atom_site_fract_z
Si Si1 0.625233 0.983340 0.879148
Si Si2 0.918461 0.674711 0.086771
Si Si3 0.069721 0.461945 0.285028
Si Si4 0.797829 0.081896 0.312484
Si Si5 0.591402 0.210770 0.726323
Si Si6 0.519917 0.275253 0.060311
Si Si7 0.135478 0.228710 0.337793
O O1 0.783129 0.937452 0.810046
O O2 0.441809 0.891084 0.826293
O O3 0.512098 0.092061 0.749924
O O4 0.764206 0.005865 0.127035
O O5 0.747661 0.755051 0.093728
O O6 0.890332 0.675642 0.864593
O O7 0.881982 0.550578 0.136942
O O8 0.176325 0.707113 0.261051
O O9 0.215198 0.509394 0.520679
O O10 0.988814 0.339726 0.288163
O O11 0.611450 0.175858 0.222719
O O12 0.036127 0.142128 0.423374
O O13 0.393669 0.256444 0.505189
O O14 0.624691 0.281609 0.919712
#
# Coordination Sequence:
#
# PCOD8046657 Si02
#       7
#     2   2   2   2   2   2   2
#     4  10  22  43  68 104 139 182 241 281 350 425
#     4  11  24  45  68 102 141 179 236 288 339 422
#     4  11  24  44  70 105 138 186 238 281 358 419
#     4  11  25  44  70 104 142 184 236 290 350 420
#     4  10  24  45  66 100 144 176 233 293 340 422
#     4  11  22  44  71  98 141 186 228 292 351 404
#     4  12  23  47  71 101 145 181 234 293 344 420
#
# _framework density 24.579070000000002
#
# number of rings (size 3 to 8) (size 9 to 14) (size 15 to 20)
#    0.000    1.143    5.714    1.714    4.000    3.429 
#    2.571    4.286    0.000    0.000    0.000    0.000 
#    0.000    0.000    0.000    0.000    0.000    0.000 
#
# Total GULP energy -173542.244341 kJ/mol
# GULP energy per Si atom -12395.874596 kJ/mol
# Density = 2.452313 g / cm^3
# Si number density = 24.579070 Si / 1000 Ang^3
#
#
#
# Elastic Constant Matrix: (Units=GPa)
#
#
# Indices 1 2 3 4 5 6 
#
# 1 51.7952 -4.4194 -1.0690 0.0000 0.9866 0.0000
# 2 -4.4194 87.3909 28.7164 0.0000 -18.0666 0.0000
# 3 -1.0690 28.7164 91.7572 0.0000 -0.4196 0.0000
# 4 0.0000 0.0000 0.0000 31.2546 0.0000 0.4949
# 5 0.9866 -18.0666 -0.4196 0.0000 33.6496 0.0000
# 6 0.0000 0.0000 0.0000 0.4949 0.0000 36.4701
#
#
#
# Elastic Compliance Matrix: (Units=1/GPa)
#
#
# Indices 1 2 3 4 5 6 
#
# 1 0.019391 0.001003 -0.000088 0.000000 -0.000031 0.000000
# 2 0.001003 0.014578 -0.004515 0.000000 0.007741 0.000000
# 3 -0.000088 -0.004515 0.012300 0.000000 -0.002268 0.000000
# 4 0.000000 0.000000 0.000000 0.032002 0.000000 -0.000434
# 5 -0.000031 0.007741 -0.002268 0.000000 0.033847 0.000000
# 6 0.000000 0.000000 0.000000 -0.000434 0.000000 0.027426
#
#
# Mechanical properties :
#
#
# Convention : Reuss Voigt Hill
#
# Bulk Modulus (GPa) = 25.59609 30.82214 28.20911
# Shear Modulus (GPa) = 31.29570 34.12255 32.70912
#
# Velocity S-wave (km/s) = 3.57216 3.73000 3.65193
# Velocity P-wave (km/s) = 5.23929 5.57833 5.41146
#
# Compressibility (1/GPa) = 0.03906847
#
# Stress axis : x y z
#
# Youngs Moduli (GPa) = 51.56982 68.59867 81.30102
#
# Poissons Ratio (x) = -0.06882 0.00717
# Poissons Ratio (y) = -0.05173 0.36708
# Poissons Ratio (z) = 0.00455 0.30973
#
# Static dielectric constant tensor:
#      x y z
#    x 4.500050 0.000000 -0.020010 
#    y 0.000000 4.519910 0.000000 
#    z -0.020010 0.000000 4.190160 
# 
# 
# High freq. dielectric constant tensor:
#      x y z
#    x 1.972820 0.000000 -0.011600 
#    y 0.000000 1.982130 0.000000 
#    z -0.011600 0.000000 1.964610 
# 
# From -- ./inp_files/6443.got.cif
#   From: 2010.03.12/outbox.cif.g09.slc.cpg/sg4_4_cif.got.tgz:6443.got - 2010.03.31 09:31:35.
