data_PCOD8046555
_publ_section_title
;
Structure prediction by ZEFSAII (Michael W. Deem and Ramdas Pophale) SiO2 
 PCOD8046555
Probable space group: P 21
;
_chemical_formula_sum "Si O2"
_cell_formula_units_Z 10
_cell_length_a 8.554168
_cell_length_b 10.082730
_cell_length_c 7.702903
_cell_angle_alpha 90.000000
_cell_angle_beta 50.218913
_cell_angle_gamma 90.000000
_cell_volume 510.565262
_symmetry_space_group_name_H-M "P 21"
_symmetry_group_IT_number 4
_symmetry_cell_setting 'monoclinic'
loop_
_space_group_symop_operation_xyz
x,y,z
-x,1/2+y,-z
loop_
_atom_site_type_symbol
_atom_site_label
_atom_site_fract_x
_atom_site_fract_y
_atom_site_fract_z
Si Si1 0.861545 0.432250 0.223579
Si Si2 0.693115 0.853924 0.150705
Si Si3 0.334124 0.067141 0.933062
Si Si4 0.534495 0.836239 0.623981
Si Si5 0.645395 0.558582 0.691037
O O1 0.852950 0.534819 0.066039
O O2 0.686421 0.320457 0.316136
O O3 0.814907 0.511009 0.434674
O O4 0.079747 0.365640 0.085231
O O5 0.595488 0.717965 0.147670
O O6 0.702222 0.853311 0.354016
O O7 0.561293 0.975799 0.176305
O O8 0.523800 0.968750 0.751607
O O9 0.263436 0.044179 0.180907
O O10 0.585783 0.711125 0.704747
#
# Coordination Sequence:
#
# PCOD8046555 Si02
#       5
#     2   2   2   2   2
#     4   9  23  38  60  88 119 159 198 243 295 358
#     4  11  20  41  66  83 126 161 195 249 302 352
#     4  10  22  41  59  92 120 154 205 244 298 356
#     4   9  20  39  63  83 123 154 199 244 297 354
#     4  11  21  41  62  90 122 156 201 248 300 356
#
# _framework density 19.586133
#
# number of rings (size 3 to 8) (size 9 to 14) (size 15 to 20)
#    1.200    0.800    2.000    1.200    2.800    0.000 
#    7.200    0.000    0.000    0.000    0.000    0.000 
#    0.000    0.000    0.000    0.000    0.000    0.000 
#
# Total GULP energy -123932.864935 kJ/mol
# GULP energy per Si atom -12393.286494 kJ/mol
# Density = 1.954155 g / cm^3
# Si number density = 19.586133 Si / 1000 Ang^3
#
#
#
# Elastic Constant Matrix: (Units=GPa)
#
#
# Indices 1 2 3 4 5 6 
#
# 1 40.7503 20.5525 60.4619 0.0000 6.8988 0.0000
# 2 20.5525 112.0606 61.2102 0.0000 1.0895 0.0000
# 3 60.4619 61.2102 155.2580 0.0000 22.8096 0.0000
# 4 0.0000 0.0000 0.0000 32.1316 0.0000 4.8406
# 5 6.8988 1.0895 22.8096 0.0000 46.7441 0.0000
# 6 0.0000 0.0000 0.0000 4.8406 0.0000 12.8643
#
#
#
# Elastic Compliance Matrix: (Units=1/GPa)
#
#
# Indices 1 2 3 4 5 6 
#
# 1 0.058961 0.002485 -0.024404 0.000000 0.003148 0.000000
# 2 0.002485 0.011667 -0.005896 0.000000 0.002239 0.000000
# 3 -0.024404 -0.005896 0.019088 0.000000 -0.005575 0.000000
# 4 0.000000 0.000000 0.000000 0.032992 0.000000 -0.012414
# 5 0.003148 0.002239 -0.005575 0.000000 0.023597 0.000000
# 6 0.000000 0.000000 0.000000 -0.012414 0.000000 0.082406
#
#
# Mechanical properties :
#
#
# Convention : Reuss Voigt Hill
#
# Bulk Modulus (GPa) = 29.33670 65.83533 47.58601
# Shear Modulus (GPa) = 16.90890 29.40430 23.15660
#
# Velocity S-wave (km/s) = 2.94140 3.87884 3.44218
# Velocity P-wave (km/s) = 5.15234 7.33122 6.33614
#
# Compressibility (1/GPa) = 0.03408700
#
# Stress axis : x y z
#
# Youngs Moduli (GPa) = 16.96032 85.71258 52.38878
#
# Poissons Ratio (x) = -0.21303 1.27847
# Poissons Ratio (y) = -0.04215 0.30891
# Poissons Ratio (z) = 0.41389 0.50540
#
# Static dielectric constant tensor:
#      x y z
#    x 3.081540 0.000000 0.195970 
#    y 0.000000 3.503890 0.000000 
#    z 0.195970 0.000000 3.592250 
# 
# 
# High freq. dielectric constant tensor:
#      x y z
#    x 1.720450 0.000000 0.018410 
#    y 0.000000 1.766370 0.000000 
#    z 0.018410 0.000000 1.771350 
# 
# From -- ./inp_files/1038.got.cif
#   From: 2010.03.12/outbox.cif.g09.slc.cpg/sg4_1_cif.got.tgz:1038.got - 2010.03.31 09:31:35.
