data_PCOD8046079
_publ_section_title
;
Structure prediction by ZEFSAII (Michael W. Deem and Ramdas Pophale) SiO2 
 PCOD8046079
Probable space group: P 21
;
_chemical_formula_sum "Si O2"
_cell_formula_units_Z 16
_cell_length_a 12.085662
_cell_length_b 9.111861
_cell_length_c 11.529728
_cell_angle_alpha 90.000000
_cell_angle_beta 143.685338
_cell_angle_gamma 90.000000
_cell_volume 751.933129
_symmetry_space_group_name_H-M "P 21"
_symmetry_group_IT_number 4
_symmetry_cell_setting 'monoclinic'
loop_
_space_group_symop_operation_xyz
x,y,z
-x,1/2+y,-z
loop_
_atom_site_type_symbol
_atom_site_label
_atom_site_fract_x
_atom_site_fract_y
_atom_site_fract_z
Si Si1 0.733842 0.520260 0.658008
Si Si2 0.675315 0.013774 0.767353
Si Si3 0.269865 0.789363 0.799004
Si Si4 0.223803 0.689038 0.358497
Si Si5 0.981168 0.784535 0.352347
Si Si6 0.638212 0.614101 0.057822
Si Si7 0.090719 0.587982 0.823174
Si Si8 0.629788 0.681385 0.785910
O O1 0.538132 0.562984 0.432448
O O2 0.765793 0.347599 0.692406
O O3 0.740661 0.570459 0.796733
O O4 0.890267 0.602691 0.715012
O O5 0.697082 0.840716 0.801069
O O6 0.799260 0.066940 0.761720
O O7 0.745206 0.089665 0.943343
O O8 0.125413 0.729471 0.772528
O O9 0.157223 0.809160 0.584852
O O10 0.359102 0.942697 0.912573
O O11 0.438647 0.674716 0.928375
O O12 0.409053 0.658601 0.588685
O O13 0.049905 0.688614 0.299491
O O14 0.811575 0.694938 0.270077
O O15 0.901601 0.941866 0.247898
O O16 0.681981 0.649094 0.961251
#
# Coordination Sequence:
#
# PCOD8046079 Si02
#       8
#     2   2   2   2   2   2   2   2
#     4   9  22  38  64  95 134 170 213 272 328 400
#     4  10  21  38  64  97 134 171 212 268 335 395
#     4  12  28  46  67  99 133 176 235 276 333 401
#     4   9  20  39  66  95 136 170 210 275 331 400
#     4  11  23  46  69  96 135 179 224 279 335 390
#     4  12  26  44  72  94 133 182 221 283 333 397
#     4  11  24  41  67  95 131 176 218 277 332 400
#     4  10  20  42  63  95 134 174 217 266 335 389
#
# _framework density 21.278487999999999
#
# number of rings (size 3 to 8) (size 9 to 14) (size 15 to 20)
#    0.000    1.500    2.500    1.500    3.500    2.000 
#    0.000    0.000    0.000    0.000    0.000    0.000 
#    0.000    0.000    0.000    0.000    0.000    0.000 
#
# Total GULP energy -198432.019891 kJ/mol
# GULP energy per Si atom -12402.001243 kJ/mol
# Density = 2.123006 g / cm^3
# Si number density = 21.278488 Si / 1000 Ang^3
#
#
#
# Elastic Constant Matrix: (Units=GPa)
#
#
# Indices 1 2 3 4 5 6 
#
# 1 82.3020 37.1979 37.2325 0.0000 5.4860 0.0000
# 2 37.1979 86.3870 44.6631 0.0000 -3.3986 0.0000
# 3 37.2325 44.6631 88.7886 0.0000 1.6152 0.0000
# 4 0.0000 0.0000 0.0000 29.0893 0.0000 0.4601
# 5 5.4860 -3.3986 1.6152 0.0000 31.9288 0.0000
# 6 0.0000 0.0000 0.0000 0.4601 0.0000 39.8316
#
#
#
# Elastic Compliance Matrix: (Units=1/GPa)
#
#
# Indices 1 2 3 4 5 6 
#
# 1 0.016610 -0.005008 -0.004389 0.000000 -0.003165 0.000000
# 2 -0.005008 0.017292 -0.006653 0.000000 0.003038 0.000000
# 3 -0.004389 -0.006653 0.016464 0.000000 -0.000787 0.000000
# 4 0.000000 0.000000 0.000000 0.034383 0.000000 -0.000397
# 5 -0.003165 0.003038 -0.000787 0.000000 0.032227 0.000000
# 6 0.000000 0.000000 0.000000 -0.000397 0.000000 0.025110
#
#
# Mechanical properties :
#
#
# Convention : Reuss Voigt Hill
#
# Bulk Modulus (GPa) = 54.74599 55.07381 54.90990
# Shear Modulus (GPa) = 27.73552 29.39554 28.56553
#
# Velocity S-wave (km/s) = 3.61425 3.72084 3.66794
# Velocity P-wave (km/s) = 6.57277 6.66319 6.61814
#
# Compressibility (1/GPa) = 0.01826618
#
# Stress axis : x y z
#
# Youngs Moduli (GPa) = 60.20450 57.83179 60.73785
#
# Poissons Ratio (x) = 0.28961 0.26656
# Poissons Ratio (y) = 0.30149 0.40411
# Poissons Ratio (z) = 0.26421 0.38478
#
# Static dielectric constant tensor:
#      x y z
#    x 3.883660 0.000000 0.035290 
#    y 0.000000 3.697030 0.000000 
#    z 0.035290 0.000000 3.990820 
# 
# 
# High freq. dielectric constant tensor:
#      x y z
#    x 1.834490 0.000000 0.006820 
#    y 0.000000 1.823880 0.000000 
#    z 0.006820 0.000000 1.849510 
# 
# From -- ./inp_files/11913.got.cif
#   From: 2010.03.12/outbox.cif.g09.slc.cpg/sg4_6_cif.got.tgz:11913.got - 2010.03.31 09:31:35.
