data_PCOD8046374
_publ_section_title
;
Structure prediction by ZEFSAII (Michael W. Deem and Ramdas Pophale) SiO2 
 PCOD8046374
Probable space group: P 21
;
_chemical_formula_sum "Si O2"
_cell_formula_units_Z 14
_cell_length_a 8.809915
_cell_length_b 9.138611
_cell_length_c 12.820083
_cell_angle_alpha 90.000000
_cell_angle_beta 140.172030
_cell_angle_gamma 90.000000
_cell_volume 661.076150
_symmetry_space_group_name_H-M "P 21"
_symmetry_group_IT_number 4
_symmetry_cell_setting 'monoclinic'
loop_
_space_group_symop_operation_xyz
x,y,z
-x,1/2+y,-z
loop_
_atom_site_type_symbol
_atom_site_label
_atom_site_fract_x
_atom_site_fract_y
_atom_site_fract_z
Si Si1 0.949221 0.725110 0.777128
Si Si2 0.006009 0.186038 0.792974
Si Si3 0.665393 0.445223 0.957314
Si Si4 0.156678 0.346382 0.669363
Si Si5 0.186573 0.100852 0.513164
Si Si6 0.796343 0.442712 0.789109
Si Si7 0.584635 0.967811 0.592031
O O1 0.932672 0.678217 0.648464
O O2 0.960076 0.583947 0.856865
O O3 0.718645 0.817861 0.691988
O O4 0.192030 0.811433 0.917708
O O5 0.022344 0.272205 0.693907
O O6 0.960429 0.299828 0.862804
O O7 0.781801 0.081973 0.660754
O O8 0.244504 0.096731 0.944678
O O9 0.390715 0.424171 0.838362
O O10 0.691244 0.448119 0.847533
O O11 0.225403 0.224660 0.620493
O O12 0.983743 0.472263 0.532262
O O13 0.439564 0.029757 0.614816
O O14 0.584110 0.437039 0.594342
#
# Coordination Sequence:
#
# PCOD8046374 Si02
#       7
#     2   2   2   2   2   2   2
#     4  10  22  42  68  95 132 173 232 276 334 389
#     4  11  24  43  68  97 136 175 223 280 340 398
#     4  11  26  40  65  95 140 177 213 277 341 417
#     4  12  27  45  65 102 138 181 224 279 349 408
#     4  11  26  43  70  98 135 179 233 281 339 397
#     4  11  20  41  68  97 127 173 235 274 327 392
#     4  10  21  42  70  96 126 176 228 291 322 389
#
# _framework density 21.177589000000001
#
# number of rings (size 3 to 8) (size 9 to 14) (size 15 to 20)
#    0.000    1.143    2.857    4.286    8.000    1.143 
#    0.000    2.857    0.000    0.000    0.000    0.000 
#    0.000    0.000    0.000    0.000    0.000    0.000 
#
# Total GULP energy -173655.928776 kJ/mol
# GULP energy per Si atom -12403.994913 kJ/mol
# Density = 2.112939 g / cm^3
# Si number density = 21.177589 Si / 1000 Ang^3
#
#
#
# Elastic Constant Matrix: (Units=GPa)
#
#
# Indices 1 2 3 4 5 6 
#
# 1 62.9561 18.7449 24.5806 0.0000 9.7758 0.0000
# 2 18.7449 118.0688 36.0461 0.0000 18.0408 0.0000
# 3 24.5806 36.0461 59.6277 0.0000 16.8501 0.0000
# 4 0.0000 0.0000 0.0000 29.3462 0.0000 -7.9250
# 5 9.7758 18.0408 16.8501 0.0000 30.9501 0.0000
# 6 0.0000 0.0000 0.0000 -7.9250 0.0000 36.2791
#
#
#
# Elastic Compliance Matrix: (Units=1/GPa)
#
#
# Indices 1 2 3 4 5 6 
#
# 1 0.019077 -0.000617 -0.006961 0.000000 -0.001876 0.000000
# 2 -0.000617 0.010667 -0.005309 0.000000 -0.003133 0.000000
# 3 -0.006961 -0.005309 0.025236 0.000000 -0.008446 0.000000
# 4 0.000000 0.000000 0.000000 0.036212 0.000000 0.007910
# 5 -0.001876 -0.003133 -0.008446 0.000000 0.039327 0.000000
# 6 0.000000 0.000000 0.000000 0.007910 0.000000 0.029292
#
#
# Mechanical properties :
#
#
# Convention : Reuss Voigt Hill
#
# Bulk Modulus (GPa) = 34.23859 44.37732 39.30795
# Shear Modulus (GPa) = 25.59887 30.06714 27.83300
#
# Velocity S-wave (km/s) = 3.48051 3.77206 3.62921
# Velocity P-wave (km/s) = 5.68809 6.32231 6.01357
#
# Compressibility (1/GPa) = 0.02920681
#
# Stress axis : x y z
#
# Youngs Moduli (GPa) = 52.41914 93.74686 39.62522
#
# Poissons Ratio (x) = 0.05782 0.27584
# Poissons Ratio (y) = 0.03233 0.21037
# Poissons Ratio (z) = 0.36490 0.49769
#
# Static dielectric constant tensor:
#      x y z
#    x 3.829820 0.000000 0.112710 
#    y 0.000000 4.338480 0.000000 
#    z 0.112710 0.000000 3.690440 
# 
# 
# High freq. dielectric constant tensor:
#      x y z
#    x 1.827280 0.000000 0.006920 
#    y 0.000000 1.854520 0.000000 
#    z 0.006920 0.000000 1.819830 
# 
# From -- ./inp_files/5358.got.cif
#   From: 2010.03.12/outbox.cif.g09.slc.cpg/sg4_3_cif.got.tgz:5358.got - 2010.03.31 09:31:35.
