data_PCOD8046655
_publ_section_title
;
Structure prediction by ZEFSAII (Michael W. Deem and Ramdas Pophale) SiO2 
 PCOD8046655
Probable space group: P 21
;
_chemical_formula_sum "Si O2"
_cell_formula_units_Z 14
_cell_length_a 7.815030
_cell_length_b 9.156018
_cell_length_c 11.681664
_cell_angle_alpha 90.000000
_cell_angle_beta 139.100604
_cell_angle_gamma 90.000000
_cell_volume 547.275651
_symmetry_space_group_name_H-M "P 21"
_symmetry_group_IT_number 4
_symmetry_cell_setting 'monoclinic'
loop_
_space_group_symop_operation_xyz
x,y,z
-x,1/2+y,-z
loop_
_atom_site_type_symbol
_atom_site_label
_atom_site_fract_x
_atom_site_fract_y
_atom_site_fract_z
Si Si1 0.178675 0.994120 0.470759
Si Si2 0.783965 0.976553 0.078087
Si Si3 0.933915 0.490509 0.004398
Si Si4 0.470226 0.449996 0.619747
Si Si5 0.010525 0.780847 0.552730
Si Si6 0.320779 0.649139 0.346696
Si Si7 0.679645 0.297022 0.063465
O O1 0.062009 0.989875 0.283931
O O2 0.179357 0.835560 0.530077
O O3 0.006082 0.105609 0.461954
O O4 0.465814 0.059164 0.616524
O O5 0.629306 0.128628 0.008941
O O6 0.847841 0.937480 0.978136
O O7 0.607843 0.859430 0.055894
O O8 0.046341 0.622728 0.140211
O O9 0.841448 0.357897 0.037397
O O10 0.674758 0.538410 0.803245
O O11 0.271291 0.359430 0.598311
O O12 0.319239 0.572818 0.470204
O O13 0.615351 0.322631 0.614599
O O14 0.141199 0.828762 0.737115
#
# Coordination Sequence:
#
# PCOD8046655 Si02
#       7
#     2   2   2   2   2   2   2
#     4  10  22  43  67  97 136 181 230 289 351 418
#     4  11  25  45  71 104 145 188 240 298 358 431
#     4  12  24  44  74 106 144 188 238 294 366 428
#     4  11  24  43  69  99 138 182 232 291 350 423
#     4  10  22  43  67  97 136 181 230 289 351 418
#     4  11  24  43  69  99 138 182 232 291 350 423
#     4  11  25  45  71 104 145 188 240 298 358 431
#
# _framework density 25.581258999999999
#
# number of rings (size 3 to 8) (size 9 to 14) (size 15 to 20)
#    0.000    1.143    2.857    2.571    0.000    8.000 
#    0.000    0.000    0.000    0.000    0.000    0.000 
#    0.000    0.000    0.000    0.000    0.000    0.000 
#
# Total GULP energy -173555.919031 kJ/mol
# GULP energy per Si atom -12396.851359 kJ/mol
# Density = 2.552303 g / cm^3
# Si number density = 25.581259 Si / 1000 Ang^3
#
#
#
# Elastic Constant Matrix: (Units=GPa)
#
#
# Indices 1 2 3 4 5 6 
#
# 1 50.0793 13.2274 -4.5149 0.0000 -7.3019 0.0000
# 2 13.2274 75.4016 23.9766 0.0000 2.9048 0.0000
# 3 -4.5149 23.9766 123.7834 0.0000 2.8373 0.0000
# 4 0.0000 0.0000 0.0000 28.5944 0.0000 5.1333
# 5 -7.3019 2.9048 2.8373 0.0000 37.6560 0.0000
# 6 0.0000 0.0000 0.0000 5.1333 0.0000 43.6350
#
#
#
# Elastic Compliance Matrix: (Units=1/GPa)
#
#
# Indices 1 2 3 4 5 6 
#
# 1 0.021960 -0.004526 0.001575 0.000000 0.004489 0.000000
# 2 -0.004526 0.015095 -0.003047 0.000000 -0.001813 0.000000
# 3 0.001575 -0.003047 0.008729 0.000000 -0.000117 0.000000
# 4 0.000000 0.000000 0.000000 0.035726 0.000000 -0.004203
# 5 0.004489 -0.001813 -0.000117 0.000000 0.027575 0.000000
# 6 0.000000 0.000000 0.000000 -0.004203 0.000000 0.023412
#
#
# Mechanical properties :
#
#
# Convention : Reuss Voigt Hill
#
# Bulk Modulus (GPa) = 29.59719 34.96028 32.27873
# Shear Modulus (GPa) = 32.10112 36.41543 34.25828
#
# Velocity S-wave (km/s) = 3.54626 3.77705 3.66347
# Velocity P-wave (km/s) = 5.32568 5.71992 5.52632
#
# Compressibility (1/GPa) = 0.03378700
#
# Stress axis : x y z
#
# Youngs Moduli (GPa) = 45.53678 66.24628 114.56016
#
# Poissons Ratio (x) = 0.29984 -0.18041
# Poissons Ratio (y) = 0.20610 0.34912
# Poissons Ratio (z) = -0.07171 0.20188
#
# Static dielectric constant tensor:
#      x y z
#    x 4.497230 0.000000 0.008180 
#    y 0.000000 4.554150 0.000000 
#    z 0.008180 0.000000 4.603070 
# 
# 
# High freq. dielectric constant tensor:
#      x y z
#    x 2.027290 0.000000 -0.001800 
#    y 0.000000 2.014730 0.000000 
#    z -0.001800 0.000000 2.022050 
# 
# From -- ./inp_files/7937.got.cif
#   From: 2010.03.12/outbox.cif.g09.slc.cpg/sg4_4_cif.got.tgz:7937.got - 2010.03.31 09:31:35.
