data_PCOD8046292
_publ_section_title
;
Structure prediction by ZEFSAII (Michael W. Deem and Ramdas Pophale) SiO2 
 PCOD8046292
Probable space group: P 21
;
_chemical_formula_sum "Si O2"
_cell_formula_units_Z 16
_cell_length_a 9.202089
_cell_length_b 9.194669
_cell_length_c 8.020427
_cell_angle_alpha 90.000000
_cell_angle_beta 85.295170
_cell_angle_gamma 90.000000
_cell_volume 676.323040
_symmetry_space_group_name_H-M "P 21"
_symmetry_group_IT_number 4
_symmetry_cell_setting 'monoclinic'
loop_
_space_group_symop_operation_xyz
x,y,z
-x,1/2+y,-z
loop_
_atom_site_type_symbol
_atom_site_label
_atom_site_fract_x
_atom_site_fract_y
_atom_site_fract_z
Si Si1 0.546009 0.531660 0.520849
Si Si2 0.305690 0.732053 0.513463
Si Si3 0.724739 0.470557 0.976456
Si Si4 0.744476 0.693154 0.265777
Si Si5 0.425785 0.462928 0.866529
Si Si6 0.811088 0.180520 0.108135
Si Si7 0.067873 0.105775 0.283686
Si Si8 0.997830 0.311124 0.567768
O O1 0.396171 0.588939 0.444379
O O2 0.576990 0.362499 0.490122
O O3 0.682655 0.627555 0.445424
O O4 0.509668 0.557724 0.718403
O O5 0.239769 0.720509 0.702023
O O6 0.170986 0.758703 0.399368
O O7 0.551655 0.432898 0.990816
O O8 0.776002 0.550336 0.799986
O O9 0.758869 0.565092 0.133648
O O10 0.811728 0.319012 0.986413
O O11 0.637050 0.814640 0.203087
O O12 0.906105 0.752935 0.286940
O O13 0.294405 0.556350 0.958764
O O14 0.974277 0.120212 0.120917
O O15 0.999864 0.986873 0.419711
O O16 0.070964 0.257748 0.385908
#
# Coordination Sequence:
#
# PCOD8046292 Si02
#       8
#     2   2   2   2   2   2   2   2
#     4  11  21  41  68 101 128 177 232 281 333 392
#     4  10  21  40  68  98 132 173 225 287 332 393
#     4  12  26  44  68  98 140 183 227 279 355 411
#     4  12  24  42  70 100 139 182 227 289 342 416
#     4  11  23  44  65 100 133 183 233 282 339 405
#     4  10  23  44  65  94 144 173 224 282 342 411
#     4  11  26  45  71  99 135 181 224 289 342 412
#     4  11  24  46  69 104 133 176 236 285 343 402
#
# _framework density 23.657333999999999
#
# number of rings (size 3 to 8) (size 9 to 14) (size 15 to 20)
#    0.000    1.000    3.750    3.000    3.500    0.000 
#    0.000    1.250    0.000    0.000    0.000    0.000 
#    0.000    0.000    0.000    0.000    0.000    0.000 
#
# Total GULP energy -198310.839918 kJ/mol
# GULP energy per Si atom -12394.427495 kJ/mol
# Density = 2.360349 g / cm^3
# Si number density = 23.657334 Si / 1000 Ang^3
#
#
#
# Elastic Constant Matrix: (Units=GPa)
#
#
# Indices 1 2 3 4 5 6 
#
# 1 109.7252 29.1867 7.2617 0.0000 25.5008 0.0000
# 2 29.1867 89.6503 14.5330 0.0000 4.3014 0.0000
# 3 7.2617 14.5330 28.4670 0.0000 5.5184 0.0000
# 4 0.0000 0.0000 0.0000 39.5091 0.0000 1.8711
# 5 25.5008 4.3014 5.5184 0.0000 33.4857 0.0000
# 6 0.0000 0.0000 0.0000 1.8711 0.0000 33.9684
#
#
#
# Elastic Compliance Matrix: (Units=1/GPa)
#
#
# Indices 1 2 3 4 5 6 
#
# 1 0.012087 -0.003586 0.000457 0.000000 -0.008819 0.000000
# 2 -0.003586 0.013235 -0.006241 0.000000 0.002059 0.000000
# 3 0.000457 -0.006241 0.039368 0.000000 -0.006034 0.000000
# 4 0.000000 0.000000 0.000000 0.025377 0.000000 -0.001398
# 5 -0.008819 0.002059 -0.006034 0.000000 0.037310 0.000000
# 6 0.000000 0.000000 0.000000 -0.001398 0.000000 0.029516
#
#
# Mechanical properties :
#
#
# Convention : Reuss Voigt Hill
#
# Bulk Modulus (GPa) = 21.76298 36.64502 29.20400
# Shear Modulus (GPa) = 26.18503 33.18339 29.68421
#
# Velocity S-wave (km/s) = 3.33054 3.74928 3.54610
# Velocity P-wave (km/s) = 4.89992 5.85375 5.39794
#
# Compressibility (1/GPa) = 0.04594959
#
# Stress axis : x y z
#
# Youngs Moduli (GPa) = 82.73363 75.55815 25.40148
#
# Poissons Ratio (x) = 0.27095 -0.01161
# Poissons Ratio (y) = 0.29668 0.15853
# Poissons Ratio (z) = -0.03782 0.47157
#
# Static dielectric constant tensor:
#      x y z
#    x 5.030030 0.000000 0.189560 
#    y 0.000000 4.264710 0.000000 
#    z 0.189560 0.000000 3.888790 
# 
# 
# High freq. dielectric constant tensor:
#      x y z
#    x 1.954150 0.000000 0.008740 
#    y 0.000000 1.935070 0.000000 
#    z 0.008740 0.000000 1.906450 
# 
# From -- ./inp_files/5654.got.cif
#   From: 2010.03.12/outbox.cif.g09.slc.cpg/sg4_3_cif.got.tgz:5654.got - 2010.03.31 09:31:35.
