data_PCOD8046391
_publ_section_title
;
Structure prediction by ZEFSAII (Michael W. Deem and Ramdas Pophale) SiO2 
 PCOD8046391
Probable space group: P 21
;
_chemical_formula_sum "Si O2"
_cell_formula_units_Z 14
_cell_length_a 10.735357
_cell_length_b 9.449221
_cell_length_c 5.296486
_cell_angle_alpha 90.000000
_cell_angle_beta 84.658874
_cell_angle_gamma 90.000000
_cell_volume 534.946777
_symmetry_space_group_name_H-M "P 21"
_symmetry_group_IT_number 4
_symmetry_cell_setting 'monoclinic'
loop_
_space_group_symop_operation_xyz
x,y,z
-x,1/2+y,-z
loop_
_atom_site_type_symbol
_atom_site_label
_atom_site_fract_x
_atom_site_fract_y
_atom_site_fract_z
Si Si1 0.797801 0.506240 0.397694
Si Si2 0.541747 0.533112 0.234080
Si Si3 0.829327 0.220537 0.606554
Si Si4 0.023235 0.578567 0.048186
Si Si5 0.800692 0.957138 0.361299
Si Si6 0.900562 0.740937 0.679707
Si Si7 0.454070 0.366138 0.751795
O O1 0.692457 0.522781 0.203653
O O2 0.767495 0.372954 0.588317
O O3 0.793648 0.639920 0.581753
O O4 0.936671 0.483064 0.250208
O O5 0.498242 0.449512 0.493335
O O6 0.500136 0.700937 0.242769
O O7 0.493056 0.453024 0.994307
O O8 0.747728 0.111642 0.451180
O O9 0.972622 0.210877 0.492119
O O10 0.849574 0.161206 0.885665
O O11 0.925653 0.699382 0.965176
O O12 0.073177 0.467998 0.830732
O O13 0.845103 0.895597 0.629343
O O14 0.697557 0.865912 0.233212
#
# Coordination Sequence:
#
# PCOD8046391 Si02
#       7
#     2   2   2   2   2   2   2
#     4  11  25  44  73 111 150 196 254 313 388 465
#     4  12  30  56  84 114 159 209 279 332 402 464
#     4  10  23  40  65 112 150 192 238 304 379 472
#     4  10  24  44  75 110 156 196 241 316 385 472
#     4  11  25  44  73 110 151 196 253 314 388 464
#     4  10  21  43  66 107 151 192 246 299 385 461
#     4  12  30  55  84 116 155 215 271 340 393 474
#
# _framework density 26.170828
#
# number of rings (size 3 to 8) (size 9 to 14) (size 15 to 20)
#    0.000    1.143    1.429    3.429    8.000   11.429 
#    0.000    0.000    0.000    0.000    0.000    0.000 
#    0.000    0.000    0.000    0.000    0.000    0.000 
#
# Total GULP energy -173437.082108 kJ/mol
# GULP energy per Si atom -12388.363008 kJ/mol
# Density = 2.611126 g / cm^3
# Si number density = 26.170828 Si / 1000 Ang^3
#
#
#
# Elastic Constant Matrix: (Units=GPa)
#
#
# Indices 1 2 3 4 5 6 
#
# 1 60.5513 32.9526 25.7895 0.0000 23.4120 0.0000
# 2 32.9526 177.9345 58.1272 0.0000 6.4978 0.0000
# 3 25.7895 58.1272 131.0920 0.0000 19.9688 0.0000
# 4 0.0000 0.0000 0.0000 40.0827 0.0000 5.6483
# 5 23.4120 6.4978 19.9688 0.0000 38.9718 0.0000
# 6 0.0000 0.0000 0.0000 5.6483 0.0000 35.7036
#
#
#
# Elastic Compliance Matrix: (Units=1/GPa)
#
#
# Indices 1 2 3 4 5 6 
#
# 1 0.024100 -0.003614 -0.001112 0.000000 -0.013306 0.000000
# 2 -0.003614 0.007121 -0.002816 0.000000 0.002427 0.000000
# 3 -0.001112 -0.002816 0.009678 0.000000 -0.003821 0.000000
# 4 0.000000 0.000000 0.000000 0.025517 0.000000 -0.004037
# 5 -0.013306 0.002427 -0.003821 0.000000 0.035206 0.000000
# 6 0.000000 0.000000 0.000000 -0.004037 0.000000 0.028647
#
#
# Mechanical properties :
#
#
# Convention : Reuss Voigt Hill
#
# Bulk Modulus (GPa) = 38.73818 67.03514 52.88666
# Shear Modulus (GPa) = 32.47653 39.79884 36.13768
#
# Velocity S-wave (km/s) = 3.52653 3.90389 3.71999
# Velocity P-wave (km/s) = 5.60500 6.78163 6.22119
#
# Compressibility (1/GPa) = 0.02581433
#
# Stress axis : x y z
#
# Youngs Moduli (GPa) = 41.49407 140.43626 103.33038
#
# Poissons Ratio (x) = 0.50755 0.11489
# Poissons Ratio (y) = 0.14996 0.29098
# Poissons Ratio (z) = 0.04613 0.39547
#
# Static dielectric constant tensor:
#      x y z
#    x 4.696510 0.000000 0.471490 
#    y 0.000000 4.982360 0.000000 
#    z 0.471490 0.000000 4.922390 
# 
# 
# High freq. dielectric constant tensor:
#      x y z
#    x 2.033580 0.000000 0.026630 
#    y 0.000000 2.070780 0.000000 
#    z 0.026630 0.000000 2.042550 
# 
# From -- ./inp_files/2526.got.cif
#   From: 2010.03.12/outbox.cif.g09.slc.cpg/sg4_2_cif.got.tgz:2526.got - 2010.03.31 09:31:35.
