data_PCOD8046801
_publ_section_title
;
Structure prediction by ZEFSAII (Michael W. Deem and Ramdas Pophale) SiO2 
 PCOD8046801
Probable space group: P 21
;
_chemical_formula_sum "Si O2"
_cell_formula_units_Z 14
_cell_length_a 8.657401
_cell_length_b 8.000469
_cell_length_c 20.246365
_cell_angle_alpha 90.000000
_cell_angle_beta 31.217529
_cell_angle_gamma 90.000000
_cell_volume 726.811452
_symmetry_space_group_name_H-M "P 21"
_symmetry_group_IT_number 4
_symmetry_cell_setting 'monoclinic'
loop_
_space_group_symop_operation_xyz
x,y,z
-x,1/2+y,-z
loop_
_atom_site_type_symbol
_atom_site_label
_atom_site_fract_x
_atom_site_fract_y
_atom_site_fract_z
Si Si1 0.363220 0.743930 0.854109
Si Si2 0.911834 0.981661 0.954620
Si Si3 0.894697 0.948525 0.698873
Si Si4 0.269682 0.762620 0.454621
Si Si5 0.690191 0.295756 0.801127
Si Si6 0.220346 0.000350 0.354108
Si Si7 0.911817 0.622140 0.250001
O O1 0.640903 0.807161 0.797183
O O2 0.492721 0.622140 0.750001
O O3 0.208356 0.895529 0.873129
O O4 0.137769 0.646838 0.983841
O O5 0.645210 0.847042 0.056663
O O6 0.960183 0.043974 0.863144
O O7 0.128135 0.897240 0.556663
O O8 0.716126 0.122140 0.750001
O O9 0.081507 0.970453 0.698659
O O10 0.587240 0.700306 0.363145
O O11 0.073129 0.597444 0.516160
O O12 0.299131 0.848751 0.373128
O O13 0.829635 0.437119 0.702817
O O14 0.876146 0.273828 0.801340
#
# Coordination Sequence:
#
# PCOD8046801 Si02
#       7
#     2   2   2   2   2   2   2
#     4  10  23  40  67  92 122 165 211 264 306 372
#     4  11  23  42  65  94 125 167 211 258 317 372
#     4   9  22  43  61  93 123 164 207 263 308 374
#     4  11  23  42  65  94 125 167 211 258 317 372
#     4   9  22  43  61  93 123 164 207 263 308 374
#     4  10  23  40  67  92 122 165 211 264 306 372
#     4  10  26  36  68  90 130 164 202 260 326 376
#
# _framework density 19.262215999999999
#
# number of rings (size 3 to 8) (size 9 to 14) (size 15 to 20)
#    0.857    1.143    0.000    1.714   14.000    0.000 
#    5.143    0.000    0.000    0.000    0.000    0.000 
#    0.000    0.000    0.000    0.000    0.000    0.000 
#
# Total GULP energy -173519.076460 kJ/mol
# GULP energy per Si atom -12394.219747 kJ/mol
# Density = 1.921837 g / cm^3
# Si number density = 19.262216 Si / 1000 Ang^3
#
#
#
# Elastic Constant Matrix: (Units=GPa)
#
#
# Indices 1 2 3 4 5 6 
#
# 1 123.1773 53.7122 57.8731 0.0000 -0.2026 0.0000
# 2 53.7122 100.0048 54.9511 0.0000 0.0114 0.0000
# 3 57.8731 54.9511 107.7826 0.0000 0.0694 0.0000
# 4 0.0000 0.0000 0.0000 47.9129 0.0000 0.1039
# 5 -0.2026 0.0114 0.0694 0.0000 21.0103 0.0000
# 6 0.0000 0.0000 0.0000 0.1039 0.0000 36.0050
#
#
#
# Elastic Compliance Matrix: (Units=1/GPa)
#
#
# Indices 1 2 3 4 5 6 
#
# 1 0.011910 -0.004005 -0.004353 0.000000 0.000131 0.000000
# 2 -0.004005 0.015238 -0.005618 0.000000 -0.000028 0.000000
# 3 -0.004353 -0.005618 0.014480 0.000000 -0.000087 0.000000
# 4 0.000000 0.000000 0.000000 0.020871 0.000000 -0.000060
# 5 0.000131 -0.000028 -0.000087 0.000000 0.047597 0.000000
# 6 0.000000 0.000000 0.000000 -0.000060 0.000000 0.027774
#
#
# Mechanical properties :
#
#
# Convention : Reuss Voigt Hill
#
# Bulk Modulus (GPa) = 73.12731 73.78196 73.45463
# Shear Modulus (GPa) = 29.34580 31.94751 30.64666
#
# Velocity S-wave (km/s) = 3.90743 4.07696 3.99309
# Velocity P-wave (km/s) = 7.64224 7.78134 7.71210
#
# Compressibility (1/GPa) = 0.01367478
#
# Stress axis : x y z
#
# Youngs Moduli (GPa) = 83.96062 65.62678 69.06108
#
# Poissons Ratio (x) = 0.26283 0.30065
# Poissons Ratio (y) = 0.33625 0.38800
# Poissons Ratio (z) = 0.36552 0.36871
#
# Static dielectric constant tensor:
#      x y z
#    x 3.330480 0.000000 0.001270 
#    y 0.000000 3.652680 0.000000 
#    z 0.001270 0.000000 3.475730 
# 
# 
# High freq. dielectric constant tensor:
#      x y z
#    x 1.738070 0.000000 0.000140 
#    y 0.000000 1.757720 0.000000 
#    z 0.000140 0.000000 1.754670 
# 
# From -- ./inp_files/7465.got.cif
#   From: 2010.03.12/outbox.cif.g09.slc.cpg/sg4_4_cif.got.tgz:7465.got - 2010.03.31 09:31:35.
