data_PCOD8046958
_publ_section_title
;
Structure prediction by ZEFSAII (Michael W. Deem and Ramdas Pophale) SiO2 
 PCOD8046958
Probable space group: P 21
;
_chemical_formula_sum "Si O2"
_cell_formula_units_Z 16
_cell_length_a 8.626450
_cell_length_b 10.011276
_cell_length_c 11.674550
_cell_angle_alpha 90.000000
_cell_angle_beta 136.192085
_cell_angle_gamma 90.000000
_cell_volume 697.943371
_symmetry_space_group_name_H-M "P 21"
_symmetry_group_IT_number 4
_symmetry_cell_setting 'monoclinic'
loop_
_space_group_symop_operation_xyz
x,y,z
-x,1/2+y,-z
loop_
_atom_site_type_symbol
_atom_site_label
_atom_site_fract_x
_atom_site_fract_y
_atom_site_fract_z
Si Si1 0.581377 0.908290 0.938641
Si Si2 0.497812 0.820142 0.134447
Si Si3 0.167014 0.943116 0.566251
Si Si4 0.327153 0.105508 0.436697
Si Si5 0.439493 0.871207 0.353782
Si Si6 0.987889 0.729344 0.125227
Si Si7 0.937421 0.677878 0.347450
Si Si8 0.099665 0.643903 0.944286
O O1 0.349220 0.884489 0.750405
O O2 0.539723 0.923539 0.053201
O O3 0.735412 0.781468 0.993533
O O4 0.712221 0.033736 0.963057
O O5 0.541313 0.887773 0.281210
O O6 0.666258 0.693513 0.207967
O O7 0.236641 0.779204 0.992865
O O8 0.030950 0.818318 0.444972
O O9 0.288800 0.025746 0.532430
O O10 0.001800 0.047267 0.544704
O O11 0.450554 0.244829 0.523631
O O12 0.092351 0.134909 0.251373
O O13 0.485406 0.010706 0.442938
O O14 0.169854 0.848887 0.211203
O O15 0.027442 0.651871 0.266634
O O16 0.006442 0.634177 0.024550
#
# Coordination Sequence:
#
# PCOD8046958 Si02
#       8
#     2   2   2   2   2   2   2   2
#     4  11  23  46  71  99 139 186 235 288 347 418
#     4  10  23  45  70  98 141 186 236 289 344 421
#     4  12  25  45  73 105 146 182 233 296 357 417
#     4  12  25  45  73 105 146 182 233 296 357 417
#     4  11  23  46  70 105 143 189 231 296 350 419
#     4  10  23  45  70  98 141 186 236 289 344 421
#     4  11  23  46  70 105 143 189 231 296 350 419
#     4  11  23  46  71  99 139 186 235 288 347 418
#
# _framework density 22.924496000000001
#
# number of rings (size 3 to 8) (size 9 to 14) (size 15 to 20)
#    0.000    1.000    5.000    1.500    3.500    2.000 
#    0.000    0.000    0.000    0.000    0.000    0.000 
#    0.000    0.000    0.000    0.000    0.000    0.000 
#
# Total GULP energy -198362.716591 kJ/mol
# GULP energy per Si atom -12397.669787 kJ/mol
# Density = 2.287232 g / cm^3
# Si number density = 22.924496 Si / 1000 Ang^3
#
#
#
# Elastic Constant Matrix: (Units=GPa)
#
#
# Indices 1 2 3 4 5 6 
#
# 1 144.9021 31.5100 35.1465 0.0000 -34.3475 0.0000
# 2 31.5100 79.1285 31.5345 0.0000 -5.3377 0.0000
# 3 35.1465 31.5345 97.4348 0.0000 -10.4766 0.0000
# 4 0.0000 0.0000 0.0000 31.0675 0.0000 -1.2881
# 5 -34.3475 -5.3377 -10.4766 0.0000 42.6384 0.0000
# 6 0.0000 0.0000 0.0000 -1.2881 0.0000 34.4573
#
#
#
# Elastic Compliance Matrix: (Units=1/GPa)
#
#
# Indices 1 2 3 4 5 6 
#
# 1 0.009557 -0.002597 -0.001863 0.000000 0.006916 0.000000
# 2 -0.002597 0.015234 -0.004122 0.000000 -0.001198 0.000000
# 3 -0.001863 -0.004122 0.012380 0.000000 0.001025 0.000000
# 4 0.000000 0.000000 0.000000 0.032238 0.000000 0.001205
# 5 0.006916 -0.001198 0.001025 0.000000 0.029126 0.000000
# 6 0.000000 0.000000 0.000000 0.001205 0.000000 0.029066
#
#
# Mechanical properties :
#
#
# Convention : Reuss Voigt Hill
#
# Bulk Modulus (GPa) = 49.98572 57.53862 53.76217
# Shear Modulus (GPa) = 33.01746 36.51760 34.76753
#
# Velocity S-wave (km/s) = 3.79921 3.99551 3.89859
# Velocity P-wave (km/s) = 6.41070 6.81463 6.61575
#
# Compressibility (1/GPa) = 0.02000571
#
# Stress axis : x y z
#
# Youngs Moduli (GPa) = 104.63309 65.64345 80.77644
#
# Poissons Ratio (x) = 0.17045 0.15052
# Poissons Ratio (y) = 0.27170 0.33300
# Poissons Ratio (z) = 0.19498 0.27061
#
# Static dielectric constant tensor:
#      x y z
#    x 4.469420 0.000000 -0.038740 
#    y 0.000000 3.933650 0.000000 
#    z -0.038740 0.000000 4.247800 
# 
# 
# High freq. dielectric constant tensor:
#      x y z
#    x 1.924140 0.000000 -0.007410 
#    y 0.000000 1.886170 0.000000 
#    z -0.007410 0.000000 1.908300 
# 
# From -- ./inp_files/11108.got.cif
#   From: 2010.03.12/outbox.cif.g09.slc.cpg/sg4_6_cif.got.tgz:11108.got - 2010.03.31 09:31:35.
