data_PCOD8046988
_publ_section_title
;
Structure prediction by ZEFSAII (Michael W. Deem and Ramdas Pophale) SiO2 
 PCOD8046988
Probable space group: P 21
;
_chemical_formula_sum "Si O2"
_cell_formula_units_Z 12
_cell_length_a 5.219187
_cell_length_b 8.538614
_cell_length_c 12.727084
_cell_angle_alpha 90.000000
_cell_angle_beta 59.537976
_cell_angle_gamma 90.000000
_cell_volume 488.887539
_symmetry_space_group_name_H-M "P 21"
_symmetry_group_IT_number 4
_symmetry_cell_setting 'monoclinic'
loop_
_space_group_symop_operation_xyz
x,y,z
-x,1/2+y,-z
loop_
_atom_site_type_symbol
_atom_site_label
_atom_site_fract_x
_atom_site_fract_y
_atom_site_fract_z
Si Si1 0.706799 0.128480 0.102042
Si Si2 0.167646 0.235291 0.635038
Si Si3 0.085923 0.266902 0.211658
Si Si4 0.542125 0.414091 0.400826
Si Si5 0.380817 0.548942 0.221677
Si Si6 0.139013 0.286594 0.880860
O O1 0.353644 0.153569 0.195360
O O2 0.931933 0.196749 0.141935
O O3 0.763894 0.943653 0.079647
O O4 0.802702 0.228770 0.978024
O O5 0.263002 0.361120 0.528548
O O6 0.184325 0.311892 0.747260
O O7 0.831864 0.181314 0.683415
O O8 0.383207 0.087960 0.577173
O O9 0.221676 0.444226 0.163821
O O10 0.825783 0.295676 0.353436
O O11 0.463091 0.420685 0.293643
O O12 0.663450 0.640259 0.117677
#
# Coordination Sequence:
#
# PCOD8046988 Si02
#       6
#     2   2   2   2   2   2
#     4  12  28  46  80 104 156 191 257 308 377 442
#     4  10  25  44  74 106 152 189 254 300 377 440
#     4  11  25  48  75 110 141 205 244 310 373 441
#     4  10  23  46  71 109 146 196 241 315 365 448
#     4  10  23  47  74 107 152 193 254 303 377 444
#     4  11  28  47  72 116 143 204 248 314 371 451
#
# _framework density 24.545522999999999
#
# number of rings (size 3 to 8) (size 9 to 14) (size 15 to 20)
#    0.000    1.333    1.667    1.000   11.667    5.333 
#    0.000    0.000    0.000    0.000    0.000    0.000 
#    0.000    0.000    0.000    0.000    0.000    0.000 
#
# Total GULP energy -148724.805077 kJ/mol
# GULP energy per Si atom -12393.733756 kJ/mol
# Density = 2.448966 g / cm^3
# Si number density = 24.545523 Si / 1000 Ang^3
#
#
#
# Elastic Constant Matrix: (Units=GPa)
#
#
# Indices 1 2 3 4 5 6 
#
# 1 107.5343 25.7527 22.6409 0.0000 -15.0046 0.0000
# 2 25.7527 92.0177 47.7888 0.0000 3.0051 0.0000
# 3 22.6409 47.7888 82.7257 0.0000 -5.7661 0.0000
# 4 0.0000 0.0000 0.0000 53.9062 0.0000 -7.9574
# 5 -15.0046 3.0051 -5.7661 0.0000 26.4683 0.0000
# 6 0.0000 0.0000 0.0000 -7.9574 0.0000 20.8671
#
#
#
# Elastic Compliance Matrix: (Units=1/GPa)
#
#
# Indices 1 2 3 4 5 6 
#
# 1 0.011064 -0.002805 -0.000963 0.000000 0.006381 0.000000
# 2 -0.002805 0.016617 -0.009214 0.000000 -0.005484 0.000000
# 3 -0.000963 -0.009214 0.017982 0.000000 0.004417 0.000000
# 4 0.000000 0.000000 0.000000 0.019657 0.000000 0.007496
# 5 0.006381 -0.005484 0.004417 0.000000 0.042983 0.000000
# 6 0.000000 0.000000 0.000000 0.007496 0.000000 0.050781
#
#
# Mechanical properties :
#
#
# Convention : Reuss Voigt Hill
#
# Bulk Modulus (GPa) = 50.76158 52.73806 51.74982
# Shear Modulus (GPa) = 26.09418 32.65468 29.37443
#
# Velocity S-wave (km/s) = 3.26405 3.65138 3.46314
# Velocity P-wave (km/s) = 5.91023 6.26971 6.09262
#
# Compressibility (1/GPa) = 0.01969994
#
# Stress axis : x y z
#
# Youngs Moduli (GPa) = 90.38201 60.18112 55.61072
#
# Poissons Ratio (x) = 0.16879 0.05356
# Poissons Ratio (y) = 0.25349 0.51238
# Poissons Ratio (z) = 0.08705 0.55449
#
# Static dielectric constant tensor:
#      x y z
#    x 4.411400 0.000000 -0.284990 
#    y 0.000000 4.393020 0.000000 
#    z -0.284990 0.000000 4.232840 
# 
# 
# High freq. dielectric constant tensor:
#      x y z
#    x 1.973070 0.000000 -0.022470 
#    y 0.000000 1.980560 0.000000 
#    z -0.022470 0.000000 1.962290 
# 
# From -- ./inp_files/2360.got.cif
#   From: 2010.03.12/outbox.cif.g09.slc.cpg/sg4_2_cif.got.tgz:2360.got - 2010.03.31 09:31:35.
