data_PCOD8046519
_publ_section_title
;
Structure prediction by ZEFSAII (Michael W. Deem and Ramdas Pophale) SiO2 
 PCOD8046519
Probable space group: P 21
;
_chemical_formula_sum "Si O2"
_cell_formula_units_Z 16
_cell_length_a 9.434859
_cell_length_b 12.631560
_cell_length_c 6.466335
_cell_angle_alpha 90.000000
_cell_angle_beta 73.378089
_cell_angle_gamma 90.000000
_cell_volume 738.435856
_symmetry_space_group_name_H-M "P 21"
_symmetry_group_IT_number 4
_symmetry_cell_setting 'monoclinic'
loop_
_space_group_symop_operation_xyz
x,y,z
-x,1/2+y,-z
loop_
_atom_site_type_symbol
_atom_site_label
_atom_site_fract_x
_atom_site_fract_y
_atom_site_fract_z
Si Si1 0.995799 0.501010 0.094836
Si Si2 0.072984 0.315201 0.340851
Si Si3 0.197814 0.455631 0.627644
Si Si4 0.122558 0.646918 0.382260
Si Si5 0.356801 0.819858 0.261702
Si Si6 0.616445 0.738858 0.901493
Si Si7 0.314162 0.008094 0.991934
Si Si8 0.495039 0.873690 0.604768
O O1 0.842656 0.529867 0.049396
O O2 0.976755 0.395561 0.241808
O O3 0.036103 0.600922 0.221078
O O4 0.127430 0.483345 0.876661
O O5 0.102861 0.364356 0.554702
O O6 0.222529 0.291475 0.153678
O O7 0.987695 0.205933 0.413766
O O8 0.203090 0.555730 0.474666
O O9 0.367113 0.418891 0.583907
O O10 0.246499 0.726264 0.246656
O O11 0.364551 0.839309 0.504131
O O12 0.521905 0.791052 0.122823
O O13 0.290787 0.924328 0.184131
O O14 0.540907 0.768795 0.714039
O O15 0.623316 0.613287 0.926878
O O16 0.434373 0.965651 0.779288
#
# Coordination Sequence:
#
# PCOD8046519 Si02
#       8
#     2   2   2   2   2   2   2   2
#     4  11  24  42  64  90 125 164 202 257 310 357
#     4  10  22  41  62  91 126 161 207 252 302 368
#     4  10  22  40  63  90 121 163 206 248 305 367
#     4  11  24  40  62  92 124 161 206 251 305 371
#     4  11  24  42  63  91 125 161 206 254 305 368
#     4  10  23  41  63  92 123 162 208 253 304 366
#     4  11  24  40  63  95 124 158 208 255 304 367
#     4  10  23  42  64  89 126 166 201 256 309 356
#
# _framework density 21.667421999999998
#
# number of rings (size 3 to 8) (size 9 to 14) (size 15 to 20)
#    0.000    1.500    0.000    3.750    0.000   16.000 
#    0.000    0.000    0.000    0.000    0.000    0.000 
#    0.000    0.000    0.000    0.000    0.000    0.000 
#
# Total GULP energy -198475.797580 kJ/mol
# GULP energy per Si atom -12404.737349 kJ/mol
# Density = 2.161811 g / cm^3
# Si number density = 21.667422 Si / 1000 Ang^3
#
#
#
# Elastic Constant Matrix: (Units=GPa)
#
#
# Indices 1 2 3 4 5 6 
#
# 1 111.3564 54.6577 51.8936 0.0000 3.6616 0.0000
# 2 54.6577 137.5823 45.1914 0.0000 13.6982 0.0000
# 3 51.8936 45.1914 97.6258 0.0000 2.8647 0.0000
# 4 0.0000 0.0000 0.0000 34.6879 0.0000 -3.3252
# 5 3.6616 13.6982 2.8647 0.0000 39.1398 0.0000
# 6 0.0000 0.0000 0.0000 -3.3252 0.0000 34.9027
#
#
#
# Elastic Compliance Matrix: (Units=1/GPa)
#
#
# Indices 1 2 3 4 5 6 
#
# 1 0.013211 -0.003510 -0.005409 0.000000 0.000389 0.000000
# 2 -0.003510 0.009802 -0.002586 0.000000 -0.002913 0.000000
# 3 -0.005409 -0.002586 0.014305 0.000000 0.000364 0.000000
# 4 0.000000 0.000000 0.000000 0.029094 0.000000 0.002772
# 5 0.000389 -0.002913 0.000364 0.000000 0.026506 0.000000
# 6 0.000000 0.000000 0.000000 0.002772 0.000000 0.028915
#
#
# Mechanical properties :
#
#
# Convention : Reuss Voigt Hill
#
# Bulk Modulus (GPa) = 69.89358 72.22776 71.06067
# Shear Modulus (GPa) = 33.41943 34.73417 34.07680
#
# Velocity S-wave (km/s) = 3.93158 4.00817 3.97006
# Velocity P-wave (km/s) = 7.27580 7.40457 7.34046
#
# Compressibility (1/GPa) = 0.01430747
#
# Stress axis : x y z
#
# Youngs Moduli (GPa) = 75.69430 102.01504 69.90694
#
# Poissons Ratio (x) = 0.35812 0.37811
# Poissons Ratio (y) = 0.26572 0.18079
# Poissons Ratio (z) = 0.40942 0.26382
#
# Static dielectric constant tensor:
#      x y z
#    x 3.851100 0.000000 -0.027540 
#    y 0.000000 3.948640 0.000000 
#    z -0.027540 0.000000 3.852140 
# 
# 
# High freq. dielectric constant tensor:
#      x y z
#    x 1.856780 0.000000 -0.004250 
#    y 0.000000 1.856720 0.000000 
#    z -0.004250 0.000000 1.854220 
# 
# From -- ./inp_files/1342.got.cif
#   From: 2010.03.12/outbox.cif.g09.slc.cpg/sg4_1_cif.got.tgz:1342.got - 2010.03.31 09:31:35.
