data_PCOD8046252
_publ_section_title
;
Structure prediction by ZEFSAII (Michael W. Deem and Ramdas Pophale) SiO2 
 PCOD8046252
Probable space group: P 21
;
_chemical_formula_sum "Si O2"
_cell_formula_units_Z 16
_cell_length_a 8.767060
_cell_length_b 17.982785
_cell_length_c 6.147111
_cell_angle_alpha 90.000000
_cell_angle_beta 128.241030
_cell_angle_gamma 90.000000
_cell_volume 761.168028
_symmetry_space_group_name_H-M "P 21"
_symmetry_group_IT_number 4
_symmetry_cell_setting 'monoclinic'
loop_
_space_group_symop_operation_xyz
x,y,z
-x,1/2+y,-z
loop_
_atom_site_type_symbol
_atom_site_label
_atom_site_fract_x
_atom_site_fract_y
_atom_site_fract_z
Si Si1 0.069628 0.735060 0.364922
Si Si2 0.776401 0.530352 0.018371
Si Si3 0.877266 0.988066 0.979555
Si Si4 0.015581 0.102832 0.419690
Si Si5 0.775118 0.677490 0.771694
Si Si6 0.571773 0.932914 0.398002
Si Si7 0.517350 0.299086 0.386171
Si Si8 0.784476 0.856742 0.203681
O O1 0.102476 0.659127 0.529828
O O2 0.272947 0.771099 0.492020
O O3 0.940597 0.792407 0.393205
O O4 0.961934 0.717819 0.042837
O O5 0.927225 0.491798 0.988107
O O6 0.870839 0.540787 0.339004
O O7 0.708987 0.610091 0.868332
O O8 0.588160 0.478421 0.878114
O O9 0.686632 0.989189 0.659262
O O10 0.884567 0.912073 0.120576
O O11 0.865887 0.059702 0.129064
O O12 0.173436 0.148885 0.422302
O O13 0.598163 0.734384 0.589856
O O14 0.463632 0.869150 0.437896
O O15 0.731392 0.898315 0.378273
O O16 0.409324 0.320946 0.068343
#
# Coordination Sequence:
#
# PCOD8046252 Si02
#       8
#     2   2   2   2   2   2   2   2
#     4  10  21  40  62  88 120 156 200 249 303 356
#     4  10  22  39  60  88 122 160 202 248 300 358
#     4  10  22  40  59  86 124 161 201 249 302 356
#     4  10  21  40  64  87 121 162 199 248 302 356
#     4   9  21  39  58  87 121 153 198 250 296 356
#     4  11  23  39  62  91 123 160 202 249 301 359
#     4  10  22  39  61  89 120 156 198 249 304 354
#     4  10  22  38  60  90 121 156 202 250 298 359
#
# _framework density 21.020327999999999
#
# number of rings (size 3 to 8) (size 9 to 14) (size 15 to 20)
#    0.000    2.000    0.000    2.250    0.000   11.000 
#    0.000    6.250    0.000    0.000    0.000    0.000 
#    0.000    0.000    0.000    0.000    0.000    0.000 
#
# Total GULP energy -198472.366701 kJ/mol
# GULP energy per Si atom -12404.522919 kJ/mol
# Density = 2.097249 g / cm^3
# Si number density = 21.020328 Si / 1000 Ang^3
#
#
#
# Elastic Constant Matrix: (Units=GPa)
#
#
# Indices 1 2 3 4 5 6 
#
# 1 91.5412 55.3706 68.4057 0.0000 10.0717 0.0000
# 2 55.3706 112.6987 64.8059 0.0000 17.2755 0.0000
# 3 68.4057 64.8059 104.6611 0.0000 1.0043 0.0000
# 4 0.0000 0.0000 0.0000 32.1584 0.0000 2.7924
# 5 10.0717 17.2755 1.0043 0.0000 30.0211 0.0000
# 6 0.0000 0.0000 0.0000 2.7924 0.0000 39.6349
#
#
#
# Elastic Compliance Matrix: (Units=1/GPa)
#
#
# Indices 1 2 3 4 5 6 
#
# 1 0.023299 -0.002866 -0.013399 0.000000 -0.005719 0.000000
# 2 -0.002866 0.016143 -0.008045 0.000000 -0.008059 0.000000
# 3 -0.013399 -0.008045 0.023214 0.000000 0.008348 0.000000
# 4 0.000000 0.000000 0.000000 0.031287 0.000000 -0.002204
# 5 -0.005719 -0.008059 0.008348 0.000000 0.039587 0.000000
# 6 0.000000 0.000000 0.000000 -0.002204 0.000000 0.025386
#
#
# Mechanical properties :
#
#
# Convention : Reuss Voigt Hill
#
# Bulk Modulus (GPa) = 71.24583 76.22949 73.73766
# Shear Modulus (GPa) = 23.56115 28.38414 25.97264
#
# Velocity S-wave (km/s) = 3.35158 3.67865 3.51892
# Velocity P-wave (km/s) = 6.99606 7.37473 7.18789
#
# Compressibility (1/GPa) = 0.01403591
#
# Stress axis : x y z
#
# Youngs Moduli (GPa) = 42.91987 61.94698 43.07830
#
# Poissons Ratio (x) = 0.17752 0.57720
# Poissons Ratio (y) = 0.12300 0.34658
# Poissons Ratio (z) = 0.57508 0.49838
#
# Static dielectric constant tensor:
#      x y z
#    x 3.556830 0.000000 -0.144530 
#    y 0.000000 4.028380 0.000000 
#    z -0.144530 0.000000 3.791530 
# 
# 
# High freq. dielectric constant tensor:
#      x y z
#    x 1.813540 0.000000 -0.008830 
#    y 0.000000 1.839500 0.000000 
#    z -0.008830 0.000000 1.816860 
# 
# From -- ./inp_files/456.got.cif
#   From: 2010.03.12/outbox.cif.g09.slc.cpg/sg4_1_cif.got.tgz:456.got - 2010.03.31 09:31:35.
