data_PCOD8046893
_publ_section_title
;
Structure prediction by ZEFSAII (Michael W. Deem and Ramdas Pophale) SiO2 
 PCOD8046893
Probable space group: P 21
;
_chemical_formula_sum "Si O2"
_cell_formula_units_Z 16
_cell_length_a 7.162767
_cell_length_b 12.884922
_cell_length_c 10.207732
_cell_angle_alpha 90.000000
_cell_angle_beta 47.660772
_cell_angle_gamma 90.000000
_cell_volume 696.363967
_symmetry_space_group_name_H-M "P 21"
_symmetry_group_IT_number 4
_symmetry_cell_setting 'monoclinic'
loop_
_space_group_symop_operation_xyz
x,y,z
-x,1/2+y,-z
loop_
_atom_site_type_symbol
_atom_site_label
_atom_site_fract_x
_atom_site_fract_y
_atom_site_fract_z
Si Si1 0.880723 0.742020 0.665394
Si Si2 0.632104 0.216329 0.700719
Si Si3 0.799277 0.374136 0.838742
Si Si4 0.353178 0.752022 0.839251
Si Si5 0.645471 0.876678 0.329344
Si Si6 0.155267 0.890132 0.709386
Si Si7 0.131829 0.533120 0.962012
Si Si8 0.707071 0.589208 0.961872
O O1 0.654728 0.755601 0.666461
O O2 0.758282 0.687113 0.847920
O O3 0.113418 0.677527 0.492845
O O4 0.982755 0.852745 0.669623
O O5 0.711316 0.310725 0.756061
O O6 0.431520 0.261706 0.689002
O O7 0.523412 0.118622 0.831951
O O8 0.664422 0.487712 0.891273
O O9 0.103952 0.372385 0.700390
O O10 0.697653 0.332492 0.023013
O O11 0.197151 0.791284 0.787059
O O12 0.277823 0.638396 0.929947
O O13 0.425728 0.925475 0.524413
O O14 0.677088 0.948044 0.185830
O O15 0.020626 0.987746 0.841705
O O16 0.947576 0.562444 0.933106
#
# Coordination Sequence:
#
# PCOD8046893 Si02
#       8
#     2   2   2   2   2   2   2   2
#     4  11  25  43  67  98 134 173 218 271 324 391
#     4  11  24  45  67  95 133 175 215 271 327 384
#     4  11  24  43  66  97 132 171 216 271 327 385
#     4  12  23  43  69  96 136 171 215 274 324 387
#     4  10  23  43  69  95 131 171 218 270 322 388
#     4  11  23  47  68  95 132 174 220 268 329 385
#     4  11  24  43  69  96 131 173 216 272 326 389
#     4  11  22  43  67  96 131 172 220 269 323 391
#
# _framework density 22.976492
#
# number of rings (size 3 to 8) (size 9 to 14) (size 15 to 20)
#    0.000    1.000    5.000    2.250    1.750    2.000 
#    6.750    0.000    0.000    0.000    0.000    0.000 
#    0.000    0.000    0.000    0.000    0.000    0.000 
#
# Total GULP energy -198391.023487 kJ/mol
# GULP energy per Si atom -12399.438968 kJ/mol
# Density = 2.292420 g / cm^3
# Si number density = 22.976492 Si / 1000 Ang^3
#
#
#
# Elastic Constant Matrix: (Units=GPa)
#
#
# Indices 1 2 3 4 5 6 
#
# 1 62.8623 25.7042 12.8054 0.0000 -13.9098 0.0000
# 2 25.7042 66.7004 22.8009 0.0000 -20.1276 0.0000
# 3 12.8054 22.8009 132.3794 0.0000 -18.6260 0.0000
# 4 0.0000 0.0000 0.0000 28.5669 0.0000 -4.1144
# 5 -13.9098 -20.1276 -18.6260 0.0000 32.8203 0.0000
# 6 0.0000 0.0000 0.0000 -4.1144 0.0000 24.1183
#
#
#
# Elastic Compliance Matrix: (Units=1/GPa)
#
#
# Indices 1 2 3 4 5 6 
#
# 1 0.019407 -0.006087 -0.000214 0.000000 0.004371 0.000000
# 2 -0.006087 0.020673 -0.001686 0.000000 0.009142 0.000000
# 3 -0.000214 -0.001686 0.008376 0.000000 0.003629 0.000000
# 4 0.000000 0.000000 0.000000 0.035887 0.000000 0.006122
# 5 0.004371 0.009142 0.003629 0.000000 0.039987 0.000000
# 6 0.000000 0.000000 0.000000 0.006122 0.000000 0.042507
#
#
# Mechanical properties :
#
#
# Convention : Reuss Voigt Hill
#
# Bulk Modulus (GPa) = 30.78526 42.72923 36.75725
# Shear Modulus (GPa) = 25.82141 30.47655 28.14898
#
# Velocity S-wave (km/s) = 3.35598 3.64596 3.50397
# Velocity P-wave (km/s) = 5.33333 6.03004 5.69235
#
# Compressibility (1/GPa) = 0.03248308
#
# Stress axis : x y z
#
# Youngs Moduli (GPa) = 51.52666 48.37245 119.39344
#
# Poissons Ratio (x) = 0.29444 0.02554
# Poissons Ratio (y) = 0.31364 0.20125
# Poissons Ratio (z) = 0.01102 0.08154
#
# Static dielectric constant tensor:
#      x y z
#    x 4.379990 0.000000 -0.110490 
#    y 0.000000 4.355430 0.000000 
#    z -0.110490 0.000000 4.337000 
# 
# 
# High freq. dielectric constant tensor:
#      x y z
#    x 1.915830 0.000000 -0.008370 
#    y 0.000000 1.889520 0.000000 
#    z -0.008370 0.000000 1.915220 
# 
# From -- ./inp_files/11139.got.cif
#   From: 2010.03.12/outbox.cif.g09.slc.cpg/sg4_6_cif.got.tgz:11139.got - 2010.03.31 09:31:35.
