data_PCOD8046820
_publ_section_title
;
Structure prediction by ZEFSAII (Michael W. Deem and Ramdas Pophale) SiO2 
 PCOD8046820
Probable space group: P 21
;
_chemical_formula_sum "Si O2"
_cell_formula_units_Z 16
_cell_length_a 15.966162
_cell_length_b 8.257258
_cell_length_c 5.261804
_cell_angle_alpha 90.000000
_cell_angle_beta 71.900504
_cell_angle_gamma 90.000000
_cell_volume 659.373684
_symmetry_space_group_name_H-M "P 21"
_symmetry_group_IT_number 4
_symmetry_cell_setting 'monoclinic'
loop_
_space_group_symop_operation_xyz
x,y,z
-x,1/2+y,-z
loop_
_atom_site_type_symbol
_atom_site_label
_atom_site_fract_x
_atom_site_fract_y
_atom_site_fract_z
Si Si1 0.255958 0.979020 0.811176
Si Si2 0.256497 0.343208 0.831087
Si Si3 0.092500 0.540092 0.004510
Si Si4 0.494140 0.152135 0.797521
Si Si5 0.578812 0.501489 0.653072
Si Si6 0.209532 0.751609 0.245513
Si Si7 0.085691 0.863724 0.742468
Si Si8 0.325970 0.490642 0.282807
O O1 0.318461 0.953982 0.503936
O O2 0.151598 0.941599 0.884167
O O3 0.261508 0.158902 0.913457
O O4 0.281683 0.845923 0.001717
O O5 0.310997 0.359270 0.517437
O O6 0.157044 0.396640 0.848481
O O7 0.302863 0.439283 0.016228
O O8 0.146560 0.621712 0.175105
O O9 0.003848 0.461880 0.197467
O O10 0.067557 0.673074 0.815336
O O11 0.454261 0.096136 0.566987
O O12 0.573230 0.037662 0.805309
O O13 0.521241 0.339912 0.754532
O O14 0.424768 0.120349 0.096072
O O15 0.141989 0.879608 0.431965
O O16 0.265948 0.649909 0.400567
#
# Coordination Sequence:
#
# PCOD8046820 Si02
#       8
#     2   2   2   2   2   2   2   2
#     4  11  28  45  71 108 143 194 249 307 369 446
#     4  11  25  45  73 109 145 192 244 301 364 443
#     4  10  23  41  68 105 142 190 248 296 370 429
#     4  12  29  50  74 112 143 198 241 317 370 454
#     4  12  30  49  78 109 154 189 257 306 383 438
#     4  10  24  45  70 101 141 201 240 304 373 436
#     4  11  22  45  69  98 148 192 243 307 364 442
#     4  11  25  48  75  98 150 192 240 296 379 442
#
# _framework density 24.265453000000001
#
# number of rings (size 3 to 8) (size 9 to 14) (size 15 to 20)
#    0.000    1.000    1.250    3.000   15.750    3.000 
#    2.250    0.000    0.000    0.000    0.000    0.000 
#    0.000    0.000    0.000    0.000    0.000    0.000 
#
# Total GULP energy -198305.320714 kJ/mol
# GULP energy per Si atom -12394.082545 kJ/mol
# Density = 2.421022 g / cm^3
# Si number density = 24.265453 Si / 1000 Ang^3
#
#
#
# Elastic Constant Matrix: (Units=GPa)
#
#
# Indices 1 2 3 4 5 6 
#
# 1 74.5687 31.7154 31.1789 0.0000 -17.7792 0.0000
# 2 31.7154 99.6234 24.9460 0.0000 1.6073 0.0000
# 3 31.1789 24.9460 123.4142 0.0000 0.7402 0.0000
# 4 0.0000 0.0000 0.0000 42.6343 0.0000 -11.6065
# 5 -17.7792 1.6073 0.7402 0.0000 38.9541 0.0000
# 6 0.0000 0.0000 0.0000 -11.6065 0.0000 23.1403
#
#
#
# Elastic Compliance Matrix: (Units=1/GPa)
#
#
# Indices 1 2 3 4 5 6 
#
# 1 0.019529 -0.005389 -0.003900 0.000000 0.009210 0.000000
# 2 -0.005389 0.012066 -0.001060 0.000000 -0.002937 0.000000
# 3 -0.003900 -0.001060 0.009314 0.000000 -0.001913 0.000000
# 4 0.000000 0.000000 0.000000 0.027164 0.000000 0.013625
# 5 0.009210 -0.002937 -0.001913 0.000000 0.030032 0.000000
# 6 0.000000 0.000000 0.000000 0.013625 0.000000 0.050049
#
#
# Mechanical properties :
#
#
# Convention : Reuss Voigt Hill
#
# Bulk Modulus (GPa) = 49.47672 52.58743 51.03208
# Shear Modulus (GPa) = 28.47564 34.93014 31.70289
#
# Velocity S-wave (km/s) = 3.42936 3.79819 3.61848
# Velocity P-wave (km/s) = 6.00955 6.39951 6.20760
#
# Compressibility (1/GPa) = 0.02021152
#
# Stress axis : x y z
#
# Youngs Moduli (GPa) = 51.20600 82.87577 107.36893
#
# Poissons Ratio (x) = 0.44664 0.41870
# Poissons Ratio (y) = 0.27596 0.11379
# Poissons Ratio (z) = 0.19968 0.08784
#
# Static dielectric constant tensor:
#      x y z
#    x 4.398840 0.000000 -0.149950 
#    y 0.000000 4.501520 0.000000 
#    z -0.149950 0.000000 4.440450 
# 
# 
# High freq. dielectric constant tensor:
#      x y z
#    x 1.966090 0.000000 -0.007070 
#    y 0.000000 1.974230 0.000000 
#    z -0.007070 0.000000 1.965340 
# 
# From -- ./inp_files/4108.got.cif
#   From: 2010.03.12/outbox.cif.g09.slc.cpg/sg4_3_cif.got.tgz:4108.got - 2010.03.31 09:31:35.
