data_PCOD8046423
_publ_section_title
;
Structure prediction by ZEFSAII (Michael W. Deem and Ramdas Pophale) SiO2 
 PCOD8046423
Probable space group: P 21
;
_chemical_formula_sum "Si O2"
_cell_formula_units_Z 16
_cell_length_a 7.073348
_cell_length_b 14.867049
_cell_length_c 11.431046
_cell_angle_alpha 90.000000
_cell_angle_beta 145.204364
_cell_angle_gamma 90.000000
_cell_volume 685.971970
_symmetry_space_group_name_H-M "P 21"
_symmetry_group_IT_number 4
_symmetry_cell_setting 'monoclinic'
loop_
_space_group_symop_operation_xyz
x,y,z
-x,1/2+y,-z
loop_
_atom_site_type_symbol
_atom_site_label
_atom_site_fract_x
_atom_site_fract_y
_atom_site_fract_z
Si Si1 0.703298 0.301650 0.008941
Si Si2 0.296639 0.280576 0.491223
Si Si3 0.497588 0.462844 0.034749
Si Si4 0.770844 0.428568 0.637163
Si Si5 0.200358 0.859890 0.604021
Si Si6 0.771342 0.653607 0.137213
Si Si7 0.199009 0.222074 0.103435
Si Si8 0.497808 0.619387 0.534764
O O1 0.584710 0.405107 0.961549
O O2 0.000968 0.291269 0.250210
O O3 0.852326 0.275308 0.957132
O O4 0.397791 0.238589 0.888836
O O5 0.602550 0.343783 0.612341
O O6 0.415039 0.177109 0.538422
O O7 0.146055 0.306576 0.542120
O O8 0.729267 0.433836 0.260437
O O9 0.535083 0.567486 0.025896
O O10 0.117022 0.446429 0.878140
O O11 0.847925 0.410448 0.541137
O O12 0.534534 0.514724 0.525437
O O13 0.500856 0.791035 0.750584
O O14 0.117399 0.636046 0.378391
O O15 0.849299 0.671256 0.041575
O O16 0.270067 0.148235 0.239388
#
# Coordination Sequence:
#
# PCOD8046423 Si02
#       8
#     2   2   2   2   2   2   2   2
#     4  10  21  44  66 100 137 172 223 282 326 408
#     4  10  21  44  66 100 137 172 223 282 326 408
#     4  11  25  44  70 102 140 174 232 282 332 408
#     4  12  25  45  69 102 139 180 224 283 339 398
#     4  11  24  45  73  95 137 182 222 276 348 397
#     4  12  25  45  69 102 139 180 224 283 339 398
#     4  11  24  45  73  95 137 182 222 276 348 397
#     4  11  25  44  70 102 140 174 232 282 332 408
#
# _framework density 23.324567999999999
#
# number of rings (size 3 to 8) (size 9 to 14) (size 15 to 20)
#    0.000    1.000    5.000    3.750    0.000    5.000 
#    0.000    0.000    0.000    0.000    0.000    0.000 
#    0.000    0.000    0.000    0.000    0.000    0.000 
#
# Total GULP energy -198446.668741 kJ/mol
# GULP energy per Si atom -12402.916796 kJ/mol
# Density = 2.327148 g / cm^3
# Si number density = 23.324568 Si / 1000 Ang^3
#
#
#
# Elastic Constant Matrix: (Units=GPa)
#
#
# Indices 1 2 3 4 5 6 
#
# 1 116.7262 9.9483 11.3115 0.0000 1.5903 0.0000
# 2 9.9483 82.4431 -2.8872 0.0000 -9.7938 0.0000
# 3 11.3115 -2.8872 54.3114 0.0000 19.8153 0.0000
# 4 0.0000 0.0000 0.0000 35.4538 0.0000 10.9833
# 5 1.5903 -9.7938 19.8153 0.0000 39.5337 0.0000
# 6 0.0000 0.0000 0.0000 10.9833 0.0000 41.5029
#
#
#
# Elastic Compliance Matrix: (Units=1/GPa)
#
#
# Indices 1 2 3 4 5 6 
#
# 1 0.008853 -0.001093 -0.002048 0.000000 0.000400 0.000000
# 2 -0.001093 0.012647 -0.000317 0.000000 0.003336 0.000000
# 3 -0.002048 -0.000317 0.023033 0.000000 -0.011541 0.000000
# 4 0.000000 0.000000 0.000000 0.030725 0.000000 -0.008131
# 5 0.000400 0.003336 -0.011541 0.000000 0.031890 0.000000
# 6 0.000000 0.000000 0.000000 -0.008131 0.000000 0.026247
#
#
# Mechanical properties :
#
#
# Convention : Reuss Voigt Hill
#
# Bulk Modulus (GPa) = 26.58353 32.24730 29.41541
# Shear Modulus (GPa) = 32.71237 38.97194 35.84215
#
# Velocity S-wave (km/s) = 3.74904 4.09204 3.92429
# Velocity P-wave (km/s) = 5.49203 6.01514 5.75953
#
# Compressibility (1/GPa) = 0.03761727
#
# Stress axis : x y z
#
# Youngs Moduli (GPa) = 112.95394 79.07262 43.41682
#
# Poissons Ratio (x) = 0.08639 0.08891
# Poissons Ratio (y) = 0.12341 0.01377
# Poissons Ratio (z) = 0.23130 0.02509
#
# Static dielectric constant tensor:
#      x y z
#    x 4.793750 0.000000 0.192270 
#    y 0.000000 4.347310 0.000000 
#    z 0.192270 0.000000 4.338110 
# 
# 
# High freq. dielectric constant tensor:
#      x y z
#    x 1.923440 0.000000 0.017850 
#    y 0.000000 1.920740 0.000000 
#    z 0.017850 0.000000 1.934900 
# 
# From -- ./inp_files/10611.got.cif
#   From: 2010.03.12/outbox.cif.g09.slc.cpg/sg4_6_cif.got.tgz:10611.got - 2010.03.31 09:31:35.
