data_PCOD8046067
_publ_section_title
;
Structure prediction by ZEFSAII (Michael W. Deem and Ramdas Pophale) SiO2 
 PCOD8046067
Probable space group: P 21
;
_chemical_formula_sum "Si O2"
_cell_formula_units_Z 16
_cell_length_a 11.279577
_cell_length_b 9.303097
_cell_length_c 11.598298
_cell_angle_alpha 90.000000
_cell_angle_beta 40.530666
_cell_angle_gamma 90.000000
_cell_volume 790.917257
_symmetry_space_group_name_H-M "P 21"
_symmetry_group_IT_number 4
_symmetry_cell_setting 'monoclinic'
loop_
_space_group_symop_operation_xyz
x,y,z
-x,1/2+y,-z
loop_
_atom_site_type_symbol
_atom_site_label
_atom_site_fract_x
_atom_site_fract_y
_atom_site_fract_z
Si Si1 0.089236 0.750000 0.621234
Si Si2 0.226292 0.423279 0.776026
Si Si3 0.522664 0.558348 0.956689
Si Si4 0.274609 0.337841 0.237750
Si Si5 0.715286 0.954395 0.529321
Si Si6 0.539012 0.373111 0.724539
Si Si7 0.987375 0.686683 0.940992
Si Si8 0.632992 0.575794 0.112766
O O1 0.146262 0.586151 0.558116
O O2 0.256824 0.853172 0.470523
O O3 0.913446 0.782216 0.674988
O O4 0.039816 0.778928 0.790427
O O5 0.266084 0.391186 0.612494
O O6 0.412244 0.417438 0.710839
O O7 0.152682 0.584053 0.858093
O O8 0.078612 0.300477 0.915722
O O9 0.555103 0.729614 0.915627
O O10 0.564980 0.492942 0.801965
O O11 0.324239 0.497413 0.148142
O O12 0.650670 0.507700 0.970871
O O13 0.239719 0.343073 0.401501
O O14 0.503335 0.996210 0.700027
O O15 0.446664 0.235421 0.851406
O O16 0.827431 0.574071 0.028862
#
# Coordination Sequence:
#
# PCOD8046067 Si02
#       8
#     2   2   2   2   2   2   2   2
#     4  10  21  40  65  86 123 169 199 252 328 371
#     4  10  22  43  60  91 124 163 212 246 310 369
#     4  11  20  40  61  92 124 159 206 256 311 377
#     4  11  22  39  65  94 122 161 209 254 318 369
#     4   9  22  40  62  93 125 162 203 255 313 371
#     4  10  21  38  61  88 125 161 202 257 308 370
#     4  10  20  41  66  83 119 165 208 250 303 376
#     4   9  18  39  64  83 122 164 193 248 327 365
#
# _framework density 20.229676000000001
#
# number of rings (size 3 to 8) (size 9 to 14) (size 15 to 20)
#    0.000    2.000    2.500    0.750    1.750    1.000 
#   15.750    3.750    0.000    0.000    0.000    0.000 
#    0.000    0.000    0.000    0.000    0.000    0.000 
#
# Total GULP energy -198230.211913 kJ/mol
# GULP energy per Si atom -12389.388245 kJ/mol
# Density = 2.018363 g / cm^3
# Si number density = 20.229676 Si / 1000 Ang^3
#
#
#
# Elastic Constant Matrix: (Units=GPa)
#
#
# Indices 1 2 3 4 5 6 
#
# 1 116.0141 50.7409 74.4286 0.0000 17.6473 0.0000
# 2 50.7409 57.2621 43.1085 0.0000 12.3935 0.0000
# 3 74.4286 43.1085 118.4301 0.0000 21.1359 0.0000
# 4 0.0000 0.0000 0.0000 31.7167 0.0000 6.8775
# 5 17.6473 12.3935 21.1359 0.0000 40.9448 0.0000
# 6 0.0000 0.0000 0.0000 6.8775 0.0000 31.4163
#
#
#
# Elastic Compliance Matrix: (Units=1/GPa)
#
#
# Indices 1 2 3 4 5 6 
#
# 1 0.017951 -0.010118 -0.007451 0.000000 -0.000828 0.000000
# 2 -0.010118 0.030108 -0.004133 0.000000 -0.002619 0.000000
# 3 -0.007451 -0.004133 0.015238 0.000000 -0.003404 0.000000
# 4 0.000000 0.000000 0.000000 0.033100 0.000000 -0.007246
# 5 -0.000828 -0.002619 -0.003404 0.000000 0.027330 0.000000
# 6 0.000000 0.000000 0.000000 -0.007246 0.000000 0.033417
#
#
# Mechanical properties :
#
#
# Convention : Reuss Voigt Hill
#
# Bulk Modulus (GPa) = 50.26864 69.80692 60.03778
# Shear Modulus (GPa) = 24.13378 29.04412 26.58895
#
# Velocity S-wave (km/s) = 3.45771 3.79320 3.62933
# Velocity P-wave (km/s) = 6.39093 7.33257 6.87788
#
# Compressibility (1/GPa) = 0.01989312
#
# Stress axis : x y z
#
# Youngs Moduli (GPa) = 55.70723 33.21403 65.62541
#
# Poissons Ratio (x) = 0.33607 0.48895
# Poissons Ratio (y) = 0.56367 0.27122
# Poissons Ratio (z) = 0.41505 0.13727
#
# Static dielectric constant tensor:
#      x y z
#    x 3.596490 0.000000 0.052530 
#    y 0.000000 3.636730 0.000000 
#    z 0.052530 0.000000 3.888930 
# 
# 
# High freq. dielectric constant tensor:
#      x y z
#    x 1.787660 0.000000 0.011010 
#    y 0.000000 1.769160 0.000000 
#    z 0.011010 0.000000 1.803330 
# 
# From -- ./inp_files/12099.got.cif
#   From: 2010.03.12/outbox.cif.g09.slc.cpg/sg4_7_cif.got.tgz:12099.got - 2010.03.31 09:31:35.
