data_PCOD8046242
_publ_section_title
;
Structure prediction by ZEFSAII (Michael W. Deem and Ramdas Pophale) SiO2 
 PCOD8046242
Probable space group: P 21
;
_chemical_formula_sum "Si O2"
_cell_formula_units_Z 16
_cell_length_a 13.814666
_cell_length_b 8.787667
_cell_length_c 17.004683
_cell_angle_alpha 90.000000
_cell_angle_beta 23.166422
_cell_angle_gamma 90.000000
_cell_volume 812.120351
_symmetry_space_group_name_H-M "P 21"
_symmetry_group_IT_number 4
_symmetry_cell_setting 'monoclinic'
loop_
_space_group_symop_operation_xyz
x,y,z
-x,1/2+y,-z
loop_
_atom_site_type_symbol
_atom_site_label
_atom_site_fract_x
_atom_site_fract_y
_atom_site_fract_z
Si Si1 0.347138 0.976920 0.660587
Si Si2 0.717986 0.475975 0.109759
Si Si3 0.849067 0.134576 0.017811
Si Si4 0.668940 0.133805 0.704978
Si Si5 0.783738 0.133779 0.247621
Si Si6 0.455761 0.462780 0.881934
Si Si7 0.391105 0.459964 0.101285
Si Si8 0.215652 0.130798 0.263693
O O1 0.389495 0.984496 0.722181
O O2 0.269554 0.808291 0.691176
O O3 0.596911 0.022317 0.431090
O O4 0.134724 0.093939 0.793774
O O5 0.495736 0.509783 0.216597
O O6 0.818841 0.308615 0.015325
O O7 0.939434 0.595331 0.931761
O O8 0.687524 0.025268 0.084918
O O9 0.758578 0.102727 0.173683
O O10 0.927060 0.155648 0.467189
O O11 0.738921 0.073072 0.739725
O O12 0.521539 0.289301 0.816006
O O13 0.290260 0.476222 0.086277
O O14 0.710324 0.557007 0.706708
O O15 0.365316 0.288052 0.148109
O O16 0.680350 0.514543 0.881379
#
# Coordination Sequence:
#
# PCOD8046242 Si02
#       8
#     2   2   2   2   2   2   2   2
#     4  10  21  40  61  91 118 159 204 245 306 362
#     4  10  23  38  63  87 124 155 201 253 299 357
#     4  10  21  41  60  88 121 159 198 251 305 352
#     4  12  22  39  64  90 118 167 203 248 309 366
#     4  10  21  40  64  87 124 158 199 254 300 361
#     4  10  21  40  59  89 122 159 199 251 306 351
#     4  10  21  42  59  86 126 156 202 256 297 353
#     4  10  22  40  62  86 123 161 202 250 300 364
#
# _framework density 19.701514
#
# number of rings (size 3 to 8) (size 9 to 14) (size 15 to 20)
#    0.750    1.000    1.250    3.000    0.000    4.000 
#    6.750    2.500    0.000    0.000    0.000    0.000 
#    0.000    0.000    0.000    0.000    0.000    0.000 
#
# Total GULP energy -198316.222347 kJ/mol
# GULP energy per Si atom -12394.763897 kJ/mol
# Density = 1.965667 g / cm^3
# Si number density = 19.701514 Si / 1000 Ang^3
#
#
#
# Elastic Constant Matrix: (Units=GPa)
#
#
# Indices 1 2 3 4 5 6 
#
# 1 71.3376 38.9798 30.4404 0.0000 -5.9198 0.0000
# 2 38.9798 117.9559 45.2012 0.0000 2.0012 0.0000
# 3 30.4404 45.2012 103.7255 0.0000 5.4380 0.0000
# 4 0.0000 0.0000 0.0000 23.4366 0.0000 3.0337
# 5 -5.9198 2.0012 5.4380 0.0000 18.4579 0.0000
# 6 0.0000 0.0000 0.0000 3.0337 0.0000 32.0693
#
#
#
# Elastic Compliance Matrix: (Units=1/GPa)
#
#
# Indices 1 2 3 4 5 6 
#
# 1 0.018995 -0.004942 -0.003827 0.000000 0.007756 0.000000
# 2 -0.004942 0.011464 -0.003450 0.000000 -0.001811 0.000000
# 3 -0.003827 -0.003450 0.012506 0.000000 -0.004538 0.000000
# 4 0.000000 0.000000 0.000000 0.043197 0.000000 -0.004086
# 5 0.007756 -0.001811 -0.004538 0.000000 0.058198 0.000000
# 6 0.000000 0.000000 0.000000 -0.004086 0.000000 0.031569
#
#
# Mechanical properties :
#
#
# Convention : Reuss Voigt Hill
#
# Bulk Modulus (GPa) = 53.98187 58.02909 56.00548
# Shear Modulus (GPa) = 24.20800 26.68593 25.44696
#
# Velocity S-wave (km/s) = 3.50914 3.68436 3.59782
# Velocity P-wave (km/s) = 6.62405 6.90054 6.76371
#
# Compressibility (1/GPa) = 0.01852474
#
# Stress axis : x y z
#
# Youngs Moduli (GPa) = 52.64537 87.23105 79.96433
#
# Poissons Ratio (x) = 0.43110 0.30606
# Poissons Ratio (y) = 0.26017 0.27591
# Poissons Ratio (z) = 0.20150 0.30098
#
# Static dielectric constant tensor:
#      x y z
#    x 3.448660 0.000000 0.138230 
#    y 0.000000 3.676240 0.000000 
#    z 0.138230 0.000000 3.429580 
# 
# 
# High freq. dielectric constant tensor:
#      x y z
#    x 1.754650 0.000000 0.008880 
#    y 0.000000 1.785570 0.000000 
#    z 0.008880 0.000000 1.757020 
# 
# From -- ./inp_files/15257.got.cif
#   From: 2010.03.12/outbox.cif.g09.slc.cpg/sg4_8_cif.got.tgz:15257.got - 2010.03.31 09:31:35.
