data_PCOD8046253
_publ_section_title
;
Structure prediction by ZEFSAII (Michael W. Deem and Ramdas Pophale) SiO2 
 PCOD8046253
Probable space group: P 21
;
_chemical_formula_sum "Si O2"
_cell_formula_units_Z 16
_cell_length_a 18.414330
_cell_length_b 8.618517
_cell_length_c 11.937235
_cell_angle_alpha 90.000000
_cell_angle_beta 158.637544
_cell_angle_gamma 90.000000
_cell_volume 690.099289
_symmetry_space_group_name_H-M "P 21"
_symmetry_group_IT_number 4
_symmetry_cell_setting 'monoclinic'
loop_
_space_group_symop_operation_xyz
x,y,z
-x,1/2+y,-z
loop_
_atom_site_type_symbol
_atom_site_label
_atom_site_fract_x
_atom_site_fract_y
_atom_site_fract_z
Si Si1 0.477378 0.228460 0.421642
Si Si2 0.596909 0.817559 0.149179
Si Si3 0.248987 0.637154 0.567552
Si Si4 0.863503 0.859950 0.319944
Si Si5 0.892336 0.621332 0.708965
Si Si6 0.117613 0.079672 0.807294
Si Si7 0.811486 0.319655 0.735491
Si Si8 0.239893 0.515015 0.053166
O O1 0.615067 0.316108 0.529469
O O2 0.322122 0.361356 0.236289
O O3 0.606414 0.158253 0.708412
O O4 0.346069 0.087892 0.177725
O O5 0.686758 0.829719 0.153293
O O6 0.695712 0.682167 0.365276
O O7 0.615764 0.982431 0.237604
O O8 0.364648 0.773001 0.801614
O O9 0.217868 0.684591 0.396029
O O10 0.031127 0.609755 0.303978
O O11 0.927734 0.703574 0.353661
O O12 0.061449 0.914950 0.671550
O O13 0.788439 0.984952 0.119559
O O14 0.837567 0.490538 0.721593
O O15 0.996447 0.770593 0.915642
O O16 0.031437 0.548940 0.812832
#
# Coordination Sequence:
#
# PCOD8046253 Si02
#       8
#     2   2   2   2   2   2   2   2
#     4  10  23  39  61  90 122 159 205 252 306 368
#     4  11  24  41  63  92 124 164 210 262 315 370
#     4  11  23  40  61  90 125 164 209 259 312 372
#     4  10  21  40  62  88 122 161 206 255 309 366
#     4  11  24  43  65  92 127 166 209 260 314 370
#     4  10  22  38  59  88 121 161 205 255 308 365
#     4  11  23  41  65  94 128 166 209 258 310 374
#     4  10  22  40  62  90 123 163 205 255 308 367
#
# _framework density 23.185068999999999
#
# number of rings (size 3 to 8) (size 9 to 14) (size 15 to 20)
#    0.000    1.500    0.000    5.250    0.000   11.000 
#    0.000    3.750    0.000    0.000    0.000    0.000 
#    0.000    0.000    0.000    0.000    0.000    0.000 
#
# Total GULP energy -198401.750226 kJ/mol
# GULP energy per Si atom -12400.109389 kJ/mol
# Density = 2.313230 g / cm^3
# Si number density = 23.185069 Si / 1000 Ang^3
#
#
#
# Elastic Constant Matrix: (Units=GPa)
#
#
# Indices 1 2 3 4 5 6 
#
# 1 67.7624 15.8875 12.7901 0.0000 -13.4349 0.0000
# 2 15.8875 38.9802 -6.7970 0.0000 2.8429 0.0000
# 3 12.7901 -6.7970 86.3907 0.0000 -1.7348 0.0000
# 4 0.0000 0.0000 0.0000 32.5239 0.0000 -5.1480
# 5 -13.4349 2.8429 -1.7348 0.0000 20.8100 0.0000
# 6 0.0000 0.0000 0.0000 -5.1480 0.0000 37.9584
#
#
#
# Elastic Compliance Matrix: (Units=1/GPa)
#
#
# Indices 1 2 3 4 5 6 
#
# 1 0.020654 -0.010091 -0.003562 0.000000 0.014416 0.000000
# 2 -0.010091 0.031181 0.003737 0.000000 -0.010463 0.000000
# 3 -0.003562 0.003737 0.012361 0.000000 -0.001780 0.000000
# 4 0.000000 0.000000 0.000000 0.031421 0.000000 0.004261
# 5 0.014416 -0.010463 -0.001780 0.000000 0.058642 0.000000
# 6 0.000000 0.000000 0.000000 0.004261 0.000000 0.026923
#
#
# Mechanical properties :
#
#
# Convention : Reuss Voigt Hill
#
# Bulk Modulus (GPa) = 22.54035 26.32162 24.43098
# Shear Modulus (GPa) = 23.16948 29.67530 26.42239
#
# Velocity S-wave (km/s) = 3.16464 3.58149 3.37950
# Velocity P-wave (km/s) = 4.80586 5.33669 5.07822
#
# Compressibility (1/GPa) = 0.04436488
#
# Stress axis : x y z
#
# Youngs Moduli (GPa) = 48.41736 32.07031 80.89968
#
# Poissons Ratio (x) = 0.32361 0.28818
# Poissons Ratio (y) = 0.48856 -0.30233
# Poissons Ratio (z) = 0.17247 -0.11985
#
# Static dielectric constant tensor:
#      x y z
#    x 4.041760 0.000000 -0.105710 
#    y 0.000000 4.231360 0.000000 
#    z -0.105710 0.000000 4.247660 
# 
# 
# High freq. dielectric constant tensor:
#      x y z
#    x 1.904890 0.000000 -0.009300 
#    y 0.000000 1.921360 0.000000 
#    z -0.009300 0.000000 1.927430 
# 
# From -- ./inp_files/12938.got.cif
#   From: 2010.03.12/outbox.cif.g09.slc.cpg/sg4_7_cif.got.tgz:12938.got - 2010.03.31 09:31:35.
