data_PCOD8046378
_publ_section_title
;
Structure prediction by ZEFSAII (Michael W. Deem and Ramdas Pophale) SiO2 
 PCOD8046378
Probable space group: P 21
;
_chemical_formula_sum "Si O2"
_cell_formula_units_Z 16
_cell_length_a 11.578655
_cell_length_b 8.616008
_cell_length_c 11.578502
_cell_angle_alpha 90.000000
_cell_angle_beta 41.778390
_cell_angle_gamma 90.000000
_cell_volume 769.581506
_symmetry_space_group_name_H-M "P 21"
_symmetry_group_IT_number 4
_symmetry_cell_setting 'monoclinic'
loop_
_space_group_symop_operation_xyz
x,y,z
-x,1/2+y,-z
loop_
_atom_site_type_symbol
_atom_site_label
_atom_site_fract_x
_atom_site_fract_y
_atom_site_fract_z
Si Si1 0.145586 0.932220 0.712077
Si Si2 0.868106 0.185738 0.868113
Si Si3 0.716957 0.505401 0.631898
Si Si4 0.287933 0.939251 0.854399
Si Si5 0.126568 0.185738 0.126546
Si Si6 0.631908 0.866080 0.716941
Si Si7 0.010036 0.932606 0.391709
Si Si8 0.391718 0.438875 0.010033
O O1 0.274012 0.960892 0.509023
O O2 0.266196 0.935733 0.733799
O O3 0.053146 0.764576 0.777725
O O4 0.999251 0.064085 0.826779
O O5 0.958486 0.264296 0.689522
O O6 0.689516 0.107180 0.958497
O O7 0.826775 0.307392 0.999258
O O8 0.680106 0.685742 0.680087
O O9 0.897598 0.447365 0.552965
O O10 0.561008 0.409638 0.806643
O O11 0.490983 0.910575 0.725977
O O12 0.222289 0.106900 0.946831
O O13 0.250387 0.310044 0.091622
O O14 0.091653 0.061430 0.250360
O O15 0.552981 0.924123 0.897578
O O16 0.806644 0.961847 0.560982
#
# Coordination Sequence:
#
# PCOD8046378 Si02
#       8
#     2   2   2   2   2   2   2   2
#     4  11  24  44  66  97 135 177 222 266 324 399
#     4  10  21  42  72  94 131 172 216 274 328 390
#     4  12  25  43  67 100 132 172 221 275 339 390
#     4  11  24  44  66  97 135 177 222 266 324 399
#     4  10  23  44  68 100 123 172 224 270 336 388
#     4  12  25  43  67 100 132 172 221 275 339 390
#     4  11  23  41  68  97 130 163 217 281 333 390
#     4  11  23  41  68  97 130 163 217 281 333 390
#
# _framework density 20.790520999999998
#
# number of rings (size 3 to 8) (size 9 to 14) (size 15 to 20)
#    0.000    1.000    3.750    3.750    0.000    1.000 
#    4.500    1.250    0.000    0.000    0.000    0.000 
#    0.000    0.000    0.000    0.000    0.000    0.000 
#
# Total GULP energy -198506.058157 kJ/mol
# GULP energy per Si atom -12406.628635 kJ/mol
# Density = 2.074320 g / cm^3
# Si number density = 20.790521 Si / 1000 Ang^3
#
#
#
# Elastic Constant Matrix: (Units=GPa)
#
#
# Indices 1 2 3 4 5 6 
#
# 1 150.2089 18.5790 51.5480 0.0000 13.1266 0.0000
# 2 18.5790 58.3133 6.0766 0.0000 5.2468 0.0000
# 3 51.5480 6.0766 121.6808 0.0000 -1.1656 0.0000
# 4 0.0000 0.0000 0.0000 19.4492 0.0000 -0.4766
# 5 13.1266 5.2468 -1.1656 0.0000 39.6805 0.0000
# 6 0.0000 0.0000 0.0000 -0.4766 0.0000 18.3086
#
#
#
# Elastic Compliance Matrix: (Units=1/GPa)
#
#
# Indices 1 2 3 4 5 6 
#
# 1 0.008321 -0.002060 -0.003447 0.000000 -0.002581 0.000000
# 2 -0.002060 0.017962 -0.000041 0.000000 -0.001695 0.000000
# 3 -0.003447 -0.000041 0.009694 0.000000 0.001430 0.000000
# 4 0.000000 0.000000 0.000000 0.051449 0.000000 0.001339
# 5 -0.002581 -0.001695 0.001430 0.000000 0.026321 0.000000
# 6 0.000000 0.000000 0.000000 0.001339 0.000000 0.054654
#
#
# Mechanical properties :
#
#
# Convention : Reuss Voigt Hill
#
# Bulk Modulus (GPa) = 40.18920 53.62337 46.90628
# Shear Modulus (GPa) = 26.62566 32.42094 29.52330
#
# Velocity S-wave (km/s) = 3.58252 3.95322 3.77243
# Velocity P-wave (km/s) = 6.04029 6.83268 6.44867
#
# Compressibility (1/GPa) = 0.02488231
#
# Stress axis : x y z
#
# Youngs Moduli (GPa) = 120.18420 55.67409 103.15542
#
# Poissons Ratio (x) = 0.11466 0.35555
# Poissons Ratio (y) = 0.24752 0.00420
# Poissons Ratio (z) = 0.41424 0.00227
#
# Static dielectric constant tensor:
#      x y z
#    x 3.641740 0.000000 -0.074780 
#    y 0.000000 4.021690 0.000000 
#    z -0.074780 0.000000 3.819830 
# 
# 
# High freq. dielectric constant tensor:
#      x y z
#    x 1.806680 0.000000 -0.005600 
#    y 0.000000 1.823140 0.000000 
#    z -0.005600 0.000000 1.820010 
# 
# From -- ./inp_files/7663.got.cif
#   From: 2010.03.12/outbox.cif.g09.slc.cpg/sg4_4_cif.got.tgz:7663.got - 2010.03.31 09:31:35.
