data_PCOD8046684
_publ_section_title
;
Structure prediction by ZEFSAII (Michael W. Deem and Ramdas Pophale) SiO2 
 PCOD8046684
Probable space group: P 21
;
_chemical_formula_sum "Si O2"
_cell_formula_units_Z 12
_cell_length_a 5.382564
_cell_length_b 7.752960
_cell_length_c 11.201500
_cell_angle_alpha 90.000000
_cell_angle_beta 70.148856
_cell_angle_gamma 90.000000
_cell_volume 439.670935
_symmetry_space_group_name_H-M "P 21"
_symmetry_group_IT_number 4
_symmetry_cell_setting 'monoclinic'
loop_
_space_group_symop_operation_xyz
x,y,z
-x,1/2+y,-z
loop_
_atom_site_type_symbol
_atom_site_label
_atom_site_fract_x
_atom_site_fract_y
_atom_site_fract_z
Si Si1 0.652530 0.674460 0.931397
Si Si2 0.917794 0.026674 0.276213
Si Si3 0.791843 0.368716 0.397673
Si Si4 0.249707 0.541365 0.161657
Si Si5 0.271969 0.207775 0.818091
Si Si6 0.750754 0.054956 0.552624
O O1 0.663546 0.843051 0.848138
O O2 0.791627 0.519754 0.833135
O O3 0.356166 0.619264 0.017560
O O4 0.810600 0.707971 0.029653
O O5 0.816619 0.227415 0.285633
O O6 0.917808 0.969749 0.414632
O O7 0.727408 0.900208 0.233520
O O8 0.750351 0.262253 0.528555
O O9 0.552168 0.494540 0.408079
O O10 0.073258 0.480146 0.362986
O O11 0.935408 0.582753 0.217554
O O12 0.421911 0.633588 0.244048
#
# Coordination Sequence:
#
# PCOD8046684 Si02
#       6
#     2   2   2   2   2   2
#     4  10  22  44  66 103 140 185 227 272 334 411
#     4  10  24  45  75  94 139 188 219 282 355 396
#     4  10  23  46  71 100 134 172 229 294 343 397
#     4  10  23  38  66  93 149 173 228 280 315 396
#     4  10  23  43  64 101 137 182 226 274 330 411
#     4  10  23  46  70 101 131 174 229 294 339 403
#
# _framework density 27.293139
#
# number of rings (size 3 to 8) (size 9 to 14) (size 15 to 20)
#    2.000    0.000    0.000    3.000    2.333    2.667 
#   15.000    0.000    0.000    0.000    0.000    0.000 
#    0.000    0.000    0.000    0.000    0.000    0.000 
#
# Total GULP energy -148713.246596 kJ/mol
# GULP energy per Si atom -12392.770550 kJ/mol
# Density = 2.723102 g / cm^3
# Si number density = 27.293139 Si / 1000 Ang^3
#
#
#
# Elastic Constant Matrix: (Units=GPa)
#
#
# Indices 1 2 3 4 5 6 
#
# 1 216.6728 99.3047 69.6120 0.0000 -9.2930 0.0000
# 2 99.3047 108.1160 22.1108 0.0000 -8.0272 0.0000
# 3 69.6120 22.1108 115.2525 0.0000 -3.6929 0.0000
# 4 0.0000 0.0000 0.0000 58.3754 0.0000 -0.0248
# 5 -9.2930 -8.0272 -3.6929 0.0000 37.8294 0.0000
# 6 0.0000 0.0000 0.0000 -0.0248 0.0000 50.6395
#
#
#
# Elastic Compliance Matrix: (Units=1/GPa)
#
#
# Indices 1 2 3 4 5 6 
#
# 1 0.009664 -0.007978 -0.004298 0.000000 0.000262 0.000000
# 2 -0.007978 0.016346 0.001736 0.000000 0.001678 0.000000
# 3 -0.004298 0.001736 0.010952 0.000000 0.000382 0.000000
# 4 0.000000 0.000000 0.000000 0.017131 0.000000 0.000008
# 5 0.000262 0.001678 0.000382 0.000000 0.026892 0.000000
# 6 0.000000 0.000000 0.000000 0.000008 0.000000 0.019747
#
#
# Mechanical properties :
#
#
# Convention : Reuss Voigt Hill
#
# Bulk Modulus (GPa) = 62.96048 91.34403 77.15226
# Shear Modulus (GPa) = 39.33772 45.96976 42.65374
#
# Velocity S-wave (km/s) = 3.80057 4.10847 3.95752
# Velocity P-wave (km/s) = 6.50980 7.48642 7.01512
#
# Compressibility (1/GPa) = 0.01588298
#
# Stress axis : x y z
#
# Youngs Moduli (GPa) = 103.48163 61.17591 91.31047
#
# Poissons Ratio (x) = 0.48804 0.39244
# Poissons Ratio (y) = 0.82554 -0.15854
# Poissons Ratio (z) = 0.44475 -0.10622
#
# Static dielectric constant tensor:
#      x y z
#    x 4.732090 0.000000 -0.521770 
#    y 0.000000 4.676880 0.000000 
#    z -0.521770 0.000000 5.453530 
# 
# 
# High freq. dielectric constant tensor:
#      x y z
#    x 2.094990 0.000000 -0.030890 
#    y 0.000000 2.097750 0.000000 
#    z -0.030890 0.000000 2.144630 
# 
# From -- ./inp_files/10335.got.cif
#   From: 2010.03.12/outbox.cif.g09.slc.cpg/sg4_6_cif.got.tgz:10335.got - 2010.03.31 09:31:35.
