data_PCOD8046168
_publ_section_title
;
Structure prediction by ZEFSAII (Michael W. Deem and Ramdas Pophale) SiO2 
 PCOD8046168
Probable space group: P 21
;
_chemical_formula_sum "Si O2"
_cell_formula_units_Z 16
_cell_length_a 14.277891
_cell_length_b 8.347373
_cell_length_c 17.523511
_cell_angle_alpha 90.000000
_cell_angle_beta 157.922655
_cell_angle_gamma 90.000000
_cell_volume 784.980138
_symmetry_space_group_name_H-M "P 21"
_symmetry_group_IT_number 4
_symmetry_cell_setting 'monoclinic'
loop_
_space_group_symop_operation_xyz
x,y,z
-x,1/2+y,-z
loop_
_atom_site_type_symbol
_atom_site_label
_atom_site_fract_x
_atom_site_fract_y
_atom_site_fract_z
Si Si1 0.269624 0.863830 0.644887
Si Si2 0.751759 0.711547 0.429610
Si Si3 0.385892 0.141395 0.191942
Si Si4 0.699562 0.866686 0.233598
Si Si5 0.432575 0.386233 0.564945
Si Si6 0.680855 0.216869 0.163577
Si Si7 0.025801 0.414253 0.129949
Si Si8 0.918978 0.220267 0.914521
O O1 0.419622 0.725761 0.715371
O O2 0.339083 0.855388 0.786977
O O3 0.977357 0.826952 0.413674
O O4 0.341457 0.036657 0.666723
O O5 0.681745 0.837734 0.310681
O O6 0.618124 0.757366 0.406882
O O7 0.046666 0.713383 0.667948
O O8 0.536152 0.064474 0.377180
O O9 0.175823 0.267011 0.063677
O O10 0.233856 0.994264 0.035691
O O11 0.622720 0.048752 0.160522
O O12 0.517288 0.746610 0.052048
O O13 0.207040 0.384016 0.336262
O O14 0.687378 0.333102 0.714480
O O15 0.142483 0.535262 0.153428
O O16 0.966855 0.247563 0.041608
#
# Coordination Sequence:
#
# PCOD8046168 Si02
#       8
#     2   2   2   2   2   2   2   2
#     4  10  21  39  60  87 121 160 199 247 299 351
#     4  10  23  37  59  91 120 154 203 250 293 355
#     4   9  22  39  57  90 123 154 200 248 301 354
#     4  10  21  39  60  88 121 161 201 248 296 352
#     4  11  22  38  63  89 120 163 196 247 309 362
#     4  10  21  38  61  85 122 162 202 245 298 351
#     4   9  22  40  61  88 118 156 199 243 306 356
#     4   9  22  40  61  86 121 154 198 252 294 361
#
# _framework density 20.382680000000001
#
# number of rings (size 3 to 8) (size 9 to 14) (size 15 to 20)
#    0.750    1.500    0.000    1.500    3.500    7.000 
#    0.000    1.250    2.750    0.000    0.000    0.000 
#    0.000    0.000    0.000    0.000    0.000    0.000 
#
# Total GULP energy -198283.146062 kJ/mol
# GULP energy per Si atom -12392.696629 kJ/mol
# Density = 2.033629 g / cm^3
# Si number density = 20.382680 Si / 1000 Ang^3
#
#
#
# Elastic Constant Matrix: (Units=GPa)
#
#
# Indices 1 2 3 4 5 6 
#
# 1 71.2631 36.1677 37.7944 0.0000 -2.0694 0.0000
# 2 36.1677 72.1998 29.0006 0.0000 -1.6595 0.0000
# 3 37.7944 29.0006 118.2679 0.0000 -22.5703 0.0000
# 4 0.0000 0.0000 0.0000 29.0509 0.0000 0.1107
# 5 -2.0694 -1.6595 -22.5703 0.0000 29.7278 0.0000
# 6 0.0000 0.0000 0.0000 0.1107 0.0000 37.7685
#
#
#
# Elastic Compliance Matrix: (Units=1/GPa)
#
#
# Indices 1 2 3 4 5 6 
#
# 1 0.021022 -0.008512 -0.005195 0.000000 -0.002956 0.000000
# 2 -0.008512 0.018951 -0.002149 0.000000 -0.001167 0.000000
# 3 -0.005195 -0.002149 0.012338 0.000000 0.008886 0.000000
# 4 0.000000 0.000000 0.000000 0.034423 0.000000 -0.000101
# 5 -0.002956 -0.001167 0.008886 0.000000 0.040114 0.000000
# 6 0.000000 0.000000 0.000000 -0.000101 0.000000 0.026477
#
#
# Mechanical properties :
#
#
# Convention : Reuss Voigt Hill
#
# Bulk Modulus (GPa) = 48.54661 51.96177 50.25419
# Shear Modulus (GPa) = 26.05469 29.89396 27.97433
#
# Velocity S-wave (km/s) = 3.57918 3.83382 3.70869
# Velocity P-wave (km/s) = 6.39922 6.71908 6.56110
#
# Compressibility (1/GPa) = 0.02059876
#
# Stress axis : x y z
#
# Youngs Moduli (GPa) = 47.56990 52.76760 81.04835
#
# Poissons Ratio (x) = 0.44916 0.42102
# Poissons Ratio (y) = 0.40491 0.17421
# Poissons Ratio (z) = 0.24711 0.11342
#
# Static dielectric constant tensor:
#      x y z
#    x 3.428000 0.000000 0.092330 
#    y 0.000000 3.602090 0.000000 
#    z 0.092330 0.000000 3.725570 
# 
# 
# High freq. dielectric constant tensor:
#      x y z
#    x 1.779630 0.000000 0.008390 
#    y 0.000000 1.790080 0.000000 
#    z 0.008390 0.000000 1.802890 
# 
# From -- ./inp_files/4039.got.cif
#   From: 2010.03.12/outbox.cif.g09.slc.cpg/sg4_3_cif.got.tgz:4039.got - 2010.03.31 09:31:35.
