data_PCOD8046270
_publ_section_title
;
Structure prediction by ZEFSAII (Michael W. Deem and Ramdas Pophale) SiO2 
 PCOD8046270
Probable space group: P 21
;
_chemical_formula_sum "Si O2"
_cell_formula_units_Z 10
_cell_length_a 11.231814
_cell_length_b 8.063801
_cell_length_c 11.878190
_cell_angle_alpha 90.000000
_cell_angle_beta 154.313934
_cell_angle_gamma 90.000000
_cell_volume 466.303736
_symmetry_space_group_name_H-M "P 21"
_symmetry_group_IT_number 4
_symmetry_cell_setting 'monoclinic'
loop_
_space_group_symop_operation_xyz
x,y,z
-x,1/2+y,-z
loop_
_atom_site_type_symbol
_atom_site_label
_atom_site_fract_x
_atom_site_fract_y
_atom_site_fract_z
Si Si1 0.646354 0.185130 0.163885
Si Si2 0.746861 0.822469 0.342529
Si Si3 0.483869 0.436491 0.631867
Si Si4 0.725155 0.259311 0.632123
Si Si5 0.669922 0.752525 0.889949
O O1 0.465800 0.279719 0.104437
O O2 0.938094 0.274029 0.403840
O O3 0.696130 0.996763 0.239025
O O4 0.467743 0.193175 0.896796
O O5 0.694060 0.829719 0.431556
O O6 0.652052 0.311714 0.696298
O O7 0.289277 0.558403 0.391281
O O8 0.690405 0.554773 0.878788
O O9 0.515886 0.342420 0.363868
O O10 0.025240 0.326915 0.854230
#
# Coordination Sequence:
#
# PCOD8046270 Si02
#       5
#     2   2   2   2   2
#     4  11  23  44  65  94 130 172 207 267 315 378
#     4  11  24  42  67  93 133 164 216 260 320 374
#     4   9  24  40  65  87 127 159 209 255 313 365
#     4  10  21  40  65  87 124 162 202 258 310 369
#     4   9  22  38  64  85 126 159 202 252 314 360
#
# _framework density 21.445249
#
# number of rings (size 3 to 8) (size 9 to 14) (size 15 to 20)
#    1.200    0.800    0.000    2.400    8.400    0.000 
#   10.800    0.000    0.000    0.000    0.000    0.000 
#    0.000    0.000    0.000    0.000    0.000    0.000 
#
# Total GULP energy -123927.877666 kJ/mol
# GULP energy per Si atom -12392.787767 kJ/mol
# Density = 2.139644 g / cm^3
# Si number density = 21.445249 Si / 1000 Ang^3
#
#
#
# Elastic Constant Matrix: (Units=GPa)
#
#
# Indices 1 2 3 4 5 6 
#
# 1 80.2920 10.4272 52.2281 0.0000 12.3623 0.0000
# 2 10.4272 16.2753 14.0735 0.0000 3.2173 0.0000
# 3 52.2281 14.0735 146.6110 0.0000 29.0941 0.0000
# 4 0.0000 0.0000 0.0000 23.4876 0.0000 -6.3535
# 5 12.3623 3.2173 29.0941 0.0000 36.9815 0.0000
# 6 0.0000 0.0000 0.0000 -6.3535 0.0000 41.5257
#
#
#
# Elastic Compliance Matrix: (Units=1/GPa)
#
#
# Indices 1 2 3 4 5 6 
#
# 1 0.016775 -0.006057 -0.005198 0.000000 -0.000992 0.000000
# 2 -0.006057 0.069217 -0.004377 0.000000 -0.000554 0.000000
# 3 -0.005198 -0.004377 0.010276 0.000000 -0.005966 0.000000
# 4 0.000000 0.000000 0.000000 0.044414 0.000000 0.006795
# 5 -0.000992 -0.000554 -0.005966 0.000000 0.032114 0.000000
# 6 0.000000 0.000000 0.000000 0.006795 0.000000 0.025121
#
#
# Mechanical properties :
#
#
# Convention : Reuss Voigt Hill
#
# Bulk Modulus (GPa) = 15.38310 44.07064 29.72687
# Shear Modulus (GPa) = 19.93234 31.49560 25.71397
#
# Velocity S-wave (km/s) = 3.05200 3.83646 3.46649
# Velocity P-wave (km/s) = 4.42813 6.34188 5.46936
#
# Compressibility (1/GPa) = 0.06500640
#
# Stress axis : x y z
#
# Youngs Moduli (GPa) = 59.61369 14.44723 97.30949
#
# Poissons Ratio (x) = 0.08750 0.50577
# Poissons Ratio (y) = 0.36106 0.42591
# Poissons Ratio (z) = 0.30985 0.06323
#
# Static dielectric constant tensor:
#      x y z
#    x 3.881140 0.000000 -0.026530 
#    y 0.000000 3.504300 0.000000 
#    z -0.026530 0.000000 3.779060 
# 
# 
# High freq. dielectric constant tensor:
#      x y z
#    x 1.851030 0.000000 0.002360 
#    y 0.000000 1.808850 0.000000 
#    z 0.002360 0.000000 1.841030 
# 
# From -- ./inp_files/103.got.cif
#   From: 2010.03.12/outbox.cif.g09.slc.cpg/sg4_1_cif.got.tgz:103.got - 2010.03.31 09:31:35.
