data_PCOD8046160
_publ_section_title
;
Structure prediction by ZEFSAII (Michael W. Deem and Ramdas Pophale) SiO2 
 PCOD8046160
Probable space group: P 21
;
_chemical_formula_sum "Si O2"
_cell_formula_units_Z 16
_cell_length_a 18.886495
_cell_length_b 8.210171
_cell_length_c 9.226245
_cell_angle_alpha 90.000000
_cell_angle_beta 29.746509
_cell_angle_gamma 90.000000
_cell_volume 709.828540
_symmetry_space_group_name_H-M "P 21"
_symmetry_group_IT_number 4
_symmetry_cell_setting 'monoclinic'
loop_
_space_group_symop_operation_xyz
x,y,z
-x,1/2+y,-z
loop_
_atom_site_type_symbol
_atom_site_label
_atom_site_fract_x
_atom_site_fract_y
_atom_site_fract_z
Si Si1 0.555717 0.733070 0.438430
Si Si2 0.026417 0.094072 0.403670
Si Si3 0.389345 0.821942 0.138587
Si Si4 0.838021 0.910990 0.931830
Si Si5 0.868159 0.092893 0.382856
Si Si6 0.674395 0.460265 0.052817
Si Si7 0.629121 0.604340 0.609325
Si Si8 0.099970 0.299738 0.869114
O O1 0.583701 0.624937 0.246458
O O2 0.397327 0.807615 0.733332
O O3 0.581504 0.606859 0.526004
O O4 0.666812 0.886701 0.239459
O O5 0.091744 0.273788 0.297168
O O6 0.959668 0.072883 0.364803
O O7 0.898600 0.075327 0.749334
O O8 0.159671 0.970484 0.195919
O O9 0.289886 0.661981 0.316289
O O10 0.391288 0.926999 0.282667
O O11 0.339156 0.936612 0.095562
O O12 0.546884 0.749966 0.838191
O O13 0.892497 0.906886 0.998692
O O14 0.861513 0.911775 0.333702
O O15 0.943769 0.219482 0.137744
O O16 0.795536 0.645330 0.316708
#
# Coordination Sequence:
#
# PCOD8046160 Si02
#       8
#     2   2   2   2   2   2   2   2
#     4   9  21  38  58  84 116 151 193 240 289 349
#     4  10  21  38  57  85 119 154 195 242 288 346
#     4  11  23  41  63  89 119 156 198 248 300 353
#     4   9  20  37  56  81 115 149 192 242 289 346
#     4  11  23  38  60  88 119 157 199 246 297 352
#     4  10  21  38  59  85 118 154 195 241 290 350
#     4  10  22  41  61  88 122 154 199 249 295 354
#     4  10  21  39  58  86 120 155 199 248 294 352
#
# _framework density 22.540652999999999
#
# number of rings (size 3 to 8) (size 9 to 14) (size 15 to 20)
#    0.000    2.000    0.000    3.750    0.000    7.000 
#    0.000    3.750    0.000    0.000    0.000    0.000 
#    0.000    0.000    0.000    0.000    0.000    0.000 
#
# Total GULP energy -198347.247954 kJ/mol
# GULP energy per Si atom -12396.702997 kJ/mol
# Density = 2.248935 g / cm^3
# Si number density = 22.540653 Si / 1000 Ang^3
#
#
#
# Elastic Constant Matrix: (Units=GPa)
#
#
# Indices 1 2 3 4 5 6 
#
# 1 40.4358 7.0374 13.3885 0.0000 -6.4083 0.0000
# 2 7.0374 19.0208 -3.2106 0.0000 0.8023 0.0000
# 3 13.3885 -3.2106 82.4838 0.0000 2.3388 0.0000
# 4 0.0000 0.0000 0.0000 56.3208 0.0000 12.2481
# 5 -6.4083 0.8023 2.3388 0.0000 22.8949 0.0000
# 6 0.0000 0.0000 0.0000 12.2481 0.0000 24.4972
#
#
#
# Elastic Compliance Matrix: (Units=1/GPa)
#
#
# Indices 1 2 3 4 5 6 
#
# 1 0.030304 -0.012571 -0.005678 0.000000 0.009503 0.000000
# 2 -0.012571 0.058235 0.004478 0.000000 -0.006017 0.000000
# 3 -0.005678 0.004478 0.013308 0.000000 -0.003106 0.000000
# 4 0.000000 0.000000 0.000000 0.019921 0.000000 -0.009960
# 5 0.009503 -0.006017 -0.003106 0.000000 0.046866 0.000000
# 6 0.000000 0.000000 0.000000 -0.009960 0.000000 0.045801
#
#
# Mechanical properties :
#
#
# Convention : Reuss Voigt Hill
#
# Bulk Modulus (GPa) = 13.45812 19.59677 16.52745
# Shear Modulus (GPa) = 18.74447 29.05760 23.90103
#
# Velocity S-wave (km/s) = 2.88685 3.59433 3.25984
# Velocity P-wave (km/s) = 4.13466 5.09298 4.63863
#
# Compressibility (1/GPa) = 0.07430456
#
# Stress axis : x y z
#
# Youngs Moduli (GPa) = 32.99856 17.17184 75.14544
#
# Poissons Ratio (x) = 0.21587 0.42665
# Poissons Ratio (y) = 0.41484 -0.33649
# Poissons Ratio (z) = 0.18736 -0.07689
#
# Static dielectric constant tensor:
#      x y z
#    x 3.779690 0.000000 0.045620 
#    y 0.000000 3.814710 0.000000 
#    z 0.045620 0.000000 4.344810 
# 
# 
# High freq. dielectric constant tensor:
#      x y z
#    x 1.865650 0.000000 0.000070 
#    y 0.000000 1.872720 0.000000 
#    z 0.000070 0.000000 1.911050 
# 
# From -- ./inp_files/9205.got.cif
#   From: 2010.03.12/outbox.cif.g09.slc.cpg/sg4_5_cif.got.tgz:9205.got - 2010.03.31 09:31:35.
