data_PCOD8046409
_publ_section_title
;
Structure prediction by ZEFSAII (Michael W. Deem and Ramdas Pophale) SiO2 
 PCOD8046409
Probable space group: P 21
;
_chemical_formula_sum "Si O2"
_cell_formula_units_Z 12
_cell_length_a 16.924075
_cell_length_b 4.969824
_cell_length_c 5.878321
_cell_angle_alpha 90.000000
_cell_angle_beta 110.492717
_cell_angle_gamma 90.000000
_cell_volume 463.134901
_symmetry_space_group_name_H-M "P 21"
_symmetry_group_IT_number 4
_symmetry_cell_setting 'monoclinic'
loop_
_space_group_symop_operation_xyz
x,y,z
-x,1/2+y,-z
loop_
_atom_site_type_symbol
_atom_site_label
_atom_site_fract_x
_atom_site_fract_y
_atom_site_fract_z
Si Si1 0.737020 0.057620 0.099771
Si Si2 0.908034 0.974791 0.062677
Si Si3 0.094714 0.976083 0.240906
Si Si4 0.732397 0.557344 0.376279
Si Si5 0.495817 0.453133 0.838930
Si Si6 0.371134 0.742107 0.386522
O O1 0.708167 0.348539 0.155514
O O2 0.837975 0.031264 0.182194
O O3 0.704304 0.847031 0.254747
O O4 0.689695 0.031299 0.809130
O O5 0.896394 0.670152 0.967849
O O6 0.002014 0.017563 0.261095
O O7 0.893798 0.171603 0.833624
O O8 0.166432 0.045554 0.493705
O O9 0.684775 0.481998 0.561141
O O10 0.414945 0.571178 0.628874
O O11 0.564047 0.385224 0.717016
O O12 0.529550 0.679921 0.050655
#
# Coordination Sequence:
#
# PCOD8046409 Si02
#       6
#     2   2   2   2   2   2
#     4  12  28  46  75 115 151 203 254 305 380 452
#     4  10  21  43  72 104 152 204 251 307 370 430
#     4  10  21  43  72 104 152 204 251 307 370 430
#     4  12  28  46  75 115 151 203 254 305 380 452
#     4  12  30  56  84 116 144 202 254 308 394 474
#     4  12  30  54  80 112 162 190 250 330 382 442
#
# _framework density 25.910374999999998
#
# number of rings (size 3 to 8) (size 9 to 14) (size 15 to 20)
#    0.000    0.667    1.667    4.000    0.000   14.667 
#    0.000    0.000    0.000    0.000    0.000    0.000 
#    0.000    0.000    0.000    0.000    0.000    0.000 
#
# Total GULP energy -148848.111024 kJ/mol
# GULP energy per Si atom -12404.009252 kJ/mol
# Density = 2.585140 g / cm^3
# Si number density = 25.910375 Si / 1000 Ang^3
#
#
#
# Elastic Constant Matrix: (Units=GPa)
#
#
# Indices 1 2 3 4 5 6 
#
# 1 136.2395 35.5698 35.9898 0.0000 -12.4960 0.0000
# 2 35.5698 112.6086 31.0664 0.0000 -4.0804 0.0000
# 3 35.9898 31.0664 103.1797 0.0000 3.1285 0.0000
# 4 0.0000 0.0000 0.0000 46.2388 0.0000 -9.6052
# 5 -12.4960 -4.0804 3.1285 0.0000 37.0818 0.0000
# 6 0.0000 0.0000 0.0000 -9.6052 0.0000 36.3118
#
#
#
# Elastic Compliance Matrix: (Units=1/GPa)
#
#
# Indices 1 2 3 4 5 6 
#
# 1 0.008804 -0.001965 -0.002569 0.000000 0.002967 0.000000
# 2 -0.001965 0.010188 -0.002402 0.000000 0.000662 0.000000
# 3 -0.002569 -0.002402 0.011375 0.000000 -0.002090 0.000000
# 4 0.000000 0.000000 0.000000 0.022884 0.000000 0.006053
# 5 0.002967 0.000662 -0.002090 0.000000 0.028217 0.000000
# 6 0.000000 0.000000 0.000000 0.006053 0.000000 0.029140
#
#
# Mechanical properties :
#
#
# Convention : Reuss Voigt Hill
#
# Bulk Modulus (GPa) = 60.62821 61.91997 61.27409
# Shear Modulus (GPa) = 38.46824 40.55326 39.51075
#
# Velocity S-wave (km/s) = 3.85732 3.96047 3.90923
# Velocity P-wave (km/s) = 6.57940 6.69802 6.63897
#
# Compressibility (1/GPa) = 0.01649397
#
# Stress axis : x y z
#
# Youngs Moduli (GPa) = 113.58717 98.15908 87.91469
#
# Poissons Ratio (x) = 0.19284 0.22588
# Poissons Ratio (y) = 0.22315 0.21119
# Poissons Ratio (z) = 0.29184 0.23580
#
# Static dielectric constant tensor:
#      x y z
#    x 4.875180 0.000000 0.240250 
#    y 0.000000 4.781890 0.000000 
#    z 0.240250 0.000000 4.509920 
# 
# 
# High freq. dielectric constant tensor:
#      x y z
#    x 2.056270 0.000000 0.010340 
#    y 0.000000 2.045150 0.000000 
#    z 0.010340 0.000000 2.025100 
# 
# From -- ./inp_files/3924.got.cif
#   From: 2010.03.12/outbox.cif.g09.slc.cpg/sg4_2_cif.got.tgz:3924.got - 2010.03.31 09:31:35.
