data_PCOD8046923
_publ_section_title
;
Structure prediction by ZEFSAII (Michael W. Deem and Ramdas Pophale) SiO2 
 PCOD8046923
Probable space group: P 21
;
_chemical_formula_sum "Si O2"
_cell_formula_units_Z 16
_cell_length_a 7.435898
_cell_length_b 11.883628
_cell_length_c 9.132989
_cell_angle_alpha 90.000000
_cell_angle_beta 112.325062
_cell_angle_gamma 90.000000
_cell_volume 746.547823
_symmetry_space_group_name_H-M "P 21"
_symmetry_group_IT_number 4
_symmetry_cell_setting 'monoclinic'
loop_
_space_group_symop_operation_xyz
x,y,z
-x,1/2+y,-z
loop_
_atom_site_type_symbol
_atom_site_label
_atom_site_fract_x
_atom_site_fract_y
_atom_site_fract_z
Si Si1 0.867543 0.733510 0.637778
Si Si2 0.200833 0.491035 0.076906
Si Si3 0.525446 0.307146 0.205883
Si Si4 0.110830 0.864214 0.512982
Si Si5 0.788672 0.223270 0.036346
Si Si6 0.436635 0.084568 0.346704
Si Si7 0.194722 0.477630 0.400170
Si Si8 0.836237 0.394656 0.806853
O O1 0.722870 0.626302 0.580274
O O2 0.011210 0.747057 0.541625
O O3 0.997159 0.723504 0.824850
O O4 0.733992 0.847558 0.606802
O O5 0.348522 0.388124 0.113580
O O6 0.144675 0.527062 0.225375
O O7 0.288997 0.597472 0.017143
O O8 0.002472 0.463385 0.936545
O O9 0.663887 0.366734 0.369369
O O10 0.641374 0.291279 0.091787
O O11 0.451599 0.185282 0.235362
O O12 0.094053 0.865457 0.334742
O O13 0.994394 0.969957 0.551217
O O14 0.793884 0.280808 0.879401
O O15 0.644052 0.058254 0.480603
O O16 0.357877 0.970804 0.249882
#
# Coordination Sequence:
#
# PCOD8046923 Si02
#       8
#     2   2   2   2   2   2   2   2
#     4   9  20  48  64  97 139 181 221 281 344 406
#     4  12  24  46  71  99 143 184 224 293 354 408
#     4  11  24  47  69  98 144 182 233 283 349 418
#     4   9  23  45  69  94 139 181 228 283 334 417
#     4  11  25  43  70 102 142 183 226 291 352 408
#     4  12  24  40  78  98 135 185 231 288 346 415
#     4  10  23  44  68  95 136 180 230 276 347 408
#     4  12  25  43  71 105 136 176 237 285 346 424
#
# _framework density 21.431982000000001
#
# number of rings (size 3 to 8) (size 9 to 14) (size 15 to 20)
#    0.750    0.500    3.750    0.750    5.250    0.000 
#    2.250    0.000    0.000    0.000    0.000    0.000 
#    0.000    0.000    0.000    0.000    0.000    0.000 
#
# Total GULP energy -198339.320375 kJ/mol
# GULP energy per Si atom -12396.207523 kJ/mol
# Density = 2.138320 g / cm^3
# Si number density = 21.431982 Si / 1000 Ang^3
#
#
#
# Elastic Constant Matrix: (Units=GPa)
#
#
# Indices 1 2 3 4 5 6 
#
# 1 86.0872 19.9385 46.3049 0.0000 -5.8339 0.0000
# 2 19.9385 93.1831 37.2730 0.0000 -2.9193 0.0000
# 3 46.3049 37.2730 124.0517 0.0000 -10.7962 0.0000
# 4 0.0000 0.0000 0.0000 31.6389 0.0000 14.7452
# 5 -5.8339 -2.9193 -10.7962 0.0000 22.2191 0.0000
# 6 0.0000 0.0000 0.0000 14.7452 0.0000 37.0061
#
#
#
# Elastic Compliance Matrix: (Units=1/GPa)
#
#
# Indices 1 2 3 4 5 6 
#
# 1 0.014662 -0.001083 -0.005038 0.000000 0.001260 0.000000
# 2 -0.001083 0.012278 -0.003309 0.000000 -0.000279 0.000000
# 3 -0.005038 -0.003309 0.011259 0.000000 0.003713 0.000000
# 4 0.000000 0.000000 0.000000 0.038814 0.000000 -0.015466
# 5 0.001260 -0.000279 0.003713 0.000000 0.047105 0.000000
# 6 0.000000 0.000000 0.000000 -0.015466 0.000000 0.033185
#
#
# Mechanical properties :
#
#
# Convention : Reuss Voigt Hill
#
# Bulk Modulus (GPa) = 51.70753 56.70610 54.20681
# Shear Modulus (GPa) = 27.38078 31.49319 29.43699
#
# Velocity S-wave (km/s) = 3.57818 3.83750 3.71011
# Velocity P-wave (km/s) = 6.42261 6.79347 6.61064
#
# Compressibility (1/GPa) = 0.01933954
#
# Stress axis : x y z
#
# Youngs Moduli (GPa) = 68.20305 81.44529 88.81631
#
# Poissons Ratio (x) = 0.08817 0.44746
# Poissons Ratio (y) = 0.07384 0.29392
# Poissons Ratio (z) = 0.34361 0.26953
#
# Static dielectric constant tensor:
#      x y z
#    x 3.932540 0.000000 -0.086180 
#    y 0.000000 3.827290 0.000000 
#    z -0.086180 0.000000 3.810170 
# 
# 
# High freq. dielectric constant tensor:
#      x y z
#    x 1.842530 0.000000 -0.003350 
#    y 0.000000 1.840370 0.000000 
#    z -0.003350 0.000000 1.835850 
# 
# From -- ./inp_files/6430.got.cif
#   From: 2010.03.12/outbox.cif.g09.slc.cpg/sg4_4_cif.got.tgz:6430.got - 2010.03.31 09:31:35.
