data_PCOD8046470
_publ_section_title
;
Structure prediction by ZEFSAII (Michael W. Deem and Ramdas Pophale) SiO2 
 PCOD8046470
Probable space group: P 21
;
_chemical_formula_sum "Si O2"
_cell_formula_units_Z 16
_cell_length_a 15.156825
_cell_length_b 5.354755
_cell_length_c 24.074123
_cell_angle_alpha 90.000000
_cell_angle_beta 20.836492
_cell_angle_gamma 90.000000
_cell_volume 695.000269
_symmetry_space_group_name_H-M "P 21"
_symmetry_group_IT_number 4
_symmetry_cell_setting 'monoclinic'
loop_
_space_group_symop_operation_xyz
x,y,z
-x,1/2+y,-z
loop_
_atom_site_type_symbol
_atom_site_label
_atom_site_fract_x
_atom_site_fract_y
_atom_site_fract_z
Si Si1 0.225401 0.214470 0.308902
Si Si2 0.195129 0.677634 0.613348
Si Si3 0.350513 0.507901 0.809929
Si Si4 0.066336 0.241780 0.893546
Si Si5 0.303986 0.712951 0.326792
Si Si6 0.476175 0.871059 0.651480
Si Si7 0.340150 0.501554 0.643742
Si Si8 0.649628 0.741280 0.894902
O O1 0.344673 0.452082 0.271148
O O2 0.291189 0.239457 0.205507
O O3 0.934942 0.222194 0.493181
O O4 0.322541 0.948681 0.273971
O O5 0.275064 0.521734 0.511414
O O6 0.240946 0.506520 0.639970
O O7 0.374647 0.913351 0.516631
O O8 0.909752 0.758459 0.775115
O O9 0.119398 0.474006 0.903484
O O10 0.473031 0.255236 0.760848
O O11 0.550444 0.672026 0.656466
O O12 0.220995 0.658290 0.936979
O O13 0.142149 0.310284 0.786492
O O14 0.262559 0.042616 0.802303
O O15 0.344979 0.762910 0.672849
O O16 0.507331 0.487858 0.996569
#
# Coordination Sequence:
#
# PCOD8046470 Si02
#       8
#     2   2   2   2   2   2   2   2
#     4  10  24  49  67 107 131 178 252 300 347 424
#     4  11  24  44  75 100 143 180 250 301 353 442
#     4  11  22  38  65  99 138 183 217 279 366 423
#     4  10  22  38  59 100 145 171 221 277 350 453
#     4  10  24  43  77  97 138 182 239 303 350 412
#     4  10  22  39  64 100 134 178 226 288 355 426
#     4  10  22  42  68 105 129 185 232 292 363 408
#     4  12  30  51  75 106 148 201 245 304 376 438
#
# _framework density 23.021574000000001
#
# number of rings (size 3 to 8) (size 9 to 14) (size 15 to 20)
#    0.000    1.500    2.500    0.750    8.750    3.000 
#    4.500    0.000    0.000    0.000    0.000    0.000 
#    0.000    0.000    0.000    0.000    0.000    0.000 
#
# Total GULP energy -198235.821760 kJ/mol
# GULP energy per Si atom -12389.738860 kJ/mol
# Density = 2.296918 g / cm^3
# Si number density = 23.021574 Si / 1000 Ang^3
#
#
#
# Elastic Constant Matrix: (Units=GPa)
#
#
# Indices 1 2 3 4 5 6 
#
# 1 93.6565 26.1530 61.7535 0.0000 12.7718 0.0000
# 2 26.1530 93.4040 34.0893 0.0000 12.6944 0.0000
# 3 61.7535 34.0893 111.9267 0.0000 10.0708 0.0000
# 4 0.0000 0.0000 0.0000 25.4401 0.0000 -1.4421
# 5 12.7718 12.6944 10.0708 0.0000 32.4655 0.0000
# 6 0.0000 0.0000 0.0000 -1.4421 0.0000 36.6614
#
#
#
# Elastic Compliance Matrix: (Units=1/GPa)
#
#
# Indices 1 2 3 4 5 6 
#
# 1 0.017360 -0.001115 -0.008912 0.000000 -0.003629 0.000000
# 2 -0.001115 0.012558 -0.002888 0.000000 -0.003576 0.000000
# 3 -0.008912 -0.002888 0.014725 0.000000 0.000067 0.000000
# 4 0.000000 0.000000 0.000000 0.039396 0.000000 0.001550
# 5 -0.003629 -0.003576 0.000067 0.000000 0.033607 0.000000
# 6 0.000000 0.000000 0.000000 0.001550 0.000000 0.027338
#
#
# Mechanical properties :
#
#
# Convention : Reuss Voigt Hill
#
# Bulk Modulus (GPa) = 53.15348 60.33097 56.74222
# Shear Modulus (GPa) = 28.23525 30.71282 29.47403
#
# Velocity S-wave (km/s) = 3.50590 3.65648 3.58198
# Velocity P-wave (km/s) = 6.28706 6.64000 6.46594
#
# Compressibility (1/GPa) = 0.01881344
#
# Stress axis : x y z
#
# Youngs Moduli (GPa) = 57.60506 79.62801 67.91253
#
# Poissons Ratio (x) = 0.08878 0.60522
# Poissons Ratio (y) = 0.06423 0.19613
# Poissons Ratio (z) = 0.51336 0.22996
#
# Static dielectric constant tensor:
#      x y z
#    x 3.986680 0.000000 0.254000 
#    y 0.000000 4.371090 0.000000 
#    z 0.254000 0.000000 4.117500 
# 
# 
# High freq. dielectric constant tensor:
#      x y z
#    x 1.901210 0.000000 0.022560 
#    y 0.000000 1.922340 0.000000 
#    z 0.022560 0.000000 1.905340 
# 
# From -- ./inp_files/15044.got.cif
#   From: 2010.03.12/outbox.cif.g09.slc.cpg/sg4_8_cif.got.tgz:15044.got - 2010.03.31 09:31:35.
