data_PCOD8046003
_publ_section_title
;
Structure prediction by ZEFSAII (Michael W. Deem and Ramdas Pophale) SiO2 
 PCOD8046003
Probable space group: P 21
;
_chemical_formula_sum "Si O2"
_cell_formula_units_Z 16
_cell_length_a 11.612754
_cell_length_b 8.956603
_cell_length_c 9.153745
_cell_angle_alpha 90.000000
_cell_angle_beta 123.271752
_cell_angle_gamma 90.000000
_cell_volume 796.020267
_symmetry_space_group_name_H-M "P 21"
_symmetry_group_IT_number 4
_symmetry_cell_setting 'monoclinic'
loop_
_space_group_symop_operation_xyz
x,y,z
-x,1/2+y,-z
loop_
_atom_site_type_symbol
_atom_site_label
_atom_site_fract_x
_atom_site_fract_y
_atom_site_fract_z
Si Si1 0.477545 0.693810 0.163122
Si Si2 0.184475 0.642060 0.029085
Si Si3 0.038783 0.661225 0.220922
Si Si4 0.223571 0.206160 0.587204
Si Si5 0.198446 0.854356 0.559766
Si Si6 0.481617 0.860352 0.878856
Si Si7 0.213443 0.333023 0.905353
Si Si8 0.975658 0.347523 0.284479
O O1 0.344160 0.684836 0.174352
O O2 0.616916 0.737683 0.347083
O O3 0.510927 0.538322 0.106530
O O4 0.442327 0.813609 0.014758
O O5 0.116502 0.595353 0.134473
O O6 0.181378 0.508516 0.907969
O O7 0.101739 0.784534 0.911527
O O8 0.137464 0.779485 0.372104
O O9 0.897137 0.743181 0.074750
O O10 0.992424 0.525167 0.290660
O O11 0.193150 0.285036 0.722508
O O12 0.129522 0.282367 0.399987
O O13 0.186779 0.032354 0.553991
O O14 0.359705 0.806380 0.685841
O O15 0.111636 0.794804 0.636398
O O16 0.630615 0.794479 0.933677
#
# Coordination Sequence:
#
# PCOD8046003 Si02
#       8
#     2   2   2   2   2   2   2   2
#     4   9  19  37  58  87 119 148 197 246 304 347
#     4  11  24  40  60  87 128 163 192 243 310 371
#     4  12  25  39  58  90 128 161 195 245 306 365
#     4  10  21  37  63  90 113 152 200 262 287 337
#     4  11  20  38  61  92 116 150 208 246 295 345
#     4   9  19  33  62  88 111 149 199 255 288 342
#     4  10  20  39  61  88 121 155 202 250 299 348
#     4  12  22  37  61  92 116 158 205 245 297 351
#
# _framework density 20.099992
#
# number of rings (size 3 to 8) (size 9 to 14) (size 15 to 20)
#    0.000    1.500    3.750    1.500    1.750    1.000 
#    0.000    5.000    0.000    0.000    0.000    0.000 
#    0.000    0.000    0.000    0.000    0.000    0.000 
#
# Total GULP energy -198339.206423 kJ/mol
# GULP energy per Si atom -12396.200401 kJ/mol
# Density = 2.005424 g / cm^3
# Si number density = 20.099992 Si / 1000 Ang^3
#
#
#
# Elastic Constant Matrix: (Units=GPa)
#
#
# Indices 1 2 3 4 5 6 
#
# 1 125.5051 34.8116 46.3886 0.0000 28.1209 0.0000
# 2 34.8116 75.3181 38.9045 0.0000 15.8364 0.0000
# 3 46.3886 38.9045 77.6303 0.0000 25.6725 0.0000
# 4 0.0000 0.0000 0.0000 26.0587 0.0000 4.1018
# 5 28.1209 15.8364 25.6725 0.0000 38.7643 0.0000
# 6 0.0000 0.0000 0.0000 4.1018 0.0000 24.8539
#
#
#
# Elastic Compliance Matrix: (Units=1/GPa)
#
#
# Indices 1 2 3 4 5 6 
#
# 1 0.011053 -0.002052 -0.004100 0.000000 -0.004464 0.000000
# 2 -0.002052 0.018389 -0.007679 0.000000 -0.000938 0.000000
# 3 -0.004100 -0.007679 0.021971 0.000000 -0.008439 0.000000
# 4 0.000000 0.000000 0.000000 0.039398 0.000000 -0.006502
# 5 -0.004464 -0.000938 -0.008439 0.000000 0.035008 0.000000
# 6 0.000000 0.000000 0.000000 -0.006502 0.000000 0.041308
#
#
# Mechanical properties :
#
#
# Convention : Reuss Voigt Hill
#
# Bulk Modulus (GPa) = 42.10461 57.62921 49.86691
# Shear Modulus (GPa) = 24.66619 28.49198 26.57909
#
# Velocity S-wave (km/s) = 3.50690 3.76907 3.64035
# Velocity P-wave (km/s) = 6.11481 6.90469 6.52172
#
# Compressibility (1/GPa) = 0.02375037
#
# Stress axis : x y z
#
# Youngs Moduli (GPa) = 90.47610 54.37907 45.51488
#
# Poissons Ratio (x) = 0.11159 0.18660
# Poissons Ratio (y) = 0.18566 0.34953
# Poissons Ratio (z) = 0.37093 0.41760
#
# Static dielectric constant tensor:
#      x y z
#    x 3.840330 0.000000 0.487070 
#    y 0.000000 3.594100 0.000000 
#    z 0.487070 0.000000 3.453490 
# 
# 
# High freq. dielectric constant tensor:
#      x y z
#    x 1.790230 0.000000 0.037550 
#    y 0.000000 1.786040 0.000000 
#    z 0.037550 0.000000 1.757600 
# 
# From -- ./inp_files/7658.got.cif
#   From: 2010.03.12/outbox.cif.g09.slc.cpg/sg4_4_cif.got.tgz:7658.got - 2010.03.31 09:31:35.
