data_PCOD8046912
_publ_section_title
;
Structure prediction by ZEFSAII (Michael W. Deem and Ramdas Pophale) SiO2 
 PCOD8046912
Probable space group: P 21
;
_chemical_formula_sum "Si O2"
_cell_formula_units_Z 14
_cell_length_a 7.706269
_cell_length_b 10.059507
_cell_length_c 9.057666
_cell_angle_alpha 90.000000
_cell_angle_beta 66.325212
_cell_angle_gamma 90.000000
_cell_volume 643.067373
_symmetry_space_group_name_H-M "P 21"
_symmetry_group_IT_number 4
_symmetry_cell_setting 'monoclinic'
loop_
_space_group_symop_operation_xyz
x,y,z
-x,1/2+y,-z
loop_
_atom_site_type_symbol
_atom_site_label
_atom_site_fract_x
_atom_site_fract_y
_atom_site_fract_z
Si Si1 0.426978 0.093080 0.681500
Si Si2 0.351059 0.673988 0.918964
Si Si3 0.936830 0.462304 0.722491
Si Si4 0.029756 0.182817 0.794038
Si Si5 0.160541 0.955987 0.573160
Si Si6 0.568084 0.459005 0.016783
Si Si7 0.251242 0.679773 0.626603
O O1 0.244598 0.184942 0.785878
O O2 0.604311 0.176354 0.561201
O O3 0.367436 0.991373 0.570608
O O4 0.490305 0.013843 0.804191
O O5 0.435276 0.532071 0.941870
O O6 0.371905 0.693243 0.736402
O O7 0.454003 0.797217 0.970961
O O8 0.125149 0.677088 0.024217
O O9 0.833170 0.482914 0.602428
O O10 0.786772 0.492652 0.903612
O O11 0.006117 0.311254 0.700903
O O12 0.120832 0.551232 0.680382
O O13 0.001845 0.052593 0.699530
O O14 0.115782 0.805509 0.638582
#
# Coordination Sequence:
#
# PCOD8046912 Si02
#       7
#     2   2   2   2   2   2   2
#     4  10  24  42  66  97 134 173 215 282 317 403
#     4  11  24  46  67 100 132 185 217 281 330 403
#     4  11  24  41  68  96 130 176 220 277 331 404
#     4   9  23  42  66  91 137 166 225 270 338 379
#     4  10  23  44  64  97 131 170 225 270 330 397
#     4  11  25  44  67  98 137 173 231 271 335 392
#     4  12  25  41  72  95 137 175 225 267 343 388
#
# _framework density 21.770658999999998
#
# number of rings (size 3 to 8) (size 9 to 14) (size 15 to 20)
#    0.857    0.571    1.429    2.571    8.000    2.286 
#    0.000    0.000    0.000    0.000    0.000    0.000 
#    0.000    0.000    0.000    0.000    0.000    0.000 
#
# Total GULP energy -173545.949791 kJ/mol
# GULP energy per Si atom -12396.139271 kJ/mol
# Density = 2.172111 g / cm^3
# Si number density = 21.770659 Si / 1000 Ang^3
#
#
#
# Elastic Constant Matrix: (Units=GPa)
#
#
# Indices 1 2 3 4 5 6 
#
# 1 63.4054 35.9112 20.8180 0.0000 -3.4993 0.0000
# 2 35.9112 121.7707 48.4038 0.0000 -5.4854 0.0000
# 3 20.8180 48.4038 91.7508 0.0000 -2.9904 0.0000
# 4 0.0000 0.0000 0.0000 32.5325 0.0000 2.3135
# 5 -3.4993 -5.4854 -2.9904 0.0000 39.1655 0.0000
# 6 0.0000 0.0000 0.0000 2.3135 0.0000 38.4233
#
#
#
# Elastic Compliance Matrix: (Units=1/GPa)
#
#
# Indices 1 2 3 4 5 6 
#
# 1 0.019179 -0.004932 -0.001721 0.000000 0.000891 0.000000
# 2 -0.004932 0.011702 -0.005028 0.000000 0.000814 0.000000
# 3 -0.001721 -0.005028 0.013949 0.000000 0.000207 0.000000
# 4 0.000000 0.000000 0.000000 0.030871 0.000000 -0.001859
# 5 0.000891 0.000814 0.000207 0.000000 0.025742 0.000000
# 6 0.000000 0.000000 0.000000 -0.001859 0.000000 0.026138
#
#
# Mechanical properties :
#
#
# Convention : Reuss Voigt Hill
#
# Bulk Modulus (GPa) = 46.57954 54.13255 50.35604
# Shear Modulus (GPa) = 31.62607 33.47718 32.55163
#
# Velocity S-wave (km/s) = 3.81556 3.92563 3.87098
# Velocity P-wave (km/s) = 6.39166 6.74287 6.56961
#
# Compressibility (1/GPa) = 0.02146865
#
# Stress axis : x y z
#
# Youngs Moduli (GPa) = 52.14041 85.45651 71.69105
#
# Poissons Ratio (x) = 0.42146 0.12336
# Poissons Ratio (y) = 0.25715 0.36045
# Poissons Ratio (z) = 0.08972 0.42966
#
# Static dielectric constant tensor:
#      x y z
#    x 3.564920 0.000000 0.006210 
#    y 0.000000 3.984610 0.000000 
#    z 0.006210 0.000000 3.792480 
# 
# 
# High freq. dielectric constant tensor:
#      x y z
#    x 1.833700 0.000000 0.004080 
#    y 0.000000 1.859890 0.000000 
#    z 0.004080 0.000000 1.858500 
# 
# From -- ./inp_files/5773.got.cif
#   From: 2010.03.12/outbox.cif.g09.slc.cpg/sg4_3_cif.got.tgz:5773.got - 2010.03.31 09:31:35.
