data_PCOD8046688
_publ_section_title
;
Structure prediction by ZEFSAII (Michael W. Deem and Ramdas Pophale) SiO2 
 PCOD8046688
Probable space group: P 21
;
_chemical_formula_sum "Si O2"
_cell_formula_units_Z 14
_cell_length_a 7.742545
_cell_length_b 12.413465
_cell_length_c 8.655991
_cell_angle_alpha 90.000000
_cell_angle_beta 50.300774
_cell_angle_gamma 90.000000
_cell_volume 640.103733
_symmetry_space_group_name_H-M "P 21"
_symmetry_group_IT_number 4
_symmetry_cell_setting 'monoclinic'
loop_
_space_group_symop_operation_xyz
x,y,z
-x,1/2+y,-z
loop_
_atom_site_type_symbol
_atom_site_label
_atom_site_fract_x
_atom_site_fract_y
_atom_site_fract_z
Si Si1 0.345576 0.812260 0.474245
Si Si2 0.145216 0.578787 0.139977
Si Si3 0.396840 0.024011 0.248438
Si Si4 0.960820 0.370915 0.106116
Si Si5 0.951272 0.134693 0.479250
Si Si6 0.219468 0.187399 0.841823
Si Si7 0.136799 0.004256 0.115566
O O1 0.279907 0.832500 0.690594
O O2 0.129214 0.756709 0.512028
O O3 0.546168 0.725897 0.364405
O O4 0.412093 0.927506 0.363149
O O5 0.201501 0.594773 0.289349
O O6 0.040735 0.461289 0.179473
O O7 0.969884 0.669411 0.181418
O O8 0.367043 0.585034 0.906152
O O9 0.330238 0.966675 0.123485
O O10 0.210485 0.117363 0.392320
O O11 0.957558 0.403935 0.926917
O O12 0.139570 0.275170 0.012152
O O13 0.934931 0.062532 0.330117
O O14 0.253221 0.079277 0.919908
#
# Coordination Sequence:
#
# PCOD8046688 Si02
#       7
#     2   2   2   2   2   2   2
#     4  12  23  43  71  96 138 173 226 269 337 387
#     4  11  23  43  70  92 138 171 222 270 339 385
#     4  10  22  44  66  97 131 179 213 282 323 397
#     4  11  21  44  62  98 134 171 217 277 325 407
#     4  10  23  42  67 101 127 181 221 275 323 401
#     4  11  24  42  66  99 132 176 216 282 323 403
#     4   9  22  44  64  93 136 167 221 267 332 384
#
# _framework density 21.871452999999999
#
# number of rings (size 3 to 8) (size 9 to 14) (size 15 to 20)
#    0.857    0.571    4.286    0.857    2.000    1.143 
#    7.714    0.000    3.143    0.000    0.000    0.000 
#    0.000    0.000    0.000    0.000    0.000    0.000 
#
# Total GULP energy -173435.753071 kJ/mol
# GULP energy per Si atom -12388.268076 kJ/mol
# Density = 2.182167 g / cm^3
# Si number density = 21.871453 Si / 1000 Ang^3
#
#
#
# Elastic Constant Matrix: (Units=GPa)
#
#
# Indices 1 2 3 4 5 6 
#
# 1 56.0936 20.1005 22.6788 0.0000 -8.7785 0.0000
# 2 20.1005 65.5369 34.8662 0.0000 -13.1471 0.0000
# 3 22.6788 34.8662 127.3202 0.0000 -9.2445 0.0000
# 4 0.0000 0.0000 0.0000 34.7394 0.0000 -10.9665
# 5 -8.7785 -13.1471 -9.2445 0.0000 43.2858 0.0000
# 6 0.0000 0.0000 0.0000 -10.9665 0.0000 20.6705
#
#
#
# Elastic Compliance Matrix: (Units=1/GPa)
#
#
# Indices 1 2 3 4 5 6 
#
# 1 0.020786 -0.004720 -0.002243 0.000000 0.002303 0.000000
# 2 -0.004720 0.019818 -0.004285 0.000000 0.004147 0.000000
# 3 -0.002243 -0.004285 0.009446 0.000000 0.000261 0.000000
# 4 0.000000 0.000000 0.000000 0.034577 0.000000 0.018344
# 5 0.002303 0.004147 0.000261 0.000000 0.024885 0.000000
# 6 0.000000 0.000000 0.000000 0.018344 0.000000 0.058110
#
#
# Mechanical properties :
#
#
# Convention : Reuss Voigt Hill
#
# Bulk Modulus (GPa) = 36.29237 44.91574 40.60406
# Shear Modulus (GPa) = 25.08758 31.15951 28.12354
#
# Velocity S-wave (km/s) = 3.39048 3.77857 3.58977
# Velocity P-wave (km/s) = 5.65302 6.29425 5.98224
#
# Compressibility (1/GPa) = 0.02755400
#
# Stress axis : x y z
#
# Youngs Moduli (GPa) = 48.10975 50.45954 105.86341
#
# Poissons Ratio (x) = 0.23817 0.23742
# Poissons Ratio (y) = 0.22708 0.45365
# Poissons Ratio (z) = 0.10790 0.21623
#
# Static dielectric constant tensor:
#      x y z
#    x 3.652200 0.000000 0.009720 
#    y 0.000000 3.856810 0.000000 
#    z 0.009720 0.000000 4.041610 
# 
# 
# High freq. dielectric constant tensor:
#      x y z
#    x 1.829400 0.000000 0.003340 
#    y 0.000000 1.847770 0.000000 
#    z 0.003340 0.000000 1.875160 
# 
# From -- ./inp_files/6349.got.cif
#   From: 2010.03.12/outbox.cif.g09.slc.cpg/sg4_4_cif.got.tgz:6349.got - 2010.03.31 09:31:35.
