data_PCOD8046260
_publ_section_title
;
Structure prediction by ZEFSAII (Michael W. Deem and Ramdas Pophale) SiO2 
 PCOD8046260
Probable space group: P 21
;
_chemical_formula_sum "Si O2"
_cell_formula_units_Z 12
_cell_length_a 4.868292
_cell_length_b 12.349030
_cell_length_c 8.681601
_cell_angle_alpha 90.000000
_cell_angle_beta 89.488551
_cell_angle_gamma 90.000000
_cell_volume 521.905633
_symmetry_space_group_name_H-M "P 21"
_symmetry_group_IT_number 4
_symmetry_cell_setting 'monoclinic'
loop_
_space_group_symop_operation_xyz
x,y,z
-x,1/2+y,-z
loop_
_atom_site_type_symbol
_atom_site_label
_atom_site_fract_x
_atom_site_fract_y
_atom_site_fract_z
Si Si1 0.479910 0.179570 0.934667
Si Si2 0.980318 0.310650 0.993064
Si Si3 0.976607 0.372018 0.642432
Si Si4 0.530559 0.973953 0.500079
Si Si5 0.792738 0.998150 0.808161
Si Si6 0.223434 0.154982 0.631124
O O1 0.181295 0.205030 0.008989
O O2 0.457035 0.197457 0.749655
O O3 0.673944 0.267196 0.016035
O O4 0.609959 0.058077 0.943996
O O5 0.998830 0.365063 0.825431
O O6 0.037935 0.400280 0.120003
O O7 0.176830 0.470592 0.588498
O O8 0.075008 0.259931 0.561379
O O9 0.670911 0.388519 0.579818
O O10 0.584076 0.949875 0.681126
O O11 0.379837 0.091327 0.492960
O O12 0.006948 0.080626 0.727149
#
# Coordination Sequence:
#
# PCOD8046260 Si02
#       6
#     2   2   2   2   2   2
#     4  10  21  40  63  96 122 170 210 254 315 386
#     4  11  24  39  70  95 126 169 217 263 313 381
#     4  11  22  42  66  93 128 166 216 263 316 380
#     4  11  24  40  66  98 124 172 215 261 313 384
#     4  11  23  44  70  93 130 171 217 256 324 385
#     4  10  22  43  69  91 128 180 209 249 335 388
#
# _framework density 22.992664000000001
#
# number of rings (size 3 to 8) (size 9 to 14) (size 15 to 20)
#    0.000    1.333    5.000    2.000    7.000    0.000 
#    0.000    5.000    0.000    0.000    0.000    0.000 
#    0.000    0.000    0.000    0.000    0.000    0.000 
#
# Total GULP energy -148671.428258 kJ/mol
# GULP energy per Si atom -12389.285688 kJ/mol
# Density = 2.294033 g / cm^3
# Si number density = 22.992664 Si / 1000 Ang^3
#
#
#
# Elastic Constant Matrix: (Units=GPa)
#
#
# Indices 1 2 3 4 5 6 
#
# 1 100.1530 3.5179 17.4365 0.0000 21.1876 0.0000
# 2 3.5179 16.3665 3.6386 0.0000 6.9462 0.0000
# 3 17.4365 3.6386 41.3614 0.0000 13.8601 0.0000
# 4 0.0000 0.0000 0.0000 38.1290 0.0000 2.7940
# 5 21.1876 6.9462 13.8601 0.0000 31.8514 0.0000
# 6 0.0000 0.0000 0.0000 2.7940 0.0000 39.3249
#
#
#
# Elastic Compliance Matrix: (Units=1/GPa)
#
#
# Indices 1 2 3 4 5 6 
#
# 1 0.011899 0.000999 -0.002785 0.000000 -0.006921 0.000000
# 2 0.000999 0.067465 -0.001409 0.000000 -0.014764 0.000000
# 3 -0.002785 -0.001409 0.028977 0.000000 -0.010450 0.000000
# 4 0.000000 0.000000 0.000000 0.026364 0.000000 -0.001873
# 5 -0.006921 -0.014764 -0.010450 0.000000 0.043767 0.000000
# 6 0.000000 0.000000 0.000000 -0.001873 0.000000 0.025562
#
#
# Mechanical properties :
#
#
# Convention : Reuss Voigt Hill
#
# Bulk Modulus (GPa) = 9.80857 23.00743 16.40800
# Shear Modulus (GPa) = 20.45780 30.74693 25.60236
#
# Velocity S-wave (km/s) = 2.98611 3.66081 3.34054
# Velocity P-wave (km/s) = 4.02049 5.28175 4.69368
#
# Compressibility (1/GPa) = 0.10195162
#
# Stress axis : x y z
#
# Youngs Moduli (GPa) = 84.04343 14.82250 34.51061
#
# Poissons Ratio (x) = -0.01481 0.09610
# Poissons Ratio (y) = -0.08396 0.04861
# Poissons Ratio (z) = 0.23403 0.02088
#
# Static dielectric constant tensor:
#      x y z
#    x 4.472190 0.000000 0.315230 
#    y 0.000000 4.210310 0.000000 
#    z 0.315230 0.000000 3.707270 
# 
# 
# High freq. dielectric constant tensor:
#      x y z
#    x 1.935590 0.000000 0.027380 
#    y 0.000000 1.896590 0.000000 
#    z 0.027380 0.000000 1.860740 
# 
# From -- ./inp_files/1152.got.cif
#   From: 2010.03.12/outbox.cif.g09.slc.cpg/sg4_1_cif.got.tgz:1152.got - 2010.03.31 09:31:35.
