data_PCOD8046613
_publ_section_title
;
Structure prediction by ZEFSAII (Michael W. Deem and Ramdas Pophale) SiO2 
 PCOD8046613
Probable space group: P 21
;
_chemical_formula_sum "Si O2"
_cell_formula_units_Z 14
_cell_length_a 9.840117
_cell_length_b 10.483189
_cell_length_c 9.024565
_cell_angle_alpha 90.000000
_cell_angle_beta 40.805939
_cell_angle_gamma 90.000000
_cell_volume 608.365990
_symmetry_space_group_name_H-M "P 21"
_symmetry_group_IT_number 4
_symmetry_cell_setting 'monoclinic'
loop_
_space_group_symop_operation_xyz
x,y,z
-x,1/2+y,-z
loop_
_atom_site_type_symbol
_atom_site_label
_atom_site_fract_x
_atom_site_fract_y
_atom_site_fract_z
Si Si1 0.634729 0.600670 0.030475
Si Si2 0.159744 0.310206 0.327978
Si Si3 0.277991 0.771578 0.394490
Si Si4 0.564368 0.707720 0.649045
Si Si5 0.840814 0.581390 0.172104
Si Si6 0.830346 0.290579 0.188822
Si Si7 0.549254 0.980988 0.066268
O O1 0.396479 0.651910 0.227046
O O2 0.706543 0.572924 0.134977
O O3 0.795747 0.692564 0.816773
O O4 0.610000 0.478033 0.944241
O O5 0.277318 0.297555 0.389003
O O6 0.912160 0.312808 0.556082
O O7 0.226852 0.436423 0.180506
O O8 0.196694 0.737574 0.624148
O O9 0.451417 0.882648 0.264474
O O10 0.692352 0.619281 0.430100
O O11 0.394755 0.794715 0.705755
O O12 0.436388 0.618455 0.868767
O O13 0.925852 0.435201 0.119793
O O14 0.019952 0.688792 0.016231
#
# Coordination Sequence:
#
# PCOD8046613 Si02
#       7
#     2   2   2   2   2   2   2
#     4  10  22  42  66  98 139 180 230 289 350 420
#     4  10  23  42  67 101 137 181 233 289 349 421
#     4  11  22  43  70  99 140 183 228 296 360 412
#     4  11  25  44  70 102 143 189 236 293 354 424
#     4  12  26  46  72 109 144 184 243 292 360 425
#     4  12  27  45  73 104 146 189 234 296 359 426
#     4  10  23  42  70  97 141 184 240 287 352 422
#
# _framework density 23.012463
#
# number of rings (size 3 to 8) (size 9 to 14) (size 15 to 20)
#    0.000    1.143    4.286    0.857    2.000    8.000 
#    2.571    0.000    0.000    0.000    0.000    0.000 
#    0.000    0.000    0.000    0.000    0.000    0.000 
#
# Total GULP energy -173517.054736 kJ/mol
# GULP energy per Si atom -12394.075338 kJ/mol
# Density = 2.296009 g / cm^3
# Si number density = 23.012463 Si / 1000 Ang^3
#
#
#
# Elastic Constant Matrix: (Units=GPa)
#
#
# Indices 1 2 3 4 5 6 
#
# 1 102.0640 0.6747 25.8662 0.0000 -0.9694 0.0000
# 2 0.6747 84.2187 30.3212 0.0000 -5.0559 0.0000
# 3 25.8662 30.3212 84.3510 0.0000 -3.3467 0.0000
# 4 0.0000 0.0000 0.0000 24.4839 0.0000 1.0538
# 5 -0.9694 -5.0559 -3.3467 0.0000 38.5807 0.0000
# 6 0.0000 0.0000 0.0000 1.0538 0.0000 23.2031
#
#
#
# Elastic Compliance Matrix: (Units=1/GPa)
#
#
# Indices 1 2 3 4 5 6 
#
# 1 0.010740 0.001269 -0.003745 0.000000 0.000111 0.000000
# 2 0.001269 0.013861 -0.005317 0.000000 0.001387 0.000000
# 3 -0.003745 -0.005317 0.014935 0.000000 0.000505 0.000000
# 4 0.000000 0.000000 0.000000 0.040923 0.000000 -0.001859
# 5 0.000111 0.001387 0.000505 0.000000 0.026148 0.000000
# 6 0.000000 0.000000 0.000000 -0.001859 0.000000 0.043182
#
#
# Mechanical properties :
#
#
# Convention : Reuss Voigt Hill
#
# Bulk Modulus (GPa) = 41.75361 42.70642 42.23002
# Shear Modulus (GPa) = 28.84211 31.50497 30.17354
#
# Velocity S-wave (km/s) = 3.54407 3.70407 3.62495
# Velocity P-wave (km/s) = 5.91021 6.07386 5.99259
#
# Compressibility (1/GPa) = 0.02395003
#
# Stress axis : x y z
#
# Youngs Moduli (GPa) = 93.11383 72.14431 66.95766
#
# Poissons Ratio (x) = -0.09155 0.25076
# Poissons Ratio (y) = -0.11816 0.35599
# Poissons Ratio (z) = 0.34871 0.38357
#
# Static dielectric constant tensor:
#      x y z
#    x 4.140320 0.000000 0.125090 
#    y 0.000000 4.072790 0.000000 
#    z 0.125090 0.000000 4.068870 
# 
# 
# High freq. dielectric constant tensor:
#      x y z
#    x 1.911910 0.000000 0.011260 
#    y 0.000000 1.901250 0.000000 
#    z 0.011260 0.000000 1.909870 
# 
# From -- ./inp_files/1113.got.cif
#   From: 2010.03.12/outbox.cif.g09.slc.cpg/sg4_1_cif.got.tgz:1113.got - 2010.03.31 09:31:35.
