data_PCOD8046159
_publ_section_title
;
Structure prediction by ZEFSAII (Michael W. Deem and Ramdas Pophale) SiO2 
 PCOD8046159
Probable space group: P 21
;
_chemical_formula_sum "Si O2"
_cell_formula_units_Z 16
_cell_length_a 20.910203
_cell_length_b 9.186805
_cell_length_c 9.188544
_cell_angle_alpha 90.000000
_cell_angle_beta 151.505663
_cell_angle_gamma 90.000000
_cell_volume 842.079861
_symmetry_space_group_name_H-M "P 21"
_symmetry_group_IT_number 4
_symmetry_cell_setting 'monoclinic'
loop_
_space_group_symop_operation_xyz
x,y,z
-x,1/2+y,-z
loop_
_atom_site_type_symbol
_atom_site_label
_atom_site_fract_x
_atom_site_fract_y
_atom_site_fract_z
Si Si1 0.476750 0.509340 0.807086
Si Si2 0.023253 0.152213 0.400092
Si Si3 0.518169 0.670815 0.179310
Si Si4 0.726084 0.184783 0.774168
Si Si5 0.018171 0.490732 0.393376
Si Si6 0.773917 0.476770 0.369835
Si Si7 0.768099 0.474006 0.696614
Si Si8 0.268101 0.687547 0.875789
O O1 0.455963 0.339934 0.799775
O O2 0.375595 0.560624 0.480231
O O3 0.452787 0.598718 0.906330
O O4 0.625451 0.538090 0.043635
O O5 0.044048 0.321616 0.475953
O O6 0.047213 0.062827 0.595177
O O7 0.124403 0.100928 0.477845
O O8 0.874550 0.123469 0.041831
O O9 0.661118 0.602481 0.507040
O O10 0.410996 0.645761 0.093106
O O11 0.702336 0.332152 0.637528
O O12 0.705824 0.218982 0.903111
O O13 0.161116 0.559074 0.637435
O O14 0.910997 0.515783 0.050882
O O15 0.794174 0.442572 0.579813
O O16 0.797661 0.329401 0.328177
#
# Coordination Sequence:
#
# PCOD8046159 Si02
#       8
#     2   2   2   2   2   2   2   2
#     4  10  21  38  57  82 114 147 186 232 282 334
#     4  10  21  38  57  82 114 147 186 232 282 334
#     4  10  22  38  58  84 114 149 188 234 282 332
#     4  10  21  38  57  82 114 147 186 232 282 334
#     4  10  22  38  58  84 114 149 188 234 282 332
#     4  10  21  38  57  82 114 147 186 232 282 334
#     4  10  22  38  58  84 114 149 188 234 282 332
#     4  10  22  38  58  84 114 149 188 234 282 332
#
# _framework density 19.000574
#
# number of rings (size 3 to 8) (size 9 to 14) (size 15 to 20)
#    0.000    2.000    0.000    4.500    0.000   12.000 
#    0.000    2.500    0.000    0.000    0.000    0.000 
#    0.000    0.000    0.000    0.000    0.000    0.000 
#
# Total GULP energy -198453.490739 kJ/mol
# GULP energy per Si atom -12403.343171 kJ/mol
# Density = 1.895733 g / cm^3
# Si number density = 19.000574 Si / 1000 Ang^3
#
#
#
# Elastic Constant Matrix: (Units=GPa)
#
#
# Indices 1 2 3 4 5 6 
#
# 1 129.9673 84.8378 61.7470 0.0000 0.3773 0.0000
# 2 84.8378 121.0148 76.5087 0.0000 -7.5242 0.0000
# 3 61.7470 76.5087 115.5982 0.0000 -13.3604 0.0000
# 4 0.0000 0.0000 0.0000 35.0618 0.0000 -1.3115
# 5 0.3773 -7.5242 -13.3604 0.0000 21.8989 0.0000
# 6 0.0000 0.0000 0.0000 -1.3115 0.0000 36.5157
#
#
#
# Elastic Compliance Matrix: (Units=1/GPa)
#
#
# Indices 1 2 3 4 5 6 
#
# 1 0.014856 -0.009190 -0.002418 0.000000 -0.004889 0.000000
# 2 -0.009190 0.019912 -0.008026 0.000000 0.002103 0.000000
# 3 -0.002418 -0.008026 0.016074 0.000000 0.007091 0.000000
# 4 0.000000 0.000000 0.000000 0.028559 0.000000 0.001026
# 5 -0.004889 0.002103 0.007091 0.000000 0.050797 0.000000
# 6 0.000000 0.000000 0.000000 0.001026 0.000000 0.027422
#
#
# Mechanical properties :
#
#
# Convention : Reuss Voigt Hill
#
# Bulk Modulus (GPa) = 86.41167 90.30748 88.35957
# Shear Modulus (GPa) = 24.90689 28.26107 26.58398
#
# Velocity S-wave (km/s) = 3.62449 3.86084 3.74453
# Velocity P-wave (km/s) = 7.94312 8.21625 8.08084
#
# Compressibility (1/GPa) = 0.01157251
#
# Stress axis : x y z
#
# Youngs Moduli (GPa) = 67.31151 50.22190 62.21226
#
# Poissons Ratio (x) = 0.46156 0.15042
# Poissons Ratio (y) = 0.61862 0.49934
# Poissons Ratio (z) = 0.16275 0.40310
#
# Static dielectric constant tensor:
#      x y z
#    x 3.523040 0.000000 0.007520 
#    y 0.000000 3.516770 0.000000 
#    z 0.007520 0.000000 3.531310 
# 
# 
# High freq. dielectric constant tensor:
#      x y z
#    x 1.744050 0.000000 0.000320 
#    y 0.000000 1.743760 0.000000 
#    z 0.000320 0.000000 1.744390 
# 
# From -- ./inp_files/5831.got.cif
#   From: 2010.03.12/outbox.cif.g09.slc.cpg/sg4_3_cif.got.tgz:5831.got - 2010.03.31 09:31:35.
