data_PCOD8046342
_publ_section_title
;
Structure prediction by ZEFSAII (Michael W. Deem and Ramdas Pophale) SiO2 
 PCOD8046342
Probable space group: P 21
;
_chemical_formula_sum "Si O2"
_cell_formula_units_Z 16
_cell_length_a 10.518057
_cell_length_b 4.985432
_cell_length_c 26.437827
_cell_angle_alpha 90.000000
_cell_angle_beta 146.951398
_cell_angle_gamma 90.000000
_cell_volume 756.030982
_symmetry_space_group_name_H-M "P 21"
_symmetry_group_IT_number 4
_symmetry_cell_setting 'monoclinic'
loop_
_space_group_symop_operation_xyz
x,y,z
-x,1/2+y,-z
loop_
_atom_site_type_symbol
_atom_site_label
_atom_site_fract_x
_atom_site_fract_y
_atom_site_fract_z
Si Si1 0.325300 0.466970 0.272835
Si Si2 0.854773 0.452994 0.433872
Si Si3 0.806352 0.938952 0.239732
Si Si4 0.191635 0.315640 0.116493
Si Si5 0.932244 0.439584 0.345810
Si Si6 0.546388 0.799497 0.484101
Si Si7 0.176999 0.951699 0.279272
Si Si8 0.700053 0.315462 0.910062
O O1 0.602307 0.500624 0.375073
O O2 0.275679 0.363213 0.200630
O O3 0.184614 0.745867 0.234455
O O4 0.221987 0.254252 0.277833
O O5 0.803072 0.457719 0.356495
O O6 0.042533 0.670696 0.513946
O O7 0.811678 0.226255 0.268697
O O8 0.930836 0.726725 0.318106
O O9 0.538800 0.863756 0.139444
O O10 0.933311 0.946293 0.227947
O O11 0.313081 0.520768 0.118314
O O12 0.269797 0.019235 0.126600
O O13 0.911146 0.346756 0.020076
O O14 0.192746 0.355162 0.445997
O O15 0.527255 0.490783 0.494220
O O16 0.383709 0.845573 0.382708
#
# Coordination Sequence:
#
# PCOD8046342 Si02
#       8
#     2   2   2   2   2   2   2   2
#     4  12  24  42  61  87 127 166 198 240 312 370
#     4  12  25  41  59  87 121 157 202 254 301 356
#     4  12  23  40  61  94 118 156 205 255 301 348
#     4  10  22  42  67  95 118 160 197 249 316 366
#     4  12  23  39  63  88 119 158 207 254 304 350
#     4  12  21  39  57  83 119 159 204 246 288 345
#     4  12  25  40  59  88 126 165 203 246 293 370
#     4  10  21  41  69  94 122 147 204 262 301 359
#
# _framework density 21.163153000000001
#
# number of rings (size 3 to 8) (size 9 to 14) (size 15 to 20)
#    0.000    0.500    2.500    7.500    0.000    0.000 
#    0.000    1.250    0.000    0.000    0.000    0.000 
#    0.000    0.000    0.000    0.000    0.000    0.000 
#
# Total GULP energy -198507.046935 kJ/mol
# GULP energy per Si atom -12406.690433 kJ/mol
# Density = 2.111498 g / cm^3
# Si number density = 21.163153 Si / 1000 Ang^3
#
#
#
# Elastic Constant Matrix: (Units=GPa)
#
#
# Indices 1 2 3 4 5 6 
#
# 1 109.4784 11.2378 29.6300 0.0000 27.9465 0.0000
# 2 11.2378 74.9800 -2.4441 0.0000 3.1646 0.0000
# 3 29.6300 -2.4441 66.2257 0.0000 15.7686 0.0000
# 4 0.0000 0.0000 0.0000 22.8602 0.0000 0.1536
# 5 27.9465 3.1646 15.7686 0.0000 38.8560 0.0000
# 6 0.0000 0.0000 0.0000 0.1536 0.0000 31.4663
#
#
#
# Elastic Compliance Matrix: (Units=1/GPa)
#
#
# Indices 1 2 3 4 5 6 
#
# 1 0.012133 -0.001645 -0.003812 0.000000 -0.007046 0.000000
# 2 -0.001645 0.013648 0.001354 0.000000 -0.000477 0.000000
# 3 -0.003812 0.001354 0.017965 0.000000 -0.004659 0.000000
# 4 0.000000 0.000000 0.000000 0.043746 0.000000 -0.000214
# 5 -0.007046 -0.000477 -0.004659 0.000000 0.032733 0.000000
# 6 0.000000 0.000000 0.000000 -0.000214 0.000000 0.031781
#
#
# Mechanical properties :
#
#
# Convention : Reuss Voigt Hill
#
# Bulk Modulus (GPa) = 28.13841 36.39240 32.26541
# Shear Modulus (GPa) = 29.05984 32.78720 30.92352
#
# Velocity S-wave (km/s) = 3.70960 3.94033 3.82671
# Velocity P-wave (km/s) = 5.62788 6.15915 5.89949
#
# Compressibility (1/GPa) = 0.03553861
#
# Stress axis : x y z
#
# Youngs Moduli (GPa) = 82.41771 73.27212 55.66517
#
# Poissons Ratio (x) = 0.12056 0.21218
# Poissons Ratio (y) = 0.13561 -0.07534
# Poissons Ratio (z) = 0.31415 -0.09917
#
# Static dielectric constant tensor:
#      x y z
#    x 4.155320 0.000000 0.063860 
#    y 0.000000 4.179650 0.000000 
#    z 0.063860 0.000000 3.758220 
# 
# 
# High freq. dielectric constant tensor:
#      x y z
#    x 1.829550 0.000000 0.013460 
#    y 0.000000 1.850390 0.000000 
#    z 0.013460 0.000000 1.818340 
# 
# From -- ./inp_files/10191.got.cif
#   From: 2010.03.12/outbox.cif.g09.slc.cpg/sg4_6_cif.got.tgz:10191.got - 2010.03.31 09:31:35.
