data_PCOD8046571
_publ_section_title
;
Structure prediction by ZEFSAII (Michael W. Deem and Ramdas Pophale) SiO2 
 PCOD8046571
Probable space group: P 21
;
_chemical_formula_sum "Si O2"
_cell_formula_units_Z 16
_cell_length_a 5.570995
_cell_length_b 12.879901
_cell_length_c 10.041589
_cell_angle_alpha 90.000000
_cell_angle_beta 94.796621
_cell_angle_gamma 90.000000
_cell_volume 717.999392
_symmetry_space_group_name_H-M "P 21"
_symmetry_group_IT_number 4
_symmetry_cell_setting 'monoclinic'
loop_
_space_group_symop_operation_xyz
x,y,z
-x,1/2+y,-z
loop_
_atom_site_type_symbol
_atom_site_label
_atom_site_fract_x
_atom_site_fract_y
_atom_site_fract_z
Si Si1 0.288587 0.648450 0.390554
Si Si2 0.423710 0.311345 0.982575
Si Si3 0.864948 0.681720 0.852444
Si Si4 0.171184 0.871829 0.821306
Si Si5 0.324955 0.854959 0.260636
Si Si6 0.043184 0.469269 0.931867
Si Si7 0.565941 0.563032 0.629715
Si Si8 0.220099 0.051093 0.629966
O O1 0.275548 0.773272 0.376582
O O2 0.333669 0.615856 0.547610
O O3 0.522259 0.605396 0.316443
O O4 0.026790 0.606495 0.331281
O O5 0.561577 0.285805 0.853127
O O6 0.311662 0.426352 0.958259
O O7 0.229471 0.222313 0.007568
O O8 0.588085 0.314432 0.121146
O O9 0.055749 0.591312 0.897218
O O10 0.650910 0.637029 0.752413
O O11 0.979878 0.780467 0.782595
O O12 0.216815 0.935162 0.688827
O O13 0.096744 0.950520 0.936285
O O14 0.081673 0.907931 0.195922
O O15 0.500685 0.947681 0.319500
O O16 0.781902 0.547156 0.531343
#
# Coordination Sequence:
#
# PCOD8046571 Si02
#       8
#     2   2   2   2   2   2   2   2
#     4  10  25  44  69 100 132 183 222 278 336 399
#     4  10  23  40  64  96 130 179 220 284 342 405
#     4  10  22  41  64  95 130 175 222 281 344 403
#     4  10  23  39  64  95 130 174 221 280 334 410
#     4  10  22  43  64  98 131 178 224 275 343 405
#     4   9  22  39  61  94 133 172 224 279 340 404
#     4   9  24  42  64  97 132 176 226 281 331 404
#     4  10  25  44  64 101 132 175 223 276 334 392
#
# _framework density 22.284143
#
# number of rings (size 3 to 8) (size 9 to 14) (size 15 to 20)
#    0.750    1.500    0.000    0.000    7.000   11.000 
#    0.000    0.000    0.000    0.000    0.000    0.000 
#    0.000    0.000    0.000    0.000    0.000    0.000 
#
# Total GULP energy -198255.995576 kJ/mol
# GULP energy per Si atom -12390.999724 kJ/mol
# Density = 2.223342 g / cm^3
# Si number density = 22.284143 Si / 1000 Ang^3
#
#
#
# Elastic Constant Matrix: (Units=GPa)
#
#
# Indices 1 2 3 4 5 6 
#
# 1 87.4744 20.1587 8.9146 0.0000 2.2587 0.0000
# 2 20.1587 132.7123 44.4649 0.0000 -3.9634 0.0000
# 3 8.9146 44.4649 67.1289 0.0000 0.7601 0.0000
# 4 0.0000 0.0000 0.0000 37.5210 0.0000 2.7815
# 5 2.2587 -3.9634 0.7601 0.0000 14.8281 0.0000
# 6 0.0000 0.0000 0.0000 2.7815 0.0000 17.3469
#
#
#
# Elastic Compliance Matrix: (Units=1/GPa)
#
#
# Indices 1 2 3 4 5 6 
#
# 1 0.011934 -0.001745 -0.000403 0.000000 -0.002264 0.000000
# 2 -0.001745 0.010068 -0.006474 0.000000 0.003289 0.000000
# 3 -0.000403 -0.006474 0.019269 0.000000 -0.002657 0.000000
# 4 0.000000 0.000000 0.000000 0.026972 0.000000 -0.004325
# 5 -0.002264 0.003289 -0.002657 0.000000 0.068799 0.000000
# 6 0.000000 0.000000 0.000000 -0.004325 0.000000 0.058341
#
#
# Mechanical properties :
#
#
# Convention : Reuss Voigt Hill
#
# Bulk Modulus (GPa) = 41.62329 48.26580 44.94454
# Shear Modulus (GPa) = 22.66184 28.19103 25.42644
#
# Velocity S-wave (km/s) = 3.19242 3.56064 3.38155
# Velocity P-wave (km/s) = 5.68399 6.21374 5.95476
#
# Compressibility (1/GPa) = 0.02402501
#
# Stress axis : x y z
#
# Youngs Moduli (GPa) = 83.79676 99.32952 51.89790
#
# Poissons Ratio (x) = 0.17335 0.02092
# Poissons Ratio (y) = 0.14624 0.33599
# Poissons Ratio (z) = 0.03378 0.64306
#
# Static dielectric constant tensor:
#      x y z
#    x 3.820230 0.000000 0.039650 
#    y 0.000000 3.897000 0.000000 
#    z 0.039650 0.000000 3.808250 
# 
# 
# High freq. dielectric constant tensor:
#      x y z
#    x 1.863550 0.000000 0.001820 
#    y 0.000000 1.877870 0.000000 
#    z 0.001820 0.000000 1.864350 
# 
# From -- ./inp_files/10479.got.cif
#   From: 2010.03.12/outbox.cif.g09.slc.cpg/sg4_6_cif.got.tgz:10479.got - 2010.03.31 09:31:35.
