data_PCOD8046853
_publ_section_title
;
Structure prediction by ZEFSAII (Michael W. Deem and Ramdas Pophale) SiO2 
 PCOD8046853
Probable space group: P 21
;
_chemical_formula_sum "Si O2"
_cell_formula_units_Z 16
_cell_length_a 5.350693
_cell_length_b 22.464475
_cell_length_c 5.277459
_cell_angle_alpha 90.000000
_cell_angle_beta 96.416845
_cell_angle_gamma 90.000000
_cell_volume 630.379102
_symmetry_space_group_name_H-M "P 21"
_symmetry_group_IT_number 4
_symmetry_cell_setting 'monoclinic'
loop_
_space_group_symop_operation_xyz
x,y,z
-x,1/2+y,-z
loop_
_atom_site_type_symbol
_atom_site_label
_atom_site_fract_x
_atom_site_fract_y
_atom_site_fract_z
Si Si1 0.641045 0.623600 0.111701
Si Si2 0.303253 0.239207 0.157527
Si Si3 0.944414 0.937470 0.207982
Si Si4 0.839097 0.387610 0.290705
Si Si5 0.255686 0.778248 0.442313
Si Si6 0.439296 0.347727 0.907982
Si Si7 0.860424 0.072964 0.099447
Si Si8 0.003834 0.667956 0.533797
O O1 0.558390 0.684533 0.967598
O O2 0.389398 0.583106 0.102165
O O3 0.876891 0.589629 0.005822
O O4 0.742121 0.640631 0.401924
O O5 0.481814 0.262864 0.397383
O O6 0.044479 0.212651 0.236291
O O7 0.248193 0.293768 0.958478
O O8 0.708092 0.897038 0.272303
O O9 0.146172 0.931316 0.460722
O O10 0.863307 0.005249 0.183299
O O11 0.013753 0.913511 0.935471
O O12 0.920405 0.320384 0.394245
O O13 0.548108 0.381205 0.170763
O O14 0.319709 0.819570 0.208212
O O15 0.132968 0.713913 0.347547
O O16 0.825298 0.113345 0.349079
#
# Coordination Sequence:
#
# PCOD8046853 Si02
#       8
#     2   2   2   2   2   2   2   2
#     4  11  26  47  77 111 149 205 262 323 397 466
#     4  10  23  42  69 109 157 196 257 322 403 467
#     4  12  29  50  77 107 156 208 266 321 390 474
#     4  11  27  48  73 113 146 205 257 322 395 463
#     4  11  23  43  76 112 158 197 259 330 404 475
#     4  11  26  45  75 114 157 203 261 327 402 471
#     4  11  29  50  75 111 152 209 268 323 390 474
#     4  11  25  45  74 109 157 201 260 328 403 472
#
# _framework density 25.381551999999999
#
# number of rings (size 3 to 8) (size 9 to 14) (size 15 to 20)
#    0.000    1.000    2.500    1.500   14.000    1.000 
#    0.000    0.000    0.000    0.000    0.000    0.000 
#    0.000    0.000    0.000    0.000    0.000    0.000 
#
# Total GULP energy -198229.412852 kJ/mol
# GULP energy per Si atom -12389.338303 kJ/mol
# Density = 2.532378 g / cm^3
# Si number density = 25.381552 Si / 1000 Ang^3
#
#
#
# Elastic Constant Matrix: (Units=GPa)
#
#
# Indices 1 2 3 4 5 6 
#
# 1 94.0918 59.3476 25.4071 0.0000 3.9381 0.0000
# 2 59.3476 193.2271 51.3986 0.0000 0.6282 0.0000
# 3 25.4071 51.3986 109.3195 0.0000 -0.7957 0.0000
# 4 0.0000 0.0000 0.0000 29.2237 0.0000 8.6261
# 5 3.9381 0.6282 -0.7957 0.0000 26.4953 0.0000
# 6 0.0000 0.0000 0.0000 8.6261 0.0000 40.3827
#
#
#
# Elastic Compliance Matrix: (Units=1/GPa)
#
#
# Indices 1 2 3 4 5 6 
#
# 1 0.013452 -0.003760 -0.001373 0.000000 -0.001951 0.000000
# 2 -0.003760 0.006967 -0.002400 0.000000 0.000322 0.000000
# 3 -0.001373 -0.002400 0.010599 0.000000 0.000579 0.000000
# 4 0.000000 0.000000 0.000000 0.036522 0.000000 -0.007801
# 5 -0.001951 0.000322 0.000579 0.000000 0.038042 0.000000
# 6 0.000000 0.000000 0.000000 -0.007801 0.000000 0.026430
#
#
# Mechanical properties :
#
#
# Convention : Reuss Voigt Hill
#
# Bulk Modulus (GPa) = 62.68251 74.32724 68.50487
# Shear Modulus (GPa) = 32.80960 36.58601 34.69780
#
# Velocity S-wave (km/s) = 3.59925 3.80075 3.70137
# Velocity P-wave (km/s) = 6.48248 6.97198 6.73168
#
# Compressibility (1/GPa) = 0.01595341
#
# Stress axis : x y z
#
# Youngs Moduli (GPa) = 74.33884 143.52573 94.34877
#
# Poissons Ratio (x) = 0.53967 0.12951
# Poissons Ratio (y) = 0.27952 0.22640
# Poissons Ratio (z) = 0.10204 0.34441
#
# Static dielectric constant tensor:
#      x y z
#    x 4.243260 0.000000 0.122260 
#    y 0.000000 4.746400 0.000000 
#    z 0.122260 0.000000 4.563870 
# 
# 
# High freq. dielectric constant tensor:
#      x y z
#    x 1.997290 0.000000 0.014200 
#    y 0.000000 2.016340 0.000000 
#    z 0.014200 0.000000 2.010590 
# 
# From -- ./inp_files/543.got.cif
#   From: 2010.03.12/outbox.cif.g09.slc.cpg/sg4_1_cif.got.tgz:543.got - 2010.03.31 09:31:35.
