data_PCOD8046697
_publ_section_title
;
Structure prediction by ZEFSAII (Michael W. Deem and Ramdas Pophale) SiO2 
 PCOD8046697
Probable space group: P 21
;
_chemical_formula_sum "Si O2"
_cell_formula_units_Z 16
_cell_length_a 11.384497
_cell_length_b 8.427797
_cell_length_c 11.389405
_cell_angle_alpha 90.000000
_cell_angle_beta 38.669396
_cell_angle_gamma 90.000000
_cell_volume 682.791081
_symmetry_space_group_name_H-M "P 21"
_symmetry_group_IT_number 4
_symmetry_cell_setting 'monoclinic'
loop_
_space_group_symop_operation_xyz
x,y,z
-x,1/2+y,-z
loop_
_atom_site_type_symbol
_atom_site_label
_atom_site_fract_x
_atom_site_fract_y
_atom_site_fract_z
Si Si1 0.806213 0.130230 0.640319
Si Si2 0.251042 0.753206 0.766826
Si Si3 0.077422 0.905602 0.307091
Si Si4 0.500209 0.590940 0.747372
Si Si5 0.422836 0.129692 0.054788
Si Si6 0.946832 0.518920 0.929611
Si Si7 0.221870 0.327331 0.035454
Si Si8 0.192350 0.875163 0.572357
O O1 0.901619 0.220571 0.676929
O O2 0.804106 0.241658 0.528656
O O3 0.596387 0.078635 0.837105
O O4 0.928807 0.976373 0.515892
O O5 0.432911 0.719787 0.704760
O O6 0.312686 0.813197 0.590282
O O7 0.132682 0.591436 0.843438
O O8 0.130478 0.891918 0.919934
O O9 0.006142 0.930647 0.230035
O O10 0.282047 0.981516 0.168954
O O11 0.505908 0.672810 0.870252
O O12 0.709662 0.534914 0.549784
O O13 0.354211 0.444641 0.859994
O O14 0.322154 0.286185 0.081070
O O15 0.801967 0.663559 0.018541
O O16 0.021579 0.408482 0.220006
#
# Coordination Sequence:
#
# PCOD8046697 Si02
#       8
#     2   2   2   2   2   2   2   2
#     4  12  23  42  71 100 140 173 226 284 351 405
#     4  11  23  44  70 101 139 184 235 281 341 423
#     4  11  24  44  69 103 136 176 230 287 343 410
#     4  12  25  42  72 100 139 183 235 281 351 411
#     4  11  22  38  69 101 131 175 223 285 347 400
#     4  10  22  44  69  98 136 184 233 279 346 406
#     4  10  22  44  71  97 140 181 228 294 340 402
#     4  11  23  44  67  96 135 182 224 281 339 407
#
# _framework density 23.433229999999998
#
# number of rings (size 3 to 8) (size 9 to 14) (size 15 to 20)
#    0.000    1.000    6.250    2.250    1.750    3.000 
#    2.250    2.500    0.000    0.000    0.000    0.000 
#    0.000    0.000    0.000    0.000    0.000    0.000 
#
# Total GULP energy -198443.779006 kJ/mol
# GULP energy per Si atom -12402.736188 kJ/mol
# Density = 2.337989 g / cm^3
# Si number density = 23.433230 Si / 1000 Ang^3
#
#
#
# Elastic Constant Matrix: (Units=GPa)
#
#
# Indices 1 2 3 4 5 6 
#
# 1 107.9771 9.6040 27.8758 0.0000 8.5476 0.0000
# 2 9.6040 13.7798 13.6772 0.0000 8.3311 0.0000
# 3 27.8758 13.6772 113.7860 0.0000 -11.7128 0.0000
# 4 0.0000 0.0000 0.0000 26.2911 0.0000 4.2883
# 5 8.5476 8.3311 -11.7128 0.0000 36.8631 0.0000
# 6 0.0000 0.0000 0.0000 4.2883 0.0000 31.1584
#
#
#
# Elastic Compliance Matrix: (Units=1/GPa)
#
#
# Indices 1 2 3 4 5 6 
#
# 1 0.010368 -0.003430 -0.002373 0.000000 -0.002383 0.000000
# 2 -0.003430 0.106667 -0.014867 0.000000 -0.028035 0.000000
# 3 -0.002373 -0.014867 0.011950 0.000000 0.007707 0.000000
# 4 0.000000 0.000000 0.000000 0.038909 0.000000 -0.005355
# 5 -0.002383 -0.028035 0.007707 0.000000 0.036465 0.000000
# 6 0.000000 0.000000 0.000000 -0.005355 0.000000 0.032831
#
#
# Mechanical properties :
#
#
# Convention : Reuss Voigt Hill
#
# Bulk Modulus (GPa) = 11.40972 37.53966 24.47469
# Shear Modulus (GPa) = 16.24727 31.15491 23.70109
#
# Velocity S-wave (km/s) = 2.63600 3.65021 3.18375
# Velocity P-wave (km/s) = 3.76088 5.81550 4.89716
#
# Compressibility (1/GPa) = 0.08764455
#
# Stress axis : x y z
#
# Youngs Moduli (GPa) = 96.45525 9.37500 83.68108
#
# Poissons Ratio (x) = 0.03216 0.19856
# Poissons Ratio (y) = 0.33084 1.24409
# Poissons Ratio (z) = 0.22887 0.13938
#
# Static dielectric constant tensor:
#      x y z
#    x 4.545700 0.000000 0.050100 
#    y 0.000000 3.989470 0.000000 
#    z 0.050100 0.000000 4.316720 
# 
# 
# High freq. dielectric constant tensor:
#      x y z
#    x 1.941760 0.000000 0.008050 
#    y 0.000000 1.912640 0.000000 
#    z 0.008050 0.000000 1.923080 
# 
# From -- ./inp_files/11837.got.cif
#   From: 2010.03.12/outbox.cif.g09.slc.cpg/sg4_6_cif.got.tgz:11837.got - 2010.03.31 09:31:35.
