data_PCOD8046417
_publ_section_title
;
Structure prediction by ZEFSAII (Michael W. Deem and Ramdas Pophale) SiO2 
 PCOD8046417
Probable space group: P 21
;
_chemical_formula_sum "Si O2"
_cell_formula_units_Z 14
_cell_length_a 10.170426
_cell_length_b 5.155498
_cell_length_c 16.506559
_cell_angle_alpha 90.000000
_cell_angle_beta 41.743404
_cell_angle_gamma 90.000000
_cell_volume 576.245238
_symmetry_space_group_name_H-M "P 21"
_symmetry_group_IT_number 4
_symmetry_cell_setting 'monoclinic'
loop_
_space_group_symop_operation_xyz
x,y,z
-x,1/2+y,-z
loop_
_atom_site_type_symbol
_atom_site_label
_atom_site_fract_x
_atom_site_fract_y
_atom_site_fract_z
Si Si1 0.567068 0.960900 0.868585
Si Si2 0.108923 0.707802 0.970279
Si Si3 0.513904 0.147910 0.296551
Si Si4 0.236498 0.750925 0.352366
Si Si5 0.383913 0.520998 0.579424
Si Si6 0.325796 0.467477 0.007144
Si Si7 0.851752 0.963221 0.459773
O O1 0.681258 0.992694 0.730333
O O2 0.499011 0.665400 0.901856
O O3 0.389843 0.173332 0.955657
O O4 0.712900 0.000194 0.878836
O O5 0.319794 0.793545 0.833580
O O6 0.133012 0.563296 0.046528
O O7 0.992771 0.977817 0.035891
O O8 0.421421 0.940374 0.277476
O O9 0.641072 0.021829 0.312220
O O10 0.339555 0.316677 0.415652
O O11 0.142409 0.717266 0.485310
O O12 0.064043 0.835655 0.370785
O O13 0.486618 0.776486 0.500764
O O14 0.178542 0.512937 0.622213
#
# Coordination Sequence:
#
# PCOD8046417 Si02
#       7
#     2   2   2   2   2   2   2
#     4  10  22  38  71  92 131 169 214 267 339 378
#     4  12  27  43  68  97 129 175 230 270 323 396
#     4  11  24  44  68  93 136 179 215 279 331 388
#     4  12  22  40  67 102 129 178 215 281 324 406
#     4  10  22  41  65  95 132 177 216 265 327 395
#     4  10  21  44  63  97 126 172 215 273 325 390
#     4  11  24  40  66 102 135 170 227 265 337 401
#
# _framework density 24.295210000000001
#
# number of rings (size 3 to 8) (size 9 to 14) (size 15 to 20)
#    0.000    1.143    4.286    1.714    2.000    1.143 
#    0.000    4.286    0.000    0.000    0.000    0.000 
#    0.000    0.000    0.000    0.000    0.000    0.000 
#
# Total GULP energy -173444.142299 kJ/mol
# GULP energy per Si atom -12388.867307 kJ/mol
# Density = 2.423991 g / cm^3
# Si number density = 24.295210 Si / 1000 Ang^3
#
#
#
# Elastic Constant Matrix: (Units=GPa)
#
#
# Indices 1 2 3 4 5 6 
#
# 1 155.1457 -12.1002 9.5136 0.0000 -2.3736 0.0000
# 2 -12.1002 65.2823 -4.8241 0.0000 -4.3401 0.0000
# 3 9.5136 -4.8241 52.3905 0.0000 -0.7095 0.0000
# 4 0.0000 0.0000 0.0000 19.5523 0.0000 7.4019
# 5 -2.3736 -4.3401 -0.7095 0.0000 29.8017 0.0000
# 6 0.0000 0.0000 0.0000 7.4019 0.0000 31.0975
#
#
#
# Elastic Compliance Matrix: (Units=1/GPa)
#
#
# Indices 1 2 3 4 5 6 
#
# 1 0.006615 0.001191 -0.001082 0.000000 0.000675 0.000000
# 2 0.001191 0.015794 0.001271 0.000000 0.002425 0.000000
# 3 -0.001082 0.001271 0.019409 0.000000 0.000561 0.000000
# 4 0.000000 0.000000 0.000000 0.056210 0.000000 -0.013379
# 5 0.000675 0.002425 0.000561 0.000000 0.033975 0.000000
# 6 0.000000 0.000000 0.000000 -0.013379 0.000000 0.035341
#
#
# Mechanical properties :
#
#
# Convention : Reuss Voigt Hill
#
# Bulk Modulus (GPa) = 22.43333 28.66635 25.54984
# Shear Modulus (GPa) = 27.86381 34.77225 31.31803
#
# Velocity S-wave (km/s) = 3.39024 3.78728 3.59425
# Velocity P-wave (km/s) = 4.95769 5.56322 5.26916
#
# Compressibility (1/GPa) = 0.04457653
#
# Stress axis : x y z
#
# Youngs Moduli (GPa) = 151.16838 63.31527 51.52357
#
# Poissons Ratio (x) = -0.07541 0.05577
# Poissons Ratio (y) = -0.18004 -0.06548
# Poissons Ratio (z) = 0.16363 -0.08047
#
# Static dielectric constant tensor:
#      x y z
#    x 5.528210 0.000000 0.250300 
#    y 0.000000 4.234980 0.000000 
#    z 0.250300 0.000000 3.828030 
# 
# 
# High freq. dielectric constant tensor:
#      x y z
#    x 2.002260 0.000000 0.011570 
#    y 0.000000 1.963310 0.000000 
#    z 0.011570 0.000000 1.923430 
# 
# From -- ./inp_files/7072.got.cif
#   From: 2010.03.12/outbox.cif.g09.slc.cpg/sg4_4_cif.got.tgz:7072.got - 2010.03.31 09:31:35.
