data_PCOD8046693
_publ_section_title
;
Structure prediction by ZEFSAII (Michael W. Deem and Ramdas Pophale) SiO2 
 PCOD8046693
Probable space group: P 21
;
_chemical_formula_sum "Si O2"
_cell_formula_units_Z 16
_cell_length_a 19.051217
_cell_length_b 8.551356
_cell_length_c 5.222073
_cell_angle_alpha 90.000000
_cell_angle_beta 125.492571
_cell_angle_gamma 90.000000
_cell_volume 692.670741
_symmetry_space_group_name_H-M "P 21"
_symmetry_group_IT_number 4
_symmetry_cell_setting 'monoclinic'
loop_
_space_group_symop_operation_xyz
x,y,z
-x,1/2+y,-z
loop_
_atom_site_type_symbol
_atom_site_label
_atom_site_fract_x
_atom_site_fract_y
_atom_site_fract_z
Si Si1 0.541835 0.683160 0.918578
Si Si2 0.263821 0.157834 0.635967
Si Si3 0.532173 0.327514 0.735781
Si Si4 0.878518 0.211554 0.626542
Si Si5 0.889523 0.861471 0.674248
Si Si6 0.725925 0.345747 0.063731
Si Si7 0.851650 0.453724 0.956987
Si Si8 0.962555 0.717466 0.338009
O O1 0.520331 0.506775 0.790846
O O2 0.527976 0.789984 0.635933
O O3 0.638956 0.708240 0.226767
O O4 0.483675 0.725966 0.041709
O O5 0.208863 0.310182 0.600725
O O6 0.270724 0.031610 0.876831
O O7 0.214206 0.080993 0.295689
O O8 0.628291 0.288313 0.836124
O O9 0.775924 0.240389 0.377874
O O10 0.909729 0.353439 0.878655
O O11 0.933241 0.217650 0.474690
O O12 0.892794 0.040427 0.774152
O O13 0.941821 0.835312 0.521816
O O14 0.928792 0.760579 0.984064
O O15 0.786538 0.327098 0.944700
O O16 0.918312 0.545721 0.289941
#
# Coordination Sequence:
#
# PCOD8046693 Si02
#       8
#     2   2   2   2   2   2   2   2
#     4  11  25  44  72 105 135 181 222 287 333 412
#     4   9  22  43  70  91 135 178 228 260 351 406
#     4  11  26  44  71 101 141 174 231 274 347 401
#     4  11  26  38  67 100 132 173 229 286 331 390
#     4  11  25  43  65 100 130 174 223 290 326 395
#     4  10  23  43  69  93 136 184 220 269 345 410
#     4  10  22  44  68  94 131 189 219 274 335 418
#     4  11  25  43  66  94 138 175 228 270 344 400
#
# _framework density 23.099
#
# number of rings (size 3 to 8) (size 9 to 14) (size 15 to 20)
#    0.000    1.500    1.250    1.500   14.000    2.000 
#    0.000    0.000    0.000    0.000    0.000    0.000 
#    0.000    0.000    0.000    0.000    0.000    0.000 
#
# Total GULP energy -198269.795335 kJ/mol
# GULP energy per Si atom -12391.862208 kJ/mol
# Density = 2.304643 g / cm^3
# Si number density = 23.099000 Si / 1000 Ang^3
#
#
#
# Elastic Constant Matrix: (Units=GPa)
#
#
# Indices 1 2 3 4 5 6 
#
# 1 127.7584 34.5473 36.8994 0.0000 5.9603 0.0000
# 2 34.5473 88.5350 21.8019 0.0000 11.2788 0.0000
# 3 36.8994 21.8019 76.8758 0.0000 -1.2599 0.0000
# 4 0.0000 0.0000 0.0000 17.7541 0.0000 1.3873
# 5 5.9603 11.2788 -1.2599 0.0000 39.6631 0.0000
# 6 0.0000 0.0000 0.0000 1.3873 0.0000 38.6180
#
#
#
# Elastic Compliance Matrix: (Units=1/GPa)
#
#
# Indices 1 2 3 4 5 6 
#
# 1 0.009733 -0.002732 -0.003910 0.000000 -0.000810 0.000000
# 2 -0.002732 0.013435 -0.002556 0.000000 -0.003491 0.000000
# 3 -0.003910 -0.002556 0.015640 0.000000 0.001811 0.000000
# 4 0.000000 0.000000 0.000000 0.056484 0.000000 -0.002029
# 5 -0.000810 -0.003491 0.001811 0.000000 0.026384 0.000000
# 6 0.000000 0.000000 0.000000 -0.002029 0.000000 0.025968
#
#
# Mechanical properties :
#
#
# Convention : Reuss Voigt Hill
#
# Bulk Modulus (GPa) = 48.99279 53.29627 51.14453
# Shear Modulus (GPa) = 28.92785 32.53509 30.73147
#
# Velocity S-wave (km/s) = 3.54268 3.75708 3.65146
# Velocity P-wave (km/s) = 6.16361 6.47641 6.32195
#
# Compressibility (1/GPa) = 0.02041117
#
# Stress axis : x y z
#
# Youngs Moduli (GPa) = 102.74134 74.43139 63.94063
#
# Poissons Ratio (x) = 0.20334 0.25003
# Poissons Ratio (y) = 0.28068 0.16344
# Poissons Ratio (z) = 0.40175 0.19026
#
# Static dielectric constant tensor:
#      x y z
#    x 4.397150 0.000000 0.137390 
#    y 0.000000 4.110150 0.000000 
#    z 0.137390 0.000000 3.982950 
# 
# 
# High freq. dielectric constant tensor:
#      x y z
#    x 1.921730 0.000000 0.005970 
#    y 0.000000 1.904330 0.000000 
#    z 0.005970 0.000000 1.907290 
# 
# From -- ./inp_files/3475.got.cif
#   From: 2010.03.12/outbox.cif.g09.slc.cpg/sg4_2_cif.got.tgz:3475.got - 2010.03.31 09:31:35.
