data_PCOD8046038
_publ_section_title
;
Structure prediction by ZEFSAII (Michael W. Deem and Ramdas Pophale) SiO2 
 PCOD8046038
Probable space group: P 21
;
_chemical_formula_sum "Si O2"
_cell_formula_units_Z 12
_cell_length_a 11.523196
_cell_length_b 9.163444
_cell_length_c 9.163489
_cell_angle_alpha 90.000000
_cell_angle_beta 142.677760
_cell_angle_gamma 90.000000
_cell_volume 586.648618
_symmetry_space_group_name_H-M "P 21"
_symmetry_group_IT_number 4
_symmetry_cell_setting 'monoclinic'
loop_
_space_group_symop_operation_xyz
x,y,z
-x,1/2+y,-z
loop_
_atom_site_type_symbol
_atom_site_label
_atom_site_fract_x
_atom_site_fract_y
_atom_site_fract_z
Si Si1 0.568409 0.765360 0.362696
Si Si2 0.249991 0.347109 0.745884
Si Si3 0.568387 0.437200 0.274098
Si Si4 0.931570 0.645607 0.845629
Si Si5 0.068459 0.056915 0.482531
Si Si6 0.250009 0.855439 0.254107
O O1 0.628803 0.857876 0.281351
O O2 0.506112 0.601285 0.256111
O O3 0.750008 0.755045 0.653704
O O4 0.394248 0.850091 0.262275
O O5 0.128872 0.198627 0.635496
O O6 0.105705 0.483158 0.606920
O O7 0.394179 0.352486 0.026176
O O8 0.749950 0.447503 0.346221
O O9 0.628820 0.344682 0.476262
O O10 0.993848 0.601238 0.743846
O O11 0.871132 0.503915 0.877773
O O12 0.105768 0.719368 0.104511
#
# Coordination Sequence:
#
# PCOD8046038 Si02
#       6
#     2   2   2   2   2   2
#     4   9  21  39  60  86 118 156 194 241 294 344
#     4  10  20  40  64  86 118 156 194 242 294 344
#     4   9  21  39  60  86 118 156 194 241 294 344
#     4   9  21  39  60  86 118 156 194 241 294 344
#     4   9  21  39  60  86 118 156 194 241 294 344
#     4  10  20  40  64  86 118 156 194 242 294 344
#
# _framework density 20.455174
#
# number of rings (size 3 to 8) (size 9 to 14) (size 15 to 20)
#    0.000    3.333    0.000    1.000    0.000   10.667 
#    0.000   40.000    0.000    0.000    0.000    0.000 
#    0.000    0.000    0.000    0.000    0.000    0.000 
#
# Total GULP energy -148775.759176 kJ/mol
# GULP energy per Si atom -12397.979931 kJ/mol
# Density = 2.040862 g / cm^3
# Si number density = 20.455174 Si / 1000 Ang^3
#
#
#
# Elastic Constant Matrix: (Units=GPa)
#
#
# Indices 1 2 3 4 5 6 
#
# 1 128.4082 83.7150 72.7634 0.0000 11.7282 0.0000
# 2 83.7150 97.9144 84.3985 0.0000 2.2908 0.0000
# 3 72.7634 84.3985 134.1380 0.0000 7.6559 0.0000
# 4 0.0000 0.0000 0.0000 29.9443 0.0000 -0.4606
# 5 11.7282 2.2908 7.6559 0.0000 15.8959 0.0000
# 6 0.0000 0.0000 0.0000 -0.4606 0.0000 30.0868
#
#
#
# Elastic Compliance Matrix: (Units=1/GPa)
#
#
# Indices 1 2 3 4 5 6 
#
# 1 0.019737 -0.017413 0.000964 0.000000 -0.012517 0.000000
# 2 -0.017413 0.037886 -0.015232 0.000000 0.014724 0.000000
# 3 0.000964 -0.015232 0.016896 0.000000 -0.006654 0.000000
# 4 0.000000 0.000000 0.000000 0.033403 0.000000 0.000511
# 5 -0.012517 0.014724 -0.006654 0.000000 0.073227 0.000000
# 6 0.000000 0.000000 0.000000 0.000511 0.000000 0.033245
#
#
# Mechanical properties :
#
#
# Convention : Reuss Voigt Hill
#
# Bulk Modulus (GPa) = 89.63300 93.57938 91.60619
# Shear Modulus (GPa) = 17.76367 23.15765 20.46066
#
# Velocity S-wave (km/s) = 2.95009 3.36834 3.16613
# Velocity P-wave (km/s) = 7.45107 7.80868 7.63197
#
# Compressibility (1/GPa) = 0.01115661
#
# Stress axis : x y z
#
# Youngs Moduli (GPa) = 50.66707 26.39530 59.18677
#
# Poissons Ratio (x) = 0.45961 -0.05706
# Poissons Ratio (y) = 0.88225 0.90154
# Poissons Ratio (z) = -0.04885 0.40206
#
# Static dielectric constant tensor:
#      x y z
#    x 3.616620 0.000000 0.122470 
#    y 0.000000 3.510940 0.000000 
#    z 0.122470 0.000000 3.653060 
# 
# 
# High freq. dielectric constant tensor:
#      x y z
#    x 1.795240 0.000000 0.012260 
#    y 0.000000 1.784660 0.000000 
#    z 0.012260 0.000000 1.798890 
# 
# From -- ./inp_files/7450.got.cif
#   From: 2010.03.12/outbox.cif.g09.slc.cpg/sg4_4_cif.got.tgz:7450.got - 2010.03.31 09:31:35.
