data_PCOD8046244
_publ_section_title
;
Structure prediction by ZEFSAII (Michael W. Deem and Ramdas Pophale) SiO2 
 PCOD8046244
Probable space group: P 21
;
_chemical_formula_sum "Si O2"
_cell_formula_units_Z 14
_cell_length_a 7.118245
_cell_length_b 8.032260
_cell_length_c 17.279810
_cell_angle_alpha 90.000000
_cell_angle_beta 140.408673
_cell_angle_gamma 90.000000
_cell_volume 629.649088
_symmetry_space_group_name_H-M "P 21"
_symmetry_group_IT_number 4
_symmetry_cell_setting 'monoclinic'
loop_
_space_group_symop_operation_xyz
x,y,z
-x,1/2+y,-z
loop_
_atom_site_type_symbol
_atom_site_label
_atom_site_fract_x
_atom_site_fract_y
_atom_site_fract_z
Si Si1 0.676725 0.993890 0.082468
Si Si2 0.163674 0.204796 0.976704
Si Si3 0.603389 0.036221 0.359342
Si Si4 0.199421 0.848013 0.340002
Si Si5 0.820050 0.375677 0.491143
Si Si6 0.911537 0.721797 0.869108
Si Si7 0.714841 0.052577 0.733288
O O1 0.661038 0.842069 0.016995
O O2 0.907541 0.952670 0.224447
O O3 0.776773 0.148513 0.059548
O O4 0.364260 0.037354 0.025662
O O5 0.827925 0.168252 0.840734
O O6 0.116627 0.269645 0.049311
O O7 0.777109 0.202474 0.435240
O O8 0.331704 0.076215 0.216824
O O9 0.485955 0.932055 0.394032
O O10 0.837171 0.917190 0.392554
O O11 0.291157 0.856790 0.457500
O O12 0.166613 0.653006 0.304468
O O13 0.636058 0.520917 0.387001
O O14 0.855429 0.871017 0.790790
#
# Coordination Sequence:
#
# PCOD8046244 Si02
#       7
#     2   2   2   2   2   2   2
#     4  10  22  37  60  87 116 153 202 239 288 360
#     4  11  21  39  60  86 121 156 191 245 294 343
#     4  10  22  37  60  87 116 153 202 239 288 360
#     4  10  21  40  60  85 118 155 194 248 295 339
#     4  11  21  39  60  86 121 156 191 245 294 343
#     4  10  21  40  60  85 118 155 194 248 295 339
#     4  10  22  38  60  90 118 150 202 236 286 360
#
# _framework density 22.234607
#
# number of rings (size 3 to 8) (size 9 to 14) (size 15 to 20)
#    0.000    1.714    0.000    4.286    0.000    0.000 
#    0.000   34.286    0.000    0.000    0.000    0.000 
#    0.000    0.000    0.000    0.000    0.000    0.000 
#
# Total GULP energy -173448.069932 kJ/mol
# GULP energy per Si atom -12389.147852 kJ/mol
# Density = 2.218400 g / cm^3
# Si number density = 22.234607 Si / 1000 Ang^3
#
#
#
# Elastic Constant Matrix: (Units=GPa)
#
#
# Indices 1 2 3 4 5 6 
#
# 1 75.5164 14.4627 33.0233 0.0000 1.2283 0.0000
# 2 14.4627 66.9622 9.7616 0.0000 -5.0620 0.0000
# 3 33.0233 9.7616 73.6476 0.0000 -2.4384 0.0000
# 4 0.0000 0.0000 0.0000 20.3473 0.0000 7.0188
# 5 1.2283 -5.0620 -2.4384 0.0000 25.5150 0.0000
# 6 0.0000 0.0000 0.0000 7.0188 0.0000 25.9080
#
#
#
# Elastic Compliance Matrix: (Units=1/GPa)
#
#
# Indices 1 2 3 4 5 6 
#
# 1 0.017010 -0.002762 -0.007330 0.000000 -0.002067 0.000000
# 2 -0.002762 0.015884 -0.000761 0.000000 0.003211 0.000000
# 3 -0.007330 -0.000761 0.017026 0.000000 0.001829 0.000000
# 4 0.000000 0.000000 0.000000 0.054213 0.000000 -0.014687
# 5 -0.002067 0.003211 0.001829 0.000000 0.040104 0.000000
# 6 0.000000 0.000000 0.000000 -0.014687 0.000000 0.042577
#
#
# Mechanical properties :
#
#
# Convention : Reuss Voigt Hill
#
# Bulk Modulus (GPa) = 35.44071 36.73570 36.08821
# Shear Modulus (GPa) = 22.94390 24.94599 23.94495
#
# Velocity S-wave (km/s) = 3.21581 3.35318 3.28521
# Velocity P-wave (km/s) = 5.45551 5.61689 5.53679
#
# Compressibility (1/GPa) = 0.02821614
#
# Stress axis : x y z
#
# Youngs Moduli (GPa) = 58.78929 62.95677 58.73336
#
# Poissons Ratio (x) = 0.17386 0.43049
# Poissons Ratio (y) = 0.16235 0.04468
# Poissons Ratio (z) = 0.43090 0.04789
#
# Static dielectric constant tensor:
#      x y z
#    x 3.714620 0.000000 0.135660 
#    y 0.000000 4.210480 0.000000 
#    z 0.135660 0.000000 4.066840 
# 
# 
# High freq. dielectric constant tensor:
#      x y z
#    x 1.850890 0.000000 0.009110 
#    y 0.000000 1.890650 0.000000 
#    z 0.009110 0.000000 1.877730 
# 
# From -- ./inp_files/2420.got.cif
#   From: 2010.03.12/outbox.cif.g09.slc.cpg/sg4_2_cif.got.tgz:2420.got - 2010.03.31 09:31:35.
