data_PCOD8046341
_publ_section_title
;
Structure prediction by ZEFSAII (Michael W. Deem and Ramdas Pophale) SiO2 
 PCOD8046341
Probable space group: P 21
;
_chemical_formula_sum "Si O2"
_cell_formula_units_Z 16
_cell_length_a 15.616680
_cell_length_b 10.098770
_cell_length_c 11.775938
_cell_angle_alpha 90.000000
_cell_angle_beta 154.098288
_cell_angle_gamma 90.000000
_cell_volume 811.267044
_symmetry_space_group_name_H-M "P 21"
_symmetry_group_IT_number 4
_symmetry_cell_setting 'monoclinic'
loop_
_space_group_symop_operation_xyz
x,y,z
-x,1/2+y,-z
loop_
_atom_site_type_symbol
_atom_site_label
_atom_site_fract_x
_atom_site_fract_y
_atom_site_fract_z
Si Si1 0.756713 0.694990 0.894998
Si Si2 0.374031 0.663252 0.329473
Si Si3 0.395841 0.584828 0.108458
Si Si4 0.107607 0.908856 0.961879
Si Si5 0.177335 0.029648 0.461447
Si Si6 0.907530 0.938384 0.945973
Si Si7 0.041363 0.762400 0.670216
Si Si8 0.909035 0.848772 0.270888
O O1 0.527470 0.723166 0.602371
O O2 0.880985 0.790220 0.961324
O O3 0.768656 0.541497 0.877887
O O4 0.832871 0.718941 0.113634
O O5 0.468714 0.629942 0.319785
O O6 0.283589 0.527127 0.266429
O O7 0.216350 0.777545 0.130637
O O8 0.587830 0.552828 0.261947
O O9 0.256757 0.703735 0.893951
O O10 0.260845 0.455584 0.953098
O O11 0.047836 0.891693 0.758847
O O12 0.929453 0.926812 0.836827
O O13 0.115678 0.904040 0.467142
O O14 0.082576 0.157052 0.406443
O O15 0.090631 0.006071 0.231423
O O16 0.928864 0.808430 0.424389
#
# Coordination Sequence:
#
# PCOD8046341 Si02
#       8
#     2   2   2   2   2   2   2   2
#     4  11  23  36  63  93 124 164 211 265 317 379
#     4  11  21  41  61  97 128 165 208 266 335 383
#     4  10  21  41  69  90 123 173 213 263 328 378
#     4  11  23  36  63  93 124 164 211 265 317 379
#     4  10  21  41  69  90 123 173 213 263 328 378
#     4  11  21  41  61  97 128 165 208 266 335 383
#     4  10  23  43  63  92 131 171 215 261 317 382
#     4  10  23  43  63  92 131 171 215 261 317 382
#
# _framework density 19.722234
#
# number of rings (size 3 to 8) (size 9 to 14) (size 15 to 20)
#    0.000    1.500    5.000    2.250    7.000    1.000 
#    0.000    1.250    0.000    0.000    0.000    0.000 
#    0.000    0.000    0.000    0.000    0.000    0.000 
#
# Total GULP energy -198289.240522 kJ/mol
# GULP energy per Si atom -12393.077533 kJ/mol
# Density = 1.967735 g / cm^3
# Si number density = 19.722234 Si / 1000 Ang^3
#
#
#
# Elastic Constant Matrix: (Units=GPa)
#
#
# Indices 1 2 3 4 5 6 
#
# 1 88.2463 30.8294 54.0934 0.0000 -1.9992 0.0000
# 2 30.8294 85.3334 21.5887 0.0000 -3.8525 0.0000
# 3 54.0934 21.5887 79.4061 0.0000 -2.0772 0.0000
# 4 0.0000 0.0000 0.0000 21.6609 0.0000 -2.0157
# 5 -1.9992 -3.8525 -2.0772 0.0000 34.1047 0.0000
# 6 0.0000 0.0000 0.0000 -2.0157 0.0000 21.2507
#
#
#
# Elastic Compliance Matrix: (Units=1/GPa)
#
#
# Indices 1 2 3 4 5 6 
#
# 1 0.020779 -0.004218 -0.013010 0.000000 -0.000051 0.000000
# 2 -0.004218 0.013491 -0.000762 0.000000 0.001230 0.000000
# 3 -0.013010 -0.000762 0.021676 0.000000 0.000471 0.000000
# 4 0.000000 0.000000 0.000000 0.046577 0.000000 0.004418
# 5 -0.000051 0.001230 0.000471 0.000000 0.029486 0.000000
# 6 0.000000 0.000000 0.000000 0.004418 0.000000 0.047476
#
#
# Mechanical properties :
#
#
# Convention : Reuss Voigt Hill
#
# Bulk Modulus (GPa) = 50.08617 51.77874 50.93246
# Shear Modulus (GPa) = 22.51024 25.16821 23.83922
#
# Velocity S-wave (km/s) = 3.38207 3.57618 3.48048
# Velocity P-wave (km/s) = 6.37982 6.58506 6.48325
#
# Compressibility (1/GPa) = 0.01996559
#
# Stress axis : x y z
#
# Youngs Moduli (GPa) = 48.12520 74.12335 46.13470
#
# Poissons Ratio (x) = 0.31265 0.60020
# Poissons Ratio (y) = 0.20299 0.03517
# Poissons Ratio (z) = 0.62610 0.05650
#
# Static dielectric constant tensor:
#      x y z
#    x 3.608070 0.000000 -0.056510 
#    y 0.000000 3.825440 0.000000 
#    z -0.056510 0.000000 3.539890 
# 
# 
# High freq. dielectric constant tensor:
#      x y z
#    x 1.758260 0.000000 -0.002830 
#    y 0.000000 1.780560 0.000000 
#    z -0.002830 0.000000 1.754990 
# 
# From -- ./inp_files/12588.got.cif
#   From: 2010.03.12/outbox.cif.g09.slc.cpg/sg4_7_cif.got.tgz:12588.got - 2010.03.31 09:31:35.
