data_PCOD8046838
_publ_section_title
;
Structure prediction by ZEFSAII (Michael W. Deem and Ramdas Pophale) SiO2 
 PCOD8046838
Probable space group: P 21
;
_chemical_formula_sum "Si O2"
_cell_formula_units_Z 12
_cell_length_a 12.763098
_cell_length_b 8.079416
_cell_length_c 10.004468
_cell_angle_alpha 90.000000
_cell_angle_beta 31.509515
_cell_angle_gamma 90.000000
_cell_volume 539.178848
_symmetry_space_group_name_H-M "P 21"
_symmetry_group_IT_number 4
_symmetry_cell_setting 'monoclinic'
loop_
_space_group_symop_operation_xyz
x,y,z
-x,1/2+y,-z
loop_
_atom_site_type_symbol
_atom_site_label
_atom_site_fract_x
_atom_site_fract_y
_atom_site_fract_z
Si Si1 0.784443 0.691030 0.711118
Si Si2 0.419641 0.540169 0.701012
Si Si3 0.215548 0.235086 0.788881
Si Si4 0.419565 0.885885 0.200944
Si Si5 0.026739 0.659940 0.203358
Si Si6 0.026728 0.766256 0.703420
O O1 0.697530 0.513519 0.765760
O O2 0.952605 0.748773 0.420339
O O3 0.888955 0.684985 0.740410
O O4 0.600565 0.818564 0.915020
O O5 0.302690 0.412459 0.734153
O O6 0.600762 0.607389 0.415024
O O7 0.499932 0.463087 0.750199
O O8 0.262408 0.686857 0.913677
O O9 0.110866 0.241449 0.759825
O O10 0.047411 0.177311 0.079643
O O11 0.262354 0.739228 0.413708
O O12 0.999879 0.463098 0.250012
#
# Coordination Sequence:
#
# PCOD8046838 Si02
#       6
#     2   2   2   2   2   2
#     4  11  23  43  72  98 138 182 215 281 341 386
#     4  11  24  45  70  98 140 173 227 281 329 400
#     4  11  23  43  72  98 138 182 215 281 341 386
#     4  11  24  45  70  98 140 173 227 281 329 400
#     4  10  23  42  64  98 139 173 220 278 326 394
#     4  10  23  42  64  98 139 173 220 278 326 394
#
# _framework density 22.256066000000001
#
# number of rings (size 3 to 8) (size 9 to 14) (size 15 to 20)
#    0.000    1.333    6.667    0.000    4.667    1.333 
#    0.000    8.333    0.000    0.000    0.000    0.000 
#    0.000    0.000    0.000    0.000    0.000    0.000 
#
# Total GULP energy -148729.130954 kJ/mol
# GULP energy per Si atom -12394.094246 kJ/mol
# Density = 2.220541 g / cm^3
# Si number density = 22.256066 Si / 1000 Ang^3
#
#
#
# Elastic Constant Matrix: (Units=GPa)
#
#
# Indices 1 2 3 4 5 6 
#
# 1 65.4183 16.1113 58.9397 0.0000 -1.8147 0.0000
# 2 16.1113 39.2475 55.3358 0.0000 -0.9295 0.0000
# 3 58.9397 55.3358 163.5303 0.0000 1.2934 0.0000
# 4 0.0000 0.0000 0.0000 44.4099 0.0000 -6.1527
# 5 -1.8147 -0.9295 1.2934 0.0000 43.6089 0.0000
# 6 0.0000 0.0000 0.0000 -6.1527 0.0000 37.3889
#
#
#
# Elastic Compliance Matrix: (Units=1/GPa)
#
#
# Indices 1 2 3 4 5 6 
#
# 1 0.023089 0.004402 -0.009822 0.000000 0.001346 0.000000
# 2 0.004402 0.049667 -0.018407 0.000000 0.001788 0.000000
# 3 -0.009822 -0.018407 0.015894 0.000000 -0.001272 0.000000
# 4 0.000000 0.000000 0.000000 0.023043 0.000000 0.003792
# 5 0.001346 0.001788 -0.001272 0.000000 0.023063 0.000000
# 6 0.000000 0.000000 0.000000 0.003792 0.000000 0.027370
#
#
# Mechanical properties :
#
#
# Convention : Reuss Voigt Hill
#
# Bulk Modulus (GPa) = 24.39306 58.77443 41.58374
# Shear Modulus (GPa) = 22.37691 34.26885 28.32288
#
# Velocity S-wave (km/s) = 3.17429 3.92823 3.57121
# Velocity P-wave (km/s) = 4.94154 6.85859 5.97742
#
# Compressibility (1/GPa) = 0.04099527
#
# Stress axis : x y z
#
# Youngs Moduli (GPa) = 43.31156 20.13397 62.91786
#
# Poissons Ratio (x) = -0.08862 0.61796
# Poissons Ratio (y) = -0.19064 1.15814
# Poissons Ratio (z) = 0.42539 0.37061
#
# Static dielectric constant tensor:
#      x y z
#    x 4.001360 0.000000 -0.212020 
#    y 0.000000 3.753780 0.000000 
#    z -0.212020 0.000000 5.499910 
# 
# 
# High freq. dielectric constant tensor:
#      x y z
#    x 1.882250 0.000000 -0.006480 
#    y 0.000000 1.831200 0.000000 
#    z -0.006480 0.000000 1.913120 
# 
# From -- ./inp_files/7453.got.cif
#   From: 2010.03.12/outbox.cif.g09.slc.cpg/sg4_4_cif.got.tgz:7453.got - 2010.03.31 09:31:35.
