data_PCOD8046671
_publ_section_title
;
Structure prediction by ZEFSAII (Michael W. Deem and Ramdas Pophale) SiO2 
 PCOD8046671
Probable space group: P 21
;
_chemical_formula_sum "Si O2"
_cell_formula_units_Z 14
_cell_length_a 8.011017
_cell_length_b 8.177046
_cell_length_c 16.019598
_cell_angle_alpha 90.000000
_cell_angle_beta 34.422461
_cell_angle_gamma 90.000000
_cell_volume 593.208456
_symmetry_space_group_name_H-M "P 21"
_symmetry_group_IT_number 4
_symmetry_cell_setting 'monoclinic'
loop_
_space_group_symop_operation_xyz
x,y,z
-x,1/2+y,-z
loop_
_atom_site_type_symbol
_atom_site_label
_atom_site_fract_x
_atom_site_fract_y
_atom_site_fract_z
Si Si1 0.743311 0.145670 0.650869
Si Si2 0.380207 0.254351 0.945573
Si Si3 0.335335 0.280879 0.692457
Si Si4 0.189184 0.561315 0.125008
Si Si5 0.773394 0.771002 0.659443
Si Si6 0.768575 0.129284 0.202832
Si Si7 0.172555 0.793816 0.640992
O O1 0.620851 0.265204 0.773414
O O2 0.521639 0.143024 0.663930
O O3 0.055316 0.220534 0.495225
O O4 0.782605 0.964646 0.668513
O O5 0.510526 0.141887 0.965600
O O6 0.289264 0.436879 0.011009
O O7 0.092879 0.157242 0.030807
O O8 0.322503 0.441454 0.754926
O O9 0.508049 0.319682 0.534591
O O10 0.003303 0.217023 0.822929
O O11 0.980001 0.468377 0.277511
O O12 0.441930 0.712045 0.779849
O O13 0.939375 0.700507 0.674260
O O14 0.769703 0.200289 0.296620
#
# Coordination Sequence:
#
# PCOD8046671 Si02
#       7
#     2   2   2   2   2   2   2
#     4  11  24  45  70 104 140 188 240 298 365 420
#     4  11  25  46  68 103 143 192 233 295 363 433
#     4  11  24  43  69 107 140 188 242 297 362 422
#     4  11  23  47  69 102 147 188 245 291 362 432
#     4  11  23  46  72 104 145 182 247 302 351 431
#     4  11  25  44  69 105 143 190 241 289 367 424
#     4  10  22  43  73 101 138 192 242 304 352 420
#
# _framework density 23.600473000000001
#
# number of rings (size 3 to 8) (size 9 to 14) (size 15 to 20)
#    0.000    1.143    1.429    5.143    2.000    3.429 
#   23.143    0.000    0.000    0.000    0.000    0.000 
#    0.000    0.000    0.000    0.000    0.000    0.000 
#
# Total GULP energy -173553.142520 kJ/mol
# GULP energy per Si atom -12396.653037 kJ/mol
# Density = 2.354676 g / cm^3
# Si number density = 23.600473 Si / 1000 Ang^3
#
#
#
# Elastic Constant Matrix: (Units=GPa)
#
#
# Indices 1 2 3 4 5 6 
#
# 1 88.7640 18.6570 2.9041 0.0000 -21.9315 0.0000
# 2 18.6570 88.2748 17.7351 0.0000 -7.0087 0.0000
# 3 2.9041 17.7351 60.2359 0.0000 -17.2959 0.0000
# 4 0.0000 0.0000 0.0000 39.0618 0.0000 -15.3293
# 5 -21.9315 -7.0087 -17.2959 0.0000 43.0814 0.0000
# 6 0.0000 0.0000 0.0000 -15.3293 0.0000 10.6510
#
#
#
# Elastic Compliance Matrix: (Units=1/GPa)
#
#
# Indices 1 2 3 4 5 6 
#
# 1 0.013593 -0.002743 0.002273 0.000000 0.007386 0.000000
# 2 -0.002743 0.012608 -0.003834 0.000000 -0.000885 0.000000
# 3 0.002273 -0.003834 0.020090 0.000000 0.008599 0.000000
# 4 0.000000 0.000000 0.000000 0.058827 0.000000 0.084666
# 5 0.007386 -0.000885 0.008599 0.000000 0.030280 0.000000
# 6 0.000000 0.000000 0.000000 0.084666 0.000000 0.215743
#
#
# Mechanical properties :
#
#
# Convention : Reuss Voigt Hill
#
# Bulk Modulus (GPa) = 26.53726 35.09635 30.81680
# Shear Modulus (GPa) = 13.42970 31.75740 22.59355
#
# Velocity S-wave (km/s) = 2.38805 3.67226 3.09744
# Velocity P-wave (km/s) = 4.34425 5.73445 5.08706
#
# Compressibility (1/GPa) = 0.03768287
#
# Stress axis : x y z
#
# Youngs Moduli (GPa) = 73.56749 79.31438 49.77691
#
# Poissons Ratio (x) = 0.21757 -0.11315
# Poissons Ratio (y) = 0.20181 0.19084
# Poissons Ratio (z) = -0.16723 0.30408
#
# Static dielectric constant tensor:
#      x y z
#    x 4.241900 0.000000 -0.144390 
#    y 0.000000 4.022730 0.000000 
#    z -0.144390 0.000000 4.392280 
# 
# 
# High freq. dielectric constant tensor:
#      x y z
#    x 1.940200 0.000000 -0.008630 
#    y 0.000000 1.922860 0.000000 
#    z -0.008630 0.000000 1.942480 
# 
# From -- ./inp_files/5368.got.cif
#   From: 2010.03.12/outbox.cif.g09.slc.cpg/sg4_3_cif.got.tgz:5368.got - 2010.03.31 09:31:35.
