data_PCOD8046992
_publ_section_title
;
Structure prediction by ZEFSAII (Michael W. Deem and Ramdas Pophale) SiO2 
 PCOD8046992
Probable space group: P 21
;
_chemical_formula_sum "Si O2"
_cell_formula_units_Z 14
_cell_length_a 12.204280
_cell_length_b 9.385040
_cell_length_c 5.127081
_cell_angle_alpha 90.000000
_cell_angle_beta 92.046502
_cell_angle_gamma 90.000000
_cell_volume 586.869280
_symmetry_space_group_name_H-M "P 21"
_symmetry_group_IT_number 4
_symmetry_cell_setting 'monoclinic'
loop_
_space_group_symop_operation_xyz
x,y,z
-x,1/2+y,-z
loop_
_atom_site_type_symbol
_atom_site_label
_atom_site_fract_x
_atom_site_fract_y
_atom_site_fract_z
Si Si1 0.506324 0.917020 0.531406
Si Si2 0.640674 0.975465 0.028577
Si Si3 0.864584 0.373372 0.509581
Si Si4 0.321715 0.014336 0.821026
Si Si5 0.340081 0.779764 0.208470
Si Si6 0.817125 0.767081 0.116018
Si Si7 0.057105 0.179137 0.369555
O O1 0.582386 0.887284 0.789768
O O2 0.412630 0.035676 0.601321
O O3 0.430054 0.778320 0.451824
O O4 0.581065 0.966299 0.300064
O O5 0.648889 0.139631 0.957600
O O6 0.766626 0.923568 0.073549
O O7 0.790602 0.436559 0.273805
O O8 0.785738 0.303990 0.718710
O O9 0.939261 0.505410 0.625937
O O10 0.936922 0.241934 0.412086
O O11 0.289268 0.166254 0.935603
O O12 0.378445 0.916799 0.044354
O O13 0.860750 0.746048 0.411832
O O14 0.910775 0.733239 0.914918
#
# Coordination Sequence:
#
# PCOD8046992 Si02
#       7
#     2   2   2   2   2   2   2
#     4  11  26  44  68 103 139 185 230 278 353 406
#     4  12  28  42  72 105 139 183 235 291 341 419
#     4  10  25  44  73 104 138 184 232 289 351 414
#     4  10  23  46  72  97 144 182 228 287 347 421
#     4  11  25  46  70 107 140 181 235 292 346 412
#     4  11  26  46  66 102 139 182 231 286 347 410
#     4  11  25  46  73 100 137 187 229 287 353 412
#
# _framework density 23.855398999999998
#
# number of rings (size 3 to 8) (size 9 to 14) (size 15 to 20)
#    0.000    1.143    2.857    0.857   10.000    2.286 
#    0.000    0.000    0.000    0.000    0.000    0.000 
#    0.000    0.000    0.000    0.000    0.000    0.000 
#
# Total GULP energy -173539.523006 kJ/mol
# GULP energy per Si atom -12395.680215 kJ/mol
# Density = 2.380110 g / cm^3
# Si number density = 23.855399 Si / 1000 Ang^3
#
#
#
# Elastic Constant Matrix: (Units=GPa)
#
#
# Indices 1 2 3 4 5 6 
#
# 1 83.1258 16.2258 26.8479 0.0000 -23.8411 0.0000
# 2 16.2258 39.5192 12.5736 0.0000 -14.0712 0.0000
# 3 26.8479 12.5736 114.1841 0.0000 -26.6881 0.0000
# 4 0.0000 0.0000 0.0000 26.5941 0.0000 1.4344
# 5 -23.8411 -14.0712 -26.6881 0.0000 48.7267 0.0000
# 6 0.0000 0.0000 0.0000 1.4344 0.0000 33.4781
#
#
#
# Elastic Compliance Matrix: (Units=1/GPa)
#
#
# Indices 1 2 3 4 5 6 
#
# 1 0.014833 -0.003650 -0.001876 0.000000 0.005176 0.000000
# 2 -0.003650 0.029293 -0.000926 0.000000 0.006166 0.000000
# 3 -0.001876 -0.000926 0.010349 0.000000 0.004483 0.000000
# 4 0.000000 0.000000 0.000000 0.037689 0.000000 -0.001615
# 5 0.005176 0.006166 0.004483 0.000000 0.027291 0.000000
# 6 0.000000 0.000000 0.000000 -0.001615 0.000000 0.029939
#
#
# Mechanical properties :
#
#
# Convention : Reuss Voigt Hill
#
# Bulk Modulus (GPa) = 24.05607 38.68039 31.36823
# Shear Modulus (GPa) = 28.38401 33.83857 31.11129
#
# Velocity S-wave (km/s) = 3.45314 3.77037 3.61524
# Velocity P-wave (km/s) = 5.09950 5.93329 5.53213
#
# Compressibility (1/GPa) = 0.04156955
#
# Stress axis : x y z
#
# Youngs Moduli (GPa) = 67.41795 34.13789 96.63141
#
# Poissons Ratio (x) = 0.12461 0.18127
# Poissons Ratio (y) = 0.24610 0.08950
# Poissons Ratio (z) = 0.12647 0.03162
#
# Static dielectric constant tensor:
#      x y z
#    x 4.273340 0.000000 0.045180 
#    y 0.000000 4.193690 0.000000 
#    z 0.045180 0.000000 4.403640 
# 
# 
# High freq. dielectric constant tensor:
#      x y z
#    x 1.950610 0.000000 -0.006280 
#    y 0.000000 1.929770 0.000000 
#    z -0.006280 0.000000 1.956310 
# 
# From -- ./inp_files/2473.got.cif
#   From: 2010.03.12/outbox.cif.g09.slc.cpg/sg4_2_cif.got.tgz:2473.got - 2010.03.31 09:31:35.
