data_PCOD8046027
_publ_section_title
;
Structure prediction by ZEFSAII (Michael W. Deem and Ramdas Pophale) SiO2 
 PCOD8046027
Probable space group: P 21
;
_chemical_formula_sum "Si O2"
_cell_formula_units_Z 16
_cell_length_a 9.278870
_cell_length_b 9.111128
_cell_length_c 9.394322
_cell_angle_alpha 90.000000
_cell_angle_beta 63.768854
_cell_angle_gamma 90.000000
_cell_volume 712.416471
_symmetry_space_group_name_H-M "P 21"
_symmetry_group_IT_number 4
_symmetry_cell_setting 'monoclinic'
loop_
_space_group_symop_operation_xyz
x,y,z
-x,1/2+y,-z
loop_
_atom_site_type_symbol
_atom_site_label
_atom_site_fract_x
_atom_site_fract_y
_atom_site_fract_z
Si Si1 0.211528 0.831240 0.912334
Si Si2 0.996601 0.298268 0.442205
Si Si3 0.317139 0.873946 0.569505
Si Si4 0.034847 0.110033 0.030757
Si Si5 0.720415 0.769229 0.897807
Si Si6 0.467775 0.997109 0.951709
Si Si7 0.111467 0.504764 0.609993
Si Si8 0.454035 0.589137 0.402514
O O1 0.300348 0.787684 0.727735
O O2 0.097309 0.695087 0.006376
O O3 0.329588 0.872099 0.989972
O O4 0.107474 0.975584 0.911480
O O5 0.164767 0.301720 0.284695
O O6 0.030391 0.356715 0.586313
O O7 0.857094 0.395488 0.426911
O O8 0.932918 0.133115 0.483161
O O9 0.430153 0.764291 0.428378
O O10 0.398121 0.032094 0.563699
O O11 0.174192 0.228757 0.009134
O O12 0.960231 0.042507 0.206436
O O13 0.614540 0.916515 0.968492
O O14 0.602149 0.628730 0.919964
O O15 0.516503 0.058384 0.776296
O O16 0.303413 0.494662 0.526406
#
# Coordination Sequence:
#
# PCOD8046027 Si02
#       8
#     2   2   2   2   2   2   2   2
#     4  10  20  41  61  86 122 157 199 247 293 356
#     4  10  20  40  63  86 121 156 194 248 293 355
#     4  10  21  41  62  88 121 154 200 249 299 353
#     4  10  21  41  63  87 121 158 201 245 294 357
#     4  10  20  41  59  86 122 158 197 245 290 359
#     4  10  22  38  62  87 122 159 197 244 302 353
#     4  10  20  40  61  90 121 154 197 245 298 352
#     4  10  20  40  61  88 122 154 195 251 299 353
#
# _framework density 22.458773000000001
#
# number of rings (size 3 to 8) (size 9 to 14) (size 15 to 20)
#    0.000    2.000    5.000    0.000    0.000    2.000 
#   24.750    0.000    0.000    0.000    0.000    0.000 
#    0.000    0.000    0.000    0.000    0.000    0.000 
#
# Total GULP energy -198295.640512 kJ/mol
# GULP energy per Si atom -12393.477532 kJ/mol
# Density = 2.240766 g / cm^3
# Si number density = 22.458773 Si / 1000 Ang^3
#
#
#
# Elastic Constant Matrix: (Units=GPa)
#
#
# Indices 1 2 3 4 5 6 
#
# 1 66.3337 31.5126 41.8071 0.0000 -22.0807 0.0000
# 2 31.5126 60.5125 33.7522 0.0000 -6.0975 0.0000
# 3 41.8071 33.7522 54.5554 0.0000 -17.9704 0.0000
# 4 0.0000 0.0000 0.0000 34.3710 0.0000 -7.8617
# 5 -22.0807 -6.0975 -17.9704 0.0000 29.5458 0.0000
# 6 0.0000 0.0000 0.0000 -7.8617 0.0000 49.5353
#
#
#
# Elastic Compliance Matrix: (Units=1/GPa)
#
#
# Indices 1 2 3 4 5 6 
#
# 1 0.033391 -0.006419 -0.017299 0.000000 0.013108 0.000000
# 2 -0.006419 0.027165 -0.014532 0.000000 -0.008030 0.000000
# 3 -0.017299 -0.014532 0.044183 0.000000 0.010946 0.000000
# 4 0.000000 0.000000 0.000000 0.030190 0.000000 0.004791
# 5 0.013108 -0.008030 0.010946 0.000000 0.048642 0.000000
# 6 0.000000 0.000000 0.000000 0.004791 0.000000 0.020948
#
#
# Mechanical properties :
#
#
# Convention : Reuss Voigt Hill
#
# Bulk Modulus (GPa) = 35.41355 43.94951 39.68153
# Shear Modulus (GPa) = 17.21566 27.64574 22.43070
#
# Velocity S-wave (km/s) = 2.77166 3.51230 3.16373
# Velocity P-wave (km/s) = 5.10346 6.00498 5.57248
#
# Compressibility (1/GPa) = 0.02823778
#
# Stress axis : x y z
#
# Youngs Moduli (GPa) = 29.94835 36.81224 22.63295
#
# Poissons Ratio (x) = 0.23629 0.39154
# Poissons Ratio (y) = 0.19223 0.32891
# Poissons Ratio (z) = 0.51809 0.53497
#
# Static dielectric constant tensor:
#      x y z
#    x 4.083180 0.000000 -0.461160 
#    y 0.000000 4.035270 0.000000 
#    z -0.461160 0.000000 3.840320 
# 
# 
# High freq. dielectric constant tensor:
#      x y z
#    x 1.879310 0.000000 -0.031720 
#    y 0.000000 1.875180 0.000000 
#    z -0.031720 0.000000 1.868190 
# 
# From -- ./inp_files/10924.got.cif
#   From: 2010.03.12/outbox.cif.g09.slc.cpg/sg4_6_cif.got.tgz:10924.got - 2010.03.31 09:31:35.
