data_PCOD8046954
_publ_section_title
;
Structure prediction by ZEFSAII (Michael W. Deem and Ramdas Pophale) SiO2 
 PCOD8046954
Probable space group: P 21
;
_chemical_formula_sum "Si O2"
_cell_formula_units_Z 14
_cell_length_a 6.500776
_cell_length_b 8.145103
_cell_length_c 10.810356
_cell_angle_alpha 90.000000
_cell_angle_beta 89.161920
_cell_angle_gamma 90.000000
_cell_volume 572.341604
_symmetry_space_group_name_H-M "P 21"
_symmetry_group_IT_number 4
_symmetry_cell_setting 'monoclinic'
loop_
_space_group_symop_operation_xyz
x,y,z
-x,1/2+y,-z
loop_
_atom_site_type_symbol
_atom_site_label
_atom_site_fract_x
_atom_site_fract_y
_atom_site_fract_z
Si Si1 0.982477 0.938070 0.665407
Si Si2 0.239675 0.555504 0.552252
Si Si3 0.916651 0.577716 0.739498
Si Si4 0.067042 0.222590 0.007617
Si Si5 0.242914 0.547736 0.118610
Si Si6 0.655197 0.601494 0.210650
Si Si7 0.396397 0.837424 0.391306
O O1 0.880826 0.760138 0.686207
O O2 0.953969 0.980539 0.522326
O O3 0.836240 0.069537 0.739140
O O4 0.217028 0.965569 0.712130
O O5 0.153491 0.543241 0.693459
O O6 0.275763 0.740969 0.501756
O O7 0.450516 0.457671 0.536109
O O8 0.897278 0.581536 0.888355
O O9 0.754756 0.445736 0.691445
O O10 0.106660 0.397806 0.066836
O O11 0.202298 0.202249 0.883801
O O12 0.827986 0.204619 0.963250
O O13 0.486343 0.515344 0.121265
O O14 0.534651 0.722344 0.302825
#
# Coordination Sequence:
#
# PCOD8046954 Si02
#       7
#     2   2   2   2   2   2   2
#     4  10  24  47  69 103 143 194 240 306 372 439
#     4  12  27  45  75 104 153 188 256 305 378 447
#     4  11  27  45  73 105 150 193 249 307 380 443
#     4  10  26  43  74 104 144 187 243 299 375 441
#     4  10  23  45  70 100 146 187 241 299 369 434
#     4  11  26  44  77 103 149 189 254 305 372 441
#     4  12  29  45  76 113 145 200 255 309 382 447
#
# _framework density 24.460916999999998
#
# number of rings (size 3 to 8) (size 9 to 14) (size 15 to 20)
#    0.000    1.143    1.429    1.714   14.000    4.571 
#    0.000    0.000    0.000    0.000    0.000    0.000 
#    0.000    0.000    0.000    0.000    0.000    0.000 
#
# Total GULP energy -173471.303343 kJ/mol
# GULP energy per Si atom -12390.807382 kJ/mol
# Density = 2.440524 g / cm^3
# Si number density = 24.460917 Si / 1000 Ang^3
#
#
#
# Elastic Constant Matrix: (Units=GPa)
#
#
# Indices 1 2 3 4 5 6 
#
# 1 105.6816 22.9092 23.7630 0.0000 16.7036 0.0000
# 2 22.9092 76.3440 18.3997 0.0000 7.6470 0.0000
# 3 23.7630 18.3997 68.7958 0.0000 -2.5560 0.0000
# 4 0.0000 0.0000 0.0000 40.1233 0.0000 5.4961
# 5 16.7036 7.6470 -2.5560 0.0000 45.6653 0.0000
# 6 0.0000 0.0000 0.0000 5.4961 0.0000 43.2986
#
#
#
# Elastic Compliance Matrix: (Units=1/GPa)
#
#
# Indices 1 2 3 4 5 6 
#
# 1 0.011345 -0.002165 -0.003488 0.000000 -0.003983 0.000000
# 2 -0.002165 0.014719 -0.003258 0.000000 -0.001855 0.000000
# 3 -0.003488 -0.003258 0.016714 0.000000 0.002757 0.000000
# 4 0.000000 0.000000 0.000000 0.025364 0.000000 -0.003220
# 5 -0.003983 -0.001855 0.002757 0.000000 0.023820 0.000000
# 6 0.000000 0.000000 0.000000 -0.003220 0.000000 0.023504
#
#
# Mechanical properties :
#
#
# Convention : Reuss Voigt Hill
#
# Bulk Modulus (GPa) = 40.06779 42.32946 41.19863
# Shear Modulus (GPa) = 35.30876 38.20076 36.75476
#
# Velocity S-wave (km/s) = 3.80343 3.95613 3.88053
# Velocity P-wave (km/s) = 5.97529 6.18146 6.07925
#
# Compressibility (1/GPa) = 0.02495770
#
# Stress axis : x y z
#
# Youngs Moduli (GPa) = 88.14121 67.93813 59.82926
#
# Poissons Ratio (x) = 0.14709 0.20867
# Poissons Ratio (y) = 0.19083 0.19491
# Poissons Ratio (z) = 0.30742 0.22133
#
# Static dielectric constant tensor:
#      x y z
#    x 4.467990 0.000000 0.034970 
#    y 0.000000 4.335000 0.000000 
#    z 0.034970 0.000000 4.790460 
# 
# 
# High freq. dielectric constant tensor:
#      x y z
#    x 1.970570 0.000000 -0.000350 
#    y 0.000000 1.970020 0.000000 
#    z -0.000350 0.000000 1.989150 
# 
# From -- ./inp_files/2465.got.cif
#   From: 2010.03.12/outbox.cif.g09.slc.cpg/sg4_2_cif.got.tgz:2465.got - 2010.03.31 09:31:35.
