data_PCOD8046175
_publ_section_title
;
Structure prediction by ZEFSAII (Michael W. Deem and Ramdas Pophale) SiO2 
 PCOD8046175
Probable space group: P 21
;
_chemical_formula_sum "Si O2"
_cell_formula_units_Z 14
_cell_length_a 10.255217
_cell_length_b 12.584051
_cell_length_c 12.750120
_cell_angle_alpha 90.000000
_cell_angle_beta 157.927582
_cell_angle_gamma 90.000000
_cell_volume 618.316974
_symmetry_space_group_name_H-M "P 21"
_symmetry_group_IT_number 4
_symmetry_cell_setting 'monoclinic'
loop_
_space_group_symop_operation_xyz
x,y,z
-x,1/2+y,-z
loop_
_atom_site_type_symbol
_atom_site_label
_atom_site_fract_x
_atom_site_fract_y
_atom_site_fract_z
Si Si1 0.443687 0.885250 0.041291
Si Si2 0.201242 0.949309 0.643968
Si Si3 0.180338 0.033431 0.305063
Si Si4 0.514315 0.670889 0.647564
Si Si5 0.633269 0.903009 0.779513
Si Si6 0.248531 0.099905 0.952032
Si Si7 0.403485 0.642539 0.003736
O O1 0.389372 0.763658 0.035565
O O2 0.797070 0.928347 0.356454
O O3 0.428653 0.892469 0.904262
O O4 0.165408 0.972332 0.878237
O O5 0.306628 0.894231 0.614310
O O6 0.288424 0.076122 0.708774
O O7 0.269736 0.115142 0.281734
O O8 0.539218 0.989117 0.620067
O O9 0.960358 0.088235 0.234831
O O10 0.972091 0.936558 0.096545
O O11 0.674552 0.788207 0.759810
O O12 0.103256 0.667327 0.319683
O O13 0.576330 0.619132 0.806262
O O14 0.524176 0.135732 0.067112
#
# Coordination Sequence:
#
# PCOD8046175 Si02
#       7
#     2   2   2   2   2   2   2
#     4  11  22  38  63  96 129 160 205 271 313 349
#     4  10  21  38  62  96 126 165 212 250 308 387
#     4  11  26  42  65  96 126 164 215 254 309 382
#     4  12  25  44  66  93 128 167 205 261 314 367
#     4  11  22  43  66  88 127 172 207 249 312 382
#     4  11  23  41  65  96 125 163 216 254 305 380
#     4  10  23  42  65  93 129 167 208 261 313 365
#
# _framework density 22.642106999999999
#
# number of rings (size 3 to 8) (size 9 to 14) (size 15 to 20)
#    0.000    1.143    0.000    7.714    0.000    8.000 
#    0.000    1.429    0.000    0.000    0.000    0.000 
#    0.000    0.000    0.000    0.000    0.000    0.000 
#
# Total GULP energy -173581.586313 kJ/mol
# GULP energy per Si atom -12398.684737 kJ/mol
# Density = 2.259057 g / cm^3
# Si number density = 22.642107 Si / 1000 Ang^3
#
#
#
# Elastic Constant Matrix: (Units=GPa)
#
#
# Indices 1 2 3 4 5 6 
#
# 1 100.1111 17.9806 21.2231 0.0000 0.5954 0.0000
# 2 17.9806 142.3989 6.6077 0.0000 -4.9703 0.0000
# 3 21.2231 6.6077 71.0152 0.0000 -17.1432 0.0000
# 4 0.0000 0.0000 0.0000 25.0125 0.0000 -0.7139
# 5 0.5954 -4.9703 -17.1432 0.0000 29.2464 0.0000
# 6 0.0000 0.0000 0.0000 -0.7139 0.0000 26.1608
#
#
#
# Elastic Compliance Matrix: (Units=1/GPa)
#
#
# Indices 1 2 3 4 5 6 
#
# 1 0.011053 -0.001312 -0.003831 0.000000 -0.002694 0.000000
# 2 -0.001312 0.007231 0.000026 0.000000 0.001271 0.000000
# 3 -0.003831 0.000026 0.017757 0.000000 0.010491 0.000000
# 4 0.000000 0.000000 0.000000 0.040011 0.000000 0.001092
# 5 -0.002694 0.001271 0.010491 0.000000 0.040612 0.000000
# 6 0.000000 0.000000 0.000000 0.001092 0.000000 0.038255
#
#
# Mechanical properties :
#
#
# Convention : Reuss Voigt Hill
#
# Bulk Modulus (GPa) = 38.75038 45.01643 41.88340
# Shear Modulus (GPa) = 28.77602 33.93152 31.35377
#
# Velocity S-wave (km/s) = 3.56885 3.87538 3.72527
# Velocity P-wave (km/s) = 5.84240 6.32057 6.08619
#
# Compressibility (1/GPa) = 0.02580620
#
# Stress axis : x y z
#
# Youngs Moduli (GPa) = 90.47494 138.28720 56.31713
#
# Poissons Ratio (x) = 0.18141 0.21577
# Poissons Ratio (y) = 0.11869 -0.00146
# Poissons Ratio (z) = 0.34665 -0.00360
#
# Static dielectric constant tensor:
#      x y z
#    x 3.954970 0.000000 -0.127790 
#    y 0.000000 4.247400 0.000000 
#    z -0.127790 0.000000 3.989830 
# 
# 
# High freq. dielectric constant tensor:
#      x y z
#    x 1.883830 0.000000 -0.016830 
#    y 0.000000 1.899310 0.000000 
#    z -0.016830 0.000000 1.889440 
# 
# From -- ./inp_files/14000.got.cif
#   From: 2010.03.12/outbox.cif.g09.slc.cpg/sg4_7_cif.got.tgz:14000.got - 2010.03.31 09:31:35.
