data_PCOD8046274
_publ_section_title
;
Structure prediction by ZEFSAII (Michael W. Deem and Ramdas Pophale) SiO2 
 PCOD8046274
Probable space group: P 21
;
_chemical_formula_sum "Si O2"
_cell_formula_units_Z 16
_cell_length_a 14.307899
_cell_length_b 8.029088
_cell_length_c 17.797807
_cell_angle_alpha 90.000000
_cell_angle_beta 158.612857
_cell_angle_gamma 90.000000
_cell_volume 745.600262
_symmetry_space_group_name_H-M "P 21"
_symmetry_group_IT_number 4
_symmetry_cell_setting 'monoclinic'
loop_
_space_group_symop_operation_xyz
x,y,z
-x,1/2+y,-z
loop_
_atom_site_type_symbol
_atom_site_label
_atom_site_fract_x
_atom_site_fract_y
_atom_site_fract_z
Si Si1 0.010898 0.134310 0.450287
Si Si2 0.398160 0.366675 0.666583
Si Si3 0.370694 0.741116 0.593770
Si Si4 0.079590 0.757680 0.888805
Si Si5 0.553547 0.810081 0.455317
Si Si6 0.686778 0.643758 0.696348
Si Si7 0.376665 0.851938 0.760063
Si Si8 0.111908 0.460359 0.793927
O O1 0.162202 0.299433 0.537864
O O2 0.785562 0.189139 0.337895
O O3 0.205057 0.017043 0.641199
O O4 0.884917 0.040033 0.286089
O O5 0.327715 0.547904 0.582686
O O6 0.452504 0.243428 0.635391
O O7 0.658104 0.361371 0.910740
O O8 0.587572 0.756002 0.691664
O O9 0.462999 0.837054 0.737632
O O10 0.114464 0.825195 0.368975
O O11 0.098039 0.600706 0.847055
O O12 0.849728 0.878823 0.687732
O O13 0.983244 0.688152 0.898989
O O14 0.512943 0.671847 0.489894
O O15 0.339541 0.951192 0.302982
O O16 0.621938 0.862303 0.997046
#
# Coordination Sequence:
#
# PCOD8046274 Si02
#       8
#     2   2   2   2   2   2   2   2
#     4  11  23  43  68  94 129 167 217 276 338 396
#     4  11  21  42  65  94 132 169 219 277 328 390
#     4  10  24  42  62  99 133 169 222 276 328 388
#     4  10  21  40  65  95 126 181 219 261 337 392
#     4   9  20  38  59  90 130 173 215 271 317 383
#     4   9  19  40  59  92 131 171 216 267 319 386
#     4  11  25  44  67  97 128 173 214 279 333 408
#     4  11  23  45  67  93 133 177 218 275 336 403
#
# _framework density 21.459219000000001
#
# number of rings (size 3 to 8) (size 9 to 14) (size 15 to 20)
#    0.750    1.000    2.500    1.500    0.000    5.000 
#   13.500    0.000    0.000    0.000    0.000    0.000 
#    0.000    0.000    0.000    0.000    0.000    0.000 
#
# Total GULP energy -198247.773166 kJ/mol
# GULP energy per Si atom -12390.485823 kJ/mol
# Density = 2.141038 g / cm^3
# Si number density = 21.459219 Si / 1000 Ang^3
#
#
#
# Elastic Constant Matrix: (Units=GPa)
#
#
# Indices 1 2 3 4 5 6 
#
# 1 79.5073 5.9633 10.4053 0.0000 0.9015 0.0000
# 2 5.9633 51.9709 10.7442 0.0000 -0.3167 0.0000
# 3 10.4053 10.7442 92.5527 0.0000 -5.0016 0.0000
# 4 0.0000 0.0000 0.0000 30.2702 0.0000 -0.0233
# 5 0.9015 -0.3167 -5.0016 0.0000 21.0743 0.0000
# 6 0.0000 0.0000 0.0000 -0.0233 0.0000 35.3500
#
#
#
# Elastic Compliance Matrix: (Units=1/GPa)
#
#
# Indices 1 2 3 4 5 6 
#
# 1 0.012855 -0.001201 -0.001354 0.000000 -0.000889 0.000000
# 2 -0.001201 0.019828 -0.002176 0.000000 -0.000167 0.000000
# 3 -0.001354 -0.002176 0.011356 0.000000 0.002720 0.000000
# 4 0.000000 0.000000 0.000000 0.033036 0.000000 0.000022
# 5 -0.000889 -0.000167 0.002720 0.000000 0.048132 0.000000
# 6 0.000000 0.000000 0.000000 0.000022 0.000000 0.028289
#
#
# Mechanical properties :
#
#
# Convention : Reuss Voigt Hill
#
# Bulk Modulus (GPa) = 28.91944 30.91739 29.91842
# Shear Modulus (GPa) = 28.65610 30.46676 29.56143
#
# Velocity S-wave (km/s) = 3.65824 3.77205 3.71558
# Velocity P-wave (km/s) = 5.59905 5.78013 5.69031
#
# Compressibility (1/GPa) = 0.03457882
#
# Stress axis : x y z
#
# Youngs Moduli (GPa) = 77.79213 50.43344 88.05549
#
# Poissons Ratio (x) = 0.06055 0.11922
# Poissons Ratio (y) = 0.09339 0.19160
# Poissons Ratio (z) = 0.10532 0.10974
#
# Static dielectric constant tensor:
#      x y z
#    x 4.131510 0.000000 -0.066690 
#    y 0.000000 3.604990 0.000000 
#    z -0.066690 0.000000 3.738750 
# 
# 
# High freq. dielectric constant tensor:
#      x y z
#    x 1.855430 0.000000 -0.003250 
#    y 0.000000 1.825230 0.000000 
#    z -0.003250 0.000000 1.827390 
# 
# From -- ./inp_files/15272.got.cif
#   From: 2010.03.12/outbox.cif.g09.slc.cpg/sg4_8_cif.got.tgz:15272.got - 2010.03.31 09:31:35.
