data_PCOD8046278
_publ_section_title
;
Structure prediction by ZEFSAII (Michael W. Deem and Ramdas Pophale) SiO2 
 PCOD8046278
Probable space group: P 21
;
_chemical_formula_sum "Si O2"
_cell_formula_units_Z 16
_cell_length_a 10.826652
_cell_length_b 13.496892
_cell_length_c 7.378660
_cell_angle_alpha 90.000000
_cell_angle_beta 44.850275
_cell_angle_gamma 90.000000
_cell_volume 760.418343
_symmetry_space_group_name_H-M "P 21"
_symmetry_group_IT_number 4
_symmetry_cell_setting 'monoclinic'
loop_
_space_group_symop_operation_xyz
x,y,z
-x,1/2+y,-z
loop_
_atom_site_type_symbol
_atom_site_label
_atom_site_fract_x
_atom_site_fract_y
_atom_site_fract_z
Si Si1 0.389595 0.256990 0.058399
Si Si2 0.815432 0.930994 0.629000
Si Si3 0.475152 0.048827 0.612449
Si Si4 0.124409 0.544695 0.782796
Si Si5 0.623204 0.404363 0.590875
Si Si6 0.491587 0.051015 0.006920
Si Si7 0.180612 0.192445 0.962439
Si Si8 0.982197 0.891053 0.828111
O O1 0.503342 0.314410 0.786787
O O2 0.496305 0.169294 0.045773
O O3 0.234159 0.197579 0.118066
O O4 0.308370 0.334881 0.284716
O O5 0.951992 0.902498 0.643483
O O6 0.902818 0.964899 0.351188
O O7 0.691187 0.017976 0.834881
O O8 0.677324 0.084439 0.399034
O O9 0.429994 0.022718 0.867603
O O10 0.340440 0.136796 0.688250
O O11 0.454878 0.950199 0.513344
O O12 0.061156 0.494858 0.033454
O O13 0.002149 0.636808 0.867531
O O14 0.815812 0.362355 0.353629
O O15 0.635881 0.493332 0.723821
O O16 0.140559 0.306900 0.949775
#
# Coordination Sequence:
#
# PCOD8046278 Si02
#       8
#     2   2   2   2   2   2   2   2
#     4   9  20  40  62  91 122 163 209 252 309 367
#     4   9  21  39  60  87 125 161 200 261 299 362
#     4  10  21  40  66  88 123 167 202 258 305 365
#     4  11  22  42  66  90 124 162 209 252 314 365
#     4  11  22  39  66  91 126 166 204 255 314 367
#     4   9  20  38  65  88 118 164 210 247 310 360
#     4  10  22  39  61  94 122 158 208 253 306 367
#     4  11  24  39  62  95 126 161 206 256 311 371
#
# _framework density 21.041048
#
# number of rings (size 3 to 8) (size 9 to 14) (size 15 to 20)
#    0.000    2.000    1.250    2.250    8.750    1.000 
#    0.000    3.750    8.250    0.000    0.000    0.000 
#    0.000    0.000    0.000    0.000    0.000    0.000 
#
# Total GULP energy -198269.665940 kJ/mol
# GULP energy per Si atom -12391.854121 kJ/mol
# Density = 2.099316 g / cm^3
# Si number density = 21.041048 Si / 1000 Ang^3
#
#
#
# Elastic Constant Matrix: (Units=GPa)
#
#
# Indices 1 2 3 4 5 6 
#
# 1 83.8532 35.3078 34.3976 0.0000 -19.4311 0.0000
# 2 35.3078 99.1462 15.7732 0.0000 -8.7771 0.0000
# 3 34.3976 15.7732 64.8186 0.0000 -10.0681 0.0000
# 4 0.0000 0.0000 0.0000 31.3811 0.0000 -2.8336
# 5 -19.4311 -8.7771 -10.0681 0.0000 41.5649 0.0000
# 6 0.0000 0.0000 0.0000 -2.8336 0.0000 37.1484
#
#
#
# Elastic Compliance Matrix: (Units=1/GPa)
#
#
# Indices 1 2 3 4 5 6 
#
# 1 0.018463 -0.004837 -0.007729 0.000000 0.005737 0.000000
# 2 -0.004837 0.011871 -0.000295 0.000000 0.000174 0.000000
# 3 -0.007729 -0.000295 0.019774 0.000000 0.001114 0.000000
# 4 0.000000 0.000000 0.000000 0.032087 0.000000 0.002448
# 5 0.005737 0.000174 0.001114 0.000000 0.027048 0.000000
# 6 0.000000 0.000000 0.000000 0.002448 0.000000 0.027106
#
#
# Mechanical properties :
#
#
# Convention : Reuss Voigt Hill
#
# Bulk Modulus (GPa) = 41.00847 46.53057 43.76952
# Shear Modulus (GPa) = 29.37729 32.84152 31.10941
#
# Velocity S-wave (km/s) = 3.74062 3.95502 3.84931
# Velocity P-wave (km/s) = 6.17967 6.55885 6.37208
#
# Compressibility (1/GPa) = 0.02438521
#
# Stress axis : x y z
#
# Youngs Moduli (GPa) = 54.16352 84.23850 50.57088
#
# Poissons Ratio (x) = 0.40749 0.39088
# Poissons Ratio (y) = 0.26201 0.01490
# Poissons Ratio (z) = 0.41865 0.02482
#
# Static dielectric constant tensor:
#      x y z
#    x 3.779740 0.000000 -0.149430 
#    y 0.000000 4.020410 0.000000 
#    z -0.149430 0.000000 3.665880 
# 
# 
# High freq. dielectric constant tensor:
#      x y z
#    x 1.816180 0.000000 -0.013570 
#    y 0.000000 1.825980 0.000000 
#    z -0.013570 0.000000 1.808140 
# 
# From -- ./inp_files/8391.got.cif
#   From: 2010.03.12/outbox.cif.g09.slc.cpg/sg4_5_cif.got.tgz:8391.got - 2010.03.31 09:31:35.
