data_PCOD8046694
_publ_section_title
;
Structure prediction by ZEFSAII (Michael W. Deem and Ramdas Pophale) SiO2 
 PCOD8046694
Probable space group: P 21
;
_chemical_formula_sum "Si O2"
_cell_formula_units_Z 14
_cell_length_a 11.561199
_cell_length_b 5.204534
_cell_length_c 9.748614
_cell_angle_alpha 90.000000
_cell_angle_beta 100.288477
_cell_angle_gamma 90.000000
_cell_volume 577.148832
_symmetry_space_group_name_H-M "P 21"
_symmetry_group_IT_number 4
_symmetry_cell_setting 'monoclinic'
loop_
_space_group_symop_operation_xyz
x,y,z
-x,1/2+y,-z
loop_
_atom_site_type_symbol
_atom_site_label
_atom_site_fract_x
_atom_site_fract_y
_atom_site_fract_z
Si Si1 0.295160 0.348300 0.672216
Si Si2 0.151996 0.921358 0.026823
Si Si3 0.931716 0.782496 0.521793
Si Si4 0.429116 0.578183 0.469899
Si Si5 0.094058 0.416492 0.169765
Si Si6 0.654077 0.171421 0.087017
Si Si7 0.486979 0.497608 0.202030
O O1 0.181515 0.195707 0.593121
O O2 0.322482 0.548461 0.553421
O O3 0.260499 0.478422 0.811367
O O4 0.411849 0.189553 0.726549
O O5 0.150670 0.687212 0.135957
O O6 0.164061 0.188463 0.108907
O O7 0.267464 0.904342 0.954476
O O8 0.041320 0.908776 0.903340
O O9 0.897114 0.875010 0.666303
O O10 0.011366 0.527662 0.543971
O O11 0.535423 0.378121 0.526261
O O12 0.392950 0.485604 0.306861
O O13 0.558060 0.238645 0.184283
O O14 0.581549 0.053626 0.949392
#
# Coordination Sequence:
#
# PCOD8046694 Si02
#       7
#     2   2   2   2   2   2   2
#     4  11  26  45  72 101 144 191 230 298 355 414
#     4  10  24  42  76  95 144 181 231 296 350 410
#     4  12  28  47  75 106 142 184 239 291 355 425
#     4  10  22  44  68  97 139 185 232 287 344 420
#     4  10  23  48  66 108 134 184 237 286 353 426
#     4  12  24  44  71 104 140 189 237 297 349 418
#     4  11  25  44  68 105 141 186 244 285 356 421
#
# _framework density 24.257175
#
# number of rings (size 3 to 8) (size 9 to 14) (size 15 to 20)
#    0.000    1.143    2.857    1.714    8.000    1.143 
#   10.286    0.000    0.000    0.000    0.000    0.000 
#    0.000    0.000    0.000    0.000    0.000    0.000 
#
# Total GULP energy -173482.154738 kJ/mol
# GULP energy per Si atom -12391.582481 kJ/mol
# Density = 2.420196 g / cm^3
# Si number density = 24.257175 Si / 1000 Ang^3
#
#
#
# Elastic Constant Matrix: (Units=GPa)
#
#
# Indices 1 2 3 4 5 6 
#
# 1 55.0794 0.2742 29.1812 0.0000 6.6826 0.0000
# 2 0.2742 76.0316 16.6448 0.0000 5.3440 0.0000
# 3 29.1812 16.6448 153.6856 0.0000 -2.8544 0.0000
# 4 0.0000 0.0000 0.0000 34.8804 0.0000 -2.3028
# 5 6.6826 5.3440 -2.8544 0.0000 28.0384 0.0000
# 6 0.0000 0.0000 0.0000 -2.3028 0.0000 15.5093
#
#
#
# Elastic Compliance Matrix: (Units=1/GPa)
#
#
# Indices 1 2 3 4 5 6 
#
# 1 0.021090 0.001254 -0.004246 0.000000 -0.005698 0.000000
# 2 0.001254 0.013757 -0.001786 0.000000 -0.003103 0.000000
# 3 -0.004246 -0.001786 0.007546 0.000000 0.002121 0.000000
# 4 0.000000 0.000000 0.000000 0.028953 0.000000 0.004299
# 5 -0.005698 -0.003103 0.002121 0.000000 0.037831 0.000000
# 6 0.000000 0.000000 0.000000 0.004299 0.000000 0.065116
#
#
# Mechanical properties :
#
#
# Convention : Reuss Voigt Hill
#
# Bulk Modulus (GPa) = 30.45314 41.88854 36.17084
# Shear Modulus (GPa) = 25.66816 31.59874 28.63345
#
# Velocity S-wave (km/s) = 3.25648 3.61315 3.43944
# Velocity P-wave (km/s) = 5.16924 5.89173 5.54227
#
# Compressibility (1/GPa) = 0.03283734
#
# Stress axis : x y z
#
# Youngs Moduli (GPa) = 47.41519 72.69082 132.52376
#
# Poissons Ratio (x) = -0.09115 0.56272
# Poissons Ratio (y) = -0.05946 0.23664
# Poissons Ratio (z) = 0.20133 0.12980
#
# Static dielectric constant tensor:
#      x y z
#    x 4.609650 0.000000 -0.581680 
#    y 0.000000 4.317660 0.000000 
#    z -0.581680 0.000000 5.210790 
# 
# 
# High freq. dielectric constant tensor:
#      x y z
#    x 1.951020 0.000000 -0.009220 
#    y 0.000000 1.955330 0.000000 
#    z -0.009220 0.000000 1.990810 
# 
# From -- ./inp_files/7096.got.cif
#   From: 2010.03.12/outbox.cif.g09.slc.cpg/sg4_4_cif.got.tgz:7096.got - 2010.03.31 09:31:35.
