data_PCOD8046132
_publ_section_title
;
Structure prediction by ZEFSAII (Michael W. Deem and Ramdas Pophale) SiO2 
 PCOD8046132
Probable space group: P 21
;
_chemical_formula_sum "Si O2"
_cell_formula_units_Z 12
_cell_length_a 8.254638
_cell_length_b 5.124491
_cell_length_c 16.213489
_cell_angle_alpha 90.000000
_cell_angle_beta 44.807906
_cell_angle_gamma 90.000000
_cell_volume 483.336186
_symmetry_space_group_name_H-M "P 21"
_symmetry_group_IT_number 4
_symmetry_cell_setting 'monoclinic'
loop_
_space_group_symop_operation_xyz
x,y,z
-x,1/2+y,-z
loop_
_atom_site_type_symbol
_atom_site_label
_atom_site_fract_x
_atom_site_fract_y
_atom_site_fract_z
Si Si1 0.131747 0.677590 0.986012
Si Si2 0.473700 0.298617 0.412124
Si Si3 0.350948 0.162365 0.186951
Si Si4 0.677252 0.795543 0.355392
Si Si5 0.818132 0.190587 0.837710
Si Si6 0.997115 0.521142 0.543759
O O1 0.398934 0.703161 0.862246
O O2 0.139575 0.644397 0.081585
O O3 0.011512 0.432203 0.986636
O O4 0.621229 0.538970 0.322155
O O5 0.494322 0.290850 0.504016
O O6 0.208781 0.318043 0.483850
O O7 0.606478 0.047908 0.327112
O O8 0.264379 0.428288 0.176790
O O9 0.178047 0.068751 0.319733
O O10 0.361410 0.928503 0.114669
O O11 0.942144 0.793721 0.287763
O O12 0.886271 0.303020 0.521445
#
# Coordination Sequence:
#
# PCOD8046132 Si02
#       6
#     2   2   2   2   2   2
#     4  12  28  50  75 109 146 181 236 306 378 426
#     4  10  21  38  58  97 137 175 224 278 336 402
#     4  12  26  48  76 105 142 192 246 295 349 436
#     4  10  21  36  67  94 130 175 226 286 330 399
#     4  12  24  46  79 106 138 191 245 294 352 431
#     4  12  26  42  67 101 145 192 233 287 355 426
#
# _framework density 24.827437
#
# number of rings (size 3 to 8) (size 9 to 14) (size 15 to 20)
#    0.000    0.667    1.667    6.000    4.667    4.000 
#    0.000    0.000    0.000    0.000    0.000    0.000 
#    0.000    0.000    0.000    0.000    0.000    0.000 
#
# Total GULP energy -148683.426720 kJ/mol
# GULP energy per Si atom -12390.285560 kJ/mol
# Density = 2.477093 g / cm^3
# Si number density = 24.827437 Si / 1000 Ang^3
#
#
#
# Elastic Constant Matrix: (Units=GPa)
#
#
# Indices 1 2 3 4 5 6 
#
# 1 119.0540 68.2934 51.9704 0.0000 -28.4785 0.0000
# 2 68.2934 233.3319 53.5112 0.0000 -23.0641 0.0000
# 3 51.9704 53.5112 73.1716 0.0000 -17.7048 0.0000
# 4 0.0000 0.0000 0.0000 23.0893 0.0000 -7.4990
# 5 -28.4785 -23.0641 -17.7048 0.0000 43.9289 0.0000
# 6 0.0000 0.0000 0.0000 -7.4990 0.0000 60.8636
#
#
#
# Elastic Compliance Matrix: (Units=1/GPa)
#
#
# Indices 1 2 3 4 5 6 
#
# 1 0.013856 -0.001897 -0.007226 0.000000 0.005074 0.000000
# 2 -0.001897 0.005478 -0.002505 0.000000 0.000637 0.000000
# 3 -0.007226 -0.002505 0.021252 0.000000 0.002565 0.000000
# 4 0.000000 0.000000 0.000000 0.045116 0.000000 0.005559
# 5 0.005074 0.000637 0.002565 0.000000 0.027422 0.000000
# 6 0.000000 0.000000 0.000000 0.005559 0.000000 0.017115
#
#
# Mechanical properties :
#
#
# Convention : Reuss Voigt Hill
#
# Bulk Modulus (GPa) = 57.70433 85.90085 71.80259
# Shear Modulus (GPa) = 31.39298 42.36184 36.87741
#
# Velocity S-wave (km/s) = 3.55976 4.13516 3.85820
# Velocity P-wave (km/s) = 6.33944 7.58114 6.98792
#
# Compressibility (1/GPa) = 0.01732972
#
# Stress axis : x y z
#
# Youngs Moduli (GPa) = 72.17191 182.53677 47.05495
#
# Poissons Ratio (x) = 0.34620 0.34003
# Poissons Ratio (y) = 0.13688 0.11788
# Poissons Ratio (z) = 0.52154 0.45728
#
# Static dielectric constant tensor:
#      x y z
#    x 4.578610 0.000000 -0.238610 
#    y 0.000000 5.260660 0.000000 
#    z -0.238610 0.000000 4.330250 
# 
# 
# High freq. dielectric constant tensor:
#      x y z
#    x 1.991750 0.000000 -0.018460 
#    y 0.000000 2.023080 0.000000 
#    z -0.018460 0.000000 1.971850 
# 
# From -- ./inp_files/14815.got.cif
#   From: 2010.03.12/outbox.cif.g09.slc.cpg/sg4_8_cif.got.tgz:14815.got - 2010.03.31 09:31:35.
