data_PCOD8046435
_publ_section_title
;
Structure prediction by ZEFSAII (Michael W. Deem and Ramdas Pophale) SiO2 
 PCOD8046435
Probable space group: P 21
;
_chemical_formula_sum "Si O2"
_cell_formula_units_Z 14
_cell_length_a 9.650293
_cell_length_b 11.553000
_cell_length_c 8.940300
_cell_angle_alpha 90.000000
_cell_angle_beta 135.342253
_cell_angle_gamma 90.000000
_cell_volume 700.587809
_symmetry_space_group_name_H-M "P 21"
_symmetry_group_IT_number 4
_symmetry_cell_setting 'monoclinic'
loop_
_space_group_symop_operation_xyz
x,y,z
-x,1/2+y,-z
loop_
_atom_site_type_symbol
_atom_site_label
_atom_site_fract_x
_atom_site_fract_y
_atom_site_fract_z
Si Si1 0.670964 0.959320 0.731741
Si Si2 0.107994 0.970520 0.161957
Si Si3 0.702036 0.815104 0.256508
Si Si4 0.872085 0.374501 0.513917
Si Si5 0.482695 0.250232 0.194572
Si Si6 0.686025 0.595516 0.440107
Si Si7 0.519557 0.485402 0.723213
O O1 0.613867 0.835615 0.758017
O O2 0.633406 0.956063 0.526379
O O3 0.541221 0.059373 0.709441
O O4 0.896820 0.993543 0.929052
O O5 0.096055 0.870326 0.280427
O O6 0.263673 0.935215 0.152413
O O7 0.194982 0.086954 0.310044
O O8 0.692825 0.723153 0.382611
O O9 0.561024 0.922642 0.189850
O O10 0.926349 0.856512 0.418499
O O11 0.631977 0.759631 0.049060
O O12 0.714310 0.276814 0.347600
O O13 0.785930 0.501733 0.403367
O O14 0.462676 0.121069 0.236638
#
# Coordination Sequence:
#
# PCOD8046435 Si02
#       7
#     2   2   2   2   2   2   2
#     4  10  21  45  67  90 131 175 214 272 327 382
#     4   9  20  44  67  92 128 169 218 262 329 386
#     4  12  25  41  68  97 137 169 217 276 331 381
#     4   9  22  41  67  91 129 174 213 265 333 386
#     4  11  24  43  67  91 138 170 212 276 327 387
#     4   8  21  39  65  91 127 168 218 260 318 387
#     4  11  27  39  67 104 126 165 234 263 323 397
#
# _framework density 19.983218000000001
#
# number of rings (size 3 to 8) (size 9 to 14) (size 15 to 20)
#    0.857    1.143    2.857    0.000   10.000    3.429 
#    2.571    0.000    0.000    0.000    0.000    0.000 
#    0.000    0.000    0.000    0.000    0.000    0.000 
#
# Total GULP energy -173537.708968 kJ/mol
# GULP energy per Si atom -12395.550641 kJ/mol
# Density = 1.993774 g / cm^3
# Si number density = 19.983218 Si / 1000 Ang^3
#
#
#
# Elastic Constant Matrix: (Units=GPa)
#
#
# Indices 1 2 3 4 5 6 
#
# 1 92.7524 38.3419 34.1035 0.0000 24.9989 0.0000
# 2 38.3419 82.5097 21.2440 0.0000 3.1618 0.0000
# 3 34.1035 21.2440 114.7473 0.0000 25.2710 0.0000
# 4 0.0000 0.0000 0.0000 19.9137 0.0000 -7.9210
# 5 24.9989 3.1618 25.2710 0.0000 41.9765 0.0000
# 6 0.0000 0.0000 0.0000 -7.9210 0.0000 27.1472
#
#
#
# Elastic Compliance Matrix: (Units=1/GPa)
#
#
# Indices 1 2 3 4 5 6 
#
# 1 0.016515 -0.006890 -0.001823 0.000000 -0.008219 0.000000
# 2 -0.006890 0.015611 -0.001714 0.000000 0.003960 0.000000
# 3 -0.001823 -0.001714 0.010729 0.000000 -0.005245 0.000000
# 4 0.000000 0.000000 0.000000 0.056810 0.000000 0.016576
# 5 -0.008219 0.003960 -0.005245 0.000000 0.031577 0.000000
# 6 0.000000 0.000000 0.000000 0.016576 0.000000 0.041673
#
#
# Mechanical properties :
#
#
# Convention : Reuss Voigt Hill
#
# Bulk Modulus (GPa) = 45.45310 53.04312 49.24811
# Shear Modulus (GPa) = 24.86287 30.89550 27.87919
#
# Velocity S-wave (km/s) = 3.53113 3.93628 3.73920
# Velocity P-wave (km/s) = 6.27855 6.87463 6.58334
#
# Compressibility (1/GPa) = 0.02200070
#
# Stress axis : x y z
#
# Youngs Moduli (GPa) = 60.55071 64.05590 93.20608
#
# Poissons Ratio (x) = 0.44136 0.16988
# Poissons Ratio (y) = 0.41721 0.15980
# Poissons Ratio (z) = 0.11036 0.10982
#
# Static dielectric constant tensor:
#      x y z
#    x 3.587410 0.000000 0.078680 
#    y 0.000000 3.361810 0.000000 
#    z 0.078680 0.000000 3.575260 
# 
# 
# High freq. dielectric constant tensor:
#      x y z
#    x 1.783640 0.000000 0.009290 
#    y 0.000000 1.760260 0.000000 
#    z 0.009290 0.000000 1.777360 
# 
# From -- ./inp_files/6448.got.cif
#   From: 2010.03.12/outbox.cif.g09.slc.cpg/sg4_4_cif.got.tgz:6448.got - 2010.03.31 09:31:35.
