data_PCOD8046997
_publ_section_title
;
Structure prediction by ZEFSAII (Michael W. Deem and Ramdas Pophale) SiO2 
 PCOD8046997
Probable space group: P 21
;
_chemical_formula_sum "Si O2"
_cell_formula_units_Z 12
_cell_length_a 10.144630
_cell_length_b 11.029050
_cell_length_c 5.250745
_cell_angle_alpha 90.000000
_cell_angle_beta 58.827849
_cell_angle_gamma 90.000000
_cell_volume 502.659757
_symmetry_space_group_name_H-M "P 21"
_symmetry_group_IT_number 4
_symmetry_cell_setting 'monoclinic'
loop_
_space_group_symop_operation_xyz
x,y,z
-x,1/2+y,-z
loop_
_atom_site_type_symbol
_atom_site_label
_atom_site_fract_x
_atom_site_fract_y
_atom_site_fract_z
Si Si1 0.235519 0.299310 0.821142
Si Si2 0.477886 0.202591 0.928746
Si Si3 0.386042 0.529258 0.590777
Si Si4 0.701890 0.555448 0.519941
Si Si5 0.751655 0.221618 0.955339
Si Si6 0.105223 0.823731 0.675415
O O1 0.374641 0.299903 0.886700
O O2 0.292566 0.410813 0.583425
O O3 0.220483 0.172151 0.692244
O O4 0.077211 0.329570 0.117156
O O5 0.606876 0.136605 0.624314
O O6 0.579784 0.272069 0.043493
O O7 0.363652 0.099472 0.145730
O O8 0.562874 0.499905 0.492227
O O9 0.283874 0.581976 0.930478
O O10 0.832236 0.457592 0.451284
O O11 0.862392 0.235209 0.597633
O O12 0.820686 0.290061 0.127978
#
# Coordination Sequence:
#
# PCOD8046997 Si02
#       6
#     2   2   2   2   2   2
#     4  11  27  46  72 112 149 192 246 301 369 441
#     4  10  23  47  76 106 140 191 255 292 358 431
#     4  10  23  46  75 108 142 195 247 303 353 439
#     4  10  26  44  73 108 149 192 247 300 366 433
#     4  11  25  49  74 103 142 197 242 297 364 429
#     4  12  28  46  74 107 154 189 237 307 372 431
#
# _framework density 23.873004999999999
#
# number of rings (size 3 to 8) (size 9 to 14) (size 15 to 20)
#    0.000    1.333    1.667    1.000   14.000    2.667 
#    0.000    0.000    0.000    0.000    0.000    0.000 
#    0.000    0.000    0.000    0.000    0.000    0.000 
#
# Total GULP energy -148700.673228 kJ/mol
# GULP energy per Si atom -12391.722769 kJ/mol
# Density = 2.381867 g / cm^3
# Si number density = 23.873005 Si / 1000 Ang^3
#
#
#
# Elastic Constant Matrix: (Units=GPa)
#
#
# Indices 1 2 3 4 5 6 
#
# 1 73.7180 38.4040 54.4533 0.0000 -0.9514 0.0000
# 2 38.4040 78.5000 45.0839 0.0000 -26.8362 0.0000
# 3 54.4533 45.0839 143.0345 0.0000 -18.4269 0.0000
# 4 0.0000 0.0000 0.0000 41.0650 0.0000 -11.1229
# 5 -0.9514 -26.8362 -18.4269 0.0000 45.4801 0.0000
# 6 0.0000 0.0000 0.0000 -11.1229 0.0000 26.1854
#
#
#
# Elastic Compliance Matrix: (Units=1/GPa)
#
#
# Indices 1 2 3 4 5 6 
#
# 1 0.024215 -0.010845 -0.006921 0.000000 -0.008697 0.000000
# 2 -0.010845 0.023365 -0.001571 0.000000 0.012923 0.000000
# 3 -0.006921 -0.001571 0.010533 0.000000 0.003196 0.000000
# 4 0.000000 0.000000 0.000000 0.027518 0.000000 0.011689
# 5 -0.008697 0.012923 0.003196 0.000000 0.030726 0.000000
# 6 0.000000 0.000000 0.000000 0.011689 0.000000 0.043154
#
#
# Mechanical properties :
#
#
# Convention : Reuss Voigt Hill
#
# Bulk Modulus (GPa) = 51.44191 63.45945 57.45068
# Shear Modulus (GPa) = 24.43039 33.03351 28.73195
#
# Velocity S-wave (km/s) = 3.20245 3.72387 3.47296
# Velocity P-wave (km/s) = 5.93879 6.71784 6.34029
#
# Compressibility (1/GPa) = 0.01943940
#
# Stress axis : x y z
#
# Youngs Moduli (GPa) = 41.29710 42.79986 94.94057
#
# Poissons Ratio (x) = 0.46416 0.65706
# Poissons Ratio (y) = 0.44786 0.14914
# Poissons Ratio (z) = 0.28581 0.06723
#
# Static dielectric constant tensor:
#      x y z
#    x 4.211210 0.000000 0.029920 
#    y 0.000000 4.038030 0.000000 
#    z 0.029920 0.000000 4.452680 
# 
# 
# High freq. dielectric constant tensor:
#      x y z
#    x 1.938430 0.000000 -0.002400 
#    y 0.000000 1.935310 0.000000 
#    z -0.002400 0.000000 1.953520 
# 
# From -- ./inp_files/1167.got.cif
#   From: 2010.03.12/outbox.cif.g09.slc.cpg/sg4_1_cif.got.tgz:1167.got - 2010.03.31 09:31:35.
