data_PCOD8046069
_publ_section_title
;
Structure prediction by ZEFSAII (Michael W. Deem and Ramdas Pophale) SiO2 
 PCOD8046069
Probable space group: P 21
;
_chemical_formula_sum "Si O2"
_cell_formula_units_Z 16
_cell_length_a 11.579435
_cell_length_b 8.988685
_cell_length_c 11.710398
_cell_angle_alpha 90.000000
_cell_angle_beta 141.466288
_cell_angle_gamma 90.000000
_cell_volume 759.321694
_symmetry_space_group_name_H-M "P 21"
_symmetry_group_IT_number 4
_symmetry_cell_setting 'monoclinic'
loop_
_space_group_symop_operation_xyz
x,y,z
-x,1/2+y,-z
loop_
_atom_site_type_symbol
_atom_site_label
_atom_site_fract_x
_atom_site_fract_y
_atom_site_fract_z
Si Si1 0.211428 0.583910 0.230135
Si Si2 0.408512 0.588550 0.153660
Si Si3 0.382363 0.928706 0.134741
Si Si4 0.773938 0.403940 0.403686
Si Si5 0.983909 0.074415 0.243306
Si Si6 0.081371 0.896421 0.728873
Si Si7 0.732379 0.090138 0.471186
Si Si8 0.112843 0.916644 0.123872
O O1 0.373982 0.572831 0.262441
O O2 0.304246 0.556259 0.424122
O O3 0.103071 0.741576 0.144785
O O4 0.061994 0.454667 0.091692
O O5 0.442785 0.760759 0.152166
O O6 0.585976 0.497746 0.252066
O O7 0.229245 0.528176 0.945481
O O8 0.300322 0.946952 0.198574
O O9 0.562737 0.030867 0.264154
O O10 0.232230 0.980409 0.924564
O O11 0.824599 0.347453 0.316925
O O12 0.746227 0.265379 0.465101
O O13 0.942306 0.502266 0.583303
O O14 0.997500 0.252809 0.264916
O O15 0.110870 0.019135 0.235746
O O16 0.920050 0.011920 0.575620
#
# Coordination Sequence:
#
# PCOD8046069 Si02
#       8
#     2   2   2   2   2   2   2   2
#     4  10  21  39  66 100 136 165 216 268 334 396
#     4   9  23  42  64  96 127 176 213 266 336 385
#     4  10  23  42  65  96 130 171 216 270 329 391
#     4  12  25  42  66  96 133 174 227 270 327 395
#     4  10  22  44  68  93 130 176 221 272 330 389
#     4  11  25  46  65  92 134 182 220 270 330 393
#     4  12  25  40  65 104 129 168 228 273 325 392
#     4  10  20  41  67  97 135 168 211 271 333 391
#
# _framework density 21.071438000000001
#
# number of rings (size 3 to 8) (size 9 to 14) (size 15 to 20)
#    0.000    1.500    2.500    2.250    1.750    6.000 
#    0.000    0.000    0.000    0.000    0.000    0.000 
#    0.000    0.000    0.000    0.000    0.000    0.000 
#
# Total GULP energy -198457.230669 kJ/mol
# GULP energy per Si atom -12403.576917 kJ/mol
# Density = 2.102348 g / cm^3
# Si number density = 21.071438 Si / 1000 Ang^3
#
#
#
# Elastic Constant Matrix: (Units=GPa)
#
#
# Indices 1 2 3 4 5 6 
#
# 1 80.2669 27.2246 39.2093 0.0000 -2.6793 0.0000
# 2 27.2246 77.0143 40.8011 0.0000 12.0266 0.0000
# 3 39.2093 40.8011 121.0569 0.0000 6.8487 0.0000
# 4 0.0000 0.0000 0.0000 34.3901 0.0000 -0.5537
# 5 -2.6793 12.0266 6.8487 0.0000 29.4276 0.0000
# 6 0.0000 0.0000 0.0000 -0.5537 0.0000 28.0108
#
#
#
# Elastic Compliance Matrix: (Units=1/GPa)
#
#
# Indices 1 2 3 4 5 6 
#
# 1 0.015959 -0.004161 -0.003997 0.000000 0.004084 0.000000
# 2 -0.004161 0.017749 -0.004259 0.000000 -0.006642 0.000000
# 3 -0.003997 -0.004259 0.011058 0.000000 -0.001197 0.000000
# 4 0.000000 0.000000 0.000000 0.029087 0.000000 0.000575
# 5 0.004084 -0.006642 -0.001197 0.000000 0.037346 0.000000
# 6 0.000000 0.000000 0.000000 0.000575 0.000000 0.035712
#
#
# Mechanical properties :
#
#
# Convention : Reuss Voigt Hill
#
# Bulk Modulus (GPa) = 50.17218 54.75645 52.46432
# Shear Modulus (GPa) = 28.02837 29.77255 28.90046
#
# Velocity S-wave (km/s) = 3.65109 3.76298 3.70746
# Velocity P-wave (km/s) = 6.45261 6.70243 6.57870
#
# Compressibility (1/GPa) = 0.01993136
#
# Stress axis : x y z
#
# Youngs Moduli (GPa) = 62.66082 56.34137 90.42957
#
# Poissons Ratio (x) = 0.23446 0.36148
# Poissons Ratio (y) = 0.26076 0.38510
# Poissons Ratio (z) = 0.25048 0.23993
#
# Static dielectric constant tensor:
#      x y z
#    x 3.641490 0.000000 -0.113610 
#    y 0.000000 3.686360 0.000000 
#    z -0.113610 0.000000 3.846850 
# 
# 
# High freq. dielectric constant tensor:
#      x y z
#    x 1.818220 0.000000 -0.007720 
#    y 0.000000 1.821700 0.000000 
#    z -0.007720 0.000000 1.830870 
# 
# From -- ./inp_files/11908.got.cif
#   From: 2010.03.12/outbox.cif.g09.slc.cpg/sg4_6_cif.got.tgz:11908.got - 2010.03.31 09:31:35.
