data_PCOD8046607
_publ_section_title
;
Structure prediction by ZEFSAII (Michael W. Deem and Ramdas Pophale) SiO2 
 PCOD8046607
Probable space group: P 21
;
_chemical_formula_sum "Si O2"
_cell_formula_units_Z 16
_cell_length_a 9.106545
_cell_length_b 6.291172
_cell_length_c 16.331750
_cell_angle_alpha 90.000000
_cell_angle_beta 125.795275
_cell_angle_gamma 90.000000
_cell_volume 758.924856
_symmetry_space_group_name_H-M "P 21"
_symmetry_group_IT_number 4
_symmetry_cell_setting 'monoclinic'
loop_
_space_group_symop_operation_xyz
x,y,z
-x,1/2+y,-z
loop_
_atom_site_type_symbol
_atom_site_label
_atom_site_fract_x
_atom_site_fract_y
_atom_site_fract_z
Si Si1 0.768634 0.876540 0.745120
Si Si2 0.814425 0.331768 0.336990
Si Si3 0.621366 0.580881 0.404509
Si Si4 0.575266 0.936904 0.266285
Si Si5 0.126328 0.079850 0.371968
Si Si6 0.187642 0.044989 0.106510
Si Si7 0.948146 0.702807 0.104430
Si Si8 0.149482 0.222464 0.758295
O O1 0.839127 0.711988 0.699499
O O2 0.780717 0.767279 0.837849
O O3 0.564732 0.950818 0.661708
O O4 0.896786 0.079747 0.793414
O O5 0.788160 0.477854 0.407747
O O6 0.847725 0.475120 0.266926
O O7 0.993882 0.189136 0.395976
O O8 0.635734 0.182467 0.281622
O O9 0.601094 0.823168 0.363706
O O10 0.680825 0.567630 0.518759
O O11 0.366693 0.905278 0.174867
O O12 0.679668 0.819041 0.229807
O O13 0.039206 0.848735 0.323630
O O14 0.019693 0.922047 0.091051
O O15 0.147721 0.069401 0.997551
O O16 0.805625 0.748730 0.130456
#
# Coordination Sequence:
#
# PCOD8046607 Si02
#       8
#     2   2   2   2   2   2   2   2
#     4  12  24  44  64  96 134 170 216 278 328 388
#     4  10  22  42  66  90 138 172 218 268 328 386
#     4  11  25  40  66  97 132 178 219 264 330 396
#     4  10  23  44  64  96 134 168 217 277 325 394
#     4  11  25  40  66  97 132 178 219 264 330 396
#     4  12  24  44  69  93 125 173 221 272 338 397
#     4  12  24  44  69  93 125 173 221 272 338 397
#     4  10  23  44  64  96 134 168 217 277 325 394
#
# _framework density 21.082456000000001
#
# number of rings (size 3 to 8) (size 9 to 14) (size 15 to 20)
#    0.000    1.000    6.250    0.000    5.250    2.000 
#    2.250    0.000    0.000    0.000    0.000    0.000 
#    0.000    0.000    0.000    0.000    0.000    0.000 
#
# Total GULP energy -198296.394160 kJ/mol
# GULP energy per Si atom -12393.524635 kJ/mol
# Density = 2.103447 g / cm^3
# Si number density = 21.082456 Si / 1000 Ang^3
#
#
#
# Elastic Constant Matrix: (Units=GPa)
#
#
# Indices 1 2 3 4 5 6 
#
# 1 57.1471 14.3433 18.9917 0.0000 -6.8540 0.0000
# 2 14.3433 95.1531 23.7643 0.0000 -2.9429 0.0000
# 3 18.9917 23.7643 96.3164 0.0000 -12.9117 0.0000
# 4 0.0000 0.0000 0.0000 30.7690 0.0000 0.2859
# 5 -6.8540 -2.9429 -12.9117 0.0000 27.5196 0.0000
# 6 0.0000 0.0000 0.0000 0.2859 0.0000 39.5560
#
#
#
# Elastic Compliance Matrix: (Units=1/GPa)
#
#
# Indices 1 2 3 4 5 6 
#
# 1 0.019369 -0.002104 -0.002864 0.000000 0.003255 0.000000
# 2 -0.002104 0.011428 -0.002466 0.000000 -0.000459 0.000000
# 3 -0.002864 -0.002466 0.012191 0.000000 0.004743 0.000000
# 4 0.000000 0.000000 0.000000 0.032502 0.000000 -0.000235
# 5 0.003255 -0.000459 0.004743 0.000000 0.039325 0.000000
# 6 0.000000 0.000000 0.000000 -0.000235 0.000000 0.025282
#
#
# Mechanical properties :
#
#
# Convention : Reuss Voigt Hill
#
# Bulk Modulus (GPa) = 35.56079 40.31279 37.93679
# Shear Modulus (GPa) = 30.42480 32.33673 31.38077
#
# Velocity S-wave (km/s) = 3.80298 3.92065 3.86227
# Velocity P-wave (km/s) = 6.01562 6.29749 6.15817
#
# Compressibility (1/GPa) = 0.02812086
#
# Stress axis : x y z
#
# Youngs Moduli (GPa) = 51.62930 87.50216 82.02448
#
# Poissons Ratio (x) = 0.18408 0.23489
# Poissons Ratio (y) = 0.10862 0.20231
# Poissons Ratio (z) = 0.14785 0.21582
#
# Static dielectric constant tensor:
#      x y z
#    x 3.955040 0.000000 -0.115770 
#    y 0.000000 4.192870 0.000000 
#    z -0.115770 0.000000 3.653250 
# 
# 
# High freq. dielectric constant tensor:
#      x y z
#    x 1.837390 0.000000 -0.011880 
#    y 0.000000 1.834610 0.000000 
#    z -0.011880 0.000000 1.809100 
# 
# From -- ./inp_files/13549.got.cif
#   From: 2010.03.12/outbox.cif.g09.slc.cpg/sg4_7_cif.got.tgz:13549.got - 2010.03.31 09:31:35.
