data_PCOD8046789
_publ_section_title
;
Structure prediction by ZEFSAII (Michael W. Deem and Ramdas Pophale) SiO2 
 PCOD8046789
Probable space group: P 21
;
_chemical_formula_sum "Si O2"
_cell_formula_units_Z 14
_cell_length_a 11.064901
_cell_length_b 7.401896
_cell_length_c 9.860639
_cell_angle_alpha 90.000000
_cell_angle_beta 130.012363
_cell_angle_gamma 90.000000
_cell_volume 618.544413
_symmetry_space_group_name_H-M "P 21"
_symmetry_group_IT_number 4
_symmetry_cell_setting 'monoclinic'
loop_
_space_group_symop_operation_xyz
x,y,z
-x,1/2+y,-z
loop_
_atom_site_type_symbol
_atom_site_label
_atom_site_fract_x
_atom_site_fract_y
_atom_site_fract_z
Si Si1 0.990565 0.771230 0.673641
Si Si2 0.533711 0.734166 0.688117
Si Si3 0.691452 0.935944 0.377597
Si Si4 0.951385 0.890179 0.364998
Si Si5 0.862266 0.165825 0.964495
Si Si6 0.863615 0.752937 0.037177
Si Si7 0.481796 0.652472 0.347618
O O1 0.056117 0.823781 0.569978
O O2 0.956798 0.555424 0.639583
O O3 0.827923 0.879293 0.585789
O O4 0.107493 0.803701 0.885535
O O5 0.383397 0.627667 0.638279
O O6 0.691441 0.669593 0.881596
O O7 0.560534 0.687401 0.549974
O O8 0.498831 0.945450 0.682046
O O9 0.774179 0.946089 0.289465
O O10 0.561798 0.776799 0.290441
O O11 0.924067 0.726055 0.236866
O O12 0.700498 0.217965 0.773695
O O13 0.845274 0.966430 0.009074
O O14 0.009186 0.167008 0.970059
#
# Coordination Sequence:
#
# PCOD8046789 Si02
#       7
#     2   2   2   2   2   2   2
#     4   9  21  43  66  95 133 174 227 275 335 409
#     4  11  23  42  66  99 142 175 225 280 343 395
#     4  10  23  43  68  95 138 179 224 277 346 402
#     4   9  22  44  65  98 133 177 228 273 345 405
#     4  10  23  38  69  98 133 172 232 277 336 403
#     4  10  23  43  65 100 132 177 223 282 339 406
#     4  11  23  41  67 105 137 180 225 284 338 406
#
# _framework density 22.633783000000001
#
# number of rings (size 3 to 8) (size 9 to 14) (size 15 to 20)
#    0.857    1.143    1.429    0.857    4.000    5.714 
#    7.714    0.000    0.000    0.000    0.000    0.000 
#    0.000    0.000    0.000    0.000    0.000    0.000 
#
# Total GULP energy -173482.182713 kJ/mol
# GULP energy per Si atom -12391.584480 kJ/mol
# Density = 2.258227 g / cm^3
# Si number density = 22.633783 Si / 1000 Ang^3
#
#
#
# Elastic Constant Matrix: (Units=GPa)
#
#
# Indices 1 2 3 4 5 6 
#
# 1 77.5517 25.8397 37.2621 0.0000 -0.1896 0.0000
# 2 25.8397 70.6887 31.3189 0.0000 11.5154 0.0000
# 3 37.2621 31.3189 122.4299 0.0000 -2.8861 0.0000
# 4 0.0000 0.0000 0.0000 25.2627 0.0000 4.6212
# 5 -0.1896 11.5154 -2.8861 0.0000 35.4926 0.0000
# 6 0.0000 0.0000 0.0000 4.6212 0.0000 45.3885
#
#
#
# Elastic Compliance Matrix: (Units=1/GPa)
#
#
# Indices 1 2 3 4 5 6 
#
# 1 0.016187 -0.004451 -0.003759 0.000000 0.001225 0.000000
# 2 -0.004451 0.018336 -0.003483 0.000000 -0.006256 0.000000
# 3 -0.003759 -0.003483 0.010249 0.000000 0.001943 0.000000
# 4 0.000000 0.000000 0.000000 0.040335 0.000000 -0.004107
# 5 0.001225 -0.006256 0.001943 0.000000 0.030369 0.000000
# 6 0.000000 0.000000 0.000000 -0.004107 0.000000 0.022450
#
#
# Mechanical properties :
#
#
# Convention : Reuss Voigt Hill
#
# Bulk Modulus (GPa) = 46.76194 51.05685 48.90939
# Shear Modulus (GPa) = 29.68391 32.97875 31.33133
#
# Velocity S-wave (km/s) = 3.62537 3.82128 3.72462
# Velocity P-wave (km/s) = 6.18300 6.48663 6.33664
#
# Compressibility (1/GPa) = 0.02138491
#
# Stress axis : x y z
#
# Youngs Moduli (GPa) = 61.77871 54.53745 97.57145
#
# Poissons Ratio (x) = 0.24275 0.36677
# Poissons Ratio (y) = 0.27498 0.33987
# Poissons Ratio (z) = 0.23223 0.18997
#
# Static dielectric constant tensor:
#      x y z
#    x 3.828070 0.000000 0.079250 
#    y 0.000000 3.966790 0.000000 
#    z 0.079250 0.000000 4.426820 
# 
# 
# High freq. dielectric constant tensor:
#      x y z
#    x 1.873800 0.000000 -0.000310 
#    y 0.000000 1.894420 0.000000 
#    z -0.000310 0.000000 1.890030 
# 
# From -- ./inp_files/8044.got.cif
#   From: 2010.03.12/outbox.cif.g09.slc.cpg/sg4_5_cif.got.tgz:8044.got - 2010.03.31 09:31:35.
