data_PCOD8046024
_publ_section_title
;
Structure prediction by ZEFSAII (Michael W. Deem and Ramdas Pophale) SiO2 
 PCOD8046024
Probable space group: P 21
;
_chemical_formula_sum "Si O2"
_cell_formula_units_Z 8
_cell_length_a 11.034399
_cell_length_b 5.057113
_cell_length_c 16.812567
_cell_angle_alpha 90.000000
_cell_angle_beta 158.147886
_cell_angle_gamma 90.000000
_cell_volume 349.201394
_symmetry_space_group_name_H-M "P 21"
_symmetry_group_IT_number 4
_symmetry_cell_setting 'monoclinic'
loop_
_space_group_symop_operation_xyz
x,y,z
-x,1/2+y,-z
loop_
_atom_site_type_symbol
_atom_site_label
_atom_site_fract_x
_atom_site_fract_y
_atom_site_fract_z
Si Si1 0.711029 0.887540 0.440290
Si Si2 0.636381 0.874305 0.729698
Si Si3 0.239481 0.120281 0.039205
Si Si4 0.446720 0.871241 0.917523
O O1 0.631497 0.602504 0.426622
O O2 0.095861 0.916745 0.664328
O O3 0.564942 0.107248 0.413142
O O4 0.548927 0.938180 0.254205
O O5 0.822136 0.839541 0.928682
O O6 0.911656 0.942683 0.831997
O O7 0.300306 0.262975 0.993229
O O8 0.422260 0.654115 0.972677
#
# Coordination Sequence:
#
# PCOD8046024 Si02
#       4
#     2   2   2   2
#     4  10  22  41  69 100 130 177 237 271 339 392
#     4  10  20  39  74 103 120 170 243 294 315 384
#     4  10  23  41  76  99 133 169 242 280 337 391
#     4  12  29  43  63 104 151 182 214 281 357 413
#
# _framework density 22.909417000000001
#
# number of rings (size 3 to 8) (size 9 to 14) (size 15 to 20)
#    1.500    0.000    2.500    1.500    7.000    0.000 
#    0.000    5.000    0.000    0.000    0.000    0.000 
#    0.000    0.000    0.000    0.000    0.000    0.000 
#
# Total GULP energy -99173.597012 kJ/mol
# GULP energy per Si atom -12396.699626 kJ/mol
# Density = 2.285727 g / cm^3
# Si number density = 22.909417 Si / 1000 Ang^3
#
#
#
# Elastic Constant Matrix: (Units=GPa)
#
#
# Indices 1 2 3 4 5 6 
#
# 1 66.7279 -7.2364 8.8931 0.0000 18.2933 0.0000
# 2 -7.2364 105.7990 1.1958 0.0000 6.1880 0.0000
# 3 8.8931 1.1958 31.9041 0.0000 11.4014 0.0000
# 4 0.0000 0.0000 0.0000 39.4310 0.0000 4.3514
# 5 18.2933 6.1880 11.4014 0.0000 25.2943 0.0000
# 6 0.0000 0.0000 0.0000 4.3514 0.0000 39.2399
#
#
#
# Elastic Compliance Matrix: (Units=1/GPa)
#
#
# Indices 1 2 3 4 5 6 
#
# 1 0.019167 0.002147 -0.000336 0.000000 -0.014236 0.000000
# 2 0.002147 0.009838 0.000534 0.000000 -0.004201 0.000000
# 3 -0.000336 0.000534 0.037402 0.000000 -0.016747 0.000000
# 4 0.000000 0.000000 0.000000 0.025675 0.000000 -0.002847
# 5 -0.014236 -0.004201 -0.016747 0.000000 0.058406 0.000000
# 6 0.000000 0.000000 0.000000 -0.002847 0.000000 0.025800
#
#
# Mechanical properties :
#
#
# Convention : Reuss Voigt Hill
#
# Bulk Modulus (GPa) = 14.06508 23.34842 18.70675
# Shear Modulus (GPa) = 25.60203 34.23160 29.91682
#
# Velocity S-wave (km/s) = 3.34658 3.86970 3.61761
# Velocity P-wave (km/s) = 4.59190 5.49362 5.06288
#
# Compressibility (1/GPa) = 0.07109806
#
# Stress axis : x y z
#
# Youngs Moduli (GPa) = 52.17433 101.64241 26.73635
#
# Poissons Ratio (x) = -0.21826 0.00898
# Poissons Ratio (y) = -0.11204 -0.01427
# Poissons Ratio (z) = 0.01752 -0.05426
#
# Static dielectric constant tensor:
#      x y z
#    x 3.559000 0.000000 0.106140 
#    y 0.000000 4.245450 0.000000 
#    z 0.106140 0.000000 3.820010 
# 
# 
# High freq. dielectric constant tensor:
#      x y z
#    x 1.864780 0.000000 0.026330 
#    y 0.000000 1.919140 0.000000 
#    z 0.026330 0.000000 1.892450 
# 
# From -- ./inp_files/881.got.cif
#   From: 2010.03.12/outbox.cif.g09.slc.cpg/sg4_1_cif.got.tgz:881.got - 2010.03.31 09:31:35.
