data_PCOD8046855
_publ_section_title
;
Structure prediction by ZEFSAII (Michael W. Deem and Ramdas Pophale) SiO2 
 PCOD8046855
Probable space group: P 21
;
_chemical_formula_sum "Si O2"
_cell_formula_units_Z 16
_cell_length_a 9.379089
_cell_length_b 8.506717
_cell_length_c 8.943151
_cell_angle_alpha 90.000000
_cell_angle_beta 78.771212
_cell_angle_gamma 90.000000
_cell_volume 699.872769
_symmetry_space_group_name_H-M "P 21"
_symmetry_group_IT_number 4
_symmetry_cell_setting 'monoclinic'
loop_
_space_group_symop_operation_xyz
x,y,z
-x,1/2+y,-z
loop_
_atom_site_type_symbol
_atom_site_label
_atom_site_fract_x
_atom_site_fract_y
_atom_site_fract_z
Si Si1 0.675119 0.386350 0.367290
Si Si2 0.436711 0.040378 0.098903
Si Si3 0.563289 0.040378 0.401096
Si Si4 0.324881 0.386350 0.132710
Si Si5 0.062062 0.063841 0.580109
Si Si6 0.202342 0.883790 0.976405
Si Si7 0.797658 0.883790 0.523595
Si Si8 0.937938 0.063841 0.919891
O O1 0.618921 0.214899 0.419818
O O2 0.562235 0.514310 0.451555
O O3 0.831073 0.416381 0.412966
O O4 0.690564 0.406530 0.186345
O O5 0.500000 0.011701 0.250000
O O6 0.381079 0.214899 0.080182
O O7 0.562235 0.014311 0.951555
O O8 0.299653 0.922748 0.102101
O O9 0.700347 0.922748 0.397899
O O10 0.309436 0.406530 0.313655
O O11 0.168927 0.416381 0.087035
O O12 0.147944 0.204904 0.484115
O O13 0.000000 0.127252 0.750000
O O14 0.933660 0.002805 0.499713
O O15 0.147945 0.704904 0.984115
O O16 0.066340 0.002805 0.000287
#
# Coordination Sequence:
#
# PCOD8046855 Si02
#       8
#     2   2   2   2   2   2   2   2
#     4  11  24  44  65  95 132 169 217 267 320 381
#     4  12  25  41  66  96 132 174 215 263 321 382
#     4  12  25  41  66  96 132 174 215 263 321 382
#     4  11  24  44  65  95 132 169 217 267 320 381
#     4  10  23  42  69  99 128 168 215 269 324 379
#     4  11  24  45  68  96 132 169 216 267 321 384
#     4  11  24  45  68  96 132 169 216 267 321 384
#     4  10  23  42  69  99 128 168 215 269 324 379
#
# _framework density 22.861297
#
# number of rings (size 3 to 8) (size 9 to 14) (size 15 to 20)
#    0.000    1.000    0.000    6.750    0.000   10.000 
#    0.000    1.250    0.000    0.000    0.000    0.000 
#    0.000    0.000    0.000    0.000    0.000    0.000 
#
# Total GULP energy -198485.600516 kJ/mol
# GULP energy per Si atom -12405.350032 kJ/mol
# Density = 2.280926 g / cm^3
# Si number density = 22.861297 Si / 1000 Ang^3
#
#
#
# Elastic Constant Matrix: (Units=GPa)
#
#
# Indices 1 2 3 4 5 6 
#
# 1 150.5293 61.6596 82.4722 0.0000 6.2989 0.0000
# 2 61.6596 127.3617 65.9875 0.0000 -6.0251 0.0000
# 3 82.4722 65.9875 111.4249 0.0000 -0.9896 0.0000
# 4 0.0000 0.0000 0.0000 33.5153 0.0000 -14.5925
# 5 6.2989 -6.0251 -0.9896 0.0000 33.5203 0.0000
# 6 0.0000 0.0000 0.0000 -14.5925 0.0000 52.7572
#
#
#
# Elastic Compliance Matrix: (Units=1/GPa)
#
#
# Indices 1 2 3 4 5 6 
#
# 1 0.011657 -0.001862 -0.007550 0.000000 -0.002748 0.000000
# 2 -0.001862 0.011739 -0.005553 0.000000 0.002296 0.000000
# 3 -0.007550 -0.005553 0.017860 0.000000 0.000948 0.000000
# 4 0.000000 0.000000 0.000000 0.033922 0.000000 0.009383
# 5 -0.002748 0.002296 0.000948 0.000000 0.030790 0.000000
# 6 0.000000 0.000000 0.000000 0.009383 0.000000 0.021550
#
#
# Mechanical properties :
#
#
# Convention : Reuss Voigt Hill
#
# Bulk Modulus (GPa) = 88.29557 89.95050 89.12303
# Shear Modulus (GPa) = 31.01253 35.90502 33.45877
#
# Velocity S-wave (km/s) = 3.68714 3.96733 3.82979
# Velocity P-wave (km/s) = 7.53875 7.77289 7.65672
#
# Compressibility (1/GPa) = 0.01132560
#
# Stress axis : x y z
#
# Youngs Moduli (GPa) = 85.78183 85.18605 55.99033
#
# Poissons Ratio (x) = 0.15861 0.42273
# Poissons Ratio (y) = 0.15972 0.31094
# Poissons Ratio (z) = 0.64766 0.47308
#
# Static dielectric constant tensor:
#      x y z
#    x 4.529820 0.000000 -0.093490 
#    y 0.000000 3.933910 0.000000 
#    z -0.093490 0.000000 3.971990 
# 
# 
# High freq. dielectric constant tensor:
#      x y z
#    x 1.932370 0.000000 -0.008640 
#    y 0.000000 1.899030 0.000000 
#    z -0.008640 0.000000 1.891200 
# 
# From -- ./inp_files/5426.got.cif
#   From: 2010.03.12/outbox.cif.g09.slc.cpg/sg4_3_cif.got.tgz:5426.got - 2010.03.31 09:31:35.
