data_PCOD8046646
_publ_section_title
;
Structure prediction by ZEFSAII (Michael W. Deem and Ramdas Pophale) SiO2 
 PCOD8046646
Probable space group: P 21
;
_chemical_formula_sum "Si O2"
_cell_formula_units_Z 16
_cell_length_a 6.507059
_cell_length_b 8.496476
_cell_length_c 16.064256
_cell_angle_alpha 90.000000
_cell_angle_beta 52.253027
_cell_angle_gamma 90.000000
_cell_volume 702.276235
_symmetry_space_group_name_H-M "P 21"
_symmetry_group_IT_number 4
_symmetry_cell_setting 'monoclinic'
loop_
_space_group_symop_operation_xyz
x,y,z
-x,1/2+y,-z
loop_
_atom_site_type_symbol
_atom_site_label
_atom_site_fract_x
_atom_site_fract_y
_atom_site_fract_z
Si Si1 0.193701 0.146540 0.128904
Si Si2 0.721945 0.435172 0.739862
Si Si3 0.784584 0.333408 0.325720
Si Si4 0.127479 0.446571 0.912935
Si Si5 0.713796 0.934034 0.628036
Si Si6 0.080656 0.660631 0.554212
Si Si7 0.123582 0.598552 0.259594
Si Si8 0.222226 0.649618 0.042951
O O1 0.042416 0.287761 0.210596
O O2 0.221421 0.997030 0.181989
O O3 0.481151 0.210812 0.037075
O O4 0.030369 0.089530 0.089820
O O5 0.411902 0.422563 0.800467
O O6 0.845955 0.546413 0.639471
O O7 0.870871 0.268847 0.699347
O O8 0.537015 0.329599 0.328484
O O9 0.738758 0.209397 0.411920
O O10 0.841272 0.514284 0.341054
O O11 0.970508 0.285462 0.940816
O O12 0.165544 0.494609 0.000568
O O13 0.683879 0.990014 0.731323
O O14 0.739132 0.083071 0.560278
O O15 0.960184 0.822599 0.550394
O O16 0.193208 0.602679 0.145789
#
# Coordination Sequence:
#
# PCOD8046646 Si02
#       8
#     2   2   2   2   2   2   2   2
#     4  10  23  44  64  94 141 176 225 286 335 401
#     4  10  22  43  65  97 134 176 226 282 340 402
#     4  10  25  42  69 104 133 180 227 280 342 406
#     4  11  25  42  66  97 129 184 231 279 347 400
#     4  11  24  45  72 101 136 183 220 286 349 405
#     4  10  23  45  69 100 136 174 228 283 340 410
#     4  11  25  42  64 100 140 174 228 283 338 402
#     4  11  27  41  65  99 135 181 235 283 337 412
#
# _framework density 22.783059000000002
#
# number of rings (size 3 to 8) (size 9 to 14) (size 15 to 20)
#    0.000    1.500    1.250    1.500    7.000    4.000 
#    0.000    1.250    0.000    0.000    0.000    0.000 
#    0.000    0.000    0.000    0.000    0.000    0.000 
#
# Total GULP energy -198342.149522 kJ/mol
# GULP energy per Si atom -12396.384345 kJ/mol
# Density = 2.273120 g / cm^3
# Si number density = 22.783059 Si / 1000 Ang^3
#
#
#
# Elastic Constant Matrix: (Units=GPa)
#
#
# Indices 1 2 3 4 5 6 
#
# 1 139.2177 42.0997 52.5333 0.0000 9.9903 0.0000
# 2 42.0997 100.8376 31.9099 0.0000 6.1659 0.0000
# 3 52.5333 31.9099 84.2224 0.0000 17.0242 0.0000
# 4 0.0000 0.0000 0.0000 29.2777 0.0000 -1.4575
# 5 9.9903 6.1659 17.0242 0.0000 32.0832 0.0000
# 6 0.0000 0.0000 0.0000 -1.4575 0.0000 38.2375
#
#
#
# Elastic Compliance Matrix: (Units=1/GPa)
#
#
# Indices 1 2 3 4 5 6 
#
# 1 0.009912 -0.002478 -0.005283 0.000000 0.000193 0.000000
# 2 -0.002478 0.011888 -0.002971 0.000000 0.000064 0.000000
# 3 -0.005283 -0.002971 0.017750 0.000000 -0.007203 0.000000
# 4 0.000000 0.000000 0.000000 0.034221 0.000000 0.001304
# 5 0.000193 0.000064 -0.007203 0.000000 0.034919 0.000000
# 6 0.000000 0.000000 0.000000 0.001304 0.000000 0.026202
#
#
# Mechanical properties :
#
#
# Convention : Reuss Voigt Hill
#
# Bulk Modulus (GPa) = 55.29187 64.15152 59.72170
# Shear Modulus (GPa) = 30.79131 33.10202 31.94666
#
# Velocity S-wave (km/s) = 3.68026 3.81586 3.74867
# Velocity P-wave (km/s) = 6.51004 6.90167 6.70871
#
# Compressibility (1/GPa) = 0.01808584
#
# Stress axis : x y z
#
# Youngs Moduli (GPa) = 100.88820 84.11877 56.33855
#
# Poissons Ratio (x) = 0.20848 0.29761
# Poissons Ratio (y) = 0.25004 0.16738
# Poissons Ratio (z) = 0.53294 0.24992
#
# Static dielectric constant tensor:
#      x y z
#    x 4.260310 0.000000 0.116950 
#    y 0.000000 4.161960 0.000000 
#    z 0.116950 0.000000 3.788620 
# 
# 
# High freq. dielectric constant tensor:
#      x y z
#    x 1.911310 0.000000 0.011030 
#    y 0.000000 1.910220 0.000000 
#    z 0.011030 0.000000 1.876190 
# 
# From -- ./inp_files/2593.got.cif
#   From: 2010.03.12/outbox.cif.g09.slc.cpg/sg4_2_cif.got.tgz:2593.got - 2010.03.31 09:31:35.
