data_PCOD8046602
_publ_section_title
;
Structure prediction by ZEFSAII (Michael W. Deem and Ramdas Pophale) SiO2 
 PCOD8046602
Probable space group: P 21
;
_chemical_formula_sum "Si O2"
_cell_formula_units_Z 16
_cell_length_a 18.839020
_cell_length_b 8.359921
_cell_length_c 5.330880
_cell_angle_alpha 90.000000
_cell_angle_beta 54.609440
_cell_angle_gamma 90.000000
_cell_volume 684.440865
_symmetry_space_group_name_H-M "P 21"
_symmetry_group_IT_number 4
_symmetry_cell_setting 'monoclinic'
loop_
_space_group_symop_operation_xyz
x,y,z
-x,1/2+y,-z
loop_
_atom_site_type_symbol
_atom_site_label
_atom_site_fract_x
_atom_site_fract_y
_atom_site_fract_z
Si Si1 0.702877 0.209950 0.771694
Si Si2 0.202554 0.783033 0.939582
Si Si3 0.536821 0.036521 0.145940
Si Si4 0.584164 0.759062 0.355805
Si Si5 0.933167 0.763487 0.903699
Si Si6 0.251288 0.133512 0.755061
Si Si7 0.980511 0.136539 0.764062
Si Si8 0.605779 0.510509 0.910232
O O1 0.755316 0.231855 0.409469
O O2 0.645362 0.361462 0.980527
O O3 0.763502 0.178537 0.890955
O O4 0.634555 0.068611 0.847047
O O5 0.217212 0.971585 0.961689
O O6 0.101183 0.749313 0.123446
O O7 0.478921 0.196525 0.297094
O O8 0.474310 0.936295 0.089119
O O9 0.552674 0.938545 0.369885
O O10 0.687668 0.742999 0.192741
O O11 0.563195 0.647266 0.163041
O O12 0.955453 0.667777 0.601875
O O13 0.955763 0.950053 0.829392
O O14 0.829871 0.742869 0.162116
O O15 0.979991 0.687780 0.049564
O O16 0.311104 0.083731 0.402180
#
# Coordination Sequence:
#
# PCOD8046602 Si02
#       8
#     2   2   2   2   2   2   2   2
#     4  11  24  42  67  98 137 182 231 289 348 418
#     4  11  24  45  71 100 143 178 236 285 360 422
#     4  11  25  38  65  94 135 187 233 291 347 418
#     4  11  23  42  65  94 140 178 240 287 354 409
#     4  12  27  48  78 109 148 191 243 298 367 441
#     4  10  24  42  67 103 137 187 228 296 350 427
#     4  12  27  49  78 110 148 192 241 301 367 439
#     4  10  22  42  63  96 134 185 232 287 349 416
#
# _framework density 23.376745
#
# number of rings (size 3 to 8) (size 9 to 14) (size 15 to 20)
#    0.000    1.000    1.250    4.500    8.750    3.000 
#    0.000    0.000    0.000    0.000    0.000    0.000 
#    0.000    0.000    0.000    0.000    0.000    0.000 
#
# Total GULP energy -198277.578063 kJ/mol
# GULP energy per Si atom -12392.348629 kJ/mol
# Density = 2.332354 g / cm^3
# Si number density = 23.376745 Si / 1000 Ang^3
#
#
#
# Elastic Constant Matrix: (Units=GPa)
#
#
# Indices 1 2 3 4 5 6 
#
# 1 165.6943 29.6210 50.3737 0.0000 -10.6236 0.0000
# 2 29.6210 63.3176 8.1532 0.0000 -9.3928 0.0000
# 3 50.3737 8.1532 66.9343 0.0000 3.1054 0.0000
# 4 0.0000 0.0000 0.0000 28.9945 0.0000 -4.0144
# 5 -10.6236 -9.3928 3.1054 0.0000 43.8292 0.0000
# 6 0.0000 0.0000 0.0000 -4.0144 0.0000 35.8497
#
#
#
# Elastic Compliance Matrix: (Units=1/GPa)
#
#
# Indices 1 2 3 4 5 6 
#
# 1 0.008555 -0.002928 -0.006169 0.000000 0.001883 0.000000
# 2 -0.002928 0.017631 -0.000086 0.000000 0.003075 0.000000
# 3 -0.006169 -0.000086 0.019728 0.000000 -0.002912 0.000000
# 4 0.000000 0.000000 0.000000 0.035032 0.000000 0.003923
# 5 0.001883 0.003075 -0.002912 0.000000 0.024137 0.000000
# 6 0.000000 0.000000 0.000000 0.003923 0.000000 0.028333
#
#
# Mechanical properties :
#
#
# Convention : Reuss Voigt Hill
#
# Bulk Modulus (GPa) = 36.30241 52.47132 44.38687
# Shear Modulus (GPa) = 31.06230 35.58790 33.32510
#
# Velocity S-wave (km/s) = 3.64918 3.90598 3.77976
# Velocity P-wave (km/s) = 5.77221 6.54499 6.17071
#
# Compressibility (1/GPa) = 0.02754638
#
# Stress axis : x y z
#
# Youngs Moduli (GPa) = 116.89171 56.71959 50.68858
#
# Poissons Ratio (x) = 0.16610 0.31270
# Poissons Ratio (y) = 0.34231 0.00438
# Poissons Ratio (z) = 0.72110 0.00490
#
# Static dielectric constant tensor:
#      x y z
#    x 4.328780 0.000000 -0.084120 
#    y 0.000000 4.161150 0.000000 
#    z -0.084120 0.000000 4.238050 
# 
# 
# High freq. dielectric constant tensor:
#      x y z
#    x 1.939480 0.000000 -0.007170 
#    y 0.000000 1.919250 0.000000 
#    z -0.007170 0.000000 1.926360 
# 
# From -- ./inp_files/3502.got.cif
#   From: 2010.03.12/outbox.cif.g09.slc.cpg/sg4_2_cif.got.tgz:3502.got - 2010.03.31 09:31:35.
