data_PCOD8046959
_publ_section_title
;
Structure prediction by ZEFSAII (Michael W. Deem and Ramdas Pophale) SiO2 
 PCOD8046959
Probable space group: P 21
;
_chemical_formula_sum "Si O2"
_cell_formula_units_Z 14
_cell_length_a 5.567825
_cell_length_b 18.534417
_cell_length_c 4.990717
_cell_angle_alpha 90.000000
_cell_angle_beta 87.028867
_cell_angle_gamma 90.000000
_cell_volume 514.331672
_symmetry_space_group_name_H-M "P 21"
_symmetry_group_IT_number 4
_symmetry_cell_setting 'monoclinic'
loop_
_space_group_symop_operation_xyz
x,y,z
-x,1/2+y,-z
loop_
_atom_site_type_symbol
_atom_site_label
_atom_site_fract_x
_atom_site_fract_y
_atom_site_fract_z
Si Si1 0.792378 0.041090 0.848121
Si Si2 0.428778 0.115997 0.504087
Si Si3 0.968589 0.687540 0.182902
Si Si4 0.182126 0.975487 0.468095
Si Si5 0.766195 0.229269 0.317919
Si Si6 0.440905 0.366194 0.352526
Si Si7 0.174763 0.410209 0.862536
O O1 0.556906 0.070233 0.723896
O O2 0.970841 0.105766 0.901382
O O3 0.937182 0.982590 0.655925
O O4 0.718599 0.993356 0.116158
O O5 0.256321 0.057285 0.368442
O O6 0.605751 0.155636 0.280734
O O7 0.293025 0.182507 0.666079
O O8 0.145923 0.726047 0.382373
O O9 0.006078 0.730936 0.901785
O O10 0.389751 0.937146 0.632057
O O11 0.105033 0.924733 0.214922
O O12 0.607010 0.298654 0.276691
O O13 0.304127 0.358418 0.641925
O O14 0.232025 0.370914 0.139578
#
# Coordination Sequence:
#
# PCOD8046959 Si02
#       7
#     2   2   2   2   2   2   2
#     4  10  23  45  71 114 143 181 256 309 372 450
#     4  10  23  49  77 111 146 204 243 332 374 432
#     4  10  25  43  74 103 145 192 249 310 374 448
#     4  11  24  46  74 114 147 196 253 316 382 442
#     4  11  26  52  68 112 151 200 259 300 376 471
#     4  12  28  47  76 105 158 202 244 313 379 444
#     4  12  25  46  72 111 146 193 250 308 371 459
#
# _framework density 27.219787
#
# number of rings (size 3 to 8) (size 9 to 14) (size 15 to 20)
#    0.000    1.143    2.857    0.857   10.000    3.429 
#    5.143    0.000    0.000    0.000    0.000    0.000 
#    0.000    0.000    0.000    0.000    0.000    0.000 
#
# Total GULP energy -173442.487203 kJ/mol
# GULP energy per Si atom -12388.749086 kJ/mol
# Density = 2.715783 g / cm^3
# Si number density = 27.219787 Si / 1000 Ang^3
#
#
#
# Elastic Constant Matrix: (Units=GPa)
#
#
# Indices 1 2 3 4 5 6 
#
# 1 72.5102 2.3457 18.2576 0.0000 -0.7174 0.0000
# 2 2.3457 57.2938 3.4500 0.0000 15.0932 0.0000
# 3 18.2576 3.4500 124.0611 0.0000 5.5782 0.0000
# 4 0.0000 0.0000 0.0000 31.6968 0.0000 -4.1526
# 5 -0.7174 15.0932 5.5782 0.0000 28.2702 0.0000
# 6 0.0000 0.0000 0.0000 -4.1526 0.0000 28.5148
#
#
#
# Elastic Compliance Matrix: (Units=1/GPa)
#
#
# Indices 1 2 3 4 5 6 
#
# 1 0.014369 -0.000776 -0.002147 0.000000 0.001202 0.000000
# 2 -0.000776 0.020353 0.000038 0.000000 -0.010893 0.000000
# 3 -0.002147 0.000038 0.008454 0.000000 -0.001743 0.000000
# 4 0.000000 0.000000 0.000000 0.032163 0.000000 0.004684
# 5 0.001202 -0.010893 -0.001743 0.000000 0.041563 0.000000
# 6 0.000000 0.000000 0.000000 0.004684 0.000000 0.035752
#
#
# Mechanical properties :
#
#
# Convention : Reuss Voigt Hill
#
# Bulk Modulus (GPa) = 26.73370 33.55242 30.14306
# Shear Modulus (GPa) = 29.25833 33.01715 31.13774
#
# Velocity S-wave (km/s) = 3.28211 3.48657 3.38588
# Velocity P-wave (km/s) = 4.91993 5.34429 5.13650
#
# Compressibility (1/GPa) = 0.03740597
#
# Stress axis : x y z
#
# Youngs Moduli (GPa) = 69.59529 49.13257 118.28952
#
# Poissons Ratio (x) = 0.03811 0.25398
# Poissons Ratio (y) = 0.05399 -0.00449
# Poissons Ratio (z) = 0.14943 -0.00187
#
# Static dielectric constant tensor:
#      x y z
#    x 5.024590 0.000000 -0.078740 
#    y 0.000000 5.116510 0.000000 
#    z -0.078740 0.000000 4.776880 
# 
# 
# High freq. dielectric constant tensor:
#      x y z
#    x 2.089660 0.000000 0.002390 
#    y 0.000000 2.101850 0.000000 
#    z 0.002390 0.000000 2.083240 
# 
# From -- ./inp_files/677.got.cif
#   From: 2010.03.12/outbox.cif.g09.slc.cpg/sg4_1_cif.got.tgz:677.got - 2010.03.31 09:31:35.
