data_PCOD8046757
_publ_section_title
;
Structure prediction by ZEFSAII (Michael W. Deem and Ramdas Pophale) SiO2 
 PCOD8046757
Probable space group: P 21
;
_chemical_formula_sum "Si O2"
_cell_formula_units_Z 14
_cell_length_a 12.290555
_cell_length_b 8.640732
_cell_length_c 5.061788
_cell_angle_alpha 90.000000
_cell_angle_beta 91.901515
_cell_angle_gamma 90.000000
_cell_volume 537.262795
_symmetry_space_group_name_H-M "P 21"
_symmetry_group_IT_number 4
_symmetry_cell_setting 'monoclinic'
loop_
_space_group_symop_operation_xyz
x,y,z
-x,1/2+y,-z
loop_
_atom_site_type_symbol
_atom_site_label
_atom_site_fract_x
_atom_site_fract_y
_atom_site_fract_z
Si Si1 0.338810 0.002290 0.095686
Si Si2 0.058221 0.994340 0.507684
Si Si3 0.542418 0.604439 0.383445
Si Si4 0.650367 0.923328 0.446278
Si Si5 0.822981 0.748061 0.790881
Si Si6 0.144066 0.827745 0.019052
Si Si7 0.142589 0.493819 0.822775
O O1 0.377277 0.023698 0.399674
O O2 0.240387 0.123449 0.033702
O O3 0.437568 0.027043 0.900736
O O4 0.277444 0.840083 0.032702
O O5 0.089498 0.946545 0.804806
O O6 0.926480 0.990063 0.457212
O O7 0.105743 0.165064 0.432843
O O8 0.106768 0.868852 0.309958
O O9 0.563622 0.788607 0.359053
O O10 0.417832 0.570685 0.453160
O O11 0.730562 0.860954 0.673340
O O12 0.727399 0.979971 0.213633
O O13 0.897635 0.851687 0.992811
O O14 0.111360 0.652282 0.964201
#
# Coordination Sequence:
#
# PCOD8046757 Si02
#       7
#     2   2   2   2   2   2   2
#     4  10  22  46  71  97 145 185 242 290 378 416
#     4  11  27  47  75 104 155 195 242 296 388 428
#     4  11  25  45  71 102 138 195 231 308 355 433
#     4  11  27  45  72 106 148 186 250 296 370 427
#     4  10  24  48  72 105 148 196 239 308 363 446
#     4  11  26  46  72 111 141 196 244 312 356 454
#     4  12  27  43  75 109 149 191 254 304 358 452
#
# _framework density 26.058011
#
# number of rings (size 3 to 8) (size 9 to 14) (size 15 to 20)
#    0.000    1.143    1.429    3.429   12.000    1.143 
#    0.000    0.000    0.000    0.000    0.000    0.000 
#    0.000    0.000    0.000    0.000    0.000    0.000 
#
# Total GULP energy -173586.122655 kJ/mol
# GULP energy per Si atom -12399.008761 kJ/mol
# Density = 2.599870 g / cm^3
# Si number density = 26.058011 Si / 1000 Ang^3
#
#
#
# Elastic Constant Matrix: (Units=GPa)
#
#
# Indices 1 2 3 4 5 6 
#
# 1 110.3643 32.1547 -8.8461 0.0000 -13.4011 0.0000
# 2 32.1547 86.4895 4.2117 0.0000 6.4541 0.0000
# 3 -8.8461 4.2117 56.6062 0.0000 -4.6998 0.0000
# 4 0.0000 0.0000 0.0000 26.2417 0.0000 7.3613
# 5 -13.4011 6.4541 -4.6998 0.0000 36.5590 0.0000
# 6 0.0000 0.0000 0.0000 7.3613 0.0000 40.5811
#
#
#
# Elastic Compliance Matrix: (Units=1/GPa)
#
#
# Indices 1 2 3 4 5 6 
#
# 1 0.011282 -0.004714 0.002554 0.000000 0.005296 0.000000
# 2 -0.004714 0.013749 -0.002127 0.000000 -0.004429 0.000000
# 3 0.002554 -0.002127 0.018530 0.000000 0.003694 0.000000
# 4 0.000000 0.000000 0.000000 0.040150 0.000000 -0.007283
# 5 0.005296 -0.004429 0.003694 0.000000 0.030551 0.000000
# 6 0.000000 0.000000 0.000000 -0.007283 0.000000 0.025963
#
#
# Mechanical properties :
#
#
# Convention : Reuss Voigt Hill
#
# Bulk Modulus (GPa) = 28.58353 34.27788 31.43070
# Shear Modulus (GPa) = 31.15996 35.73901 33.44948
#
# Velocity S-wave (km/s) = 3.46177 3.70742 3.58670
# Velocity P-wave (km/s) = 5.19341 5.61334 5.40745
#
# Compressibility (1/GPa) = 0.03498519
#
# Stress axis : x y z
#
# Youngs Moduli (GPa) = 88.63632 72.73420 53.96684
#
# Poissons Ratio (x) = 0.34287 -0.13781
# Poissons Ratio (y) = 0.41783 0.11480
# Poissons Ratio (z) = -0.22634 0.15473
#
# Static dielectric constant tensor:
#      x y z
#    x 4.749020 0.000000 0.075090 
#    y 0.000000 4.837930 0.000000 
#    z 0.075090 0.000000 4.326720 
# 
# 
# High freq. dielectric constant tensor:
#      x y z
#    x 2.048920 0.000000 0.001570 
#    y 0.000000 2.039900 0.000000 
#    z 0.001570 0.000000 2.037680 
# 
# From -- ./inp_files/2662.got.cif
#   From: 2010.03.12/outbox.cif.g09.slc.cpg/sg4_2_cif.got.tgz:2662.got - 2010.03.31 09:31:35.
