data_PCOD8046208
_publ_section_title
;
Structure prediction by ZEFSAII (Michael W. Deem and Ramdas Pophale) SiO2 
 PCOD8046208
Probable space group: P 21
;
_chemical_formula_sum "Si O2"
_cell_formula_units_Z 16
_cell_length_a 5.310065
_cell_length_b 8.630105
_cell_length_c 18.338902
_cell_angle_alpha 90.000000
_cell_angle_beta 123.964590
_cell_angle_gamma 90.000000
_cell_volume 697.018620
_symmetry_space_group_name_H-M "P 21"
_symmetry_group_IT_number 4
_symmetry_cell_setting 'monoclinic'
loop_
_space_group_symop_operation_xyz
x,y,z
-x,1/2+y,-z
loop_
_atom_site_type_symbol
_atom_site_label
_atom_site_fract_x
_atom_site_fract_y
_atom_site_fract_z
Si Si1 0.227756 0.866610 0.795363
Si Si2 0.352469 0.940367 0.064206
Si Si3 0.699976 0.792972 0.990485
Si Si4 0.301238 0.133786 0.540894
Si Si5 0.663987 0.164487 0.398556
Si Si6 0.308460 0.911269 0.419955
Si Si7 0.765907 0.036782 0.257252
Si Si8 0.573249 0.954055 0.704605
O O1 0.116630 0.688786 0.767541
O O2 0.396290 0.928863 0.750842
O O3 0.938273 0.972339 0.772342
O O4 0.468691 0.877429 0.898778
O O5 0.502626 0.954592 0.168406
O O6 0.582670 0.838160 0.052208
O O7 0.299959 0.107765 0.019012
O O8 0.035211 0.854154 0.026144
O O9 0.565614 0.239181 0.548307
O O10 0.986954 0.227040 0.482218
O O11 0.222570 0.974566 0.485658
O O12 0.411684 0.103122 0.641574
O O13 0.647037 0.092341 0.315332
O O14 0.453783 0.315769 0.359078
O O15 0.561397 0.032772 0.436511
O O16 0.037843 0.915460 0.316472
#
# Coordination Sequence:
#
# PCOD8046208 Si02
#       8
#     2   2   2   2   2   2   2   2
#     4  10  22  43  69  92 130 173 223 264 336 403
#     4  11  24  45  73 104 139 184 229 283 349 417
#     4  11  24  45  72 103 140 180 231 285 348 416
#     4  11  25  37  61  93 129 175 214 278 326 390
#     4  10  21  39  64  88 127 169 228 263 324 391
#     4  11  22  42  61  91 130 169 224 268 331 389
#     4   9  22  40  65  95 125 179 216 270 326 411
#     4  11  22  41  65  94 124 173 221 271 322 397
#
# _framework density 22.954910000000002
#
# number of rings (size 3 to 8) (size 9 to 14) (size 15 to 20)
#    0.000    1.500    1.250    3.000    7.000    3.000 
#    6.750    0.000    0.000    0.000    0.000    0.000 
#    0.000    0.000    0.000    0.000    0.000    0.000 
#
# Total GULP energy -198291.309764 kJ/mol
# GULP energy per Si atom -12393.206860 kJ/mol
# Density = 2.290266 g / cm^3
# Si number density = 22.954910 Si / 1000 Ang^3
#
#
#
# Elastic Constant Matrix: (Units=GPa)
#
#
# Indices 1 2 3 4 5 6 
#
# 1 108.1076 17.1898 19.2310 0.0000 21.5787 0.0000
# 2 17.1898 57.1153 19.1157 0.0000 8.9791 0.0000
# 3 19.2310 19.1157 100.1479 0.0000 22.5620 0.0000
# 4 0.0000 0.0000 0.0000 27.7191 0.0000 3.1012
# 5 21.5787 8.9791 22.5620 0.0000 28.2605 0.0000
# 6 0.0000 0.0000 0.0000 3.1012 0.0000 31.7778
#
#
#
# Elastic Compliance Matrix: (Units=1/GPa)
#
#
# Indices 1 2 3 4 5 6 
#
# 1 0.011153 -0.002132 0.000038 0.000000 -0.007869 0.000000
# 2 -0.002132 0.019446 -0.002777 0.000000 -0.002334 0.000000
# 3 0.000038 -0.002777 0.012578 0.000000 -0.009189 0.000000
# 4 0.000000 0.000000 0.000000 0.036474 0.000000 -0.003560
# 5 -0.007869 -0.002334 -0.009189 0.000000 0.049471 0.000000
# 6 0.000000 0.000000 0.000000 -0.003560 0.000000 0.031816
#
#
# Mechanical properties :
#
#
# Convention : Reuss Voigt Hill
#
# Bulk Modulus (GPa) = 29.90821 41.82709 35.86765
# Shear Modulus (GPa) = 27.49892 31.54044 29.51968
#
# Velocity S-wave (km/s) = 3.46490 3.71079 3.58995
# Velocity P-wave (km/s) = 5.39118 6.05153 5.73087
#
# Compressibility (1/GPa) = 0.03343563
#
# Stress axis : x y z
#
# Youngs Moduli (GPa) = 89.66205 51.42348 79.50420
#
# Poissons Ratio (x) = 0.10965 -0.00303
# Poissons Ratio (y) = 0.19119 0.22075
# Poissons Ratio (z) = -0.00342 0.14278
#
# Static dielectric constant tensor:
#      x y z
#    x 4.032210 0.000000 0.015900 
#    y 0.000000 3.999700 0.000000 
#    z 0.015900 0.000000 4.331990 
# 
# 
# High freq. dielectric constant tensor:
#      x y z
#    x 1.905570 0.000000 0.005860 
#    y 0.000000 1.892520 0.000000 
#    z 0.005860 0.000000 1.919460 
# 
# From -- ./inp_files/3483.got.cif
#   From: 2010.03.12/outbox.cif.g09.slc.cpg/sg4_2_cif.got.tgz:3483.got - 2010.03.31 09:31:35.
