data_PCOD8046628
_publ_section_title
;
Structure prediction by ZEFSAII (Michael W. Deem and Ramdas Pophale) SiO2 
 PCOD8046628
Probable space group: P 21
;
_chemical_formula_sum "Si O2"
_cell_formula_units_Z 16
_cell_length_a 7.885381
_cell_length_b 7.490361
_cell_length_c 14.146401
_cell_angle_alpha 90.000000
_cell_angle_beta 66.307747
_cell_angle_gamma 90.000000
_cell_volume 765.125437
_symmetry_space_group_name_H-M "P 21"
_symmetry_group_IT_number 4
_symmetry_cell_setting 'monoclinic'
loop_
_space_group_symop_operation_xyz
x,y,z
-x,1/2+y,-z
loop_
_atom_site_type_symbol
_atom_site_label
_atom_site_fract_x
_atom_site_fract_y
_atom_site_fract_z
Si Si1 0.081602 0.036520 0.371376
Si Si2 0.856801 0.938596 0.604537
Si Si3 0.586402 0.363146 0.799726
Si Si4 0.163116 0.791974 0.093977
Si Si5 0.954448 0.118629 0.202988
Si Si6 0.354753 0.697728 0.861603
Si Si7 0.056974 0.010097 0.748805
Si Si8 0.453332 0.035921 0.730975
O O1 0.167655 0.229709 0.371575
O O2 0.942828 0.044819 0.312736
O O3 0.249089 0.902201 0.311446
O O4 0.970235 0.960968 0.483827
O O5 0.653160 0.022669 0.635440
O O6 0.970868 0.035916 0.663665
O O7 0.661945 0.264419 0.876351
O O8 0.504269 0.549712 0.855784
O O9 0.439544 0.229967 0.783995
O O10 0.997518 0.667924 0.168467
O O11 0.211957 0.734031 0.977797
O O12 0.098165 0.999028 0.110552
O O13 0.751894 0.110564 0.203182
O O14 0.020377 0.325329 0.189411
O O15 0.449930 0.883717 0.812449
O O16 0.283124 0.011112 0.695395
#
# Coordination Sequence:
#
# PCOD8046628 Si02
#       8
#     2   2   2   2   2   2   2   2
#     4  10  22  42  69  94 131 174 212 269 341 385
#     4  11  21  43  69  96 132 170 215 274 330 394
#     4  11  23  42  63  95 136 170 216 276 322 392
#     4  11  24  39  68  92 131 184 212 269 333 380
#     4   9  23  43  63  92 133 166 221 270 318 389
#     4  11  25  41  63  99 132 173 225 269 323 391
#     4  10  23  43  66  97 133 171 221 268 323 393
#     4  11  23  43  67  95 134 170 218 273 322 390
#
# _framework density 20.911604000000001
#
# number of rings (size 3 to 8) (size 9 to 14) (size 15 to 20)
#    0.000    1.500    2.500    1.500    7.000    1.000 
#    2.250    0.000    0.000    0.000    0.000    0.000 
#    0.000    0.000    0.000    0.000    0.000    0.000 
#
# Total GULP energy -198404.599502 kJ/mol
# GULP energy per Si atom -12400.287469 kJ/mol
# Density = 2.086401 g / cm^3
# Si number density = 20.911604 Si / 1000 Ang^3
#
#
#
# Elastic Constant Matrix: (Units=GPa)
#
#
# Indices 1 2 3 4 5 6 
#
# 1 110.9033 38.3105 44.0010 0.0000 -3.2838 0.0000
# 2 38.3105 104.1773 38.6010 0.0000 -0.4385 0.0000
# 3 44.0010 38.6010 97.2911 0.0000 -2.5596 0.0000
# 4 0.0000 0.0000 0.0000 28.5877 0.0000 -3.1081
# 5 -3.2838 -0.4385 -2.5596 0.0000 20.0459 0.0000
# 6 0.0000 0.0000 0.0000 -3.1081 0.0000 36.0906
#
#
#
# Elastic Compliance Matrix: (Units=1/GPa)
#
#
# Indices 1 2 3 4 5 6 
#
# 1 0.011648 -0.002742 -0.004145 0.000000 0.001319 0.000000
# 2 -0.002742 0.011901 -0.003498 0.000000 -0.000636 0.000000
# 3 -0.004145 -0.003498 0.013567 0.000000 0.000977 0.000000
# 4 0.000000 0.000000 0.000000 0.035311 0.000000 0.003041
# 5 0.001319 -0.000636 0.000977 0.000000 0.050212 0.000000
# 6 0.000000 0.000000 0.000000 0.003041 0.000000 0.027970
#
#
# Mechanical properties :
#
#
# Convention : Reuss Voigt Hill
#
# Bulk Modulus (GPa) = 61.18313 61.57742 61.38028
# Shear Modulus (GPa) = 28.27609 29.70878 28.99243
#
# Velocity S-wave (km/s) = 3.68118 3.77329 3.72752
# Velocity P-wave (km/s) = 6.88401 6.96377 6.92400
#
# Compressibility (1/GPa) = 0.01634437
#
# Stress axis : x y z
#
# Youngs Moduli (GPa) = 85.85385 84.02699 73.70869
#
# Poissons Ratio (x) = 0.23039 0.30554
# Poissons Ratio (y) = 0.23540 0.25787
# Poissons Ratio (z) = 0.35589 0.29397
#
# Static dielectric constant tensor:
#      x y z
#    x 3.768140 0.000000 0.117760 
#    y 0.000000 3.997720 0.000000 
#    z 0.117760 0.000000 3.534380 
# 
# 
# High freq. dielectric constant tensor:
#      x y z
#    x 1.817030 0.000000 0.005400 
#    y 0.000000 1.841630 0.000000 
#    z 0.005400 0.000000 1.794790 
# 
# From -- ./inp_files/10860.got.cif
#   From: 2010.03.12/outbox.cif.g09.slc.cpg/sg4_6_cif.got.tgz:10860.got - 2010.03.31 09:31:35.
