data_PCOD8046511
_publ_section_title
;
Structure prediction by ZEFSAII (Michael W. Deem and Ramdas Pophale) SiO2 
 PCOD8046511
Probable space group: P 21
;
_chemical_formula_sum "Si O2"
_cell_formula_units_Z 12
_cell_length_a 8.418866
_cell_length_b 4.969233
_cell_length_c 25.384152
_cell_angle_alpha 90.000000
_cell_angle_beta 33.613083
_cell_angle_gamma 90.000000
_cell_volume 587.878209
_symmetry_space_group_name_H-M "P 21"
_symmetry_group_IT_number 4
_symmetry_cell_setting 'monoclinic'
loop_
_space_group_symop_operation_xyz
x,y,z
-x,1/2+y,-z
loop_
_atom_site_type_symbol
_atom_site_label
_atom_site_fract_x
_atom_site_fract_y
_atom_site_fract_z
Si Si1 0.487215 0.832200 0.247340
Si Si2 0.672621 0.933054 0.890022
Si Si3 0.273967 0.343332 0.246879
Si Si4 0.974166 0.224194 0.541435
Si Si5 0.119652 0.935628 0.110078
Si Si6 0.682873 0.499176 0.457978
O O1 0.482671 0.543877 0.220454
O O2 0.313021 0.820748 0.349969
O O3 0.338658 0.044183 0.249155
O O4 0.812230 0.901921 0.169164
O O5 0.808602 0.224246 0.863436
O O6 0.662915 0.863522 0.831791
O O7 0.875327 0.727076 0.865066
O O8 0.347424 0.908407 0.000095
O O9 0.944086 0.418413 0.348138
O O10 0.107750 0.482475 0.475369
O O11 0.213715 0.112756 0.514765
O O12 0.504665 0.734370 0.478512
#
# Coordination Sequence:
#
# PCOD8046511 Si02
#       6
#     2   2   2   2   2   2
#     4  11  23  40  60  87 119 152 194 240 287 343
#     4  10  22  40  61  88 119 151 192 239 287 344
#     4  11  23  40  60  87 119 152 194 240 287 343
#     4  11  23  40  59  85 118 153 194 241 288 341
#     4  10  22  40  61  88 119 151 192 239 287 344
#     4  11  23  40  59  85 118 153 194 241 288 341
#
# _framework density 20.412388
#
# number of rings (size 3 to 8) (size 9 to 14) (size 15 to 20)
#    0.000    1.333    0.000    7.000    0.000    5.333 
#    0.000    0.000    0.000    0.000    0.000    0.000 
#    0.000    0.000    0.000    0.000    0.000    0.000 
#
# Total GULP energy -148873.474889 kJ/mol
# GULP energy per Si atom -12406.122907 kJ/mol
# Density = 2.036593 g / cm^3
# Si number density = 20.412388 Si / 1000 Ang^3
#
#
#
# Elastic Constant Matrix: (Units=GPa)
#
#
# Indices 1 2 3 4 5 6 
#
# 1 71.2790 7.3512 60.4749 0.0000 4.8866 0.0000
# 2 7.3512 84.4694 27.2107 0.0000 2.2185 0.0000
# 3 60.4749 27.2107 91.7326 0.0000 -0.1467 0.0000
# 4 0.0000 0.0000 0.0000 29.3967 0.0000 2.1612
# 5 4.8866 2.2185 -0.1467 0.0000 47.9774 0.0000
# 6 0.0000 0.0000 0.0000 2.1612 0.0000 35.5956
#
#
#
# Elastic Compliance Matrix: (Units=1/GPa)
#
#
# Indices 1 2 3 4 5 6 
#
# 1 0.034062 0.004832 -0.023895 0.000000 -0.003766 0.000000
# 2 0.004832 0.013793 -0.007279 0.000000 -0.001152 0.000000
# 3 -0.023895 -0.007279 0.028818 0.000000 0.002858 0.000000
# 4 0.000000 0.000000 0.000000 0.034170 0.000000 -0.002075
# 5 -0.003766 -0.001152 0.002858 0.000000 0.021289 0.000000
# 6 0.000000 0.000000 0.000000 -0.002075 0.000000 0.028219
#
#
# Mechanical properties :
#
#
# Convention : Reuss Voigt Hill
#
# Bulk Modulus (GPa) = 41.68474 48.61715 45.15095
# Shear Modulus (GPa) = 22.62125 32.75690 27.68907
#
# Velocity S-wave (km/s) = 3.33259 4.01029 3.68704
# Velocity P-wave (km/s) = 5.93918 6.73145 6.34769
#
# Compressibility (1/GPa) = 0.02398959
#
# Stress axis : x y z
#
# Youngs Moduli (GPa) = 29.35800 72.49992 34.70088
#
# Poissons Ratio (x) = -0.35032 0.82918
# Poissons Ratio (y) = -0.14186 0.25258
# Poissons Ratio (z) = 0.70151 0.52771
#
# Static dielectric constant tensor:
#      x y z
#    x 3.561160 0.000000 0.035820 
#    y 0.000000 4.101980 0.000000 
#    z 0.035820 0.000000 3.673070 
# 
# 
# High freq. dielectric constant tensor:
#      x y z
#    x 1.796880 0.000000 0.000360 
#    y 0.000000 1.823710 0.000000 
#    z 0.000360 0.000000 1.795660 
# 
# From -- ./inp_files/16315.got.cif
#   From: 2010.03.12/outbox.cif.g09.slc.cpg/sg4_9_cif.got.tgz:16315.got - 2010.03.31 09:31:35.
