data_PCOD8046719
_publ_section_title
;
Structure prediction by ZEFSAII (Michael W. Deem and Ramdas Pophale) SiO2 
 PCOD8046719
Probable space group: P 21
;
_chemical_formula_sum "Si O2"
_cell_formula_units_Z 16
_cell_length_a 6.707262
_cell_length_b 15.398478
_cell_length_c 9.124304
_cell_angle_alpha 90.000000
_cell_angle_beta 47.830406
_cell_angle_gamma 90.000000
_cell_volume 698.450049
_symmetry_space_group_name_H-M "P 21"
_symmetry_group_IT_number 4
_symmetry_cell_setting 'monoclinic'
loop_
_space_group_symop_operation_xyz
x,y,z
-x,1/2+y,-z
loop_
_atom_site_type_symbol
_atom_site_label
_atom_site_fract_x
_atom_site_fract_y
_atom_site_fract_z
Si Si1 0.071920 0.556470 0.664921
Si Si2 0.959104 0.094826 0.641551
Si Si3 0.571919 0.390899 0.164922
Si Si4 0.358165 0.062684 0.684710
Si Si5 0.459105 0.852544 0.141551
Si Si6 0.141835 0.384685 0.815290
Si Si7 0.869933 0.788366 0.457521
Si Si8 0.630068 0.659004 0.042478
O O1 0.374097 0.595444 0.532865
O O2 0.050610 0.471486 0.774929
O O3 0.026527 0.536997 0.513386
O O4 0.852852 0.627262 0.818533
O O5 0.116455 0.043577 0.691776
O O6 0.105628 0.185867 0.538034
O O7 0.654264 0.110833 0.844759
O O8 0.550610 0.475883 0.274930
O O9 0.352852 0.320107 0.318533
O O10 0.526527 0.410373 0.013387
O O11 0.874097 0.351925 0.032864
O O12 0.265785 0.136029 0.845209
O O13 0.616455 0.903792 0.191776
O O14 0.605629 0.761502 0.038034
O O15 0.154264 0.836536 0.344758
O O16 0.234215 0.311339 0.654791
#
# Coordination Sequence:
#
# PCOD8046719 Si02
#       8
#     2   2   2   2   2   2   2   2
#     4  11  23  42  62  96 131 164 220 266 316 391
#     4  10  24  42  70  93 129 174 211 269 325 374
#     4  11  23  42  62  96 131 164 220 266 316 391
#     4  11  23  41  62  97 129 168 215 267 323 383
#     4  10  24  42  70  93 129 174 211 269 325 374
#     4  11  23  41  62  97 129 168 215 267 323 383
#     4  10  22  45  66  96 130 165 221 266 319 390
#     4  10  22  45  66  96 130 165 221 266 319 390
#
# _framework density 22.907864
#
# number of rings (size 3 to 8) (size 9 to 14) (size 15 to 20)
#    0.000    1.500    2.500    1.500    0.000    7.000 
#    0.000    0.000    0.000    0.000    0.000    0.000 
#    0.000    0.000    0.000    0.000    0.000    0.000 
#
# Total GULP energy -198368.460456 kJ/mol
# GULP energy per Si atom -12398.028779 kJ/mol
# Density = 2.285572 g / cm^3
# Si number density = 22.907864 Si / 1000 Ang^3
#
#
#
# Elastic Constant Matrix: (Units=GPa)
#
#
# Indices 1 2 3 4 5 6 
#
# 1 150.8796 24.0174 33.0968 0.0000 16.1321 0.0000
# 2 24.0174 66.5640 10.2112 0.0000 9.0686 0.0000
# 3 33.0968 10.2112 105.2386 0.0000 -2.9885 0.0000
# 4 0.0000 0.0000 0.0000 32.9959 0.0000 4.7857
# 5 16.1321 9.0686 -2.9885 0.0000 18.8023 0.0000
# 6 0.0000 0.0000 0.0000 4.7857 0.0000 28.4879
#
#
#
# Elastic Compliance Matrix: (Units=1/GPa)
#
#
# Indices 1 2 3 4 5 6 
#
# 1 0.008168 -0.001646 -0.002597 0.000000 -0.006627 0.000000
# 2 -0.001646 0.016754 -0.001303 0.000000 -0.006875 0.000000
# 3 -0.002597 -0.001303 0.010574 0.000000 0.004538 0.000000
# 4 0.000000 0.000000 0.000000 0.031064 0.000000 -0.005218
# 5 -0.006627 -0.006875 0.004538 0.000000 0.062908 0.000000
# 6 0.000000 0.000000 0.000000 -0.005218 0.000000 0.035979
#
#
# Mechanical properties :
#
#
# Convention : Reuss Voigt Hill
#
# Bulk Modulus (GPa) = 40.97809 50.81478 45.89643
# Shear Modulus (GPa) = 27.07464 33.08101 30.07782
#
# Velocity S-wave (km/s) = 3.44160 3.80424 3.62745
# Velocity P-wave (km/s) = 5.80688 6.44412 6.13378
#
# Compressibility (1/GPa) = 0.02440328
#
# Stress axis : x y z
#
# Youngs Moduli (GPa) = 122.42719 59.68863 94.56839
#
# Poissons Ratio (x) = 0.09824 0.24562
# Poissons Ratio (y) = 0.20150 0.12324
# Poissons Ratio (z) = 0.31798 0.07779
#
# Static dielectric constant tensor:
#      x y z
#    x 4.303870 0.000000 -0.087840 
#    y 0.000000 3.810060 0.000000 
#    z -0.087840 0.000000 4.226450 
# 
# 
# High freq. dielectric constant tensor:
#      x y z
#    x 1.906860 0.000000 -0.008750 
#    y 0.000000 1.885550 0.000000 
#    z -0.008750 0.000000 1.914490 
# 
# From -- ./inp_files/4958.got.cif
#   From: 2010.03.12/outbox.cif.g09.slc.cpg/sg4_3_cif.got.tgz:4958.got - 2010.03.31 09:31:35.
