data_PCOD8046427
_publ_section_title
;
Structure prediction by ZEFSAII (Michael W. Deem and Ramdas Pophale) SiO2 
 PCOD8046427
Probable space group: P 21
;
_chemical_formula_sum "Si O2"
_cell_formula_units_Z 16
_cell_length_a 14.307802
_cell_length_b 8.361845
_cell_length_c 17.376872
_cell_angle_alpha 90.000000
_cell_angle_beta 160.601212
_cell_angle_gamma 90.000000
_cell_volume 690.509026
_symmetry_space_group_name_H-M "P 21"
_symmetry_group_IT_number 4
_symmetry_cell_setting 'monoclinic'
loop_
_space_group_symop_operation_xyz
x,y,z
-x,1/2+y,-z
loop_
_atom_site_type_symbol
_atom_site_label
_atom_site_fract_x
_atom_site_fract_y
_atom_site_fract_z
Si Si1 0.876307 0.815060 0.013490
Si Si2 0.874953 0.851167 0.180687
Si Si3 0.334504 0.613193 0.592864
Si Si4 0.118172 0.073433 0.492260
Si Si5 0.501858 0.770149 0.315928
Si Si6 0.861678 0.841446 0.834201
Si Si7 0.556631 0.143995 0.563948
Si Si8 0.728448 0.259446 0.298283
O O1 0.832602 0.912506 0.058889
O O2 0.195838 0.763955 0.262532
O O3 0.658960 0.668274 0.839861
O O4 0.838947 0.910743 0.904165
O O5 0.132137 0.724633 0.383795
O O6 0.586641 0.762505 0.981750
O O7 0.928242 0.003042 0.275706
O O8 0.311390 0.431822 0.545033
O O9 0.241215 0.629910 0.609525
O O10 0.400242 0.150481 0.675763
O O11 0.940612 0.211560 0.395747
O O12 0.199676 0.935784 0.615088
O O13 0.557825 0.677789 0.439066
O O14 0.177012 0.816169 0.050487
O O15 0.698720 0.672036 0.694895
O O16 0.681568 0.968086 0.644983
#
# Coordination Sequence:
#
# PCOD8046427 Si02
#       8
#     2   2   2   2   2   2   2   2
#     4  10  22  43  69  91 141 184 232 283 346 407
#     4  10  24  42  74 102 134 191 229 280 352 414
#     4  10  21  44  69 100 136 185 230 281 349 407
#     4  11  25  47  70 109 137 185 233 288 357 411
#     4  11  26  43  66 102 143 182 237 287 345 421
#     4  11  26  46  65 102 138 188 235 291 348 409
#     4  11  26  40  70  96 137 187 232 291 346 411
#     4  10  24  45  75 100 142 182 224 297 345 416
#
# _framework density 23.171312
#
# number of rings (size 3 to 8) (size 9 to 14) (size 15 to 20)
#    0.000    1.500    1.250    1.500   10.500    5.000 
#    0.000    0.000    0.000    0.000    0.000    0.000 
#    0.000    0.000    0.000    0.000    0.000    0.000 
#
# Total GULP energy -198341.046526 kJ/mol
# GULP energy per Si atom -12396.315408 kJ/mol
# Density = 2.311857 g / cm^3
# Si number density = 23.171312 Si / 1000 Ang^3
#
#
#
# Elastic Constant Matrix: (Units=GPa)
#
#
# Indices 1 2 3 4 5 6 
#
# 1 137.9801 50.7790 57.7676 0.0000 8.0782 0.0000
# 2 50.7790 86.1132 34.7005 0.0000 -8.6084 0.0000
# 3 57.7676 34.7005 117.4458 0.0000 -2.0986 0.0000
# 4 0.0000 0.0000 0.0000 30.2700 0.0000 2.2042
# 5 8.0782 -8.6084 -2.0986 0.0000 27.6235 0.0000
# 6 0.0000 0.0000 0.0000 2.2042 0.0000 34.5681
#
#
#
# Elastic Compliance Matrix: (Units=1/GPa)
#
#
# Indices 1 2 3 4 5 6 
#
# 1 0.011288 -0.005579 -0.003999 0.000000 -0.005343 0.000000
# 2 -0.005579 0.016354 -0.001970 0.000000 0.006578 0.000000
# 3 -0.003999 -0.001970 0.011089 0.000000 0.001398 0.000000
# 4 0.000000 0.000000 0.000000 0.033190 0.000000 -0.002116
# 5 -0.005343 0.006578 0.001398 0.000000 0.039920 0.000000
# 6 0.000000 0.000000 0.000000 -0.002116 0.000000 0.029063
#
#
# Mechanical properties :
#
#
# Convention : Reuss Voigt Hill
#
# Bulk Modulus (GPa) = 63.96437 69.78147 66.87292
# Shear Modulus (GPa) = 29.54886 31.71179 30.63033
#
# Velocity S-wave (km/s) = 3.57492 3.70345 3.63975
# Velocity P-wave (km/s) = 6.68618 6.96191 6.82544
#
# Compressibility (1/GPa) = 0.01563370
#
# Stress axis : x y z
#
# Youngs Moduli (GPa) = 88.59263 61.14785 90.18114
#
# Poissons Ratio (x) = 0.34112 0.36065
# Poissons Ratio (y) = 0.49423 0.17769
# Poissons Ratio (z) = 0.35430 0.12049
#
# Static dielectric constant tensor:
#      x y z
#    x 4.332480 0.000000 0.003900 
#    y 0.000000 4.039940 0.000000 
#    z 0.003900 0.000000 4.267560 
# 
# 
# High freq. dielectric constant tensor:
#      x y z
#    x 1.919530 0.000000 0.004930 
#    y 0.000000 1.900820 0.000000 
#    z 0.004930 0.000000 1.923920 
# 
# From -- ./inp_files/2574.got.cif
#   From: 2010.03.12/outbox.cif.g09.slc.cpg/sg4_2_cif.got.tgz:2574.got - 2010.03.31 09:31:35.
