data_PCOD8046345
_publ_section_title
;
Structure prediction by ZEFSAII (Michael W. Deem and Ramdas Pophale) SiO2 
 PCOD8046345
Probable space group: P 21
;
_chemical_formula_sum "Si O2"
_cell_formula_units_Z 14
_cell_length_a 11.135888
_cell_length_b 7.935174
_cell_length_c 16.520729
_cell_angle_alpha 90.000000
_cell_angle_beta 22.561040
_cell_angle_gamma 90.000000
_cell_volume 560.099897
_symmetry_space_group_name_H-M "P 21"
_symmetry_group_IT_number 4
_symmetry_cell_setting 'monoclinic'
loop_
_space_group_symop_operation_xyz
x,y,z
-x,1/2+y,-z
loop_
_atom_site_type_symbol
_atom_site_label
_atom_site_fract_x
_atom_site_fract_y
_atom_site_fract_z
Si Si1 0.751876 0.975830 0.129726
Si Si2 0.951621 0.179670 0.137505
Si Si3 0.038079 0.957507 0.562048
Si Si4 0.657647 0.899733 0.482741
Si Si5 0.875374 0.329875 0.669135
Si Si6 0.173614 0.344776 0.145899
Si Si7 0.146857 0.131689 0.751232
O O1 0.388491 0.010887 0.365103
O O2 0.916600 0.997314 0.116270
O O3 0.785366 0.788799 0.073600
O O4 0.908629 0.118263 0.974507
O O5 0.628966 0.275319 0.320072
O O6 0.061385 0.177785 0.163843
O O7 0.006120 0.880794 0.493291
O O8 0.894678 0.821720 0.715862
O O9 0.842401 0.128649 0.693849
O O10 0.850411 0.820225 0.286871
O O11 0.880035 0.915203 0.421746
O O12 0.506547 0.080789 0.552523
O O13 0.530471 0.396925 0.905515
O O14 0.960470 0.501515 0.251190
#
# Coordination Sequence:
#
# PCOD8046345 Si02
#       7
#     2   2   2   2   2   2   2
#     4  10  21  41  71 104 137 180 229 294 343 422
#     4  10  21  42  71 100 142 178 238 276 360 411
#     4  12  25  48  73  98 154 182 229 304 349 409
#     4  10  22  43  66 102 136 181 227 291 347 414
#     4  12  25  46  73 105 138 189 238 283 362 422
#     4  10  23  44  68 100 139 184 231 286 339 419
#     4  10  21  44  72  99 146 176 236 288 350 419
#
# _framework density 24.995539999999998
#
# number of rings (size 3 to 8) (size 9 to 14) (size 15 to 20)
#    0.000    1.714    5.714    0.000    0.000    8.000 
#   10.286    0.000    0.000    0.000    0.000    0.000 
#    0.000    0.000    0.000    0.000    0.000    0.000 
#
# Total GULP energy -173542.185727 kJ/mol
# GULP energy per Si atom -12395.870409 kJ/mol
# Density = 2.493865 g / cm^3
# Si number density = 24.995540 Si / 1000 Ang^3
#
#
#
# Elastic Constant Matrix: (Units=GPa)
#
#
# Indices 1 2 3 4 5 6 
#
# 1 207.1798 42.5740 62.7463 0.0000 11.7744 0.0000
# 2 42.5740 23.8260 3.4068 0.0000 11.6851 0.0000
# 3 62.7463 3.4068 103.8042 0.0000 3.6534 0.0000
# 4 0.0000 0.0000 0.0000 19.5296 0.0000 0.9653
# 5 11.7744 11.6851 3.6534 0.0000 45.0220 0.0000
# 6 0.0000 0.0000 0.0000 0.9653 0.0000 38.9851
#
#
#
# Elastic Compliance Matrix: (Units=1/GPa)
#
#
# Indices 1 2 3 4 5 6 
#
# 1 0.010268 -0.018843 -0.005682 0.000000 0.002666 0.000000
# 2 -0.018843 0.082807 0.009282 0.000000 -0.017317 0.000000
# 3 -0.005682 0.009282 0.012833 0.000000 -0.001964 0.000000
# 4 0.000000 0.000000 0.000000 0.051267 0.000000 -0.001269
# 5 0.002666 -0.017317 -0.001964 0.000000 0.026168 0.000000
# 6 0.000000 0.000000 0.000000 -0.001269 0.000000 0.025682
#
#
# Mechanical properties :
#
#
# Convention : Reuss Voigt Hill
#
# Bulk Modulus (GPa) = 13.25887 61.36272 37.31080
# Shear Modulus (GPa) = 18.89263 35.77952 27.33608
#
# Velocity S-wave (km/s) = 2.75224 3.78754 3.31061
# Velocity P-wave (km/s) = 3.92629 6.61287 5.43810
#
# Compressibility (1/GPa) = 0.07542120
#
# Stress axis : x y z
#
# Youngs Moduli (GPa) = 97.38722 12.07621 77.92555
#
# Poissons Ratio (x) = 0.22756 0.44279
# Poissons Ratio (y) = 1.83510 -0.72330
# Poissons Ratio (z) = 0.55338 -0.11209
#
# Static dielectric constant tensor:
#      x y z
#    x 4.838680 0.000000 0.101640 
#    y 0.000000 4.335340 0.000000 
#    z 0.101640 0.000000 4.501780 
# 
# 
# High freq. dielectric constant tensor:
#      x y z
#    x 2.007420 0.000000 0.010470 
#    y 0.000000 1.967210 0.000000 
#    z 0.010470 0.000000 2.004750 
# 
# From -- ./inp_files/15146.got.cif
#   From: 2010.03.12/outbox.cif.g09.slc.cpg/sg4_8_cif.got.tgz:15146.got - 2010.03.31 09:31:35.
