data_PCOD8046936
_publ_section_title
;
Structure prediction by ZEFSAII (Michael W. Deem and Ramdas Pophale) SiO2 
 PCOD8046936
Probable space group: P 21
;
_chemical_formula_sum "Si O2"
_cell_formula_units_Z 12
_cell_length_a 13.943876
_cell_length_b 7.319600
_cell_length_c 6.407002
_cell_angle_alpha 90.000000
_cell_angle_beta 50.884318
_cell_angle_gamma 90.000000
_cell_volume 507.360654
_symmetry_space_group_name_H-M "P 21"
_symmetry_group_IT_number 4
_symmetry_cell_setting 'monoclinic'
loop_
_space_group_symop_operation_xyz
x,y,z
-x,1/2+y,-z
loop_
_atom_site_type_symbol
_atom_site_label
_atom_site_fract_x
_atom_site_fract_y
_atom_site_fract_z
Si Si1 0.792019 0.464420 0.374090
Si Si2 0.321664 0.729354 0.811417
Si Si3 0.100682 0.265621 0.545456
Si Si4 0.871304 0.167010 0.581022
Si Si5 0.360334 0.193796 0.157821
Si Si6 0.459707 0.471184 0.336451
O O1 0.770488 0.372996 0.178600
O O2 0.878757 0.649727 0.263687
O O3 0.864594 0.323185 0.419941
O O4 0.657271 0.522504 0.654415
O O5 0.352106 0.549337 0.633504
O O6 0.452434 0.824594 0.675057
O O7 0.257031 0.663031 0.112426
O O8 0.099524 0.482002 0.586261
O O9 0.224747 0.221470 0.236399
O O10 0.980445 0.199329 0.593533
O O11 0.393565 0.379955 0.230474
O O12 0.461502 0.145726 0.847592
#
# Coordination Sequence:
#
# PCOD8046936 Si02
#       6
#     2   2   2   2   2   2
#     4  10  23  48  67 105 138 182 234 283 356 411
#     4  12  27  44  70 110 141 183 237 290 350 418
#     4  10  23  44  77  95 138 185 234 284 355 409
#     4  12  23  50  72 106 137 188 234 296 349 418
#     4  10  23  44  70  98 137 193 223 288 348 413
#     4  12  25  42  72 102 147 183 234 287 350 423
#
# _framework density 23.651814999999999
#
# number of rings (size 3 to 8) (size 9 to 14) (size 15 to 20)
#    1.000    0.000    3.333    3.000    4.667    0.000 
#    9.000    0.000    0.000    0.000    0.000    0.000 
#    0.000    0.000    0.000    0.000    0.000    0.000 
#
# Total GULP energy -148677.345475 kJ/mol
# GULP energy per Si atom -12389.778790 kJ/mol
# Density = 2.359798 g / cm^3
# Si number density = 23.651815 Si / 1000 Ang^3
#
#
#
# Elastic Constant Matrix: (Units=GPa)
#
#
# Indices 1 2 3 4 5 6 
#
# 1 80.0861 15.1428 5.8305 0.0000 -13.2667 0.0000
# 2 15.1428 123.0889 19.7031 0.0000 -7.6891 0.0000
# 3 5.8305 19.7031 36.4228 0.0000 -1.2125 0.0000
# 4 0.0000 0.0000 0.0000 33.9669 0.0000 -1.4487
# 5 -13.2667 -7.6891 -1.2125 0.0000 17.9696 0.0000
# 6 0.0000 0.0000 0.0000 -1.4487 0.0000 48.8840
#
#
#
# Elastic Compliance Matrix: (Units=1/GPa)
#
#
# Indices 1 2 3 4 5 6 
#
# 1 0.014453 -0.000904 -0.001485 0.000000 0.010183 0.000000
# 2 -0.000904 0.009175 -0.004721 0.000000 0.002940 0.000000
# 3 -0.001485 -0.004721 0.030211 0.000000 -0.001078 0.000000
# 4 0.000000 0.000000 0.000000 0.029478 0.000000 0.000874
# 5 0.010183 0.002940 -0.001078 0.000000 0.064353 0.000000
# 6 0.000000 0.000000 0.000000 0.000874 0.000000 0.020482
#
#
# Mechanical properties :
#
#
# Convention : Reuss Voigt Hill
#
# Bulk Modulus (GPa) = 25.24113 35.66116 30.45114
# Shear Modulus (GPa) = 25.56539 33.42554 29.49546
#
# Velocity S-wave (km/s) = 3.29128 3.76338 3.53522
# Velocity P-wave (km/s) = 5.01383 5.83046 5.43750
#
# Compressibility (1/GPa) = 0.03961788
#
# Stress axis : x y z
#
# Youngs Moduli (GPa) = 69.19204 108.99540 33.10077
#
# Poissons Ratio (x) = 0.09854 0.04917
# Poissons Ratio (y) = 0.06256 0.15625
# Poissons Ratio (z) = 0.10278 0.51451
#
# Static dielectric constant tensor:
#      x y z
#    x 4.293840 0.000000 -0.154360 
#    y 0.000000 4.419610 0.000000 
#    z -0.154360 0.000000 3.791820 
# 
# 
# High freq. dielectric constant tensor:
#      x y z
#    x 1.945080 0.000000 -0.014460 
#    y 0.000000 1.953380 0.000000 
#    z -0.014460 0.000000 1.893040 
# 
# From -- ./inp_files/2448.got.cif
#   From: 2010.03.12/outbox.cif.g09.slc.cpg/sg4_2_cif.got.tgz:2448.got - 2010.03.31 09:31:35.
