data_PCOD8046150
_publ_section_title
;
Structure prediction by ZEFSAII (Michael W. Deem and Ramdas Pophale) SiO2 
 PCOD8046150
Probable space group: P 21
;
_chemical_formula_sum "Si O2"
_cell_formula_units_Z 16
_cell_length_a 19.195079
_cell_length_b 5.132397
_cell_length_c 9.103327
_cell_angle_alpha 90.000000
_cell_angle_beta 121.901895
_cell_angle_gamma 90.000000
_cell_volume 761.367888
_symmetry_space_group_name_H-M "P 21"
_symmetry_group_IT_number 4
_symmetry_cell_setting 'monoclinic'
loop_
_space_group_symop_operation_xyz
x,y,z
-x,1/2+y,-z
loop_
_atom_site_type_symbol
_atom_site_label
_atom_site_fract_x
_atom_site_fract_y
_atom_site_fract_z
Si Si1 0.039165 0.560060 0.618122
Si Si2 0.776689 0.060656 0.134942
Si Si3 0.389484 0.671957 0.888879
Si Si4 0.967320 0.097784 0.037112
Si Si5 0.558466 0.671174 0.214586
Si Si6 0.451800 0.105001 0.471365
Si Si7 0.712558 0.776779 0.805876
Si Si8 0.209885 0.774935 0.147362
O O1 0.135790 0.513456 0.688252
O O2 0.022678 0.568690 0.775805
O O3 0.988127 0.327723 0.488170
O O4 0.703698 0.132496 0.163894
O O5 0.750350 0.803733 0.012173
O O6 0.790462 0.292217 0.031963
O O7 0.395199 0.964637 0.835709
O O8 0.411354 0.461187 0.788762
O O9 0.459050 0.641532 0.092898
O O10 0.879120 0.208601 0.891328
O O11 0.027810 0.314077 0.034876
O O12 0.586095 0.609259 0.409409
O O13 0.473991 0.810333 0.454467
O O14 0.382494 0.202868 0.281184
O O15 0.759707 0.554959 0.764078
O O16 0.725963 0.047734 0.731937
#
# Coordination Sequence:
#
# PCOD8046150 Si02
#       8
#     2   2   2   2   2   2   2   2
#     4  11  25  43  67 100 135 165 229 282 329 395
#     4   9  23  38  70  86 122 170 220 243 326 386
#     4  10  21  39  61  83 123 162 203 250 308 382
#     4  11  22  41  69  95 132 175 217 272 342 406
#     4  10  23  38  56  91 122 156 203 259 311 361
#     4  12  24  39  61  88 125 161 210 262 315 367
#     4  10  21  37  62  91 116 163 211 265 296 379
#     4   9  21  37  60  92 119 156 221 257 299 388
#
# _framework density 21.014806
#
# number of rings (size 3 to 8) (size 9 to 14) (size 15 to 20)
#    0.750    1.000    0.000    3.750    7.000    1.000 
#    0.000    7.500    0.000    0.000    0.000    0.000 
#    0.000    0.000    0.000    0.000    0.000    0.000 
#
# Total GULP energy -198267.931100 kJ/mol
# GULP energy per Si atom -12391.745694 kJ/mol
# Density = 2.096698 g / cm^3
# Si number density = 21.014806 Si / 1000 Ang^3
#
#
#
# Elastic Constant Matrix: (Units=GPa)
#
#
# Indices 1 2 3 4 5 6 
#
# 1 104.9937 4.5245 36.7930 0.0000 13.5088 0.0000
# 2 4.5245 89.8964 19.0687 0.0000 -1.0505 0.0000
# 3 36.7930 19.0687 69.8733 0.0000 8.5751 0.0000
# 4 0.0000 0.0000 0.0000 25.6186 0.0000 1.8282
# 5 13.5088 -1.0505 8.5751 0.0000 34.9684 0.0000
# 6 0.0000 0.0000 0.0000 1.8282 0.0000 33.8336
#
#
#
# Elastic Compliance Matrix: (Units=1/GPa)
#
#
# Indices 1 2 3 4 5 6 
#
# 1 0.012051 0.000660 -0.006141 0.000000 -0.003130 0.000000
# 2 0.000660 0.011891 -0.003717 0.000000 0.001014 0.000000
# 3 -0.006141 -0.003717 0.018850 0.000000 -0.002362 0.000000
# 4 0.000000 0.000000 0.000000 0.039185 0.000000 -0.002117
# 5 -0.003130 0.001014 -0.002362 0.000000 0.030416 0.000000
# 6 0.000000 0.000000 0.000000 -0.002117 0.000000 0.029671
#
#
# Mechanical properties :
#
#
# Convention : Reuss Voigt Hill
#
# Bulk Modulus (GPa) = 40.99369 42.83731 41.91550
# Shear Modulus (GPa) = 29.65737 32.50925 31.08331
#
# Velocity S-wave (km/s) = 3.76075 3.93742 3.85010
# Velocity P-wave (km/s) = 6.19734 6.41090 6.30503
#
# Compressibility (1/GPa) = 0.02439400
#
# Stress axis : x y z
#
# Youngs Moduli (GPa) = 82.98220 84.09733 53.05131
#
# Poissons Ratio (x) = -0.05547 0.32581
# Poissons Ratio (y) = -0.05474 0.19718
# Poissons Ratio (z) = 0.50963 0.31258
#
# Static dielectric constant tensor:
#      x y z
#    x 3.635190 0.000000 0.172480 
#    y 0.000000 3.885880 0.000000 
#    z 0.172480 0.000000 3.619880 
# 
# 
# High freq. dielectric constant tensor:
#      x y z
#    x 1.816490 0.000000 0.015100 
#    y 0.000000 1.839990 0.000000 
#    z 0.015100 0.000000 1.796720 
# 
# From -- ./inp_files/9435.got.cif
#   From: 2010.03.12/outbox.cif.g09.slc.cpg/sg4_5_cif.got.tgz:9435.got - 2010.03.31 09:31:35.
