data_PCOD8046379
_publ_section_title
;
Structure prediction by ZEFSAII (Michael W. Deem and Ramdas Pophale) SiO2 
 PCOD8046379
Probable space group: P 21
;
_chemical_formula_sum "Si O2"
_cell_formula_units_Z 16
_cell_length_a 15.747559
_cell_length_b 5.032228
_cell_length_c 9.280108
_cell_angle_alpha 90.000000
_cell_angle_beta 75.500579
_cell_angle_gamma 90.000000
_cell_volume 711.982486
_symmetry_space_group_name_H-M "P 21"
_symmetry_group_IT_number 4
_symmetry_cell_setting 'monoclinic'
loop_
_space_group_symop_operation_xyz
x,y,z
-x,1/2+y,-z
loop_
_atom_site_type_symbol
_atom_site_label
_atom_site_fract_x
_atom_site_fract_y
_atom_site_fract_z
Si Si1 0.053593 0.778210 0.513358
Si Si2 0.393092 0.613685 0.472411
Si Si3 0.853487 0.634123 0.331868
Si Si4 0.221395 0.497828 0.384516
Si Si5 0.587200 0.613651 0.339254
Si Si6 0.003834 0.751113 0.090741
Si Si7 0.811032 0.052387 0.915261
Si Si8 0.252093 0.058187 0.894819
O O1 0.147334 0.724604 0.399783
O O2 0.997247 0.508294 0.554432
O O3 0.919870 0.392113 0.342321
O O4 0.312870 0.624379 0.395022
O O5 0.484007 0.616498 0.343296
O O6 0.384843 0.359236 0.575494
O O7 0.388329 0.859460 0.578943
O O8 0.781430 0.508978 0.255520
O O9 0.921707 0.837570 0.226830
O O10 0.809698 0.766388 0.492573
O O11 0.229787 0.419405 0.212849
O O12 0.643292 0.612924 0.167250
O O13 0.086668 0.631838 0.143607
O O14 0.965802 0.516532 0.003954
O O15 0.758413 0.309514 0.994551
O O16 0.800262 0.818378 0.034452
#
# Coordination Sequence:
#
# PCOD8046379 Si02
#       8
#     2   2   2   2   2   2   2   2
#     4  12  27  44  65 100 135 178 235 286 348 407
#     4  10  22  41  73 109 140 173 233 296 346 413
#     4  12  26  44  75  94 134 186 244 283 347 425
#     4  12  28  46  72 104 143 186 236 293 360 423
#     4  10  21  42  73 108 137 176 234 293 345 420
#     4  12  25  44  64  94 130 179 235 287 343 412
#     4  12  28  45  64  99 145 181 230 296 357 415
#     4  12  25  46  70 100 136 187 231 290 354 427
#
# _framework density 22.472463999999999
#
# number of rings (size 3 to 8) (size 9 to 14) (size 15 to 20)
#    0.000    0.500    5.000    2.250    5.250    0.000 
#    0.000    1.250    0.000    0.000    0.000    0.000 
#    0.000    0.000    0.000    0.000    0.000    0.000 
#
# Total GULP energy -198315.976769 kJ/mol
# GULP energy per Si atom -12394.748548 kJ/mol
# Density = 2.242132 g / cm^3
# Si number density = 22.472464 Si / 1000 Ang^3
#
#
#
# Elastic Constant Matrix: (Units=GPa)
#
#
# Indices 1 2 3 4 5 6 
#
# 1 149.5399 34.3924 47.1998 0.0000 -0.0457 0.0000
# 2 34.3924 123.5362 26.7977 0.0000 -0.9816 0.0000
# 3 47.1998 26.7977 94.6839 0.0000 -4.0455 0.0000
# 4 0.0000 0.0000 0.0000 -6.3285 0.0000 4.6354
# 5 -0.0457 -0.9816 -4.0455 0.0000 32.5556 0.0000
# 6 0.0000 0.0000 0.0000 4.6354 0.0000 24.3523
#
#
#
# Elastic Compliance Matrix: (Units=1/GPa)
#
#
# Indices 1 2 3 4 5 6 
#
# 1 0.008191 -0.001485 -0.003684 0.000000 -0.000491 0.000000
# 2 -0.001485 0.008894 -0.001775 0.000000 0.000046 0.000000
# 3 -0.003684 -0.001775 0.012967 0.000000 0.001553 0.000000
# 4 0.000000 0.000000 0.000000 -0.138680 0.000000 0.026397
# 5 -0.000491 0.000046 0.001553 0.000000 0.030910 0.000000
# 6 0.000000 0.000000 0.000000 0.026397 0.000000 0.036039
#
#
# Mechanical properties :
#
#
# Convention : Reuss Voigt Hill
#
# Bulk Modulus (GPa) = 61.86762 64.94888 63.40825
# Shear Modulus (GPa) = -223.18689 27.40721 -97.88984
#
# Velocity S-wave (km/s) = -9.97654 3.49605 -6.60715
# Velocity P-wave (km/s) = 10.25272 6.72761 5.47072
#
# Compressibility (1/GPa) = 0.01616354
#
# Stress axis : x y z
#
# Youngs Moduli (GPa) = 122.07893 112.44004 77.12130
#
# Poissons Ratio (x) = 0.16700 0.28412
# Poissons Ratio (y) = 0.18132 0.13687
# Poissons Ratio (z) = 0.44974 0.19955
#
# Static dielectric constant tensor:
#      x y z
#    x 4.444120 0.000000 -0.191280 
#    y 0.000000 4.022850 0.000000 
#    z -0.191280 0.000000 4.123420 
# 
# 
# High freq. dielectric constant tensor:
#      x y z
#    x 1.888980 0.000000 -0.009650 
#    y 0.000000 1.892850 0.000000 
#    z -0.009650 0.000000 1.871030 
# 
# From -- ./inp_files/8659.got.cif
#   From: 2010.03.12/outbox.cif.g09.slc.cpg/sg4_5_cif.got.tgz:8659.got - 2010.03.31 09:31:35.
