data_PCOD8046184
_publ_section_title
;
Structure prediction by ZEFSAII (Michael W. Deem and Ramdas Pophale) SiO2 
 PCOD8046184
Probable space group: P 21
;
_chemical_formula_sum "Si O2"
_cell_formula_units_Z 16
_cell_length_a 11.121587
_cell_length_b 8.735202
_cell_length_c 11.465832
_cell_angle_alpha 90.000000
_cell_angle_beta 139.757100
_cell_angle_gamma 90.000000
_cell_volume 719.610630
_symmetry_space_group_name_H-M "P 21"
_symmetry_group_IT_number 4
_symmetry_cell_setting 'monoclinic'
loop_
_space_group_symop_operation_xyz
x,y,z
-x,1/2+y,-z
loop_
_atom_site_type_symbol
_atom_site_label
_atom_site_fract_x
_atom_site_fract_y
_atom_site_fract_z
Si Si1 0.092002 0.474810 0.999138
Si Si2 0.356500 0.587502 0.862495
Si Si3 0.239057 0.020151 0.839304
Si Si4 0.280473 0.849506 0.642014
Si Si5 0.434824 0.315221 0.341986
Si Si6 0.908422 0.839548 0.245842
Si Si7 0.264875 0.763825 0.018453
Si Si8 0.658241 0.458945 0.719050
O O1 0.122657 0.365097 0.912532
O O2 0.882876 0.461040 0.889558
O O3 0.239620 0.409439 0.203969
O O4 0.129425 0.651619 0.991212
O O5 0.248935 0.690685 0.688065
O O6 0.243952 0.429453 0.790577
O O7 0.558951 0.559872 0.957074
O O8 0.380753 0.668129 0.007713
O O9 0.100029 0.160314 0.737514
O O10 0.283307 0.981583 0.739069
O O11 0.148757 0.886605 0.853226
O O12 0.472482 0.855168 0.713425
O O13 0.114822 0.890133 0.431696
O O14 0.571066 0.371018 0.545125
O O15 0.413435 0.132442 0.333793
O O16 0.396249 0.858524 0.206464
#
# Coordination Sequence:
#
# PCOD8046184 Si02
#       8
#     2   2   2   2   2   2   2   2
#     4  11  23  45  69  95 137 173 221 274 330 388
#     4  10  21  38  65  95 130 173 215 267 330 394
#     4  11  22  39  67  94 130 172 216 269 332 391
#     4  11  22  41  61  98 132 168 221 269 330 394
#     4  12  26  44  71  97 133 178 220 281 329 392
#     4  11  21  39  65  97 134 173 214 272 329 392
#     4  10  22  40  65  95 128 173 218 264 331 392
#     4  12  25  46  67  99 132 172 231 270 331 391
#
# _framework density 22.234245000000001
#
# number of rings (size 3 to 8) (size 9 to 14) (size 15 to 20)
#    0.000    1.000    1.250    7.500    0.000    0.000 
#    4.500    0.000    5.500    0.000    0.000    0.000 
#    0.000    0.000    0.000    0.000    0.000    0.000 
#
# Total GULP energy -198346.495440 kJ/mol
# GULP energy per Si atom -12396.655965 kJ/mol
# Density = 2.218364 g / cm^3
# Si number density = 22.234245 Si / 1000 Ang^3
#
#
#
# Elastic Constant Matrix: (Units=GPa)
#
#
# Indices 1 2 3 4 5 6 
#
# 1 59.3204 29.3439 31.8920 0.0000 -5.8037 0.0000
# 2 29.3439 141.8672 39.7054 0.0000 -8.5764 0.0000
# 3 31.8920 39.7054 107.4301 0.0000 -0.1723 0.0000
# 4 0.0000 0.0000 0.0000 32.4984 0.0000 -0.5518
# 5 -5.8037 -8.5764 -0.1723 0.0000 33.9859 0.0000
# 6 0.0000 0.0000 0.0000 -0.5518 0.0000 23.2905
#
#
#
# Elastic Compliance Matrix: (Units=1/GPa)
#
#
# Indices 1 2 3 4 5 6 
#
# 1 0.021366 -0.002753 -0.005321 0.000000 0.002927 0.000000
# 2 -0.002753 0.008351 -0.002266 0.000000 0.001626 0.000000
# 3 -0.005321 -0.002266 0.011723 0.000000 -0.001421 0.000000
# 4 0.000000 0.000000 0.000000 0.030783 0.000000 0.000729
# 5 0.002927 0.001626 -0.001421 0.000000 0.030327 0.000000
# 6 0.000000 0.000000 0.000000 0.000729 0.000000 0.042953
#
#
# Mechanical properties :
#
#
# Convention : Reuss Voigt Hill
#
# Bulk Modulus (GPa) = 48.17006 56.72227 52.44616
# Shear Modulus (GPa) = 28.88426 31.80006 30.34216
#
# Velocity S-wave (km/s) = 3.60820 3.78594 3.69814
# Velocity P-wave (km/s) = 6.25065 6.68414 6.47103
#
# Compressibility (1/GPa) = 0.02075978
#
# Stress axis : x y z
#
# Youngs Moduli (GPa) = 46.80233 119.74646 85.30049
#
# Poissons Ratio (x) = 0.32971 0.45385
# Poissons Ratio (y) = 0.12887 0.19333
# Poissons Ratio (z) = 0.24902 0.27140
#
# Static dielectric constant tensor:
#      x y z
#    x 3.891780 0.000000 -0.095040 
#    y 0.000000 4.232000 0.000000 
#    z -0.095040 0.000000 3.985860 
# 
# 
# High freq. dielectric constant tensor:
#      x y z
#    x 1.867880 0.000000 -0.013670 
#    y 0.000000 1.891640 0.000000 
#    z -0.013670 0.000000 1.868630 
# 
# From -- ./inp_files/11912.got.cif
#   From: 2010.03.12/outbox.cif.g09.slc.cpg/sg4_6_cif.got.tgz:11912.got - 2010.03.31 09:31:35.
