data_PCOD8046729
_publ_section_title
;
Structure prediction by ZEFSAII (Michael W. Deem and Ramdas Pophale) SiO2 
 PCOD8046729
Probable space group: P 21
;
_chemical_formula_sum "Si O2"
_cell_formula_units_Z 14
_cell_length_a 8.963873
_cell_length_b 10.769483
_cell_length_c 6.334647
_cell_angle_alpha 90.000000
_cell_angle_beta 99.177705
_cell_angle_gamma 90.000000
_cell_volume 603.694769
_symmetry_space_group_name_H-M "P 21"
_symmetry_group_IT_number 4
_symmetry_cell_setting 'monoclinic'
loop_
_space_group_symop_operation_xyz
x,y,z
-x,1/2+y,-z
loop_
_atom_site_type_symbol
_atom_site_label
_atom_site_fract_x
_atom_site_fract_y
_atom_site_fract_z
Si Si1 0.293208 0.933200 0.942330
Si Si2 0.500451 0.812626 0.648252
Si Si3 0.859757 0.980352 0.325976
Si Si4 0.029437 0.797339 0.078742
Si Si5 0.917054 0.611771 0.371091
Si Si6 0.826541 0.793743 0.662472
Si Si7 0.523043 0.031728 0.314881
O O1 0.395661 0.843943 0.822652
O O2 0.174713 0.003746 0.765421
O O3 0.199510 0.846711 0.083811
O O4 0.396603 0.028383 0.100380
O O5 0.674246 0.815088 0.761669
O O6 0.472363 0.667849 0.571514
O O7 0.481181 0.916526 0.460286
O O8 0.877014 0.919944 0.562580
O O9 0.918258 0.903414 0.140522
O O10 0.686788 0.016261 0.243199
O O11 0.981177 0.087235 0.397339
O O12 0.030445 0.681168 0.236212
O O13 0.960022 0.749425 0.844602
O O14 0.793660 0.701369 0.455493
#
# Coordination Sequence:
#
# PCOD8046729 Si02
#       7
#     2   2   2   2   2   2   2
#     4  12  27  44  73 110 145 195 244 303 367 445
#     4  11  26  46  73 106 150 194 246 302 377 433
#     4  10  24  43  66 100 137 186 240 296 359 422
#     4  11  25  42  72 103 141 184 246 303 365 427
#     4  11  25  42  75 103 140 188 247 302 358 430
#     4  10  22  45  68  99 141 187 236 303 358 430
#     4  11  27  46  73 105 152 196 247 305 366 445
#
# _framework density 23.190526999999999
#
# number of rings (size 3 to 8) (size 9 to 14) (size 15 to 20)
#    0.000    1.143    1.429    2.571   10.000    3.429 
#    2.571    0.000    0.000    0.000    0.000    0.000 
#    0.000    0.000    0.000    0.000    0.000    0.000 
#
# Total GULP energy -173458.935943 kJ/mol
# GULP energy per Si atom -12389.923996 kJ/mol
# Density = 2.313774 g / cm^3
# Si number density = 23.190527 Si / 1000 Ang^3
#
#
#
# Elastic Constant Matrix: (Units=GPa)
#
#
# Indices 1 2 3 4 5 6 
#
# 1 134.4778 31.6849 40.8316 0.0000 -10.0828 0.0000
# 2 31.6849 123.2618 42.6846 0.0000 -8.9696 0.0000
# 3 40.8316 42.6846 69.0972 0.0000 3.6921 0.0000
# 4 0.0000 0.0000 0.0000 38.6685 0.0000 -0.5804
# 5 -10.0828 -8.9696 3.6921 0.0000 41.9311 0.0000
# 6 0.0000 0.0000 0.0000 -0.5804 0.0000 19.6464
#
#
#
# Elastic Compliance Matrix: (Units=1/GPa)
#
#
# Indices 1 2 3 4 5 6 
#
# 1 0.009377 -0.000315 -0.005489 0.000000 0.002671 0.000000
# 2 -0.000315 0.010665 -0.006550 0.000000 0.002782 0.000000
# 3 -0.005489 -0.006550 0.022012 0.000000 -0.004659 0.000000
# 4 0.000000 0.000000 0.000000 0.025872 0.000000 0.000764
# 5 0.002671 0.002782 -0.004659 0.000000 0.025496 0.000000
# 6 0.000000 0.000000 0.000000 0.000764 0.000000 0.050923
#
#
# Mechanical properties :
#
#
# Convention : Reuss Voigt Hill
#
# Bulk Modulus (GPa) = 57.65794 61.91544 59.78669
# Shear Modulus (GPa) = 28.59816 34.15825 31.37821
#
# Velocity S-wave (km/s) = 3.51548 3.84205 3.68239
# Velocity P-wave (km/s) = 6.43388 6.81457 6.62696
#
# Compressibility (1/GPa) = 0.01734367
#
# Stress axis : x y z
#
# Youngs Moduli (GPa) = 106.63894 93.76742 45.43036
#
# Poissons Ratio (x) = 0.02956 0.24938
# Poissons Ratio (y) = 0.03361 0.29759
# Poissons Ratio (z) = 0.58538 0.61422
#
# Static dielectric constant tensor:
#      x y z
#    x 4.267350 0.000000 -0.134390 
#    y 0.000000 4.333910 0.000000 
#    z -0.134390 0.000000 3.871460 
# 
# 
# High freq. dielectric constant tensor:
#      x y z
#    x 1.929500 0.000000 -0.011290 
#    y 0.000000 1.922460 0.000000 
#    z -0.011290 0.000000 1.906850 
# 
# From -- ./inp_files/1179.got.cif
#   From: 2010.03.12/outbox.cif.g09.slc.cpg/sg4_1_cif.got.tgz:1179.got - 2010.03.31 09:31:35.
