data_PCOD8046750
_publ_section_title
;
Structure prediction by ZEFSAII (Michael W. Deem and Ramdas Pophale) SiO2 
 PCOD8046750
Probable space group: P 21
;
_chemical_formula_sum "Si O2"
_cell_formula_units_Z 16
_cell_length_a 6.478609
_cell_length_b 13.108166
_cell_length_c 10.600007
_cell_angle_alpha 90.000000
_cell_angle_beta 60.191147
_cell_angle_gamma 90.000000
_cell_volume 781.076862
_symmetry_space_group_name_H-M "P 21"
_symmetry_group_IT_number 4
_symmetry_cell_setting 'monoclinic'
loop_
_space_group_symop_operation_xyz
x,y,z
-x,1/2+y,-z
loop_
_atom_site_type_symbol
_atom_site_label
_atom_site_fract_x
_atom_site_fract_y
_atom_site_fract_z
Si Si1 0.953043 0.504620 0.375461
Si Si2 0.721340 0.492758 0.002824
Si Si3 0.720742 0.138829 0.871312
Si Si4 0.157881 0.643646 0.885771
Si Si5 0.231312 0.400638 0.501371
Si Si6 0.271747 0.855555 0.749505
Si Si7 0.257716 0.849007 0.245263
Si Si8 0.510547 0.994723 0.349197
O O1 0.883873 0.407258 0.311991
O O2 0.723672 0.545152 0.519806
O O3 0.038425 0.597119 0.263655
O O4 0.160336 0.476082 0.410002
O O5 0.761045 0.422118 0.869807
O O6 0.916865 0.581174 0.943681
O O7 0.468792 0.548181 0.071971
O O8 0.734230 0.425197 0.124330
O O9 0.633636 0.239204 0.823480
O O10 0.792138 0.176442 0.987237
O O11 0.144985 0.747407 0.809764
O O12 0.381826 0.576908 0.776873
O O13 0.458419 0.336364 0.382709
O O14 0.300775 0.468277 0.600566
O O15 0.003289 0.333250 0.611790
O O16 0.440297 0.893875 0.291889
#
# Coordination Sequence:
#
# PCOD8046750 Si02
#       8
#     2   2   2   2   2   2   2   2
#     4  10  23  45  66  95 134 170 217 271 314 381
#     4  12  24  42  64  98 138 166 216 266 318 390
#     4  12  25  41  69  98 129 177 211 263 332 384
#     4  12  25  41  69  98 129 177 211 263 332 384
#     4  10  22  46  68  90 136 172 212 276 314 372
#     4  11  24  43  66  98 131 172 216 265 322 384
#     4  11  24  43  66  98 131 172 216 265 322 384
#     4  10  23  45  66  95 134 170 217 271 314 381
#
# _framework density 20.484539000000002
#
# number of rings (size 3 to 8) (size 9 to 14) (size 15 to 20)
#    0.000    1.000    6.250    0.000    1.750    4.000 
#    6.750    0.000    0.000    0.000    0.000    0.000 
#    0.000    0.000    0.000    0.000    0.000    0.000 
#
# Total GULP energy -198436.635960 kJ/mol
# GULP energy per Si atom -12402.289747 kJ/mol
# Density = 2.043792 g / cm^3
# Si number density = 20.484539 Si / 1000 Ang^3
#
#
#
# Elastic Constant Matrix: (Units=GPa)
#
#
# Indices 1 2 3 4 5 6 
#
# 1 91.3594 16.6815 22.8637 0.0000 17.0056 0.0000
# 2 16.6815 73.3479 24.7561 0.0000 -1.4319 0.0000
# 3 22.8637 24.7561 97.9714 0.0000 9.5079 0.0000
# 4 0.0000 0.0000 0.0000 6.2693 0.0000 1.2470
# 5 17.0056 -1.4319 9.5079 0.0000 30.4411 0.0000
# 6 0.0000 0.0000 0.0000 1.2470 0.0000 27.5817
#
#
#
# Elastic Compliance Matrix: (Units=1/GPa)
#
#
# Indices 1 2 3 4 5 6 
#
# 1 0.013133 -0.002529 -0.001755 0.000000 -0.006907 0.000000
# 2 -0.002529 0.015503 -0.003646 0.000000 0.003281 0.000000
# 3 -0.001755 -0.003646 0.011818 0.000000 -0.002882 0.000000
# 4 0.000000 0.000000 0.000000 0.160954 0.000000 -0.007277
# 5 -0.006907 0.003281 -0.002882 0.000000 0.037763 0.000000
# 6 0.000000 0.000000 0.000000 -0.007277 0.000000 0.036585
#
#
# Mechanical properties :
#
#
# Convention : Reuss Voigt Hill
#
# Bulk Modulus (GPa) = 40.66156 43.47567 42.06862
# Shear Modulus (GPa) = 16.67699 26.08358 21.38028
#
# Velocity S-wave (km/s) = 2.85638 3.57225 3.23418
# Velocity P-wave (km/s) = 5.54721 6.18743 5.87605
#
# Compressibility (1/GPa) = 0.02459325
#
# Stress axis : x y z
#
# Youngs Moduli (GPa) = 76.14663 64.50215 84.61948
#
# Poissons Ratio (x) = 0.16313 0.14854
# Poissons Ratio (y) = 0.19258 0.30849
# Poissons Ratio (z) = 0.13367 0.23515
#
# Static dielectric constant tensor:
#      x y z
#    x 3.663080 0.000000 0.023600 
#    y 0.000000 3.428690 0.000000 
#    z 0.023600 0.000000 4.128970 
# 
# 
# High freq. dielectric constant tensor:
#      x y z
#    x 1.803540 0.000000 0.003800 
#    y 0.000000 1.784520 0.000000 
#    z 0.003800 0.000000 1.829390 
# 
# From -- ./inp_files/1349.got.cif
#   From: 2010.03.12/outbox.cif.g09.slc.cpg/sg4_1_cif.got.tgz:1349.got - 2010.03.31 09:31:35.
