data_PCOD8046887
_publ_section_title
;
Structure prediction by ZEFSAII (Michael W. Deem and Ramdas Pophale) SiO2 
 PCOD8046887
Probable space group: P 21
;
_chemical_formula_sum "Si O2"
_cell_formula_units_Z 16
_cell_length_a 5.429560
_cell_length_b 11.609316
_cell_length_c 12.251939
_cell_angle_alpha 90.000000
_cell_angle_beta 122.994430
_cell_angle_gamma 90.000000
_cell_volume 647.731343
_symmetry_space_group_name_H-M "P 21"
_symmetry_group_IT_number 4
_symmetry_cell_setting 'monoclinic'
loop_
_space_group_symop_operation_xyz
x,y,z
-x,1/2+y,-z
loop_
_atom_site_type_symbol
_atom_site_label
_atom_site_fract_x
_atom_site_fract_y
_atom_site_fract_z
Si Si1 0.018785 0.617200 0.471492
Si Si2 0.073437 0.347240 0.865755
Si Si3 0.129937 0.014806 0.347884
Si Si4 0.601257 0.150543 0.754154
Si Si5 0.460630 0.197717 0.089525
Si Si6 0.567148 0.722048 0.676001
Si Si7 0.131064 0.577959 0.975188
Si Si8 0.705253 0.954166 0.610219
O O1 0.300362 0.700952 0.524780
O O2 0.043660 0.493557 0.414982
O O3 0.037381 0.592079 0.604774
O O4 0.730399 0.683804 0.361117
O O5 0.082921 0.416146 0.752730
O O6 0.792474 0.265417 0.792494
O O7 0.033740 0.445185 0.948408
O O8 0.383134 0.286886 0.971978
O O9 0.242355 0.102427 0.277954
O O10 0.396140 0.952842 0.474068
O O11 0.724862 0.051913 0.706255
O O12 0.600731 0.098679 0.875903
O O13 0.547263 0.251658 0.228766
O O14 0.730048 0.119950 0.109431
O O15 0.145490 0.142248 0.039859
O O16 0.760396 0.828478 0.675943
#
# Coordination Sequence:
#
# PCOD8046887 Si02
#       8
#     2   2   2   2   2   2   2   2
#     4  10  24  46  73 109 151 196 260 313 387 464
#     4  11  24  48  77 105 155 196 252 319 372 472
#     4  10  23  43  68 109 140 199 251 305 389 455
#     4  10  25  46  72 112 149 196 255 317 386 456
#     4  11  26  47  73 113 149 202 255 314 377 460
#     4  11  23  46  73 101 156 196 257 316 389 458
#     4  11  25  48  72 111 151 197 257 306 385 453
#     4  10  24  44  66 108 147 192 249 322 379 448
#
# _framework density 24.701599000000002
#
# number of rings (size 3 to 8) (size 9 to 14) (size 15 to 20)
#    0.000    1.500    1.250    1.500    8.750    4.000 
#   15.750    0.000    0.000    0.000    0.000    0.000 
#    0.000    0.000    0.000    0.000    0.000    0.000 
#
# Total GULP energy -198245.968618 kJ/mol
# GULP energy per Si atom -12390.373039 kJ/mol
# Density = 2.464538 g / cm^3
# Si number density = 24.701599 Si / 1000 Ang^3
#
#
#
# Elastic Constant Matrix: (Units=GPa)
#
#
# Indices 1 2 3 4 5 6 
#
# 1 75.6623 24.8318 21.0342 0.0000 8.9433 0.0000
# 2 24.8318 137.6778 53.9150 0.0000 14.6290 0.0000
# 3 21.0342 53.9150 113.8727 0.0000 -6.1955 0.0000
# 4 0.0000 0.0000 0.0000 38.0284 0.0000 8.3153
# 5 8.9433 14.6290 -6.1955 0.0000 30.4577 0.0000
# 6 0.0000 0.0000 0.0000 8.3153 0.0000 25.3803
#
#
#
# Elastic Compliance Matrix: (Units=1/GPa)
#
#
# Indices 1 2 3 4 5 6 
#
# 1 0.014792 -0.001305 -0.002343 0.000000 -0.004193 0.000000
# 2 -0.001305 0.009928 -0.004751 0.000000 -0.005351 0.000000
# 3 -0.002343 -0.004751 0.011755 0.000000 0.005361 0.000000
# 4 0.000000 0.000000 0.000000 0.028325 0.000000 -0.009280
# 5 -0.004193 -0.005351 0.005361 0.000000 0.037724 0.000000
# 6 0.000000 0.000000 0.000000 -0.009280 0.000000 0.042441
#
#
# Mechanical properties :
#
#
# Convention : Reuss Voigt Hill
#
# Bulk Modulus (GPa) = 50.81659 58.53054 54.67356
# Shear Modulus (GPa) = 29.70512 33.93539 31.82026
#
# Velocity S-wave (km/s) = 3.47155 3.71052 3.59302
# Velocity P-wave (km/s) = 6.05688 6.48874 6.27652
#
# Compressibility (1/GPa) = 0.01967861
#
# Stress axis : x y z
#
# Youngs Moduli (GPa) = 67.60522 100.72891 85.06791
#
# Poissons Ratio (x) = 0.13145 0.19927
# Poissons Ratio (y) = 0.08822 0.40412
# Poissons Ratio (z) = 0.15837 0.47851
#
# Static dielectric constant tensor:
#      x y z
#    x 4.139100 0.000000 -0.133420 
#    y 0.000000 4.265910 0.000000 
#    z -0.133420 0.000000 5.007720 
# 
# 
# High freq. dielectric constant tensor:
#      x y z
#    x 1.959960 0.000000 0.002830 
#    y 0.000000 1.970790 0.000000 
#    z 0.002830 0.000000 2.018180 
# 
# From -- ./inp_files/2939.got.cif
#   From: 2010.03.12/outbox.cif.g09.slc.cpg/sg4_2_cif.got.tgz:2939.got - 2010.03.31 09:31:35.
