data_PCOD8046989
_publ_section_title
;
Structure prediction by ZEFSAII (Michael W. Deem and Ramdas Pophale) SiO2 
 PCOD8046989
Probable space group: P 21
;
_chemical_formula_sum "Si O2"
_cell_formula_units_Z 16
_cell_length_a 9.431016
_cell_length_b 10.996853
_cell_length_c 8.411346
_cell_angle_alpha 90.000000
_cell_angle_beta 132.926855
_cell_angle_gamma 90.000000
_cell_volume 638.757799
_symmetry_space_group_name_H-M "P 21"
_symmetry_group_IT_number 4
_symmetry_cell_setting 'monoclinic'
loop_
_space_group_symop_operation_xyz
x,y,z
-x,1/2+y,-z
loop_
_atom_site_type_symbol
_atom_site_label
_atom_site_fract_x
_atom_site_fract_y
_atom_site_fract_z
Si Si1 0.401889 0.568850 0.903393
Si Si2 0.568210 0.810176 0.146790
Si Si3 0.154221 0.956729 0.322818
Si Si4 0.885347 0.871319 0.855639
Si Si5 0.528053 0.294120 0.559147
Si Si6 0.212065 0.603072 0.419878
Si Si7 0.930181 0.173850 0.187211
Si Si8 0.008307 0.790288 0.445388
O O1 0.510801 0.436156 0.997007
O O2 0.314654 0.562742 0.659593
O O3 0.250835 0.579776 0.939510
O O4 0.537293 0.688453 0.018572
O O5 0.487856 0.788303 0.262698
O O6 0.796221 0.831103 0.328856
O O7 0.352996 0.918095 0.391118
O O8 0.136034 0.905021 0.487044
O O9 0.136530 0.102637 0.329889
O O10 0.956627 0.914592 0.081158
O O11 0.676992 0.805512 0.689601
O O12 0.059732 0.777438 0.939022
O O13 0.877959 0.987087 0.734589
O O14 0.638516 0.174479 0.581424
O O15 0.028714 0.689563 0.320645
O O16 0.889051 0.243048 0.319440
#
# Coordination Sequence:
#
# PCOD8046989 Si02
#       8
#     2   2   2   2   2   2   2   2
#     4  11  25  45  74 105 154 190 256 309 372 450
#     4  12  24  47  71 111 145 196 252 310 371 451
#     4  11  27  46  74 105 146 192 245 296 372 445
#     4  12  26  45  77 103 151 191 247 303 375 444
#     4  11  26  47  71 109 148 190 244 308 372 442
#     4  10  25  47  68 104 145 190 242 310 369 444
#     4  11  24  47  72 102 144 198 238 305 373 438
#     4  10  23  46  71  97 141 185 242 297 366 428
#
# _framework density 25.048618000000001
#
# number of rings (size 3 to 8) (size 9 to 14) (size 15 to 20)
#    0.000    1.000    3.750    0.750   10.500    2.000 
#    4.500    0.000    0.000    0.000    0.000    0.000 
#    0.000    0.000    0.000    0.000    0.000    0.000 
#
# Total GULP energy -198212.635293 kJ/mol
# GULP energy per Si atom -12388.289706 kJ/mol
# Density = 2.499161 g / cm^3
# Si number density = 25.048618 Si / 1000 Ang^3
#
#
#
# Elastic Constant Matrix: (Units=GPa)
#
#
# Indices 1 2 3 4 5 6 
#
# 1 120.1601 28.4736 4.4168 0.0000 -5.0713 0.0000
# 2 28.4736 120.2036 -1.2460 0.0000 -3.4268 0.0000
# 3 4.4168 -1.2460 43.3809 0.0000 -4.1230 0.0000
# 4 0.0000 0.0000 0.0000 30.2349 0.0000 0.3461
# 5 -5.0713 -3.4268 -4.1230 0.0000 24.7111 0.0000
# 6 0.0000 0.0000 0.0000 0.3461 0.0000 48.3277
#
#
#
# Elastic Compliance Matrix: (Units=1/GPa)
#
#
# Indices 1 2 3 4 5 6 
#
# 1 0.008904 -0.002078 -0.000833 0.000000 0.001400 0.000000
# 2 -0.002078 0.008843 0.000550 0.000000 0.000892 0.000000
# 3 -0.000833 0.000550 0.023516 0.000000 0.003829 0.000000
# 4 0.000000 0.000000 0.000000 0.033077 0.000000 -0.000237
# 5 0.001400 0.000892 0.003829 0.000000 0.041518 0.000000
# 6 0.000000 0.000000 0.000000 -0.000237 0.000000 0.020694
#
#
# Mechanical properties :
#
#
# Convention : Reuss Voigt Hill
#
# Bulk Modulus (GPa) = 27.36628 38.55927 32.96278
# Shear Modulus (GPa) = 32.58312 37.46142 35.02227
#
# Velocity S-wave (km/s) = 3.61057 3.87143 3.74327
# Velocity P-wave (km/s) = 5.32265 5.95072 5.64543
#
# Compressibility (1/GPa) = 0.03654132
#
# Stress axis : x y z
#
# Youngs Moduli (GPa) = 112.30460 113.08939 42.52393
#
# Poissons Ratio (x) = 0.23500 0.03543
# Poissons Ratio (y) = 0.23336 -0.02340
# Poissons Ratio (z) = 0.09357 -0.06223
#
# Static dielectric constant tensor:
#      x y z
#    x 4.641610 0.000000 -0.034120 
#    y 0.000000 5.095090 0.000000 
#    z -0.034120 0.000000 4.200650 
# 
# 
# High freq. dielectric constant tensor:
#      x y z
#    x 2.009280 0.000000 -0.008570 
#    y 0.000000 2.022430 0.000000 
#    z -0.008570 0.000000 1.966400 
# 
# From -- ./inp_files/6477.got.cif
#   From: 2010.03.12/outbox.cif.g09.slc.cpg/sg4_4_cif.got.tgz:6477.got - 2010.03.31 09:31:35.
