data_PCOD8046546
_publ_section_title
;
Structure prediction by ZEFSAII (Michael W. Deem and Ramdas Pophale) SiO2 
 PCOD8046546
Probable space group: P 21
;
_chemical_formula_sum "Si O2"
_cell_formula_units_Z 14
_cell_length_a 9.407319
_cell_length_b 12.491507
_cell_length_c 7.009176
_cell_angle_alpha 90.000000
_cell_angle_beta 52.466495
_cell_angle_gamma 90.000000
_cell_volume 653.159632
_symmetry_space_group_name_H-M "P 21"
_symmetry_group_IT_number 4
_symmetry_cell_setting 'monoclinic'
loop_
_space_group_symop_operation_xyz
x,y,z
-x,1/2+y,-z
loop_
_atom_site_type_symbol
_atom_site_label
_atom_site_fract_x
_atom_site_fract_y
_atom_site_fract_z
Si Si1 0.508473 0.027830 0.542925
Si Si2 0.310609 0.680664 0.881439
Si Si3 0.228470 0.984069 0.290823
Si Si4 0.479334 0.151355 0.919994
Si Si5 0.080942 0.490987 0.151975
Si Si6 0.175481 0.907994 0.927562
Si Si7 0.422917 0.376722 0.819563
O O1 0.534829 0.122869 0.368628
O O2 0.577834 0.065962 0.695786
O O3 0.298314 0.002834 0.740465
O O4 0.601528 0.919873 0.380514
O O5 0.265061 0.792380 0.817849
O O6 0.381167 0.695811 0.039531
O O7 0.130343 0.609187 0.034299
O O8 0.060948 0.001745 0.564309
O O9 0.383897 0.915561 0.263997
O O10 0.308180 0.098390 0.162185
O O11 0.149308 0.920752 0.174589
O O12 0.408561 0.249347 0.847517
O O13 0.009793 0.418393 0.034418
O O14 0.264511 0.432701 0.073465
#
# Coordination Sequence:
#
# PCOD8046546 Si02
#       7
#     2   2   2   2   2   2   2
#     4  10  22  40  68  97 130 175 222 281 329 400
#     4  11  23  42  69  98 136 184 228 274 348 407
#     4  11  23  45  64  98 139 173 226 283 327 412
#     4  11  22  42  72  98 133 188 226 271 349 404
#     4  11  25  43  64 100 139 169 228 289 328 411
#     4  11  23  41  69  97 137 178 224 285 340 394
#     4  11  22  45  68  98 136 177 230 275 339 406
#
# _framework density 21.434269
#
# number of rings (size 3 to 8) (size 9 to 14) (size 15 to 20)
#    0.000    1.143    5.714    0.857    0.000    5.714 
#    0.000    1.429    0.000    0.000    0.000    0.000 
#    0.000    0.000    0.000    0.000    0.000    0.000 
#
# Total GULP energy -173521.542797 kJ/mol
# GULP energy per Si atom -12394.395914 kJ/mol
# Density = 2.138548 g / cm^3
# Si number density = 21.434269 Si / 1000 Ang^3
#
#
#
# Elastic Constant Matrix: (Units=GPa)
#
#
# Indices 1 2 3 4 5 6 
#
# 1 55.8935 24.5560 49.1882 0.0000 0.2872 0.0000
# 2 24.5560 108.0872 47.0770 0.0000 0.8159 0.0000
# 3 49.1882 47.0770 144.5836 0.0000 -5.9569 0.0000
# 4 0.0000 0.0000 0.0000 26.9662 0.0000 5.1634
# 5 0.2872 0.8159 -5.9569 0.0000 29.9295 0.0000
# 6 0.0000 0.0000 0.0000 5.1634 0.0000 34.6968
#
#
#
# Elastic Compliance Matrix: (Units=1/GPa)
#
#
# Indices 1 2 3 4 5 6 
#
# 1 0.026158 -0.002354 -0.008207 0.000000 -0.001820 0.000000
# 2 -0.002354 0.011022 -0.002823 0.000000 -0.000840 0.000000
# 3 -0.008207 -0.002823 0.010722 0.000000 0.002290 0.000000
# 4 0.000000 0.000000 0.000000 0.038171 0.000000 -0.005680
# 5 -0.001820 -0.000840 0.002290 0.000000 0.033908 0.000000
# 6 0.000000 0.000000 0.000000 -0.005680 0.000000 0.029666
#
#
# Mechanical properties :
#
#
# Convention : Reuss Voigt Hill
#
# Bulk Modulus (GPa) = 47.31821 61.13408 54.22614
# Shear Modulus (GPa) = 27.25380 30.83469 29.04425
#
# Velocity S-wave (km/s) = 3.56969 3.79696 3.68508
# Velocity P-wave (km/s) = 6.25413 6.91420 6.59243
#
# Compressibility (1/GPa) = 0.02113351
#
# Stress axis : x y z
#
# Youngs Moduli (GPa) = 38.22972 90.72480 93.26591
#
# Poissons Ratio (x) = 0.21358 0.76548
# Poissons Ratio (y) = 0.09000 0.26325
# Poissons Ratio (z) = 0.31377 0.25608
#
# Static dielectric constant tensor:
#      x y z
#    x 3.736420 0.000000 0.173340 
#    y 0.000000 3.930700 0.000000 
#    z 0.173340 0.000000 4.037110 
# 
# 
# High freq. dielectric constant tensor:
#      x y z
#    x 1.818330 0.000000 0.007930 
#    y 0.000000 1.839890 0.000000 
#    z 0.007930 0.000000 1.851760 
# 
# From -- ./inp_files/1808.got.cif
#   From: 2010.03.12/outbox.cif.g09.slc.cpg/sg4_1_cif.got.tgz:1808.got - 2010.03.31 09:31:35.
