data_PCOD8046020
_publ_section_title
;
Structure prediction by ZEFSAII (Michael W. Deem and Ramdas Pophale) SiO2 
 PCOD8046020
Probable space group: P 21
;
_chemical_formula_sum "Si O2"
_cell_formula_units_Z 16
_cell_length_a 16.150057
_cell_length_b 9.144373
_cell_length_c 13.185737
_cell_angle_alpha 90.000000
_cell_angle_beta 155.307098
_cell_angle_gamma 90.000000
_cell_volume 813.492513
_symmetry_space_group_name_H-M "P 21"
_symmetry_group_IT_number 4
_symmetry_cell_setting 'monoclinic'
loop_
_space_group_symop_operation_xyz
x,y,z
-x,1/2+y,-z
loop_
_atom_site_type_symbol
_atom_site_label
_atom_site_fract_x
_atom_site_fract_y
_atom_site_fract_z
Si Si1 0.558895 0.786830 0.451037
Si Si2 0.945131 0.936322 0.805632
Si Si3 0.208027 0.657083 0.516607
Si Si4 0.645006 0.682735 0.937282
Si Si5 0.044484 0.973084 0.620377
Si Si6 0.338471 0.057078 0.273259
Si Si7 0.939988 0.923946 0.274806
Si Si8 0.824381 0.237394 0.093944
O O1 0.783797 0.829320 0.673719
O O2 0.562912 0.651653 0.530257
O O3 0.477434 0.917960 0.426445
O O4 0.414355 0.748708 0.193988
O O5 0.068924 0.840465 0.866186
O O6 0.841170 0.077291 0.642684
O O7 0.117908 0.009100 0.066934
O O8 0.438895 0.687078 0.766536
O O9 0.151115 0.544134 0.543991
O O10 0.097427 0.813562 0.398984
O O11 0.655536 0.632913 0.831613
O O12 0.774341 0.576220 0.149701
O O13 0.726899 0.846591 0.038847
O O14 0.109614 0.807959 0.725037
O O15 0.011517 0.968831 0.465074
O O16 0.908043 0.073272 0.176428
#
# Coordination Sequence:
#
# PCOD8046020 Si02
#       8
#     2   2   2   2   2   2   2   2
#     4  11  24  41  66  90 122 163 206 259 310 376
#     4  10  20  43  62  87 122 167 201 250 314 368
#     4  10  20  39  66  86 120 172 199 248 317 364
#     4  11  21  42  63  85 127 166 202 256 311 371
#     4  10  20  42  64  84 124 169 205 257 307 362
#     4  11  23  42  64  90 120 164 205 254 316 364
#     4  11  23  37  62  97 126 158 210 258 302 371
#     4  10  21  40  59  93 127 159 204 254 313 358
#
# _framework density 19.668282000000001
#
# number of rings (size 3 to 8) (size 9 to 14) (size 15 to 20)
#    0.000    1.500    6.250    1.500    1.750    4.000 
#    0.000    3.750    0.000    0.000    0.000    0.000 
#    0.000    0.000    0.000    0.000    0.000    0.000 
#
# Total GULP energy -198232.586685 kJ/mol
# GULP energy per Si atom -12389.536668 kJ/mol
# Density = 1.962352 g / cm^3
# Si number density = 19.668282 Si / 1000 Ang^3
#
#
#
# Elastic Constant Matrix: (Units=GPa)
#
#
# Indices 1 2 3 4 5 6 
#
# 1 33.8166 1.4375 33.0695 0.0000 7.3142 0.0000
# 2 1.4375 99.6476 19.2969 0.0000 -7.6985 0.0000
# 3 33.0695 19.2969 94.8424 0.0000 15.7512 0.0000
# 4 0.0000 0.0000 0.0000 37.3155 0.0000 -2.4392
# 5 7.3142 -7.6985 15.7512 0.0000 37.7116 0.0000
# 6 0.0000 0.0000 0.0000 -2.4392 0.0000 22.5903
#
#
#
# Elastic Compliance Matrix: (Units=1/GPa)
#
#
# Indices 1 2 3 4 5 6 
#
# 1 0.045559 0.002331 -0.016087 0.000000 -0.001641 0.000000
# 2 0.002331 0.010950 -0.003586 0.000000 0.003281 0.000000
# 3 -0.016087 -0.003586 0.017715 0.000000 -0.005011 0.000000
# 4 0.000000 0.000000 0.000000 0.026989 0.000000 0.002914
# 5 -0.001641 0.003281 -0.005011 0.000000 0.029598 0.000000
# 6 0.000000 0.000000 0.000000 0.002914 0.000000 0.044581
#
#
# Mechanical properties :
#
#
# Convention : Reuss Voigt Hill
#
# Bulk Modulus (GPa) = 25.29063 37.32382 31.30722
# Shear Modulus (GPa) = 22.39596 31.15699 26.77647
#
# Velocity S-wave (km/s) = 3.37810 3.98442 3.69372
# Velocity P-wave (km/s) = 5.30112 6.33919 5.84326
#
# Compressibility (1/GPa) = 0.03954033
#
# Stress axis : x y z
#
# Youngs Moduli (GPa) = 21.94962 91.32810 56.45004
#
# Poissons Ratio (x) = -0.21291 0.90812
# Poissons Ratio (y) = -0.05117 0.20240
# Poissons Ratio (z) = 0.35311 0.32746
#
# Static dielectric constant tensor:
#      x y z
#    x 3.132320 0.000000 0.149140 
#    y 0.000000 3.998640 0.000000 
#    z 0.149140 0.000000 3.962630 
# 
# 
# High freq. dielectric constant tensor:
#      x y z
#    x 1.737550 0.000000 0.004620 
#    y 0.000000 1.782980 0.000000 
#    z 0.004620 0.000000 1.778150 
# 
# From -- ./inp_files/12542.got.cif
#   From: 2010.03.12/outbox.cif.g09.slc.cpg/sg4_7_cif.got.tgz:12542.got - 2010.03.31 09:31:35.
