data_PCOD8046686
_publ_section_title
;
Structure prediction by ZEFSAII (Michael W. Deem and Ramdas Pophale) SiO2 
 PCOD8046686
Probable space group: P 21
;
_chemical_formula_sum "Si O2"
_cell_formula_units_Z 16
_cell_length_a 9.579579
_cell_length_b 13.877730
_cell_length_c 6.946400
_cell_angle_alpha 90.000000
_cell_angle_beta 52.962814
_cell_angle_gamma 90.000000
_cell_volume 737.158228
_symmetry_space_group_name_H-M "P 21"
_symmetry_group_IT_number 4
_symmetry_cell_setting 'monoclinic'
loop_
_space_group_symop_operation_xyz
x,y,z
-x,1/2+y,-z
loop_
_atom_site_type_symbol
_atom_site_label
_atom_site_fract_x
_atom_site_fract_y
_atom_site_fract_z
Si Si1 0.686188 0.323580 0.895390
Si Si2 0.424868 0.091847 0.754482
Si Si3 0.792096 0.624803 0.410075
Si Si4 0.372106 0.774291 0.477853
Si Si5 0.781602 0.009134 0.364534
Si Si6 0.384883 0.325248 0.408678
Si Si7 0.838506 0.168104 0.046823
Si Si8 0.858593 0.519742 0.741035
O O1 0.696378 0.323183 0.656814
O O2 0.825987 0.407787 0.822012
O O3 0.489971 0.353014 0.125291
O O4 0.738743 0.220612 0.951208
O O5 0.323012 0.062044 0.642920
O O6 0.470195 0.203721 0.709935
O O7 0.605496 0.034374 0.628497
O O8 0.299823 0.080152 0.039300
O O9 0.680329 0.716481 0.573596
O O10 0.856516 0.550536 0.519440
O O11 0.957474 0.668925 0.161525
O O12 0.463747 0.843721 0.556267
O O13 0.205316 0.723897 0.718195
O O14 0.777439 0.892584 0.387716
O O15 0.776451 0.056895 0.152001
O O16 0.953931 0.049065 0.328036
#
# Coordination Sequence:
#
# PCOD8046686 Si02
#       8
#     2   2   2   2   2   2   2   2
#     4  11  23  43  69 102 135 179 232 295 336 419
#     4  10  22  44  66  91 139 174 227 282 341 411
#     4  11  24  43  69 101 135 187 224 288 351 408
#     4   9  22  42  69  98 130 188 226 283 353 400
#     4  11  23  45  68 101 136 183 225 288 343 416
#     4  10  22  45  66  97 140 178 235 286 344 412
#     4  10  23  42  69  94 142 175 227 282 346 407
#     4  12  25  42  70 102 137 176 232 286 346 409
#
# _framework density 21.704972999999999
#
# number of rings (size 3 to 8) (size 9 to 14) (size 15 to 20)
#    0.000    1.500    2.500    2.250    5.250    0.000 
#    4.500    0.000    0.000    0.000    0.000    0.000 
#    0.000    0.000    0.000    0.000    0.000    0.000 
#
# Total GULP energy -198215.457787 kJ/mol
# GULP energy per Si atom -12388.466112 kJ/mol
# Density = 2.165557 g / cm^3
# Si number density = 21.704973 Si / 1000 Ang^3
#
#
#
# Elastic Constant Matrix: (Units=GPa)
#
#
# Indices 1 2 3 4 5 6 
#
# 1 92.9563 19.6715 49.1475 0.0000 -17.5487 0.0000
# 2 19.6715 64.6065 25.1945 0.0000 1.8896 0.0000
# 3 49.1475 25.1945 123.4886 0.0000 -12.1959 0.0000
# 4 0.0000 0.0000 0.0000 31.4087 0.0000 -3.0883
# 5 -17.5487 1.8896 -12.1959 0.0000 37.8855 0.0000
# 6 0.0000 0.0000 0.0000 -3.0883 0.0000 28.5857
#
#
#
# Elastic Compliance Matrix: (Units=1/GPa)
#
#
# Indices 1 2 3 4 5 6 
#
# 1 0.014950 -0.002830 -0.004828 0.000000 0.005512 0.000000
# 2 -0.002830 0.017501 -0.002747 0.000000 -0.003068 0.000000
# 3 -0.004828 -0.002747 0.010713 0.000000 0.001349 0.000000
# 4 0.000000 0.000000 0.000000 0.032180 0.000000 0.003477
# 5 0.005512 -0.003068 0.001349 0.000000 0.029536 0.000000
# 6 0.000000 0.000000 0.000000 0.003477 0.000000 0.035358
#
#
# Mechanical properties :
#
#
# Convention : Reuss Voigt Hill
#
# Bulk Modulus (GPa) = 44.73688 52.11982 48.42835
# Shear Modulus (GPa) = 29.67343 32.04518 30.85930
#
# Velocity S-wave (km/s) = 3.70148 3.84656 3.77472
# Velocity P-wave (km/s) = 6.23891 6.61763 6.43106
#
# Compressibility (1/GPa) = 0.02235292
#
# Stress axis : x y z
#
# Youngs Moduli (GPa) = 66.88972 57.13900 93.34249
#
# Poissons Ratio (x) = 0.16172 0.45067
# Poissons Ratio (y) = 0.18932 0.25643
# Poissons Ratio (z) = 0.32295 0.15697
#
# Static dielectric constant tensor:
#      x y z
#    x 3.831220 0.000000 -0.077150 
#    y 0.000000 3.930550 0.000000 
#    z -0.077150 0.000000 3.931050 
# 
# 
# High freq. dielectric constant tensor:
#      x y z
#    x 1.841900 0.000000 -0.015390 
#    y 0.000000 1.844840 0.000000 
#    z -0.015390 0.000000 1.856300 
# 
# From -- ./inp_files/1833.got.cif
#   From: 2010.03.12/outbox.cif.g09.slc.cpg/sg4_1_cif.got.tgz:1833.got - 2010.03.31 09:31:35.
