data_PCOD8046426
_publ_section_title
;
Structure prediction by ZEFSAII (Michael W. Deem and Ramdas Pophale) SiO2 
 PCOD8046426
Probable space group: P 21
;
_chemical_formula_sum "Si O2"
_cell_formula_units_Z 16
_cell_length_a 24.577217
_cell_length_b 5.133256
_cell_length_c 15.598780
_cell_angle_alpha 90.000000
_cell_angle_beta 19.186561
_cell_angle_gamma 90.000000
_cell_volume 646.760460
_symmetry_space_group_name_H-M "P 21"
_symmetry_group_IT_number 4
_symmetry_cell_setting 'monoclinic'
loop_
_space_group_symop_operation_xyz
x,y,z
-x,1/2+y,-z
loop_
_atom_site_type_symbol
_atom_site_label
_atom_site_fract_x
_atom_site_fract_y
_atom_site_fract_z
Si Si1 0.138830 0.367330 0.596522
Si Si2 0.100486 0.577640 0.334276
Si Si3 0.587913 0.356702 0.588270
Si Si4 0.575005 0.817437 0.346094
Si Si5 0.563770 0.840052 0.734466
Si Si6 0.074706 0.490005 0.189550
Si Si7 0.248218 0.675066 0.279927
Si Si8 0.950456 0.541400 0.025384
O O1 0.272055 0.232324 0.461395
O O2 0.255332 0.468675 0.346274
O O3 0.988838 0.185186 0.788544
O O4 0.040618 0.585120 0.798866
O O5 0.152726 0.638262 0.157978
O O6 0.240404 0.528369 0.198444
O O7 0.993407 0.321454 0.488015
O O8 0.466295 0.268947 0.692504
O O9 0.519452 0.625274 0.729335
O O10 0.770661 0.414189 0.280348
O O11 0.591153 0.125728 0.653719
O O12 0.497101 0.596137 0.520440
O O13 0.773116 0.813200 0.069986
O O14 0.411944 0.854447 0.029504
O O15 0.915656 0.331937 0.454247
O O16 0.941656 0.823785 0.083066
#
# Coordination Sequence:
#
# PCOD8046426 Si02
#       8
#     2   2   2   2   2   2   2   2
#     4  12  27  47  76 112 154 207 264 326 387 477
#     4  10  21  44  68 102 138 186 246 298 374 452
#     4  12  26  53  76 113 155 210 257 330 394 482
#     4  12  29  50  79 116 156 201 267 338 404 466
#     4  12  29  47  77 112 160 205 262 317 404 468
#     4  11  27  46  76 110 152 205 258 325 398 477
#     4  11  28  45  77 109 155 200 258 321 394 470
#     4  12  25  48  77 108 148 202 264 315 387 464
#
# _framework density 24.738679000000001
#
# number of rings (size 3 to 8) (size 9 to 14) (size 15 to 20)
#    0.000    0.500    3.750    2.250   10.500    4.000 
#    0.000    0.000    0.000    0.000    0.000    0.000 
#    0.000    0.000    0.000    0.000    0.000    0.000 
#
# Total GULP energy -198271.148963 kJ/mol
# GULP energy per Si atom -12391.946810 kJ/mol
# Density = 2.468237 g / cm^3
# Si number density = 24.738679 Si / 1000 Ang^3
#
#
#
# Elastic Constant Matrix: (Units=GPa)
#
#
# Indices 1 2 3 4 5 6 
#
# 1 97.9682 8.0451 26.6144 0.0000 -6.1595 0.0000
# 2 8.0451 85.2966 10.2805 0.0000 0.9704 0.0000
# 3 26.6144 10.2805 145.1829 0.0000 -3.3083 0.0000
# 4 0.0000 0.0000 0.0000 36.7495 0.0000 4.0356
# 5 -6.1595 0.9704 -3.3083 0.0000 22.5233 0.0000
# 6 0.0000 0.0000 0.0000 4.0356 0.0000 28.4982
#
#
#
# Elastic Compliance Matrix: (Units=1/GPa)
#
#
# Indices 1 2 3 4 5 6 
#
# 1 0.010962 -0.000838 -0.001887 0.000000 0.002757 0.000000
# 2 -0.000838 0.011898 -0.000708 0.000000 -0.000846 0.000000
# 3 -0.001887 -0.000708 0.007297 0.000000 0.000586 0.000000
# 4 0.000000 0.000000 0.000000 0.027641 0.000000 -0.003914
# 5 0.002757 -0.000846 0.000586 0.000000 0.045275 0.000000
# 6 0.000000 0.000000 0.000000 -0.003914 0.000000 0.035644
#
#
# Mechanical properties :
#
#
# Convention : Reuss Voigt Hill
#
# Bulk Modulus (GPa) = 42.93583 46.48085 44.70834
# Shear Modulus (GPa) = 32.60559 36.45472 34.53015
#
# Velocity S-wave (km/s) = 3.63437 3.84290 3.74009
# Velocity P-wave (km/s) = 5.91650 6.20645 6.06321
#
# Compressibility (1/GPa) = 0.02329057
#
# Stress axis : x y z
#
# Youngs Moduli (GPa) = 91.22201 84.04919 137.03578
#
# Poissons Ratio (x) = 0.07042 0.25864
# Poissons Ratio (y) = 0.07643 0.09705
# Poissons Ratio (z) = 0.17217 0.05952
#
# Static dielectric constant tensor:
#      x y z
#    x 5.038950 0.000000 0.129650 
#    y 0.000000 4.221070 0.000000 
#    z 0.129650 0.000000 4.598300 
# 
# 
# High freq. dielectric constant tensor:
#      x y z
#    x 2.002630 0.000000 0.003650 
#    y 0.000000 1.961230 0.000000 
#    z 0.003650 0.000000 1.998490 
# 
# From -- ./inp_files/14520.got.cif
#   From: 2010.03.12/outbox.cif.g09.slc.cpg/sg4_8_cif.got.tgz:14520.got - 2010.03.31 09:31:35.
