data_PCOD8046830
_publ_section_title
;
Structure prediction by ZEFSAII (Michael W. Deem and Ramdas Pophale) SiO2 
 PCOD8046830
Probable space group: P 21
;
_chemical_formula_sum "Si O2"
_cell_formula_units_Z 16
_cell_length_a 9.776393
_cell_length_b 8.594609
_cell_length_c 17.738167
_cell_angle_alpha 90.000000
_cell_angle_beta 30.864211
_cell_angle_gamma 90.000000
_cell_volume 764.601701
_symmetry_space_group_name_H-M "P 21"
_symmetry_group_IT_number 4
_symmetry_cell_setting 'monoclinic'
loop_
_space_group_symop_operation_xyz
x,y,z
-x,1/2+y,-z
loop_
_atom_site_type_symbol
_atom_site_label
_atom_site_fract_x
_atom_site_fract_y
_atom_site_fract_z
Si Si1 0.578171 0.800590 0.049820
Si Si2 0.755000 0.484780 0.908094
Si Si3 0.713142 0.842730 0.404449
Si Si4 0.953720 0.217801 0.626229
Si Si5 0.054015 0.521761 0.035983
Si Si6 0.684933 0.345167 0.101256
Si Si7 0.806619 0.976259 0.583537
Si Si8 0.560106 0.591569 0.366818
O O1 0.455813 0.935549 0.055889
O O2 0.349027 0.708235 0.202548
O O3 0.738163 0.670394 0.926954
O O4 0.768305 0.878465 0.020811
O O5 0.055604 0.449265 0.740327
O O6 0.672970 0.385324 0.019377
O O7 0.549233 0.753634 0.417172
O O8 0.841935 0.714021 0.400170
O O9 0.504207 0.947826 0.548035
O O10 0.994025 0.376986 0.561499
O O11 0.993198 0.069568 0.553603
O O12 0.895129 0.463731 0.038339
O O13 0.860121 0.570939 0.195564
O O14 0.233097 0.666608 0.925665
O O15 0.398115 0.363109 0.276331
O O16 0.646876 0.096938 0.604926
#
# Coordination Sequence:
#
# PCOD8046830 Si02
#       8
#     2   2   2   2   2   2   2   2
#     4  11  24  40  64  93 125 163 210 257 312 369
#     4  11  22  41  64  91 126 161 205 260 310 366
#     4  10  23  42  63  91 126 163 208 254 308 372
#     4  10  23  42  61  90 126 163 208 255 304 373
#     4  11  24  40  64  93 125 163 210 257 312 369
#     4  11  22  41  64  91 126 161 205 260 310 366
#     4  10  23  42  63  91 126 163 208 254 308 372
#     4  10  23  42  61  90 126 163 208 255 304 373
#
# _framework density 20.925927000000001
#
# number of rings (size 3 to 8) (size 9 to 14) (size 15 to 20)
#    0.000    1.500    2.500    1.500    7.000    1.000 
#    4.500    0.000    0.000    0.000    0.000    0.000 
#    0.000    0.000    0.000    0.000    0.000    0.000 
#
# Total GULP energy -198488.113583 kJ/mol
# GULP energy per Si atom -12405.507099 kJ/mol
# Density = 2.087830 g / cm^3
# Si number density = 20.925927 Si / 1000 Ang^3
#
#
#
# Elastic Constant Matrix: (Units=GPa)
#
#
# Indices 1 2 3 4 5 6 
#
# 1 53.4900 15.4339 29.2571 0.0000 12.0670 0.0000
# 2 15.4339 90.7262 19.2971 0.0000 -1.6918 0.0000
# 3 29.2571 19.2971 59.8921 0.0000 6.5145 0.0000
# 4 0.0000 0.0000 0.0000 29.3247 0.0000 10.4059
# 5 12.0670 -1.6918 6.5145 0.0000 25.5088 0.0000
# 6 0.0000 0.0000 0.0000 10.4059 0.0000 45.9752
#
#
#
# Elastic Compliance Matrix: (Units=1/GPa)
#
#
# Indices 1 2 3 4 5 6 
#
# 1 0.028274 -0.002481 -0.011869 0.000000 -0.010508 0.000000
# 2 -0.002481 0.012133 -0.002995 0.000000 0.002743 0.000000
# 3 -0.011869 -0.002995 0.023524 0.000000 -0.000592 0.000000
# 4 0.000000 0.000000 0.000000 0.037079 0.000000 -0.008392
# 5 -0.010508 0.002743 -0.000592 0.000000 0.044506 0.000000
# 6 0.000000 0.000000 0.000000 -0.008392 0.000000 0.023650
#
#
# Mechanical properties :
#
#
# Convention : Reuss Voigt Hill
#
# Bulk Modulus (GPa) = 34.20113 36.89828 35.54970
# Shear Modulus (GPa) = 23.40786 29.50309 26.45547
#
# Velocity S-wave (km/s) = 3.34818 3.75891 3.55948
# Velocity P-wave (km/s) = 5.59701 6.04238 5.82395
#
# Compressibility (1/GPa) = 0.02923880
#
# Stress axis : x y z
#
# Youngs Moduli (GPa) = 35.36870 82.42297 42.50943
#
# Poissons Ratio (x) = 0.20451 0.50455
# Poissons Ratio (y) = 0.08776 0.12733
# Poissons Ratio (z) = 0.41980 0.24689
#
# Static dielectric constant tensor:
#      x y z
#    x 3.885190 0.000000 0.144780 
#    y 0.000000 3.579810 0.000000 
#    z 0.144780 0.000000 3.768250 
# 
# 
# High freq. dielectric constant tensor:
#      x y z
#    x 1.828150 0.000000 0.011590 
#    y 0.000000 1.813550 0.000000 
#    z 0.011590 0.000000 1.820230 
# 
# From -- ./inp_files/10912.got.cif
#   From: 2010.03.12/outbox.cif.g09.slc.cpg/sg4_6_cif.got.tgz:10912.got - 2010.03.31 09:31:35.
