data_PCOD8046521
_publ_section_title
;
Structure prediction by ZEFSAII (Michael W. Deem and Ramdas Pophale) SiO2 
 PCOD8046521
Probable space group: P 21
;
_chemical_formula_sum "Si O2"
_cell_formula_units_Z 14
_cell_length_a 15.737482
_cell_length_b 5.534147
_cell_length_c 16.859828
_cell_angle_alpha 90.000000
_cell_angle_beta 154.463954
_cell_angle_gamma 90.000000
_cell_volume 632.988456
_symmetry_space_group_name_H-M "P 21"
_symmetry_group_IT_number 4
_symmetry_cell_setting 'monoclinic'
loop_
_space_group_symop_operation_xyz
x,y,z
-x,1/2+y,-z
loop_
_atom_site_type_symbol
_atom_site_label
_atom_site_fract_x
_atom_site_fract_y
_atom_site_fract_z
Si Si1 0.576322 0.445460 0.527477
Si Si2 0.605839 0.929417 0.923555
Si Si3 0.327763 0.550301 0.632521
Si Si4 0.891117 0.348279 0.899429
Si Si5 0.044031 0.340497 0.663855
Si Si6 0.554937 0.204441 0.727894
Si Si7 0.776675 0.664918 0.337832
O O1 0.532864 0.705265 0.533054
O O2 0.807320 0.399884 0.740472
O O3 0.528654 0.478419 0.394289
O O4 0.537005 0.681720 0.824274
O O5 0.651804 0.115439 0.891287
O O6 0.420751 0.005023 0.822584
O O7 0.805301 0.917494 0.141136
O O8 0.365127 0.366226 0.591416
O O9 0.269459 0.428460 0.666880
O O10 0.144081 0.716636 0.452336
O O11 0.713085 0.361000 0.812548
O O12 0.035822 0.569585 0.040692
O O13 0.161719 0.167534 0.702206
O O14 0.960327 0.565851 0.543881
#
# Coordination Sequence:
#
# PCOD8046521 Si02
#       7
#     2   2   2   2   2   2   2
#     4  10  22  43  75  97 135 189 225 283 355 420
#     4  10  25  41  66  99 134 181 227 282 361 405
#     4  10  23  44  64  96 133 179 221 287 350 402
#     4  11  24  45  72 110 135 180 242 289 353 432
#     4  11  22  42  67  94 136 177 239 279 345 417
#     4  10  24  47  65  95 145 169 228 290 349 431
#     4  10  22  40  63  97 130 175 232 288 329 417
#
# _framework density 22.117305999999999
#
# number of rings (size 3 to 8) (size 9 to 14) (size 15 to 20)
#    0.000    1.714    1.429    1.714    8.000    2.286 
#   10.286    0.000    0.000    0.000    0.000    0.000 
#    0.000    0.000    0.000    0.000    0.000    0.000 
#
# Total GULP energy -173482.162309 kJ/mol
# GULP energy per Si atom -12391.583022 kJ/mol
# Density = 2.206697 g / cm^3
# Si number density = 22.117306 Si / 1000 Ang^3
#
#
#
# Elastic Constant Matrix: (Units=GPa)
#
#
# Indices 1 2 3 4 5 6 
#
# 1 95.3784 20.1981 39.3839 0.0000 -7.2132 0.0000
# 2 20.1981 102.2277 35.2974 0.0000 -0.7551 0.0000
# 3 39.3839 35.2974 162.1146 0.0000 -12.0979 0.0000
# 4 0.0000 0.0000 0.0000 35.3269 0.0000 -0.9149
# 5 -7.2132 -0.7551 -12.0979 0.0000 24.6014 0.0000
# 6 0.0000 0.0000 0.0000 -0.9149 0.0000 28.4878
#
#
#
# Elastic Compliance Matrix: (Units=1/GPa)
#
#
# Indices 1 2 3 4 5 6 
#
# 1 0.011973 -0.001517 -0.002408 0.000000 0.002280 0.000000
# 2 -0.001517 0.010786 -0.002064 0.000000 -0.001129 0.000000
# 3 -0.002408 -0.002064 0.007418 0.000000 0.002878 0.000000
# 4 0.000000 0.000000 0.000000 0.028331 0.000000 0.000910
# 5 0.002280 -0.001129 0.002878 0.000000 0.042697 0.000000
# 6 0.000000 0.000000 0.000000 0.000910 0.000000 0.035132
#
#
# Mechanical properties :
#
#
# Convention : Reuss Voigt Hill
#
# Bulk Modulus (GPa) = 54.95242 61.05328 58.00285
# Shear Modulus (GPa) = 32.38733 35.33931 33.86332
#
# Velocity S-wave (km/s) = 3.83083 4.00160 3.91714
# Velocity P-wave (km/s) = 6.66834 7.00105 6.83672
#
# Compressibility (1/GPa) = 0.01819756
#
# Stress axis : x y z
#
# Youngs Moduli (GPa) = 83.52376 92.71082 134.81213
#
# Poissons Ratio (x) = 0.14066 0.32465
# Poissons Ratio (y) = 0.12672 0.27827
# Poissons Ratio (z) = 0.20114 0.19137
#
# Static dielectric constant tensor:
#      x y z
#    x 4.006250 0.000000 0.000420 
#    y 0.000000 4.145030 0.000000 
#    z 0.000420 0.000000 3.987620 
# 
# 
# High freq. dielectric constant tensor:
#      x y z
#    x 1.864520 0.000000 0.003720 
#    y 0.000000 1.881000 0.000000 
#    z 0.003720 0.000000 1.862250 
# 
# From -- ./inp_files/14095.got.cif
#   From: 2010.03.12/outbox.cif.g09.slc.cpg/sg4_8_cif.got.tgz:14095.got - 2010.03.31 09:31:35.
