data_PCOD8046495
_publ_section_title
;
Structure prediction by ZEFSAII (Michael W. Deem and Ramdas Pophale) SiO2 
 PCOD8046495
Probable space group: P 21
;
_chemical_formula_sum "Si O2"
_cell_formula_units_Z 12
_cell_length_a 4.833138
_cell_length_b 8.643190
_cell_length_c 10.544996
_cell_angle_alpha 90.000000
_cell_angle_beta 93.073137
_cell_angle_gamma 90.000000
_cell_volume 439.870334
_symmetry_space_group_name_H-M "P 21"
_symmetry_group_IT_number 4
_symmetry_cell_setting 'monoclinic'
loop_
_space_group_symop_operation_xyz
x,y,z
-x,1/2+y,-z
loop_
_atom_site_type_symbol
_atom_site_label
_atom_site_fract_x
_atom_site_fract_y
_atom_site_fract_z
Si Si1 0.924720 0.647260 0.160273
Si Si2 0.989489 0.230028 0.105499
Si Si3 0.150410 0.524284 0.417857
Si Si4 0.352770 0.859129 0.472856
Si Si5 0.498211 0.931180 0.935344
Si Si6 0.237900 0.943269 0.202587
O O1 0.597882 0.595448 0.134564
O O2 0.078312 0.539928 0.267335
O O3 0.971381 0.826535 0.196649
O O4 0.062062 0.624824 0.023130
O O5 0.189310 0.376903 0.080919
O O6 0.697138 0.302038 0.138308
O O7 0.107785 0.115188 0.214803
O O8 0.266215 0.681147 0.483130
O O9 0.376047 0.388100 0.435426
O O10 0.880933 0.476804 0.487664
O O11 0.425156 0.901398 0.328537
O O12 0.433386 0.934391 0.083831
#
# Coordination Sequence:
#
# PCOD8046495 Si02
#       6
#     2   2   2   2   2   2
#     4   9  22  42  65  92 131 171 213 266 331 391
#     4  10  22  39  64  95 125 162 209 263 322 388
#     4  11  25  44  67  95 131 177 226 275 330 391
#     4  11  25  44  67  95 131 177 226 275 330 391
#     4  10  22  39  64  95 125 162 209 263 322 388
#     4   9  22  42  65  92 131 171 213 266 331 391
#
# _framework density 27.280766
#
# number of rings (size 3 to 8) (size 9 to 14) (size 15 to 20)
#    0.000    2.000    0.000    1.000    0.000   25.333 
#    0.000    0.000    0.000    0.000    0.000    0.000 
#    0.000    0.000    0.000    0.000    0.000    0.000 
#
# Total GULP energy -148746.661923 kJ/mol
# GULP energy per Si atom -12395.555160 kJ/mol
# Density = 2.721867 g / cm^3
# Si number density = 27.280766 Si / 1000 Ang^3
#
#
#
# Elastic Constant Matrix: (Units=GPa)
#
#
# Indices 1 2 3 4 5 6 
#
# 1 75.7217 5.2038 39.2254 0.0000 12.2494 0.0000
# 2 5.2038 80.2097 36.9514 0.0000 0.0375 0.0000
# 3 39.2254 36.9514 90.2324 0.0000 15.9604 0.0000
# 4 0.0000 0.0000 0.0000 46.4096 0.0000 11.8038
# 5 12.2494 0.0375 15.9604 0.0000 30.4118 0.0000
# 6 0.0000 0.0000 0.0000 11.8038 0.0000 35.8876
#
#
#
# Elastic Compliance Matrix: (Units=1/GPa)
#
#
# Indices 1 2 3 4 5 6 
#
# 1 0.017795 0.002691 -0.008344 0.000000 -0.002792 0.000000
# 2 0.002691 0.016143 -0.008362 0.000000 0.003285 0.000000
# 3 -0.008344 -0.008362 0.019332 0.000000 -0.006775 0.000000
# 4 0.000000 0.000000 0.000000 0.023514 0.000000 -0.007734
# 5 -0.002792 0.003285 -0.006775 0.000000 0.037558 0.000000
# 6 0.000000 0.000000 0.000000 -0.007734 0.000000 0.030409
#
#
# Mechanical properties :
#
#
# Convention : Reuss Voigt Hill
#
# Bulk Modulus (GPa) = 39.61769 45.43611 42.52690
# Shear Modulus (GPa) = 27.59458 33.52734 30.56096
#
# Velocity S-wave (km/s) = 3.18386 3.50948 3.35063
# Velocity P-wave (km/s) = 5.29809 5.75439 5.53095
#
# Compressibility (1/GPa) = 0.02524125
#
# Stress axis : x y z
#
# Youngs Moduli (GPa) = 56.19449 61.94528 51.72712
#
# Poissons Ratio (x) = -0.16668 0.43161
# Poissons Ratio (y) = -0.15120 0.43252
# Poissons Ratio (z) = 0.46888 0.51796
#
# Static dielectric constant tensor:
#      x y z
#    x 4.709760 0.000000 0.458880 
#    y 0.000000 5.314550 0.000000 
#    z 0.458880 0.000000 5.160710 
# 
# 
# High freq. dielectric constant tensor:
#      x y z
#    x 2.083960 0.000000 0.023250 
#    y 0.000000 2.122660 0.000000 
#    z 0.023250 0.000000 2.086570 
# 
# From -- ./inp_files/2347.got.cif
#   From: 2010.03.12/outbox.cif.g09.slc.cpg/sg4_2_cif.got.tgz:2347.got - 2010.03.31 09:31:35.
