data_PCOD8046563
_publ_section_title
;
Structure prediction by ZEFSAII (Michael W. Deem and Ramdas Pophale) SiO2 
 PCOD8046563
Probable space group: P 21
;
_chemical_formula_sum "Si O2"
_cell_formula_units_Z 16
_cell_length_a 6.612161
_cell_length_b 14.372548
_cell_length_c 7.696997
_cell_angle_alpha 90.000000
_cell_angle_beta 97.788814
_cell_angle_gamma 90.000000
_cell_volume 724.725004
_symmetry_space_group_name_H-M "P 21"
_symmetry_group_IT_number 4
_symmetry_cell_setting 'monoclinic'
loop_
_space_group_symop_operation_xyz
x,y,z
-x,1/2+y,-z
loop_
_atom_site_type_symbol
_atom_site_label
_atom_site_fract_x
_atom_site_fract_y
_atom_site_fract_z
Si Si1 0.346157 0.986830 0.612577
Si Si2 0.467530 0.490260 0.727305
Si Si3 0.763795 0.301122 0.215232
Si Si4 0.954766 0.937669 0.387226
Si Si5 0.587833 0.680602 0.241876
Si Si6 0.836210 0.771370 0.569729
Si Si7 0.253513 0.828582 0.166997
Si Si8 0.386824 0.184263 0.140476
O O1 0.348826 0.891789 0.721994
O O2 0.115152 0.003427 0.507859
O O3 0.504192 0.979116 0.474867
O O4 0.430316 0.069105 0.744844
O O5 0.220533 0.496779 0.736094
O O6 0.557806 0.399991 0.833081
O O7 0.605693 0.576127 0.808406
O O8 0.618042 0.214936 0.173861
O O9 0.922975 0.259842 0.371637
O O10 0.855485 0.321674 0.033714
O O11 0.815231 0.878453 0.506578
O O12 0.083468 0.865410 0.281572
O O13 0.747299 0.706435 0.410225
O O14 0.366992 0.731928 0.240099
O O15 0.691165 0.700291 0.065988
O O16 0.737175 0.748787 0.743056
#
# Coordination Sequence:
#
# PCOD8046563 Si02
#       8
#     2   2   2   2   2   2   2   2
#     4  10  22  41  63  96 133 170 224 270 330 396
#     4  11  21  40  66  95 130 176 215 278 330 389
#     4  10  24  41  65  97 132 174 223 271 327 395
#     4  10  23  40  70  96 131 178 223 271 333 392
#     4  11  23  44  66  97 133 176 213 281 329 391
#     4  11  23  41  66  94 129 172 215 272 326 387
#     4  10  23  42  65  99 133 172 225 272 329 396
#     4  11  25  41  67  96 131 172 222 269 334 392
#
# _framework density 22.07734
#
# number of rings (size 3 to 8) (size 9 to 14) (size 15 to 20)
#    0.000    1.500    2.500    1.500    7.000    0.000 
#    0.000    2.500    0.000    0.000    0.000    0.000 
#    0.000    0.000    0.000    0.000    0.000    0.000 
#
# Total GULP energy -198225.763590 kJ/mol
# GULP energy per Si atom -12389.110224 kJ/mol
# Density = 2.202709 g / cm^3
# Si number density = 22.077340 Si / 1000 Ang^3
#
#
#
# Elastic Constant Matrix: (Units=GPa)
#
#
# Indices 1 2 3 4 5 6 
#
# 1 70.1607 33.6758 23.5216 0.0000 -9.0995 0.0000
# 2 33.6758 59.1040 22.9736 0.0000 -5.5859 0.0000
# 3 23.5216 22.9736 113.1251 0.0000 -11.6018 0.0000
# 4 0.0000 0.0000 0.0000 23.6290 0.0000 -1.8561
# 5 -9.0995 -5.5859 -11.6018 0.0000 31.0634 0.0000
# 6 0.0000 0.0000 0.0000 -1.8561 0.0000 20.3013
#
#
#
# Elastic Compliance Matrix: (Units=1/GPa)
#
#
# Indices 1 2 3 4 5 6 
#
# 1 0.020368 -0.010610 -0.001730 0.000000 0.003412 0.000000
# 2 -0.010610 0.024015 -0.002648 0.000000 0.000221 0.000000
# 3 -0.001730 -0.002648 0.010020 0.000000 0.002759 0.000000
# 4 0.000000 0.000000 0.000000 0.042627 0.000000 0.003897
# 5 0.003412 0.000221 0.002759 0.000000 0.034262 0.000000
# 6 0.000000 0.000000 0.000000 0.003897 0.000000 0.049614
#
#
# Mechanical properties :
#
#
# Convention : Reuss Voigt Hill
#
# Bulk Modulus (GPa) = 40.93978 44.74798 42.84388
# Shear Modulus (GPa) = 22.82825 25.81333 24.32079
#
# Velocity S-wave (km/s) = 3.21910 3.42310 3.32266
# Velocity P-wave (km/s) = 5.69217 5.99468 5.84538
#
# Compressibility (1/GPa) = 0.02442612
#
# Stress axis : x y z
#
# Youngs Moduli (GPa) = 49.09562 41.64068 99.79688
#
# Poissons Ratio (x) = 0.44182 0.17269
# Poissons Ratio (y) = 0.52092 0.26428
# Poissons Ratio (z) = 0.08496 0.11027
#
# Static dielectric constant tensor:
#      x y z
#    x 3.854070 0.000000 0.024600 
#    y 0.000000 3.914730 0.000000 
#    z 0.024600 0.000000 4.273120 
# 
# 
# High freq. dielectric constant tensor:
#      x y z
#    x 1.855130 0.000000 0.005890 
#    y 0.000000 1.864580 0.000000 
#    z 0.005890 0.000000 1.877160 
# 
# From -- ./inp_files/4764.got.cif
#   From: 2010.03.12/outbox.cif.g09.slc.cpg/sg4_3_cif.got.tgz:4764.got - 2010.03.31 09:31:35.
