data_PCOD8046956
_publ_section_title
;
Structure prediction by ZEFSAII (Michael W. Deem and Ramdas Pophale) SiO2 
 PCOD8046956
Probable space group: P 21
;
_chemical_formula_sum "Si O2"
_cell_formula_units_Z 14
_cell_length_a 11.203238
_cell_length_b 8.784982
_cell_length_c 9.890792
_cell_angle_alpha 90.000000
_cell_angle_beta 139.831107
_cell_angle_gamma 90.000000
_cell_volume 627.919709
_symmetry_space_group_name_H-M "P 21"
_symmetry_group_IT_number 4
_symmetry_cell_setting 'monoclinic'
loop_
_space_group_symop_operation_xyz
x,y,z
-x,1/2+y,-z
loop_
_atom_site_type_symbol
_atom_site_label
_atom_site_fract_x
_atom_site_fract_y
_atom_site_fract_z
Si Si1 0.354646 0.226340 0.944659
Si Si2 0.975762 0.423237 0.023364
Si Si3 0.003652 0.028573 0.674642
Si Si4 0.324541 0.077576 0.413978
Si Si5 0.718327 0.049859 0.211884
Si Si6 0.642606 0.848563 0.755401
Si Si7 0.990329 0.200228 0.259198
O O1 0.327547 0.372314 0.827560
O O2 0.534043 0.145679 0.041148
O O3 0.384697 0.265296 0.126841
O O4 0.183522 0.113310 0.775646
O O5 0.791809 0.468910 0.786254
O O6 0.017844 0.545718 0.181113
O O7 0.150086 0.417233 0.073690
O O8 0.943278 0.256032 0.064116
O O9 0.016925 0.848291 0.649169
O O10 0.825724 0.094965 0.442648
O O11 0.499666 0.987232 0.621045
O O12 0.393468 0.228518 0.396132
O O13 0.195267 0.125276 0.429745
O O14 0.843059 0.079486 0.186680
#
# Coordination Sequence:
#
# PCOD8046956 Si02
#       7
#     2   2   2   2   2   2   2
#     4  12  27  44  69 104 137 177 233 278 336 406
#     4   9  22  44  69  94 134 175 226 281 328 396
#     4  10  23  45  70  91 134 178 229 275 338 390
#     4  11  23  43  69  99 137 175 224 281 345 398
#     4  12  26  44  69 100 138 182 225 280 337 403
#     4  11  25  42  69 106 132 179 225 280 344 401
#     4   9  22  44  65  96 132 180 222 279 330 396
#
# _framework density 22.295846000000001
#
# number of rings (size 3 to 8) (size 9 to 14) (size 15 to 20)
#    0.857    0.571    1.429    2.571    2.000    9.143 
#    0.000    0.000    0.000    0.000    0.000    0.000 
#    0.000    0.000    0.000    0.000    0.000    0.000 
#
# Total GULP energy -173594.686932 kJ/mol
# GULP energy per Si atom -12399.620495 kJ/mol
# Density = 2.224510 g / cm^3
# Si number density = 22.295846 Si / 1000 Ang^3
#
#
#
# Elastic Constant Matrix: (Units=GPa)
#
#
# Indices 1 2 3 4 5 6 
#
# 1 95.0687 23.8080 26.0671 0.0000 16.1669 0.0000
# 2 23.8080 72.3047 29.0133 0.0000 18.2370 0.0000
# 3 26.0671 29.0133 90.6411 0.0000 11.9789 0.0000
# 4 0.0000 0.0000 0.0000 37.0694 0.0000 12.9516
# 5 16.1669 18.2370 11.9789 0.0000 30.2036 0.0000
# 6 0.0000 0.0000 0.0000 12.9516 0.0000 40.4083
#
#
#
# Elastic Compliance Matrix: (Units=1/GPa)
#
#
# Indices 1 2 3 4 5 6 
#
# 1 0.012431 -0.002020 -0.002332 0.000000 -0.004509 0.000000
# 2 -0.002020 0.018259 -0.004168 0.000000 -0.008291 0.000000
# 3 -0.002332 -0.004168 0.013233 0.000000 -0.001483 0.000000
# 4 0.000000 0.000000 0.000000 0.030378 0.000000 -0.009737
# 5 -0.004509 -0.008291 -0.001483 0.000000 0.041116 0.000000
# 6 0.000000 0.000000 0.000000 -0.009737 0.000000 0.027868
#
#
# Mechanical properties :
#
#
# Convention : Reuss Voigt Hill
#
# Bulk Modulus (GPa) = 37.19869 46.19903 41.69886
# Shear Modulus (GPa) = 29.53550 33.47801 31.50676
#
# Velocity S-wave (km/s) = 3.64360 3.87917 3.76323
# Velocity P-wave (km/s) = 5.86698 6.38982 6.13398
#
# Compressibility (1/GPa) = 0.02688267
#
# Stress axis : x y z
#
# Youngs Moduli (GPa) = 80.44471 54.76753 75.56599
#
# Poissons Ratio (x) = 0.11063 0.17626
# Poissons Ratio (y) = 0.16249 0.31496
# Poissons Ratio (z) = 0.18764 0.22827
#
# Static dielectric constant tensor:
#      x y z
#    x 3.870280 0.000000 0.069540 
#    y 0.000000 4.047510 0.000000 
#    z 0.069540 0.000000 3.755620 
# 
# 
# High freq. dielectric constant tensor:
#      x y z
#    x 1.877570 0.000000 0.004350 
#    y 0.000000 1.883990 0.000000 
#    z 0.004350 0.000000 1.868950 
# 
# From -- ./inp_files/12066.got.cif
#   From: 2010.03.12/outbox.cif.g09.slc.cpg/sg4_7_cif.got.tgz:12066.got - 2010.03.31 09:31:35.
