data_PCOD8046826
_publ_section_title
;
Structure prediction by ZEFSAII (Michael W. Deem and Ramdas Pophale) SiO2 
 PCOD8046826
Probable space group: P 21
;
_chemical_formula_sum "Si O2"
_cell_formula_units_Z 14
_cell_length_a 21.560140
_cell_length_b 5.252024
_cell_length_c 9.876607
_cell_angle_alpha 90.000000
_cell_angle_beta 31.796366
_cell_angle_gamma 90.000000
_cell_volume 589.272003
_symmetry_space_group_name_H-M "P 21"
_symmetry_group_IT_number 4
_symmetry_cell_setting 'monoclinic'
loop_
_space_group_symop_operation_xyz
x,y,z
-x,1/2+y,-z
loop_
_atom_site_type_symbol
_atom_site_label
_atom_site_fract_x
_atom_site_fract_y
_atom_site_fract_z
Si Si1 0.041961 0.987340 0.593160
Si Si2 0.560990 0.610986 0.429983
Si Si3 0.127083 0.647058 0.657645
Si Si4 0.090298 0.876964 0.994442
Si Si5 0.425794 0.902406 0.295972
Si Si6 0.350361 0.397147 0.299499
Si Si7 0.173588 0.149012 0.082848
O O1 0.132474 0.821654 0.514543
O O2 0.910224 0.880824 0.807086
O O3 0.110250 0.019637 0.326872
O O4 0.015903 0.237321 0.727703
O O5 0.513703 0.375905 0.423471
O O6 0.561960 0.468584 0.570765
O O7 0.690190 0.708041 0.137949
O O8 0.223823 0.426811 0.459893
O O9 0.987886 0.591976 0.934265
O O10 0.164174 0.750198 0.738033
O O11 0.183594 0.965785 0.932982
O O12 0.344762 0.119654 0.377534
O O13 0.374788 0.619321 0.365413
O O14 0.555505 0.918977 0.993558
#
# Coordination Sequence:
#
# PCOD8046826 Si02
#       7
#     2   2   2   2   2   2   2
#     4  11  24  43  67 101 136 179 229 278 360 403
#     4  12  29  46  73 103 140 187 239 288 343 412
#     4  11  24  38  67 103 127 179 215 298 326 417
#     4  11  23  41  64  99 137 168 231 271 357 402
#     4  10  23  46  64 104 128 186 224 280 346 405
#     4  10  23  41  74  92 141 171 230 280 347 404
#     4  11  26  45  71  96 141 186 226 289 345 431
#
# _framework density 23.758127000000002
#
# number of rings (size 3 to 8) (size 9 to 14) (size 15 to 20)
#    0.000    1.143    2.857    1.714    8.000    1.143 
#    0.000    0.000    0.000    0.000    0.000    0.000 
#    0.000    0.000    0.000    0.000    0.000    0.000 
#
# Total GULP energy -173436.535868 kJ/mol
# GULP energy per Si atom -12388.323991 kJ/mol
# Density = 2.370405 g / cm^3
# Si number density = 23.758127 Si / 1000 Ang^3
#
#
#
# Elastic Constant Matrix: (Units=GPa)
#
#
# Indices 1 2 3 4 5 6 
#
# 1 76.1113 0.4426 47.5652 0.0000 3.3293 0.0000
# 2 0.4426 60.8645 7.2826 0.0000 1.6065 0.0000
# 3 47.5652 7.2826 76.3618 0.0000 -9.1604 0.0000
# 4 0.0000 0.0000 0.0000 27.8060 0.0000 4.2137
# 5 3.3293 1.6065 -9.1604 0.0000 39.5051 0.0000
# 6 0.0000 0.0000 0.0000 4.2137 0.0000 18.0215
#
#
#
# Elastic Compliance Matrix: (Units=1/GPa)
#
#
# Indices 1 2 3 4 5 6 
#
# 1 0.022731 0.001772 -0.014983 0.000000 -0.005462 0.000000
# 2 0.001772 0.016802 -0.002886 0.000000 -0.001502 0.000000
# 3 -0.014983 -0.002886 0.023524 0.000000 0.006835 0.000000
# 4 0.000000 0.000000 0.000000 0.037285 0.000000 -0.008718
# 5 -0.005462 -0.001502 0.006835 0.000000 0.027419 0.000000
# 6 0.000000 0.000000 0.000000 -0.008718 0.000000 0.057528
#
#
# Mechanical properties :
#
#
# Convention : Reuss Voigt Hill
#
# Bulk Modulus (GPa) = 32.40300 35.99094 34.19697
# Shear Modulus (GPa) = 21.95195 27.60299 24.77747
#
# Velocity S-wave (km/s) = 3.04300 3.41227 3.23291
# Velocity P-wave (km/s) = 5.10046 5.54135 5.32547
#
# Compressibility (1/GPa) = 0.03086134
#
# Stress axis : x y z
#
# Youngs Moduli (GPa) = 43.99311 59.51667 42.51060
#
# Poissons Ratio (x) = -0.10544 0.63694
# Poissons Ratio (y) = -0.07794 0.12269
# Poissons Ratio (z) = 0.65915 0.17177
#
# Static dielectric constant tensor:
#      x y z
#    x 4.443450 0.000000 0.027670 
#    y 0.000000 4.327430 0.000000 
#    z 0.027670 0.000000 4.120830 
# 
# 
# High freq. dielectric constant tensor:
#      x y z
#    x 1.952920 0.000000 -0.003620 
#    y 0.000000 1.933860 0.000000 
#    z -0.003620 0.000000 1.949500 
# 
# From -- ./inp_files/7093.got.cif
#   From: 2010.03.12/outbox.cif.g09.slc.cpg/sg4_4_cif.got.tgz:7093.got - 2010.03.31 09:31:35.
