data_PCOD8046892
_publ_section_title
;
Structure prediction by ZEFSAII (Michael W. Deem and Ramdas Pophale) SiO2 
 PCOD8046892
Probable space group: P 21
;
_chemical_formula_sum "Si O2"
_cell_formula_units_Z 14
_cell_length_a 9.102758
_cell_length_b 5.248975
_cell_length_c 11.810694
_cell_angle_alpha 90.000000
_cell_angle_beta 98.932673
_cell_angle_gamma 90.000000
_cell_volume 557.472395
_symmetry_space_group_name_H-M "P 21"
_symmetry_group_IT_number 4
_symmetry_cell_setting 'monoclinic'
loop_
_space_group_symop_operation_xyz
x,y,z
-x,1/2+y,-z
loop_
_atom_site_type_symbol
_atom_site_label
_atom_site_fract_x
_atom_site_fract_y
_atom_site_fract_z
Si Si1 0.712734 0.501450 0.774738
Si Si2 0.312070 0.348908 0.409681
Si Si3 0.451688 0.170816 0.651693
Si Si4 0.009219 0.803322 0.076947
Si Si5 0.503789 0.181969 0.072147
Si Si6 0.906668 0.115536 0.472333
Si Si7 0.236628 0.433123 0.772844
O O1 0.790147 0.686408 0.689861
O O2 0.579843 0.376304 0.688079
O O3 0.645644 0.657751 0.871963
O O4 0.835052 0.305354 0.836291
O O5 0.361607 0.195658 0.525241
O O6 0.459347 0.407281 0.350776
O O7 0.219202 0.591976 0.444327
O O8 0.333839 0.189769 0.740133
O O9 0.876726 0.819919 0.150619
O O10 0.998161 0.538122 0.010489
O O11 0.655763 0.142136 0.158934
O O12 0.495856 0.969159 0.973182
O O13 0.840619 0.078708 0.339881
O O14 0.028916 0.897943 0.510925
#
# Coordination Sequence:
#
# PCOD8046892 Si02
#       7
#     2   2   2   2   2   2   2
#     4  11  25  42  72 100 136 193 226 294 361 414
#     4  11  23  42  73 106 146 185 236 286 357 433
#     4  10  23  43  69 106 145 181 233 289 355 434
#     4  12  28  49  71 102 141 190 248 298 348 417
#     4  11  25  45  68 100 136 180 243 300 349 410
#     4  11  27  46  71 109 151 189 231 285 352 442
#     4  10  25  47  70 107 139 192 231 298 356 418
#
# _framework density 25.113347000000001
#
# number of rings (size 3 to 8) (size 9 to 14) (size 15 to 20)
#    0.000    1.143    1.429    2.571   10.000    2.286 
#    2.571    0.000    0.000    0.000    0.000    0.000 
#    0.000    0.000    0.000    0.000    0.000    0.000 
#
# Total GULP energy -173540.053507 kJ/mol
# GULP energy per Si atom -12395.718108 kJ/mol
# Density = 2.505619 g / cm^3
# Si number density = 25.113347 Si / 1000 Ang^3
#
#
#
# Elastic Constant Matrix: (Units=GPa)
#
#
# Indices 1 2 3 4 5 6 
#
# 1 107.6207 -9.3877 28.9431 0.0000 -7.7602 0.0000
# 2 -9.3877 33.4150 5.2626 0.0000 1.0056 0.0000
# 3 28.9431 5.2626 106.0030 0.0000 6.1616 0.0000
# 4 0.0000 0.0000 0.0000 25.8193 0.0000 -5.2420
# 5 -7.7602 1.0056 6.1616 0.0000 38.6597 0.0000
# 6 0.0000 0.0000 0.0000 -5.2420 0.0000 32.7833
#
#
#
# Elastic Compliance Matrix: (Units=1/GPa)
#
#
# Indices 1 2 3 4 5 6 
#
# 1 0.010642 0.003421 -0.003224 0.000000 0.002561 0.000000
# 2 0.003421 0.031274 -0.002502 0.000000 0.000272 0.000000
# 3 -0.003224 -0.002502 0.010570 0.000000 -0.002267 0.000000
# 4 0.000000 0.000000 0.000000 0.040030 0.000000 0.006401
# 5 0.002561 0.000272 -0.002267 0.000000 0.026735 0.000000
# 6 0.000000 0.000000 0.000000 0.006401 0.000000 0.031527
#
#
# Mechanical properties :
#
#
# Convention : Reuss Voigt Hill
#
# Bulk Modulus (GPa) = 20.88842 32.96384 26.92613
# Shear Modulus (GPa) = 29.18036 34.26717 31.72376
#
# Velocity S-wave (km/s) = 3.41243 3.69792 3.55804
# Velocity P-wave (km/s) = 4.88487 5.60244 5.25592
#
# Compressibility (1/GPa) = 0.04787341
#
# Stress axis : x y z
#
# Youngs Moduli (GPa) = 93.96635 31.97584 94.60659
#
# Poissons Ratio (x) = -0.10938 0.30505
# Poissons Ratio (y) = -0.32142 0.23674
# Poissons Ratio (z) = 0.30299 0.08002
#
# Static dielectric constant tensor:
#      x y z
#    x 4.968730 0.000000 -0.092320 
#    y 0.000000 4.246490 0.000000 
#    z -0.092320 0.000000 4.889300 
# 
# 
# High freq. dielectric constant tensor:
#      x y z
#    x 2.010850 0.000000 -0.002490 
#    y 0.000000 1.984700 0.000000 
#    z -0.002490 0.000000 2.026670 
# 
# From -- ./inp_files/7063.got.cif
#   From: 2010.03.12/outbox.cif.g09.slc.cpg/sg4_4_cif.got.tgz:7063.got - 2010.03.31 09:31:35.
