data_PCOD8046884
_publ_section_title
;
Structure prediction by ZEFSAII (Michael W. Deem and Ramdas Pophale) SiO2 
 PCOD8046884
Probable space group: P 21
;
_chemical_formula_sum "Si O2"
_cell_formula_units_Z 12
_cell_length_a 13.303028
_cell_length_b 8.431537
_cell_length_c 5.397415
_cell_angle_alpha 90.000000
_cell_angle_beta 56.246394
_cell_angle_gamma 90.000000
_cell_volume 503.351288
_symmetry_space_group_name_H-M "P 21"
_symmetry_group_IT_number 4
_symmetry_cell_setting 'monoclinic'
loop_
_space_group_symop_operation_xyz
x,y,z
-x,1/2+y,-z
loop_
_atom_site_type_symbol
_atom_site_label
_atom_site_fract_x
_atom_site_fract_y
_atom_site_fract_z
Si Si1 0.848818 0.140030 0.593990
Si Si2 0.206654 0.040942 0.935577
Si Si3 0.608219 0.648373 0.692213
Si Si4 0.627485 0.336713 0.951077
Si Si5 0.824248 0.782024 0.628510
Si Si6 0.950838 0.268663 0.965573
O O1 0.716909 0.209308 0.701301
O O2 0.905441 0.229904 0.749333
O O3 0.841293 0.960079 0.699172
O O4 0.922774 0.154170 0.234263
O O5 0.295550 0.152739 0.660001
O O6 0.130748 0.150557 0.232523
O O7 0.299271 0.915683 0.928784
O O8 0.109212 0.942482 0.901506
O O9 0.582151 0.468487 0.816652
O O10 0.681021 0.747752 0.800221
O O11 0.486772 0.739937 0.785135
O O12 0.903015 0.765375 0.264956
#
# Coordination Sequence:
#
# PCOD8046884 Si02
#       6
#     2   2   2   2   2   2
#     4  11  25  45  69 105 137 192 235 295 353 418
#     4  10  24  45  65 102 138 190 231 296 355 426
#     4  11  23  44  69  96 140 179 239 289 363 417
#     4  10  23  43  67  97 137 181 236 294 354 425
#     4  11  26  40  70 104 136 185 243 287 359 421
#     4  11  25  45  72  98 150 185 238 289 356 421
#
# _framework density 23.840212000000001
#
# number of rings (size 3 to 8) (size 9 to 14) (size 15 to 20)
#    0.000    1.333    1.667    2.000    7.000    4.000 
#    3.000    0.000    0.000    0.000    0.000    0.000 
#    0.000    0.000    0.000    0.000    0.000    0.000 
#
# Total GULP energy -148715.566934 kJ/mol
# GULP energy per Si atom -12392.963911 kJ/mol
# Density = 2.378595 g / cm^3
# Si number density = 23.840212 Si / 1000 Ang^3
#
#
#
# Elastic Constant Matrix: (Units=GPa)
#
#
# Indices 1 2 3 4 5 6 
#
# 1 65.7296 28.2942 35.0399 0.0000 -10.4181 0.0000
# 2 28.2942 118.2948 28.6067 0.0000 -15.6629 0.0000
# 3 35.0399 28.6067 116.5478 0.0000 -14.7687 0.0000
# 4 0.0000 0.0000 0.0000 49.7583 0.0000 -11.1726
# 5 -10.4181 -15.6629 -14.7687 0.0000 41.2127 0.0000
# 6 0.0000 0.0000 0.0000 -11.1726 0.0000 16.9480
#
#
#
# Elastic Compliance Matrix: (Units=1/GPa)
#
#
# Indices 1 2 3 4 5 6 
#
# 1 0.019485 -0.003235 -0.004814 0.000000 0.001971 0.000000
# 2 -0.003235 0.009832 -0.001122 0.000000 0.002517 0.000000
# 3 -0.004814 -0.001122 0.010575 0.000000 0.002146 0.000000
# 4 0.000000 0.000000 0.000000 0.023589 0.000000 0.015550
# 5 0.001971 0.002517 0.002146 0.000000 0.026488 0.000000
# 6 0.000000 0.000000 0.000000 0.015550 0.000000 0.069255
#
#
# Mechanical properties :
#
#
# Convention : Reuss Voigt Hill
#
# Bulk Modulus (GPa) = 46.40510 53.82818 50.11664
# Shear Modulus (GPa) = 27.06359 35.49258 31.27808
#
# Velocity S-wave (km/s) = 3.37294 3.86264 3.62607
# Velocity P-wave (km/s) = 5.88866 6.52082 6.21278
#
# Compressibility (1/GPa) = 0.02154935
#
# Stress axis : x y z
#
# Youngs Moduli (GPa) = 51.32033 101.71108 94.56381
#
# Poissons Ratio (x) = 0.32908 0.45527
# Poissons Ratio (y) = 0.16604 0.10606
# Poissons Ratio (z) = 0.24708 0.11408
#
# Static dielectric constant tensor:
#      x y z
#    x 4.084250 0.000000 -0.195920 
#    y 0.000000 4.406460 0.000000 
#    z -0.195920 0.000000 4.185590 
# 
# 
# High freq. dielectric constant tensor:
#      x y z
#    x 1.936680 0.000000 -0.015760 
#    y 0.000000 1.952930 0.000000 
#    z -0.015760 0.000000 1.944460 
# 
# From -- ./inp_files/2337.got.cif
#   From: 2010.03.12/outbox.cif.g09.slc.cpg/sg4_2_cif.got.tgz:2337.got - 2010.03.31 09:31:35.
