data_PCOD8046595
_publ_section_title
;
Structure prediction by ZEFSAII (Michael W. Deem and Ramdas Pophale) SiO2 
 PCOD8046595
Probable space group: P 21
;
_chemical_formula_sum "Si O2"
_cell_formula_units_Z 16
_cell_length_a 7.933904
_cell_length_b 13.986260
_cell_length_c 6.490513
_cell_angle_alpha 90.000000
_cell_angle_beta 72.477510
_cell_angle_gamma 90.000000
_cell_volume 686.804731
_symmetry_space_group_name_H-M "P 21"
_symmetry_group_IT_number 4
_symmetry_cell_setting 'monoclinic'
loop_
_space_group_symop_operation_xyz
x,y,z
-x,1/2+y,-z
loop_
_atom_site_type_symbol
_atom_site_label
_atom_site_fract_x
_atom_site_fract_y
_atom_site_fract_z
Si Si1 0.794969 0.155990 0.553683
Si Si2 0.305456 0.083796 0.352109
Si Si3 0.532335 0.247329 0.376455
Si Si4 0.914039 0.853329 0.023331
Si Si5 0.259986 0.808407 0.094636
Si Si6 0.981170 0.019780 0.742447
Si Si7 0.071972 0.140850 0.097302
Si Si8 0.533172 0.907970 0.287752
O O1 0.605608 0.173238 0.521758
O O2 0.826390 0.232551 0.721041
O O3 0.817669 0.053173 0.656953
O O4 0.941385 0.170672 0.327008
O O5 0.350055 0.195526 0.380679
O O6 0.235591 0.083565 0.141498
O O7 0.163913 0.041536 0.562056
O O8 0.480106 0.019217 0.317854
O O9 0.506554 0.351672 0.485505
O O10 0.665172 0.256104 0.135916
O O11 0.742452 0.905372 0.178373
O O12 0.089493 0.872673 0.096886
O O13 0.866214 0.741747 0.021993
O O14 0.955768 0.906579 0.790160
O O15 0.418852 0.866643 0.139802
O O16 0.979761 0.074589 0.961965
#
# Coordination Sequence:
#
# PCOD8046595 Si02
#       8
#     2   2   2   2   2   2   2   2
#     4  10  22  41  72  95 134 180 230 283 351 414
#     4  11  26  45  69 102 148 181 236 297 355 421
#     4  11  23  46  70  99 145 187 226 297 354 417
#     4  12  24  45  75 100 140 184 240 286 358 425
#     4  11  23  46  72  98 142 184 232 297 349 420
#     4  11  24  45  68 104 137 185 233 290 352 427
#     4  11  23  46  71 100 137 187 233 291 354 416
#     4  11  27  44  67 110 135 188 242 289 357 426
#
# _framework density 23.296285000000001
#
# number of rings (size 3 to 8) (size 9 to 14) (size 15 to 20)
#    0.000    1.000    2.500    3.000    7.000    1.000 
#    6.750    0.000    0.000    0.000    0.000    0.000 
#    0.000    0.000    0.000    0.000    0.000    0.000 
#
# Total GULP energy -198336.610717 kJ/mol
# GULP energy per Si atom -12396.038170 kJ/mol
# Density = 2.324326 g / cm^3
# Si number density = 23.296285 Si / 1000 Ang^3
#
#
#
# Elastic Constant Matrix: (Units=GPa)
#
#
# Indices 1 2 3 4 5 6 
#
# 1 91.6817 10.6289 27.4671 0.0000 -6.0770 0.0000
# 2 10.6289 77.5863 12.4774 0.0000 2.9351 0.0000
# 3 27.4671 12.4774 94.9918 0.0000 1.7304 0.0000
# 4 0.0000 0.0000 0.0000 35.0350 0.0000 -0.2527
# 5 -6.0770 2.9351 1.7304 0.0000 31.5215 0.0000
# 6 0.0000 0.0000 0.0000 -0.2527 0.0000 42.7596
#
#
#
# Elastic Compliance Matrix: (Units=1/GPa)
#
#
# Indices 1 2 3 4 5 6 
#
# 1 0.012254 -0.001228 -0.003431 0.000000 0.002665 0.000000
# 2 -0.001228 0.013331 -0.001370 0.000000 -0.001403 0.000000
# 3 -0.003431 -0.001370 0.011721 0.000000 -0.001177 0.000000
# 4 0.000000 0.000000 0.000000 0.028544 0.000000 0.000169
# 5 0.002665 -0.001403 -0.001177 0.000000 0.032433 0.000000
# 6 0.000000 0.000000 0.000000 0.000169 0.000000 0.023388
#
#
# Mechanical properties :
#
#
# Convention : Reuss Voigt Hill
#
# Bulk Modulus (GPa) = 39.60776 40.60074 40.10425
# Shear Modulus (GPa) = 35.17563 36.10897 35.64230
#
# Velocity S-wave (km/s) = 3.88999 3.94126 3.91571
# Velocity P-wave (km/s) = 6.10038 6.17877 6.13970
#
# Compressibility (1/GPa) = 0.02524758
#
# Stress axis : x y z
#
# Youngs Moduli (GPa) = 81.60547 75.01574 85.31962
#
# Poissons Ratio (x) = 0.09211 0.29269
# Poissons Ratio (y) = 0.10020 0.11692
# Poissons Ratio (z) = 0.27995 0.10280
#
# Static dielectric constant tensor:
#      x y z
#    x 4.259830 0.000000 0.301990 
#    y 0.000000 4.224100 0.000000 
#    z 0.301990 0.000000 4.286200 
# 
# 
# High freq. dielectric constant tensor:
#      x y z
#    x 1.925700 0.000000 0.012460 
#    y 0.000000 1.919750 0.000000 
#    z 0.012460 0.000000 1.922350 
# 
# From -- ./inp_files/1674.got.cif
#   From: 2010.03.12/outbox.cif.g09.slc.cpg/sg4_1_cif.got.tgz:1674.got - 2010.03.31 09:31:35.
