data_PCOD8046372
_publ_section_title
;
Structure prediction by ZEFSAII (Michael W. Deem and Ramdas Pophale) SiO2 
 PCOD8046372
Probable space group: P 21
;
_chemical_formula_sum "Si O2"
_cell_formula_units_Z 16
_cell_length_a 15.976395
_cell_length_b 8.611439
_cell_length_c 16.806519
_cell_angle_alpha 90.000000
_cell_angle_beta 17.809974
_cell_angle_gamma 90.000000
_cell_volume 707.223136
_symmetry_space_group_name_H-M "P 21"
_symmetry_group_IT_number 4
_symmetry_cell_setting 'monoclinic'
loop_
_space_group_symop_operation_xyz
x,y,z
-x,1/2+y,-z
loop_
_atom_site_type_symbol
_atom_site_label
_atom_site_fract_x
_atom_site_fract_y
_atom_site_fract_z
Si Si1 0.575259 0.900400 0.030937
Si Si2 0.421256 0.092756 0.608342
Si Si3 0.827164 0.366670 0.465985
Si Si4 0.845645 0.006407 0.482683
Si Si5 0.942512 0.132496 0.944396
Si Si6 0.446450 0.043028 0.982691
Si Si7 0.393628 0.320498 0.445054
Si Si8 0.468057 0.417356 0.646302
O O1 0.575272 0.726295 0.000677
O O2 0.872310 0.938150 0.797796
O O3 0.352022 0.935271 0.300043
O O4 0.512053 0.010069 0.014448
O O5 0.512979 0.256808 0.560416
O O6 0.090867 0.112409 0.897614
O O7 0.550340 0.961029 0.545580
O O8 0.523786 0.058773 0.425477
O O9 0.811207 0.180077 0.480223
O O10 0.718219 0.430477 0.480958
O O11 0.162378 0.965409 0.211387
O O12 0.718076 0.886663 0.536285
O O13 0.688188 0.981036 0.708054
O O14 0.168917 0.196545 0.678157
O O15 0.691285 0.249093 0.163502
O O16 0.814664 0.955259 0.048833
#
# Coordination Sequence:
#
# PCOD8046372 Si02
#       8
#     2   2   2   2   2   2   2   2
#     4  10  22  43  67 101 133 181 226 288 352 432
#     4  12  25  47  72 101 140 194 238 296 357 420
#     4  10  23  42  70  98 139 182 235 284 358 426
#     4  10  21  43  69 101 130 188 228 289 351 436
#     4  12  26  46  64 102 141 183 239 296 355 425
#     4  10  21  42  69  97 137 171 234 277 359 430
#     4  12  25  47  69 101 141 184 242 293 357 425
#     4  12  25  48  72 103 145 191 244 299 359 428
#
# _framework density 22.623691999999998
#
# number of rings (size 3 to 8) (size 9 to 14) (size 15 to 20)
#    0.000    1.000    3.750    2.250    1.750    0.000 
#    6.750    0.000    0.000    0.000    0.000    0.000 
#    0.000    0.000    0.000    0.000    0.000    0.000 
#
# Total GULP energy -198234.307510 kJ/mol
# GULP energy per Si atom -12389.644219 kJ/mol
# Density = 2.257220 g / cm^3
# Si number density = 22.623692 Si / 1000 Ang^3
#
#
#
# Elastic Constant Matrix: (Units=GPa)
#
#
# Indices 1 2 3 4 5 6 
#
# 1 109.1857 25.5506 10.1915 0.0000 -14.6630 0.0000
# 2 25.5506 42.7167 26.9862 0.0000 1.0784 0.0000
# 3 10.1915 26.9862 101.7624 0.0000 -14.9679 0.0000
# 4 0.0000 0.0000 0.0000 28.7761 0.0000 -1.8455
# 5 -14.6630 1.0784 -14.9679 0.0000 34.1839 0.0000
# 6 0.0000 0.0000 0.0000 -1.8455 0.0000 41.2908
#
#
#
# Elastic Compliance Matrix: (Units=1/GPa)
#
#
# Indices 1 2 3 4 5 6 
#
# 1 0.011782 -0.008448 0.001970 0.000000 0.006183 0.000000
# 2 -0.008448 0.034823 -0.009708 0.000000 -0.008973 0.000000
# 3 0.001970 -0.009708 0.013225 0.000000 0.006942 0.000000
# 4 0.000000 0.000000 0.000000 0.034851 0.000000 0.001558
# 5 0.006183 -0.008973 0.006942 0.000000 0.035228 0.000000
# 6 0.000000 0.000000 0.000000 0.001558 0.000000 0.024288
#
#
# Mechanical properties :
#
#
# Convention : Reuss Voigt Hill
#
# Bulk Modulus (GPa) = 36.42047 42.12460 39.27253
# Shear Modulus (GPa) = 25.54633 33.57924 29.56279
#
# Velocity S-wave (km/s) = 3.36398 3.85678 3.61878
# Velocity P-wave (km/s) = 5.58765 6.20428 5.90402
#
# Compressibility (1/GPa) = 0.02745709
#
# Stress axis : x y z
#
# Youngs Moduli (GPa) = 84.87495 28.71683 75.61330
#
# Poissons Ratio (x) = 0.24259 -0.14893
# Poissons Ratio (y) = 0.71700 0.73408
# Poissons Ratio (z) = -0.16718 0.27879
#
# Static dielectric constant tensor:
#      x y z
#    x 4.208420 0.000000 -0.266340 
#    y 0.000000 4.267440 0.000000 
#    z -0.266340 0.000000 4.405290 
# 
# 
# High freq. dielectric constant tensor:
#      x y z
#    x 1.905930 0.000000 -0.014570 
#    y 0.000000 1.892160 0.000000 
#    z -0.014570 0.000000 1.903150 
# 
# From -- ./inp_files/14185.got.cif
#   From: 2010.03.12/outbox.cif.g09.slc.cpg/sg4_8_cif.got.tgz:14185.got - 2010.03.31 09:31:35.
