data_PCOD8046267
_publ_section_title
;
Structure prediction by ZEFSAII (Michael W. Deem and Ramdas Pophale) SiO2 
 PCOD8046267
Probable space group: P 21
;
_chemical_formula_sum "Si O2"
_cell_formula_units_Z 16
_cell_length_a 11.916811
_cell_length_b 9.268565
_cell_length_c 12.155183
_cell_angle_alpha 90.000000
_cell_angle_beta 144.054209
_cell_angle_gamma 90.000000
_cell_volume 788.109611
_symmetry_space_group_name_H-M "P 21"
_symmetry_group_IT_number 4
_symmetry_cell_setting 'monoclinic'
loop_
_space_group_symop_operation_xyz
x,y,z
-x,1/2+y,-z
loop_
_atom_site_type_symbol
_atom_site_label
_atom_site_fract_x
_atom_site_fract_y
_atom_site_fract_z
Si Si1 0.739299 0.520430 0.729951
Si Si2 0.062700 0.854591 0.732964
Si Si3 0.256535 0.574519 0.516410
Si Si4 0.509000 0.277252 0.443528
Si Si5 0.391746 0.353647 0.115568
Si Si6 0.177784 0.845648 0.579635
Si Si7 0.334363 0.032213 0.084906
Si Si8 0.029258 0.526626 0.771416
O O1 0.586882 0.391791 0.591651
O O2 0.646078 0.673927 0.620914
O O3 0.786988 0.520475 0.897579
O O4 0.926965 0.494499 0.806518
O O5 0.065584 0.862700 0.603968
O O6 0.034164 0.695157 0.753559
O O7 0.888816 0.952633 0.639095
O O8 0.259104 0.917646 0.937605
O O9 0.319007 0.675321 0.463976
O O10 0.156181 0.678929 0.526071
O O11 0.443102 0.498124 0.716206
O O12 0.413342 0.361470 0.264899
O O13 0.598805 0.385336 0.226598
O O14 0.315107 0.194443 0.021724
O O15 0.245561 0.470510 0.952354
O O16 0.084849 0.950908 0.416667
#
# Coordination Sequence:
#
# PCOD8046267 Si02
#       8
#     2   2   2   2   2   2   2   2
#     4  10  21  40  64  94 123 162 205 246 312 368
#     4  12  25  37  62  97 124 156 216 255 301 370
#     4   9  20  44  62  83 125 168 202 252 314 361
#     4   9  20  40  66  86 128 166 196 252 312 363
#     4   9  21  42  63  84 124 167 201 248 317 362
#     4  10  22  44  64  85 122 171 204 258 312 357
#     4   9  23  41  60  89 123 166 199 246 316 367
#     4  12  24  38  65 100 121 156 215 255 304 370
#
# _framework density 20.301743999999999
#
# number of rings (size 3 to 8) (size 9 to 14) (size 15 to 20)
#    0.000    2.500    2.500    1.500    3.500    7.000 
#    0.000    0.000    0.000    0.000    0.000    0.000 
#    0.000    0.000    0.000    0.000    0.000    0.000 
#
# Total GULP energy -198382.369339 kJ/mol
# GULP energy per Si atom -12398.898084 kJ/mol
# Density = 2.025554 g / cm^3
# Si number density = 20.301744 Si / 1000 Ang^3
#
#
#
# Elastic Constant Matrix: (Units=GPa)
#
#
# Indices 1 2 3 4 5 6 
#
# 1 36.7505 14.6774 16.7387 0.0000 -5.0007 0.0000
# 2 14.6774 106.8007 60.7145 0.0000 4.0086 0.0000
# 3 16.7387 60.7145 74.8639 0.0000 9.8104 0.0000
# 4 0.0000 0.0000 0.0000 34.8116 0.0000 4.3674
# 5 -5.0007 4.0086 9.8104 0.0000 22.3839 0.0000
# 6 0.0000 0.0000 0.0000 4.3674 0.0000 26.8442
#
#
#
# Elastic Compliance Matrix: (Units=1/GPa)
#
#
# Indices 1 2 3 4 5 6 
#
# 1 0.032729 0.000140 -0.008898 0.000000 0.011186 0.000000
# 2 0.000140 0.017599 -0.014742 0.000000 0.003341 0.000000
# 3 -0.008898 -0.014742 0.028876 0.000000 -0.012003 0.000000
# 4 0.000000 0.000000 0.000000 0.029325 0.000000 -0.004771
# 5 0.011186 0.003341 -0.012003 0.000000 0.051837 0.000000
# 6 0.000000 0.000000 0.000000 -0.004771 0.000000 0.038028
#
#
# Mechanical properties :
#
#
# Convention : Reuss Voigt Hill
#
# Bulk Modulus (GPa) = 31.05062 44.74183 37.89622
# Shear Modulus (GPa) = 19.52153 25.22691 22.37422
#
# Velocity S-wave (km/s) = 3.10428 3.52888 3.32337
# Velocity P-wave (km/s) = 5.30816 6.22015 5.78216
#
# Compressibility (1/GPa) = 0.03220548
#
# Stress axis : x y z
#
# Youngs Moduli (GPa) = 30.55375 56.82074 34.63112
#
# Poissons Ratio (x) = -0.00798 0.30813
# Poissons Ratio (y) = -0.00429 0.51054
# Poissons Ratio (z) = 0.27186 0.83766
#
# Static dielectric constant tensor:
#      x y z
#    x 3.573880 0.000000 0.074060 
#    y 0.000000 3.678740 0.000000 
#    z 0.074060 0.000000 3.490820 
# 
# 
# High freq. dielectric constant tensor:
#      x y z
#    x 1.786280 0.000000 0.005250 
#    y 0.000000 1.795890 0.000000 
#    z 0.005250 0.000000 1.782110 
# 
# From -- ./inp_files/12145.got.cif
#   From: 2010.03.12/outbox.cif.g09.slc.cpg/sg4_7_cif.got.tgz:12145.got - 2010.03.31 09:31:35.
