data_PCOD8046906
_publ_section_title
;
Structure prediction by ZEFSAII (Michael W. Deem and Ramdas Pophale) SiO2 
 PCOD8046906
Probable space group: P 21
;
_chemical_formula_sum "Si O2"
_cell_formula_units_Z 14
_cell_length_a 9.770713
_cell_length_b 5.062677
_cell_length_c 12.227830
_cell_angle_alpha 90.000000
_cell_angle_beta 76.053768
_cell_angle_gamma 90.000000
_cell_volume 587.031491
_symmetry_space_group_name_H-M "P 21"
_symmetry_group_IT_number 4
_symmetry_cell_setting 'monoclinic'
loop_
_space_group_symop_operation_xyz
x,y,z
-x,1/2+y,-z
loop_
_atom_site_type_symbol
_atom_site_label
_atom_site_fract_x
_atom_site_fract_y
_atom_site_fract_z
Si Si1 0.543999 0.970210 0.840258
Si Si2 0.016200 0.605421 0.569929
Si Si3 0.467460 0.240582 0.645978
Si Si4 0.691892 0.226699 0.000997
Si Si5 0.191813 0.125426 0.199330
Si Si6 0.931966 0.872039 0.971126
Si Si7 0.323522 0.737622 0.590886
O O1 0.538510 0.198415 0.750584
O O2 0.663235 0.755729 0.784952
O O3 0.572831 0.077455 0.955469
O O4 0.384863 0.863015 0.882217
O O5 0.158635 0.685533 0.605075
O O6 0.041987 0.352741 0.488290
O O7 0.895689 0.520900 0.680250
O O8 0.349115 0.022167 0.640092
O O9 0.599353 0.220131 0.539812
O O10 0.391971 0.522914 0.659050
O O11 0.778307 0.402520 0.897051
O O12 0.792843 0.018063 0.043529
O O13 0.091496 0.337058 0.154976
O O14 0.056319 0.086107 0.970382
#
# Coordination Sequence:
#
# PCOD8046906 Si02
#       7
#     2   2   2   2   2   2   2
#     4  11  24  43  71 104 138 188 235 296 354 416
#     4  12  28  47  75 104 139 186 237 292 362 422
#     4  10  23  43  73  92 142 175 225 288 352 391
#     4  11  24  44  70 106 143 186 248 290 349 437
#     4  11  26  46  73 103 146 186 243 302 347 434
#     4  11  24  47  71 101 145 194 232 290 359 425
#     4  10  23  46  65 106 129 177 232 284 337 433
#
# _framework density 23.848806
#
# number of rings (size 3 to 8) (size 9 to 14) (size 15 to 20)
#    0.000    1.143    2.857    1.714    8.000    2.286 
#    5.143    0.000    0.000    0.000    0.000    0.000 
#    0.000    0.000    0.000    0.000    0.000    0.000 
#
# Total GULP energy -173567.830131 kJ/mol
# GULP energy per Si atom -12397.702152 kJ/mol
# Density = 2.379452 g / cm^3
# Si number density = 23.848806 Si / 1000 Ang^3
#
#
#
# Elastic Constant Matrix: (Units=GPa)
#
#
# Indices 1 2 3 4 5 6 
#
# 1 71.1697 -10.5720 16.5992 0.0000 -16.5086 0.0000
# 2 -10.5720 75.1425 1.1608 0.0000 -13.9026 0.0000
# 3 16.5992 1.1608 61.8123 0.0000 -28.2473 0.0000
# 4 0.0000 0.0000 0.0000 26.0242 0.0000 0.8888
# 5 -16.5086 -13.9026 -28.2473 0.0000 26.0618 0.0000
# 6 0.0000 0.0000 0.0000 0.8888 0.0000 38.0081
#
#
#
# Elastic Compliance Matrix: (Units=1/GPa)
#
#
# Indices 1 2 3 4 5 6 
#
# 1 0.018455 0.005986 0.003434 0.000000 0.018605 0.000000
# 2 0.005986 0.018195 0.008360 0.000000 0.022558 0.000000
# 3 0.003434 0.008360 0.035924 0.000000 0.045572 0.000000
# 4 0.000000 0.000000 0.000000 0.038457 0.000000 -0.000899
# 5 0.018605 0.022558 0.045572 0.000000 0.111582 0.000000
# 6 0.000000 0.000000 0.000000 -0.000899 0.000000 0.026331
#
#
# Mechanical properties :
#
#
# Convention : Reuss Voigt Hill
#
# Bulk Modulus (GPa) = 9.24795 24.72226 16.98510
# Shear Modulus (GPa) = 20.04576 31.41459 25.73017
#
# Velocity S-wave (km/s) = 2.90234 3.63332 3.28821
# Velocity P-wave (km/s) = 3.88814 5.29056 4.64261
#
# Compressibility (1/GPa) = 0.10813213
#
# Stress axis : x y z
#
# Youngs Moduli (GPa) = 54.18656 54.96113 27.83623
#
# Poissons Ratio (x) = -0.32898 -0.09559
# Poissons Ratio (y) = -0.32434 -0.23270
# Poissons Ratio (z) = -0.18607 -0.45946
#
# Static dielectric constant tensor:
#      x y z
#    x 4.468510 0.000000 0.148150 
#    y 0.000000 4.500730 0.000000 
#    z 0.148150 0.000000 3.989780 
# 
# 
# High freq. dielectric constant tensor:
#      x y z
#    x 1.958100 0.000000 0.007540 
#    y 0.000000 1.954520 0.000000 
#    z 0.007540 0.000000 1.927960 
# 
# From -- ./inp_files/7239.got.cif
#   From: 2010.03.12/outbox.cif.g09.slc.cpg/sg4_4_cif.got.tgz:7239.got - 2010.03.31 09:31:35.
