data_PCOD8046054
_publ_section_title
;
Structure prediction by ZEFSAII (Michael W. Deem and Ramdas Pophale) SiO2 
 PCOD8046054
Probable space group: P 21
;
_chemical_formula_sum "Si O2"
_cell_formula_units_Z 14
_cell_length_a 8.890624
_cell_length_b 8.703713
_cell_length_c 9.916334
_cell_angle_alpha 90.000000
_cell_angle_beta 125.698363
_cell_angle_gamma 90.000000
_cell_volume 623.157130
_symmetry_space_group_name_H-M "P 21"
_symmetry_group_IT_number 4
_symmetry_cell_setting 'monoclinic'
loop_
_space_group_symop_operation_xyz
x,y,z
-x,1/2+y,-z
loop_
_atom_site_type_symbol
_atom_site_label
_atom_site_fract_x
_atom_site_fract_y
_atom_site_fract_z
Si Si1 0.920950 0.849620 0.675896
Si Si2 0.049562 0.605638 0.093548
Si Si3 0.658266 0.569883 0.540471
Si Si4 0.385808 0.502106 0.633095
Si Si5 0.559046 0.191164 0.803608
Si Si6 0.264435 0.639196 0.826079
Si Si7 0.994607 0.420534 0.807856
O O1 0.769919 0.723192 0.638915
O O2 0.826563 0.952112 0.509491
O O3 0.115835 0.776246 0.733931
O O4 0.968943 0.955433 0.826734
O O5 0.256166 0.663085 0.182870
O O6 0.945864 0.753179 0.105209
O O7 0.967382 0.553894 0.907348
O O8 0.482106 0.563122 0.547620
O O9 0.592916 0.581564 0.349496
O O10 0.795802 0.422411 0.626040
O O11 0.507507 0.367538 0.759938
O O12 0.374423 0.632542 0.742417
O O13 0.584904 0.159939 0.975832
O O14 0.159327 0.476448 0.796106
#
# Coordination Sequence:
#
# PCOD8046054 Si02
#       7
#     2   2   2   2   2   2   2
#     4  10  23  41  68  93 127 175 223 269 323 406
#     4  11  19  39  65  95 122 170 229 266 314 386
#     4  10  20  40  69  95 125 165 230 272 325 384
#     4  11  22  43  65  97 132 168 214 282 332 389
#     4  10  21  41  65  96 129 167 220 271 326 390
#     4  10  24  45  62  95 141 170 216 268 340 399
#     4  10  21  37  66  91 128 173 218 268 322 396
#
# _framework density 22.466244
#
# number of rings (size 3 to 8) (size 9 to 14) (size 15 to 20)
#    0.000    1.714    2.857    2.571    0.000    1.143 
#    7.714    4.286    0.000    0.000    0.000    0.000 
#    0.000    0.000    0.000    0.000    0.000    0.000 
#
# Total GULP energy -173534.210698 kJ/mol
# GULP energy per Si atom -12395.300764 kJ/mol
# Density = 2.241511 g / cm^3
# Si number density = 22.466244 Si / 1000 Ang^3
#
#
#
# Elastic Constant Matrix: (Units=GPa)
#
#
# Indices 1 2 3 4 5 6 
#
# 1 45.6549 18.4685 34.8632 0.0000 -1.0123 0.0000
# 2 18.4685 43.5330 35.9667 0.0000 4.9597 0.0000
# 3 34.8632 35.9667 130.9111 0.0000 8.1646 0.0000
# 4 0.0000 0.0000 0.0000 34.6541 0.0000 -3.2684
# 5 -1.0123 4.9597 8.1646 0.0000 28.5585 0.0000
# 6 0.0000 0.0000 0.0000 -3.2684 0.0000 28.0709
#
#
#
# Elastic Compliance Matrix: (Units=1/GPa)
#
#
# Indices 1 2 3 4 5 6 
#
# 1 0.029874 -0.008230 -0.005956 0.000000 0.004191 0.000000
# 2 -0.008230 0.032218 -0.006407 0.000000 -0.004055 0.000000
# 3 -0.005956 -0.006407 0.011127 0.000000 -0.002280 0.000000
# 4 0.000000 0.000000 0.000000 0.029177 0.000000 0.003397
# 5 0.004191 -0.004055 -0.002280 0.000000 0.036520 0.000000
# 6 0.000000 0.000000 0.000000 0.003397 0.000000 0.036020
#
#
# Mechanical properties :
#
#
# Convention : Reuss Voigt Hill
#
# Bulk Modulus (GPa) = 31.21795 44.29952 37.75874
# Shear Modulus (GPa) = 22.04579 26.97672 24.51126
#
# Velocity S-wave (km/s) = 3.13595 3.46897 3.30665
# Velocity P-wave (km/s) = 5.19979 5.98382 5.60553
#
# Compressibility (1/GPa) = 0.03203285
#
# Stress axis : x y z
#
# Youngs Moduli (GPa) = 33.47400 31.03842 89.86896
#
# Poissons Ratio (x) = 0.25546 0.53525
# Poissons Ratio (y) = 0.27551 0.57578
# Poissons Ratio (z) = 0.19937 0.19886
#
# Static dielectric constant tensor:
#      x y z
#    x 3.744560 0.000000 0.164450 
#    y 0.000000 4.055760 0.000000 
#    z 0.164450 0.000000 4.342160 
# 
# 
# High freq. dielectric constant tensor:
#      x y z
#    x 1.855260 0.000000 0.010050 
#    y 0.000000 1.877810 0.000000 
#    z 0.010050 0.000000 1.903230 
# 
# From -- ./inp_files/5239.got.cif
#   From: 2010.03.12/outbox.cif.g09.slc.cpg/sg4_3_cif.got.tgz:5239.got - 2010.03.31 09:31:35.
