data_PCOD8046629
_publ_section_title
;
Structure prediction by ZEFSAII (Michael W. Deem and Ramdas Pophale) SiO2 
 PCOD8046629
Probable space group: P 21
;
_chemical_formula_sum "Si O2"
_cell_formula_units_Z 16
_cell_length_a 8.947677
_cell_length_b 10.646892
_cell_length_c 9.852151
_cell_angle_alpha 90.000000
_cell_angle_beta 130.752379
_cell_angle_gamma 90.000000
_cell_volume 710.998297
_symmetry_space_group_name_H-M "P 21"
_symmetry_group_IT_number 4
_symmetry_cell_setting 'monoclinic'
loop_
_space_group_symop_operation_xyz
x,y,z
-x,1/2+y,-z
loop_
_atom_site_type_symbol
_atom_site_label
_atom_site_fract_x
_atom_site_fract_y
_atom_site_fract_z
Si Si1 0.688486 0.736840 0.097422
Si Si2 0.725824 0.367026 0.678310
Si Si3 0.095329 0.635584 0.381348
Si Si4 0.710010 0.258727 0.252697
Si Si5 0.064914 0.352696 0.292121
Si Si6 0.121682 0.392023 0.028826
Si Si7 0.525479 0.485836 0.310434
Si Si8 0.600993 0.766887 0.328986
O O1 0.657767 0.824967 0.214412
O O2 0.856771 0.636875 0.236204
O O3 0.472326 0.682888 0.926158
O O4 0.774894 0.806329 0.019840
O O5 0.798040 0.236809 0.652784
O O6 0.601977 0.459013 0.508351
O O7 0.594374 0.332567 0.730348
O O8 0.917774 0.445448 0.844192
O O9 0.173528 0.663396 0.579897
O O10 0.141905 0.494550 0.365277
O O11 0.618914 0.377947 0.274471
O O12 0.851988 0.316303 0.223133
O O13 0.063986 0.318328 0.132370
O O14 0.226796 0.268130 0.459660
O O15 0.286207 0.493395 0.167697
O O16 0.582801 0.619499 0.286404
#
# Coordination Sequence:
#
# PCOD8046629 Si02
#       8
#     2   2   2   2   2   2   2   2
#     4  10  22  45  66  95 131 174 223 277 325 390
#     4  10  22  42  69  95 137 175 224 273 332 390
#     4  10  22  44  66  97 136 179 216 278 331 393
#     4  10  22  42  69  95 137 175 224 273 332 390
#     4  12  23  42  70 101 137 176 224 273 337 404
#     4  10  22  45  66  95 131 174 223 277 325 390
#     4  10  22  44  66  97 136 179 216 278 331 393
#     4  12  23  42  70 101 137 176 224 273 337 404
#
# _framework density 22.503568999999999
#
# number of rings (size 3 to 8) (size 9 to 14) (size 15 to 20)
#    0.000    1.500    2.500    2.250    0.000    0.000 
#   18.000    0.000    0.000    0.000    0.000    0.000 
#    0.000    0.000    0.000    0.000    0.000    0.000 
#
# Total GULP energy -198234.555968 kJ/mol
# GULP energy per Si atom -12389.659748 kJ/mol
# Density = 2.245235 g / cm^3
# Si number density = 22.503569 Si / 1000 Ang^3
#
#
#
# Elastic Constant Matrix: (Units=GPa)
#
#
# Indices 1 2 3 4 5 6 
#
# 1 136.0077 17.8833 52.6672 0.0000 -13.7302 0.0000
# 2 17.8833 38.4370 22.0760 0.0000 7.1371 0.0000
# 3 52.6672 22.0760 153.2402 0.0000 11.3945 0.0000
# 4 0.0000 0.0000 0.0000 7.3653 0.0000 2.0215
# 5 -13.7302 7.1371 11.3945 0.0000 57.9051 0.0000
# 6 0.0000 0.0000 0.0000 2.0215 0.0000 20.7444
#
#
#
# Elastic Compliance Matrix: (Units=1/GPa)
#
#
# Indices 1 2 3 4 5 6 
#
# 1 0.009233 -0.003189 -0.002949 0.000000 0.003163 0.000000
# 2 -0.003189 0.029897 -0.002923 0.000000 -0.003866 0.000000
# 3 -0.002949 -0.002923 0.008104 0.000000 -0.001934 0.000000
# 4 0.000000 0.000000 0.000000 0.139504 0.000000 -0.013594
# 5 0.003163 -0.003866 -0.001934 0.000000 0.018877 0.000000
# 6 0.000000 0.000000 0.000000 -0.013594 0.000000 0.049531
#
#
# Mechanical properties :
#
#
# Convention : Reuss Voigt Hill
#
# Bulk Modulus (GPa) = 34.35124 56.99312 45.67218
# Shear Modulus (GPa) = 17.66955 32.87351 25.27153
#
# Velocity S-wave (km/s) = 2.80516 3.82621 3.35476
# Velocity P-wave (km/s) = 5.07837 6.70082 5.94520
#
# Compressibility (1/GPa) = 0.02911103
#
# Stress axis : x y z
#
# Youngs Moduli (GPa) = 108.30534 33.44776 123.39275
#
# Poissons Ratio (x) = 0.10668 0.36389
# Poissons Ratio (y) = 0.34542 0.36073
# Poissons Ratio (z) = 0.31940 0.09778
#
# Static dielectric constant tensor:
#      x y z
#    x 4.447290 0.000000 0.222290 
#    y 0.000000 3.516290 0.000000 
#    z 0.222290 0.000000 4.703920 
# 
# 
# High freq. dielectric constant tensor:
#      x y z
#    x 1.915550 0.000000 0.003920 
#    y 0.000000 1.834100 0.000000 
#    z 0.003920 0.000000 1.910330 
# 
# From -- ./inp_files/6468.got.cif
#   From: 2010.03.12/outbox.cif.g09.slc.cpg/sg4_4_cif.got.tgz:6468.got - 2010.03.31 09:31:35.
