data_PCOD8046044
_publ_section_title
;
Structure prediction by ZEFSAII (Michael W. Deem and Ramdas Pophale) SiO2 
 PCOD8046044
Probable space group: P 21
;
_chemical_formula_sum "Si O2"
_cell_formula_units_Z 14
_cell_length_a 28.986221
_cell_length_b 4.984018
_cell_length_c 9.731196
_cell_angle_alpha 90.000000
_cell_angle_beta 28.056654
_cell_angle_gamma 90.000000
_cell_volume 661.231280
_symmetry_space_group_name_H-M "P 21"
_symmetry_group_IT_number 4
_symmetry_cell_setting 'monoclinic'
loop_
_space_group_symop_operation_xyz
x,y,z
-x,1/2+y,-z
loop_
_atom_site_type_symbol
_atom_site_label
_atom_site_fract_x
_atom_site_fract_y
_atom_site_fract_z
Si Si1 0.156558 0.023480 0.985909
Si Si2 0.226871 0.028712 0.516542
Si Si3 0.617900 0.917030 0.263978
Si Si4 0.192564 0.527253 0.069229
Si Si5 0.098721 0.508021 0.800671
Si Si6 0.023297 0.637141 0.712561
Si Si7 0.602926 0.415788 0.123190
O O1 0.233688 0.092439 0.661556
O O2 0.151340 0.248875 0.117522
O O3 0.048723 0.983858 0.203118
O O4 0.193432 0.742856 0.947065
O O5 0.148076 0.793518 0.697223
O O6 0.185360 0.291882 0.551290
O O7 0.334614 0.963168 0.178281
O O8 0.633515 0.619325 0.164096
O O9 0.511285 0.949161 0.615136
O O10 0.626809 0.119218 0.113077
O O11 0.697274 0.977597 0.170948
O O12 0.128623 0.650580 0.362524
O O13 0.035111 0.488154 0.827786
O O14 0.026981 0.426014 0.117635
#
# Coordination Sequence:
#
# PCOD8046044 Si02
#       7
#     2   2   2   2   2   2   2
#     4  11  25  38  55  82 119 163 204 231 280 361
#     4  11  22  41  61  89 122 157 199 253 304 347
#     4  10  22  38  64  95 118 149 202 246 307 368
#     4  12  24  40  58  83 121 162 195 238 288 356
#     4  11  24  37  63  92 116 152 204 254 302 354
#     4  11  23  40  59  85 119 156 199 248 295 343
#     4  10  20  40  66  92 119 149 191 262 312 347
#
# _framework density 21.172623999999999
#
# number of rings (size 3 to 8) (size 9 to 14) (size 15 to 20)
#    0.000    1.143    0.000    7.714    0.000    5.714 
#    0.000    1.429    0.000    0.000    0.000    0.000 
#    0.000    0.000    0.000    0.000    0.000    0.000 
#
# Total GULP energy -173597.164894 kJ/mol
# GULP energy per Si atom -12399.797492 kJ/mol
# Density = 2.112443 g / cm^3
# Si number density = 21.172624 Si / 1000 Ang^3
#
#
#
# Elastic Constant Matrix: (Units=GPa)
#
#
# Indices 1 2 3 4 5 6 
#
# 1 109.6621 18.7068 38.0730 0.0000 -14.3572 0.0000
# 2 18.7068 67.2834 2.5079 0.0000 -4.9453 0.0000
# 3 38.0730 2.5079 123.7226 0.0000 2.7130 0.0000
# 4 0.0000 0.0000 0.0000 24.8848 0.0000 0.7167
# 5 -14.3572 -4.9453 2.7130 0.0000 24.2037 0.0000
# 6 0.0000 0.0000 0.0000 0.7167 0.0000 33.3204
#
#
#
# Elastic Compliance Matrix: (Units=1/GPa)
#
#
# Indices 1 2 3 4 5 6 
#
# 1 0.011753 -0.002626 -0.003714 0.000000 0.006852 0.000000
# 2 -0.002626 0.015693 0.000455 0.000000 0.001598 0.000000
# 3 -0.003714 0.000455 0.009285 0.000000 -0.003151 0.000000
# 4 0.000000 0.000000 0.000000 0.040210 0.000000 -0.000865
# 5 0.006852 0.001598 -0.003151 0.000000 0.046060 0.000000
# 6 0.000000 0.000000 0.000000 -0.000865 0.000000 0.030030
#
#
# Mechanical properties :
#
#
# Convention : Reuss Voigt Hill
#
# Bulk Modulus (GPa) = 40.06054 46.58260 43.32157
# Shear Modulus (GPa) = 28.88138 32.57382 30.72760
#
# Velocity S-wave (km/s) = 3.69737 3.92661 3.81371
# Velocity P-wave (km/s) = 6.09831 6.52739 6.31649
#
# Compressibility (1/GPa) = 0.02496222
#
# Stress axis : x y z
#
# Youngs Moduli (GPa) = 85.08294 63.72254 107.69693
#
# Poissons Ratio (x) = 0.16732 0.39997
# Poissons Ratio (y) = 0.22340 -0.04899
# Poissons Ratio (z) = 0.31598 -0.02899
#
# Static dielectric constant tensor:
#      x y z
#    x 3.761450 0.000000 0.044850 
#    y 0.000000 3.949000 0.000000 
#    z 0.044850 0.000000 3.911290 
# 
# 
# High freq. dielectric constant tensor:
#      x y z
#    x 1.816810 0.000000 0.000810 
#    y 0.000000 1.844990 0.000000 
#    z 0.000810 0.000000 1.826550 
# 
# From -- ./inp_files/10149.got.cif
#   From: 2010.03.12/outbox.cif.g09.slc.cpg/sg4_6_cif.got.tgz:10149.got - 2010.03.31 09:31:35.
