data_PCOD8046581
_publ_section_title
;
Structure prediction by ZEFSAII (Michael W. Deem and Ramdas Pophale) SiO2 
 PCOD8046581
Probable space group: P 21
;
_chemical_formula_sum "Si O2"
_cell_formula_units_Z 14
_cell_length_a 8.735254
_cell_length_b 8.505820
_cell_length_c 8.939288
_cell_angle_alpha 90.000000
_cell_angle_beta 90.710450
_cell_angle_gamma 90.000000
_cell_volume 664.142492
_symmetry_space_group_name_H-M "P 21"
_symmetry_group_IT_number 4
_symmetry_cell_setting 'monoclinic'
loop_
_space_group_symop_operation_xyz
x,y,z
-x,1/2+y,-z
loop_
_atom_site_type_symbol
_atom_site_label
_atom_site_fract_x
_atom_site_fract_y
_atom_site_fract_z
Si Si1 0.684281 0.490270 0.207162
Si Si2 0.030607 0.007612 0.585473
Si Si3 0.113708 0.712513 0.186865
Si Si4 0.427427 0.670738 0.327393
Si Si5 0.542383 0.828994 0.615272
Si Si6 0.857423 0.698443 0.669097
Si Si7 0.080246 0.032169 0.041020
O O1 0.811647 0.471920 0.333352
O O2 0.585535 0.650096 0.234355
O O3 0.572789 0.339525 0.240868
O O4 0.760937 0.496259 0.045307
O O5 0.068870 0.048210 0.413953
O O6 0.954508 0.165386 0.653364
O O7 0.920629 0.859515 0.602250
O O8 0.296826 0.726509 0.208674
O O9 0.039189 0.874957 0.131121
O O10 0.061047 0.575825 0.069395
O O11 0.450066 0.794256 0.461550
O O12 0.381275 0.502546 0.400942
O O13 0.673397 0.699574 0.645396
O O14 0.895059 0.677312 0.844692
#
# Coordination Sequence:
#
# PCOD8046581 Si02
#       7
#     2   2   2   2   2   2   2
#     4   9  22  40  63  90 133 165 223 269 330 405
#     4  11  22  40  67 100 128 176 229 276 326 407
#     4  11  24  43  65  95 136 177 226 278 338 404
#     4  10  22  42  68  95 134 170 226 279 328 404
#     4  10  22  41  66  98 128 175 218 291 320 402
#     4  12  23  41  69  98 136 174 226 283 339 388
#     4  11  25  43  66  94 135 181 218 284 339 400
#
# _framework density 21.079813999999999
#
# number of rings (size 3 to 8) (size 9 to 14) (size 15 to 20)
#    0.857    0.571    2.857    2.571    6.000    1.143 
#    0.000    0.000    3.143    0.000    0.000    0.000 
#    0.000    0.000    0.000    0.000    0.000    0.000 
#
# Total GULP energy -173486.523072 kJ/mol
# GULP energy per Si atom -12391.894505 kJ/mol
# Density = 2.103184 g / cm^3
# Si number density = 21.079814 Si / 1000 Ang^3
#
#
#
# Elastic Constant Matrix: (Units=GPa)
#
#
# Indices 1 2 3 4 5 6 
#
# 1 106.2628 17.2828 40.5265 0.0000 6.0382 0.0000
# 2 17.2828 67.0256 25.8536 0.0000 -1.6273 0.0000
# 3 40.5265 25.8536 109.0272 0.0000 -4.5481 0.0000
# 4 0.0000 0.0000 0.0000 42.1029 0.0000 -1.7217
# 5 6.0382 -1.6273 -4.5481 0.0000 41.2799 0.0000
# 6 0.0000 0.0000 0.0000 -1.7217 0.0000 25.9544
#
#
#
# Elastic Compliance Matrix: (Units=1/GPa)
#
#
# Indices 1 2 3 4 5 6 
#
# 1 0.011267 -0.001439 -0.003936 0.000000 -0.002139 0.000000
# 2 -0.001439 0.016607 -0.003383 0.000000 0.000492 0.000000
# 3 -0.003936 -0.003383 0.011509 0.000000 0.001710 0.000000
# 4 0.000000 0.000000 0.000000 0.023816 0.000000 0.001580
# 5 -0.002139 0.000492 0.001710 0.000000 0.024746 0.000000
# 6 0.000000 0.000000 0.000000 0.001580 0.000000 0.038634
#
#
# Mechanical properties :
#
#
# Convention : Reuss Voigt Hill
#
# Bulk Modulus (GPa) = 45.72941 49.96017 47.84479
# Shear Modulus (GPa) = 33.02862 35.11095 34.06978
#
# Velocity S-wave (km/s) = 3.96262 4.08563 4.02460
# Velocity P-wave (km/s) = 6.53277 6.78295 6.65903
#
# Compressibility (1/GPa) = 0.02186777
#
# Stress axis : x y z
#
# Youngs Moduli (GPa) = 88.75183 60.21382 86.89121
#
# Poissons Ratio (x) = 0.08665 0.34202
# Poissons Ratio (y) = 0.12771 0.29393
# Poissons Ratio (z) = 0.34934 0.20369
#
# Static dielectric constant tensor:
#      x y z
#    x 3.873180 0.000000 -0.106460 
#    y 0.000000 3.613420 0.000000 
#    z -0.106460 0.000000 3.716930 
# 
# 
# High freq. dielectric constant tensor:
#      x y z
#    x 1.828410 0.000000 0.004200 
#    y 0.000000 1.812600 0.000000 
#    z 0.004200 0.000000 1.817660 
# 
# From -- ./inp_files/5634.got.cif
#   From: 2010.03.12/outbox.cif.g09.slc.cpg/sg4_3_cif.got.tgz:5634.got - 2010.03.31 09:31:35.
