data_PCOD8046858
_publ_section_title
;
Structure prediction by ZEFSAII (Michael W. Deem and Ramdas Pophale) SiO2 
 PCOD8046858
Probable space group: P 21
;
_chemical_formula_sum "Si O2"
_cell_formula_units_Z 14
_cell_length_a 11.365833
_cell_length_b 8.322857
_cell_length_c 9.517898
_cell_angle_alpha 90.000000
_cell_angle_beta 139.895728
_cell_angle_gamma 90.000000
_cell_volume 579.992573
_symmetry_space_group_name_H-M "P 21"
_symmetry_group_IT_number 4
_symmetry_cell_setting 'monoclinic'
loop_
_space_group_symop_operation_xyz
x,y,z
-x,1/2+y,-z
loop_
_atom_site_type_symbol
_atom_site_label
_atom_site_fract_x
_atom_site_fract_y
_atom_site_fract_z
Si Si1 0.190059 0.323190 0.869306
Si Si2 0.883428 0.939350 0.499342
Si Si3 0.791375 0.264745 0.509504
Si Si4 0.558027 0.645328 0.696816
Si Si5 0.709421 0.446123 0.175633
Si Si6 0.621974 0.805910 0.476918
Si Si7 0.430260 0.625654 0.075262
O O1 0.161369 0.318956 0.671699
O O2 0.991206 0.299570 0.759605
O O3 0.326111 0.182449 0.052847
O O4 0.275527 0.497091 0.978463
O O5 0.813452 0.859367 0.580085
O O6 0.094308 0.997281 0.706426
O O7 0.784720 0.111540 0.394708
O O8 0.639883 0.233359 0.489302
O O9 0.732656 0.413620 0.362754
O O10 0.668566 0.730904 0.671754
O O11 0.523862 0.454719 0.651159
O O12 0.547574 0.577467 0.042390
O O13 0.650962 0.298562 0.029296
O O14 0.545050 0.654808 0.321003
#
# Coordination Sequence:
#
# PCOD8046858 Si02
#       7
#     2   2   2   2   2   2   2
#     4  11  23  44  73 106 143 191 235 301 358 424
#     4  10  24  42  72 110 143 179 244 301 356 425
#     4  10  23  42  71 103 141 185 235 298 350 422
#     4  11  25  51  70 101 152 191 239 296 357 433
#     4  11  25  40  69 110 143 179 239 299 356 425
#     4  11  27  47  73 106 142 196 241 295 360 430
#     4  12  25  40  72 106 144 189 235 296 371 419
#
# _framework density 24.138238999999999
#
# number of rings (size 3 to 8) (size 9 to 14) (size 15 to 20)
#    0.000    1.143    2.857    1.714   10.000    0.000 
#    2.571    0.000    0.000    0.000    0.000    0.000 
#    0.000    0.000    0.000    0.000    0.000    0.000 
#
# Total GULP energy -173469.263878 kJ/mol
# GULP energy per Si atom -12390.661706 kJ/mol
# Density = 2.408330 g / cm^3
# Si number density = 24.138239 Si / 1000 Ang^3
#
#
#
# Elastic Constant Matrix: (Units=GPa)
#
#
# Indices 1 2 3 4 5 6 
#
# 1 122.3700 16.4144 40.8390 0.0000 11.4075 0.0000
# 2 16.4144 49.3735 6.1437 0.0000 -3.2668 0.0000
# 3 40.8390 6.1437 79.4521 0.0000 12.0080 0.0000
# 4 0.0000 0.0000 0.0000 45.4803 0.0000 -1.9252
# 5 11.4075 -3.2668 12.0080 0.0000 29.4403 0.0000
# 6 0.0000 0.0000 0.0000 -1.9252 0.0000 39.0959
#
#
#
# Elastic Compliance Matrix: (Units=1/GPa)
#
#
# Indices 1 2 3 4 5 6 
#
# 1 0.010385 -0.003024 -0.004737 0.000000 -0.002427 0.000000
# 2 -0.003024 0.021601 -0.000699 0.000000 0.003853 0.000000
# 3 -0.004737 -0.000699 0.015782 0.000000 -0.004679 0.000000
# 4 0.000000 0.000000 0.000000 0.022033 0.000000 0.001085
# 5 -0.002427 0.003853 -0.004679 0.000000 0.037244 0.000000
# 6 0.000000 0.000000 0.000000 0.001085 0.000000 0.025632
#
#
# Mechanical properties :
#
#
# Convention : Reuss Voigt Hill
#
# Bulk Modulus (GPa) = 32.41562 41.99887 37.20724
# Shear Modulus (GPa) = 31.27376 35.32319 33.29848
#
# Velocity S-wave (km/s) = 3.60336 3.82955 3.71818
# Velocity P-wave (km/s) = 5.54713 6.08203 5.82072
#
# Compressibility (1/GPa) = 0.03084932
#
# Stress axis : x y z
#
# Youngs Moduli (GPa) = 96.29509 46.29443 63.36180
#
# Poissons Ratio (x) = 0.13997 0.30016
# Poissons Ratio (y) = 0.29116 0.04426
# Poissons Ratio (z) = 0.45617 0.03234
#
# Static dielectric constant tensor:
#      x y z
#    x 4.280300 0.000000 0.279910 
#    y 0.000000 4.401230 0.000000 
#    z 0.279910 0.000000 4.246680 
# 
# 
# High freq. dielectric constant tensor:
#      x y z
#    x 1.946710 0.000000 0.018920 
#    y 0.000000 1.977120 0.000000 
#    z 0.018920 0.000000 1.941440 
# 
# From -- ./inp_files/8083.got.cif
#   From: 2010.03.12/outbox.cif.g09.slc.cpg/sg4_5_cif.got.tgz:8083.got - 2010.03.31 09:31:35.
