data_PCOD8046705
_publ_section_title
;
Structure prediction by ZEFSAII (Michael W. Deem and Ramdas Pophale) SiO2 
 PCOD8046705
Probable space group: P 21
;
_chemical_formula_sum "Si O2"
_cell_formula_units_Z 16
_cell_length_a 8.811607
_cell_length_b 15.648848
_cell_length_c 5.375067
_cell_angle_alpha 90.000000
_cell_angle_beta 115.119784
_cell_angle_gamma 90.000000
_cell_volume 671.077296
_symmetry_space_group_name_H-M "P 21"
_symmetry_group_IT_number 4
_symmetry_cell_setting 'monoclinic'
loop_
_space_group_symop_operation_xyz
x,y,z
-x,1/2+y,-z
loop_
_atom_site_type_symbol
_atom_site_label
_atom_site_fract_x
_atom_site_fract_y
_atom_site_fract_z
Si Si1 0.310772 0.112510 0.653463
Si Si2 0.848243 0.719148 0.839975
Si Si3 0.550067 0.971572 0.720762
Si Si4 0.033840 0.062346 0.794845
Si Si5 0.273614 0.845914 0.648036
Si Si6 0.693644 0.026009 0.340518
Si Si7 0.491995 0.692258 0.820873
Si Si8 0.926431 0.382058 0.990990
O O1 0.164161 0.168929 0.428636
O O2 0.217041 0.055187 0.796729
O O3 0.409559 0.043564 0.558579
O O4 0.448571 0.178826 0.854096
O O5 0.654357 0.726993 0.788147
O O6 0.969699 0.657070 0.084567
O O7 0.921867 0.814373 0.869069
O O8 0.455208 0.886394 0.729969
O O9 0.657660 0.958125 0.541435
O O10 0.666866 0.993005 0.041025
O O11 0.885836 0.056189 0.490085
O O12 0.014603 0.981283 0.970109
O O13 0.322907 0.747062 0.693796
O O14 0.152321 0.864552 0.332949
O O15 0.196175 0.871622 0.858936
O O16 0.565979 0.101155 0.323497
#
# Coordination Sequence:
#
# PCOD8046705 Si02
#       8
#     2   2   2   2   2   2   2   2
#     4  10  22  44  71  96 140 190 227 290 357 416
#     4  11  25  45  73 103 146 189 240 297 358 426
#     4  11  23  45  69  98 133 179 229 285 348 421
#     4  11  26  46  70 107 146 190 240 293 358 430
#     4  12  27  47  70 102 143 182 236 297 362 415
#     4  11  25  42  71 101 131 183 234 281 351 419
#     4  10  25  42  68 100 137 180 234 289 352 415
#     4  12  29  45  74 105 144 189 238 294 362 428
#
# _framework density 23.842258999999999
#
# number of rings (size 3 to 8) (size 9 to 14) (size 15 to 20)
#    0.000    1.000    2.500    2.250   12.250    2.000 
#    0.000    0.000    0.000    0.000    0.000    0.000 
#    0.000    0.000    0.000    0.000    0.000    0.000 
#
# Total GULP energy -198218.388322 kJ/mol
# GULP energy per Si atom -12388.649270 kJ/mol
# Density = 2.378799 g / cm^3
# Si number density = 23.842259 Si / 1000 Ang^3
#
#
#
# Elastic Constant Matrix: (Units=GPa)
#
#
# Indices 1 2 3 4 5 6 
#
# 1 45.6486 3.4917 11.8367 0.0000 -1.6957 0.0000
# 2 3.4917 54.7236 11.7849 0.0000 0.3259 0.0000
# 3 11.8367 11.7849 91.3437 0.0000 14.0377 0.0000
# 4 0.0000 0.0000 0.0000 29.0606 0.0000 9.4748
# 5 -1.6957 0.3259 14.0377 0.0000 40.8166 0.0000
# 6 0.0000 0.0000 0.0000 9.4748 0.0000 39.6302
#
#
#
# Elastic Compliance Matrix: (Units=1/GPa)
#
#
# Indices 1 2 3 4 5 6 
#
# 1 0.022866 -0.000787 -0.003176 0.000000 0.002049 0.000000
# 2 -0.000787 0.018843 -0.002429 0.000000 0.000652 0.000000
# 3 -0.003176 -0.002429 0.012342 0.000000 -0.004357 0.000000
# 4 0.000000 0.000000 0.000000 0.037320 0.000000 -0.008922
# 5 0.002049 0.000652 -0.004357 0.000000 0.026078 0.000000
# 6 0.000000 0.000000 0.000000 -0.008922 0.000000 0.027366
#
#
# Mechanical properties :
#
#
# Convention : Reuss Voigt Hill
#
# Bulk Modulus (GPa) = 24.23298 27.32695 25.77996
# Shear Modulus (GPa) = 29.17872 32.87499 31.02685
#
# Velocity S-wave (km/s) = 3.50211 3.71732 3.61132
# Velocity P-wave (km/s) = 5.15160 5.46910 5.31272
#
# Compressibility (1/GPa) = 0.04126608
#
# Stress axis : x y z
#
# Youngs Moduli (GPa) = 43.73226 53.06966 81.02198
#
# Poissons Ratio (x) = 0.04178 0.25736
# Poissons Ratio (y) = 0.03442 0.19683
# Poissons Ratio (z) = 0.13891 0.12892
#
# Static dielectric constant tensor:
#      x y z
#    x 4.055420 0.000000 0.021130 
#    y 0.000000 4.299510 0.000000 
#    z 0.021130 0.000000 4.340410 
# 
# 
# High freq. dielectric constant tensor:
#      x y z
#    x 1.942500 0.000000 0.006420 
#    y 0.000000 1.942810 0.000000 
#    z 0.006420 0.000000 1.950430 
# 
# From -- ./inp_files/1597.got.cif
#   From: 2010.03.12/outbox.cif.g09.slc.cpg/sg4_1_cif.got.tgz:1597.got - 2010.03.31 09:31:35.
