data_PCOD8046234
_publ_section_title
;
Structure prediction by ZEFSAII (Michael W. Deem and Ramdas Pophale) SiO2 
 PCOD8046234
Probable space group: P 21
;
_chemical_formula_sum "Si O2"
_cell_formula_units_Z 10
_cell_length_a 13.897310
_cell_length_b 4.846724
_cell_length_c 8.822680
_cell_angle_alpha 90.000000
_cell_angle_beta 42.037484
_cell_angle_gamma 90.000000
_cell_volume 397.929193
_symmetry_space_group_name_H-M "P 21"
_symmetry_group_IT_number 4
_symmetry_cell_setting 'monoclinic'
loop_
_space_group_symop_operation_xyz
x,y,z
-x,1/2+y,-z
loop_
_atom_site_type_symbol
_atom_site_label
_atom_site_fract_x
_atom_site_fract_y
_atom_site_fract_z
Si Si1 0.098131 0.269740 0.861654
Si Si2 0.817260 0.490822 0.739698
Si Si3 0.480347 0.778980 0.917460
Si Si4 0.888548 0.992016 0.472202
Si Si5 0.417471 0.252425 0.529159
O O1 0.157567 0.412005 0.640464
O O2 0.248327 0.224468 0.778452
O O3 0.986246 0.482935 0.071848
O O4 0.809884 0.804216 0.690198
O O5 0.938602 0.446929 0.724202
O O6 0.851376 0.308044 0.550037
O O7 0.665730 0.399666 0.984606
O O8 0.577258 0.700629 0.659503
O O9 0.447819 0.513475 0.060576
O O10 0.479107 0.551037 0.498212
#
# Coordination Sequence:
#
# PCOD8046234 Si02
#       5
#     2   2   2   2   2
#     4  12  26  44  71  97 140 187 234 276 346 425
#     4  10  21  39  68  94 127 167 222 284 331 396
#     4  12  25  44  73  98 140 185 237 281 357 418
#     4  10  22  41  64  97 130 167 224 279 331 396
#     4  12  28  48  72 108 149 186 237 300 361 427
#
# _framework density 25.130099000000001
#
# number of rings (size 3 to 8) (size 9 to 14) (size 15 to 20)
#    0.000    0.800    0.000    7.200    5.600    0.000 
#    0.000    0.000    0.000    0.000    0.000    0.000 
#    0.000    0.000    0.000    0.000    0.000    0.000 
#
# Total GULP energy -123992.465122 kJ/mol
# GULP energy per Si atom -12399.246512 kJ/mol
# Density = 2.507290 g / cm^3
# Si number density = 25.130099 Si / 1000 Ang^3
#
#
#
# Elastic Constant Matrix: (Units=GPa)
#
#
# Indices 1 2 3 4 5 6 
#
# 1 89.3252 14.1128 27.5041 0.0000 -32.1850 0.0000
# 2 14.1128 73.8229 2.3303 0.0000 -11.8019 0.0000
# 3 27.5041 2.3303 73.6664 0.0000 -24.0922 0.0000
# 4 0.0000 0.0000 0.0000 29.9843 0.0000 -9.9004
# 5 -32.1850 -11.8019 -24.0922 0.0000 61.3650 0.0000
# 6 0.0000 0.0000 0.0000 -9.9004 0.0000 42.3425
#
#
#
# Elastic Compliance Matrix: (Units=1/GPa)
#
#
# Indices 1 2 3 4 5 6 
#
# 1 0.014706 -0.001740 -0.003468 0.000000 0.006017 0.000000
# 2 -0.001740 0.014198 0.000912 0.000000 0.002176 0.000000
# 3 -0.003468 0.000912 0.016410 0.000000 0.004799 0.000000
# 4 0.000000 0.000000 0.000000 0.036141 0.000000 0.008450
# 5 0.006017 0.002176 0.004799 0.000000 0.021754 0.000000
# 6 0.000000 0.000000 0.000000 0.008450 0.000000 0.025593
#
#
# Mechanical properties :
#
#
# Convention : Reuss Voigt Hill
#
# Bulk Modulus (GPa) = 27.23123 36.07879 31.65501
# Shear Modulus (GPa) = 33.41500 39.59617 36.50559
#
# Velocity S-wave (km/s) = 3.65043 3.97375 3.81552
# Velocity P-wave (km/s) = 5.35044 5.95334 5.65992
#
# Compressibility (1/GPa) = 0.03672255
#
# Stress axis : x y z
#
# Youngs Moduli (GPa) = 68.00124 70.43423 60.93786
#
# Poissons Ratio (x) = 0.12255 0.21131
# Poissons Ratio (y) = 0.11832 -0.05559
# Poissons Ratio (z) = 0.23581 -0.06425
#
# Static dielectric constant tensor:
#      x y z
#    x 4.446760 0.000000 -0.410450 
#    y 0.000000 4.600940 0.000000 
#    z -0.410450 0.000000 4.258280 
# 
# 
# High freq. dielectric constant tensor:
#      x y z
#    x 2.006330 0.000000 -0.027590 
#    y 0.000000 2.010410 0.000000 
#    z -0.027590 0.000000 1.992900 
# 
# From -- ./inp_files/5058.got.cif
#   From: 2010.03.12/outbox.cif.g09.slc.cpg/sg4_3_cif.got.tgz:5058.got - 2010.03.31 09:31:35.
