data_PCOD8046049
_publ_section_title
;
Structure prediction by ZEFSAII (Michael W. Deem and Ramdas Pophale) SiO2 
 PCOD8046049
Probable space group: P 21
;
_chemical_formula_sum "Si O2"
_cell_formula_units_Z 14
_cell_length_a 6.086720
_cell_length_b 8.388158
_cell_length_c 14.157056
_cell_angle_alpha 90.000000
_cell_angle_beta 118.000007
_cell_angle_gamma 90.000000
_cell_volume 638.201433
_symmetry_space_group_name_H-M "P 21"
_symmetry_group_IT_number 4
_symmetry_cell_setting 'monoclinic'
loop_
_space_group_symop_operation_xyz
x,y,z
-x,1/2+y,-z
loop_
_atom_site_type_symbol
_atom_site_label
_atom_site_fract_x
_atom_site_fract_y
_atom_site_fract_z
Si Si1 0.162710 0.737850 0.599601
Si Si2 0.563603 0.389247 0.180223
Si Si3 0.340419 0.818125 0.012545
Si Si4 0.255167 0.775858 0.415126
Si Si5 0.928752 0.061819 0.928240
Si Si6 0.727040 0.955641 0.495727
Si Si7 0.832426 0.711737 0.198450
O O1 0.353606 0.765024 0.723257
O O2 0.247140 0.834448 0.522466
O O3 0.154104 0.549191 0.571234
O O4 0.892718 0.810374 0.570054
O O5 0.604195 0.307590 0.087193
O O6 0.273284 0.427105 0.139580
O O7 0.727571 0.548918 0.221927
O O8 0.187988 0.977164 0.009082
O O9 0.180535 0.661627 0.006282
O O10 0.601818 0.822587 0.120759
O O11 0.469444 0.877829 0.407789
O O12 0.311621 0.584220 0.427116
O O13 0.992792 0.805172 0.309163
O O14 0.981671 0.178232 0.851237
#
# Coordination Sequence:
#
# PCOD8046049 Si02
#       7
#     2   2   2   2   2   2   2
#     4  10  23  42  65  98 127 179 213 280 331 397
#     4  10  20  40  68  92 128 173 221 274 331 398
#     4  10  22  41  66  97 124 175 224 267 331 394
#     4  10  24  41  68  99 128 178 219 278 323 408
#     4  10  22  40  69  91 129 180 213 276 328 397
#     4  10  24  39  70  92 137 166 230 264 337 388
#     4  10  21  41  66  93 131 175 220 271 331 396
#
# _framework density 21.936648000000002
#
# number of rings (size 3 to 8) (size 9 to 14) (size 15 to 20)
#    0.857    1.143    1.429    0.857    4.000    2.286 
#    0.000   18.571    0.000    0.000    0.000    0.000 
#    0.000    0.000    0.000    0.000    0.000    0.000 
#
# Total GULP energy -173528.114187 kJ/mol
# GULP energy per Si atom -12394.865299 kJ/mol
# Density = 2.188672 g / cm^3
# Si number density = 21.936648 Si / 1000 Ang^3
#
#
#
# Elastic Constant Matrix: (Units=GPa)
#
#
# Indices 1 2 3 4 5 6 
#
# 1 106.2052 36.0853 53.2655 0.0000 16.3346 0.0000
# 2 36.0853 57.4822 39.5052 0.0000 10.8525 0.0000
# 3 53.2655 39.5052 133.5838 0.0000 17.9345 0.0000
# 4 0.0000 0.0000 0.0000 28.3749 0.0000 8.2906
# 5 16.3346 10.8525 17.9345 0.0000 30.7642 0.0000
# 6 0.0000 0.0000 0.0000 8.2906 0.0000 47.2290
#
#
#
# Elastic Compliance Matrix: (Units=1/GPa)
#
#
# Indices 1 2 3 4 5 6 
#
# 1 0.013458 -0.005579 -0.003278 0.000000 -0.003267 0.000000
# 2 -0.005579 0.024677 -0.004668 0.000000 -0.003022 0.000000
# 3 -0.003278 -0.004668 0.010544 0.000000 -0.002760 0.000000
# 4 0.000000 0.000000 0.000000 0.037148 0.000000 -0.006521
# 5 -0.003267 -0.003022 -0.002760 0.000000 0.036915 0.000000
# 6 0.000000 0.000000 0.000000 -0.006521 0.000000 0.022318
#
#
# Mechanical properties :
#
#
# Convention : Reuss Voigt Hill
#
# Bulk Modulus (GPa) = 46.23143 61.66480 53.94812
# Shear Modulus (GPa) = 27.88349 32.50130 30.19240
#
# Velocity S-wave (km/s) = 3.56911 3.85333 3.71394
# Velocity P-wave (km/s) = 6.17296 6.92596 6.56027
#
# Compressibility (1/GPa) = 0.02163031
#
# Stress axis : x y z
#
# Youngs Moduli (GPa) = 74.30786 40.52299 94.84255
#
# Poissons Ratio (x) = 0.22607 0.31086
# Poissons Ratio (y) = 0.41455 0.44270
# Poissons Ratio (z) = 0.24356 0.18915
#
# Static dielectric constant tensor:
#      x y z
#    x 3.983890 0.000000 0.105680 
#    y 0.000000 3.730940 0.000000 
#    z 0.105680 0.000000 3.713270 
# 
# 
# High freq. dielectric constant tensor:
#      x y z
#    x 1.863540 0.000000 0.011810 
#    y 0.000000 1.847540 0.000000 
#    z 0.011810 0.000000 1.850150 
# 
# From -- ./inp_files/13307.got.cif
#   From: 2010.03.12/outbox.cif.g09.slc.cpg/sg4_7_cif.got.tgz:13307.got - 2010.03.31 09:31:35.
