data_PCOD8046551
_publ_section_title
;
Structure prediction by ZEFSAII (Michael W. Deem and Ramdas Pophale) SiO2 
 PCOD8046551
Probable space group: P 21
;
_chemical_formula_sum "Si O2"
_cell_formula_units_Z 16
_cell_length_a 9.055563
_cell_length_b 10.779574
_cell_length_c 14.301356
_cell_angle_alpha 90.000000
_cell_angle_beta 32.245698
_cell_angle_gamma 90.000000
_cell_volume 744.852400
_symmetry_space_group_name_H-M "P 21"
_symmetry_group_IT_number 4
_symmetry_cell_setting 'monoclinic'
loop_
_space_group_symop_operation_xyz
x,y,z
-x,1/2+y,-z
loop_
_atom_site_type_symbol
_atom_site_label
_atom_site_fract_x
_atom_site_fract_y
_atom_site_fract_z
Si Si1 0.589746 0.222070 0.001569
Si Si2 0.593123 0.076429 0.178230
Si Si3 0.313823 0.546556 0.489582
Si Si4 0.889779 0.781663 0.385807
Si Si5 0.696568 0.187631 0.319413
Si Si6 0.285992 0.477456 0.156206
Si Si7 0.021663 0.585681 0.467590
Si Si8 0.923219 0.450027 0.185579
O O1 0.583588 0.198138 0.116281
O O2 0.400656 0.339620 0.075791
O O3 0.897237 0.263291 0.811652
O O4 0.514336 0.092625 0.985765
O O5 0.697475 0.106407 0.225787
O O6 0.278151 0.024024 0.348477
O O7 0.814121 0.978344 0.021065
O O8 0.135525 0.423201 0.571253
O O9 0.212048 0.607258 0.640506
O O10 0.202185 0.626725 0.461512
O O11 0.643461 0.521955 0.306285
O O12 0.604157 0.737873 0.494074
O O13 0.972447 0.710543 0.435577
O O14 0.899384 0.302346 0.194177
O O15 0.207085 0.490678 0.307039
O O16 0.001460 0.491854 0.248996
#
# Coordination Sequence:
#
# PCOD8046551 Si02
#       8
#     2   2   2   2   2   2   2   2
#     4  10  22  40  70  94 129 169 223 272 331 383
#     4  10  22  43  63  94 135 174 215 276 325 392
#     4  11  23  41  68  94 132 176 218 270 328 396
#     4   9  22  43  64  95 134 172 217 274 326 396
#     4  10  22  41  66  92 133 175 217 265 337 393
#     4  10  23  43  68  94 136 174 217 278 333 396
#     4  10  23  41  66  95 128 173 219 268 327 391
#     4  10  23  42  63  96 133 167 220 271 331 393
#
# _framework density 21.480767
#
# number of rings (size 3 to 8) (size 9 to 14) (size 15 to 20)
#    0.000    2.000    0.000    3.000   10.500    1.000 
#    4.500    1.250    0.000    0.000    0.000    0.000 
#    0.000    0.000    0.000    0.000    0.000    0.000 
#
# Total GULP energy -198321.099916 kJ/mol
# GULP energy per Si atom -12395.068745 kJ/mol
# Density = 2.143188 g / cm^3
# Si number density = 21.480767 Si / 1000 Ang^3
#
#
#
# Elastic Constant Matrix: (Units=GPa)
#
#
# Indices 1 2 3 4 5 6 
#
# 1 153.1309 46.7784 52.6395 0.0000 12.6941 0.0000
# 2 46.7784 115.2597 52.3818 0.0000 -12.6020 0.0000
# 3 52.6395 52.3818 121.2851 0.0000 9.1303 0.0000
# 4 0.0000 0.0000 0.0000 27.4537 0.0000 -6.2051
# 5 12.6941 -12.6020 9.1303 0.0000 29.5090 0.0000
# 6 0.0000 0.0000 0.0000 -6.2051 0.0000 25.7298
#
#
#
# Elastic Compliance Matrix: (Units=1/GPa)
#
#
# Indices 1 2 3 4 5 6 
#
# 1 0.008512 -0.002975 -0.002087 0.000000 -0.004286 0.000000
# 2 -0.002975 0.013068 -0.004985 0.000000 0.008403 0.000000
# 3 -0.002087 -0.004985 0.011668 0.000000 -0.004842 0.000000
# 4 0.000000 0.000000 0.000000 0.038525 0.000000 0.009291
# 5 -0.004286 0.008403 -0.004842 0.000000 0.040818 0.000000
# 6 0.000000 0.000000 0.000000 0.009291 0.000000 0.041106
#
#
# Mechanical properties :
#
#
# Convention : Reuss Voigt Hill
#
# Bulk Modulus (GPa) = 76.02191 77.03057 76.52624
# Shear Modulus (GPa) = 28.06222 32.39691 30.22956
#
# Velocity S-wave (km/s) = 3.61832 3.88775 3.75545
# Velocity P-wave (km/s) = 7.27488 7.48938 7.38291
#
# Compressibility (1/GPa) = 0.01315410
#
# Stress axis : x y z
#
# Youngs Moduli (GPa) = 117.48450 76.52414 85.70234
#
# Poissons Ratio (x) = 0.22764 0.17884
# Poissons Ratio (y) = 0.34949 0.42725
# Poissons Ratio (z) = 0.24516 0.38150
#
# Static dielectric constant tensor:
#      x y z
#    x 3.807950 0.000000 0.021800 
#    y 0.000000 3.917750 0.000000 
#    z 0.021800 0.000000 3.976120 
# 
# 
# High freq. dielectric constant tensor:
#      x y z
#    x 1.842080 0.000000 0.004420 
#    y 0.000000 1.836100 0.000000 
#    z 0.004420 0.000000 1.848120 
# 
# From -- ./inp_files/6439.got.cif
#   From: 2010.03.12/outbox.cif.g09.slc.cpg/sg4_4_cif.got.tgz:6439.got - 2010.03.31 09:31:35.
