data_PCOD8046965
_publ_section_title
;
Structure prediction by ZEFSAII (Michael W. Deem and Ramdas Pophale) SiO2 
 PCOD8046965
Probable space group: P 21
;
_chemical_formula_sum "Si O2"
_cell_formula_units_Z 14
_cell_length_a 11.943149
_cell_length_b 7.772631
_cell_length_c 9.969257
_cell_angle_alpha 90.000000
_cell_angle_beta 140.811076
_cell_angle_gamma 90.000000
_cell_volume 584.768470
_symmetry_space_group_name_H-M "P 21"
_symmetry_group_IT_number 4
_symmetry_cell_setting 'monoclinic'
loop_
_space_group_symop_operation_xyz
x,y,z
-x,1/2+y,-z
loop_
_atom_site_type_symbol
_atom_site_label
_atom_site_fract_x
_atom_site_fract_y
_atom_site_fract_z
Si Si1 0.798526 0.654980 0.048496
Si Si2 0.316873 0.783717 0.156618
Si Si3 0.837085 0.306683 0.706117
Si Si4 0.677256 0.631816 0.440806
Si Si5 0.758733 0.149072 0.193227
Si Si6 0.885868 0.779495 0.400471
Si Si7 0.434204 0.793607 0.757948
O O1 0.840520 0.634379 0.246493
O O2 0.958295 0.756030 0.122942
O O3 0.751306 0.472987 0.941045
O O4 0.622816 0.766070 0.865097
O O5 0.222056 0.730426 0.205974
O O6 0.530569 0.756759 0.374233
O O7 0.258751 0.660451 0.982108
O O8 0.792529 0.514635 0.653819
O O9 0.719818 0.214254 0.481490
O O10 0.806126 0.749736 0.473416
O O11 0.580943 0.500904 0.246967
O O12 0.580230 0.204365 0.108400
O O13 0.903587 0.283554 0.384755
O O14 0.816732 0.955964 0.275005
#
# Coordination Sequence:
#
# PCOD8046965 Si02
#       7
#     2   2   2   2   2   2   2
#     4  12  24  45  76 109 149 196 246 316 374 450
#     4  12  27  46  74 113 150 199 255 308 385 456
#     4  10  27  49  72 107 156 196 251 304 379 461
#     4  10  24  46  71 103 148 194 248 305 372 443
#     4  12  24  43  74 114 145 196 251 321 376 451
#     4  12  23  44  74 109 152 191 255 319 380 445
#     4  10  23  45  77 103 148 192 254 307 378 438
#
# _framework density 23.941099999999999
#
# number of rings (size 3 to 8) (size 9 to 14) (size 15 to 20)
#    0.857    0.000    1.429    6.000    2.000    3.429 
#    0.000    0.000    0.000    0.000    0.000    0.000 
#    0.000    0.000    0.000    0.000    0.000    0.000 
#
# Total GULP energy -173490.550686 kJ/mol
# GULP energy per Si atom -12392.182192 kJ/mol
# Density = 2.388661 g / cm^3
# Si number density = 23.941100 Si / 1000 Ang^3
#
#
#
# Elastic Constant Matrix: (Units=GPa)
#
#
# Indices 1 2 3 4 5 6 
#
# 1 204.8624 52.2101 60.6255 0.0000 3.4561 0.0000
# 2 52.2101 95.8785 32.5661 0.0000 5.6718 0.0000
# 3 60.6255 32.5661 72.8234 0.0000 -1.2088 0.0000
# 4 0.0000 0.0000 0.0000 41.6506 0.0000 10.1933
# 5 3.4561 5.6718 -1.2088 0.0000 50.5896 0.0000
# 6 0.0000 0.0000 0.0000 10.1933 0.0000 35.2691
#
#
#
# Elastic Compliance Matrix: (Units=1/GPa)
#
#
# Indices 1 2 3 4 5 6 
#
# 1 0.006825 -0.002080 -0.004758 0.000000 -0.000347 0.000000
# 2 -0.002080 0.013048 -0.004127 0.000000 -0.001419 0.000000
# 3 -0.004758 -0.004127 0.019559 0.000000 0.001255 0.000000
# 4 0.000000 0.000000 0.000000 0.025837 0.000000 -0.007467
# 5 -0.000347 -0.001419 0.001255 0.000000 0.019980 0.000000
# 6 0.000000 0.000000 0.000000 -0.007467 0.000000 0.030512
#
#
# Mechanical properties :
#
#
# Convention : Reuss Voigt Hill
#
# Bulk Modulus (GPa) = 57.13254 73.81863 65.47558
# Shear Modulus (GPa) = 34.83736 40.71271 37.77503
#
# Velocity S-wave (km/s) = 3.81875 4.12823 3.97650
# Velocity P-wave (km/s) = 6.58479 7.32280 6.96358
#
# Compressibility (1/GPa) = 0.01750316
#
# Stress axis : x y z
#
# Youngs Moduli (GPa) = 146.51532 76.63805 51.12773
#
# Poissons Ratio (x) = 0.15942 0.24324
# Poissons Ratio (y) = 0.30478 0.21100
# Poissons Ratio (z) = 0.69705 0.31628
#
# Static dielectric constant tensor:
#      x y z
#    x 4.309900 0.000000 0.179630 
#    y 0.000000 4.067390 0.000000 
#    z 0.179630 0.000000 4.379560 
# 
# 
# High freq. dielectric constant tensor:
#      x y z
#    x 1.959410 0.000000 0.011710 
#    y 0.000000 1.936770 0.000000 
#    z 0.011710 0.000000 1.944210 
# 
# From -- ./inp_files/8053.got.cif
#   From: 2010.03.12/outbox.cif.g09.slc.cpg/sg4_5_cif.got.tgz:8053.got - 2010.03.31 09:31:35.
