data_PCOD8046726
_publ_section_title
;
Structure prediction by ZEFSAII (Michael W. Deem and Ramdas Pophale) SiO2 
 PCOD8046726
Probable space group: P 21
;
_chemical_formula_sum "Si O2"
_cell_formula_units_Z 14
_cell_length_a 5.150202
_cell_length_b 14.506804
_cell_length_c 9.311719
_cell_angle_alpha 90.000000
_cell_angle_beta 71.316161
_cell_angle_gamma 90.000000
_cell_volume 659.042943
_symmetry_space_group_name_H-M "P 21"
_symmetry_group_IT_number 4
_symmetry_cell_setting 'monoclinic'
loop_
_space_group_symop_operation_xyz
x,y,z
-x,1/2+y,-z
loop_
_atom_site_type_symbol
_atom_site_label
_atom_site_fract_x
_atom_site_fract_y
_atom_site_fract_z
Si Si1 0.183363 0.170680 0.251120
Si Si2 0.396888 0.791072 0.156380
Si Si3 0.984329 0.263067 0.032687
Si Si4 0.604705 0.988662 0.506630
Si Si5 0.770552 0.474585 0.687361
Si Si6 0.454233 0.822309 0.701430
Si Si7 0.681316 0.193989 0.530657
O O1 0.021620 0.171688 0.126775
O O2 0.378846 0.260387 0.213201
O O3 0.992040 0.179213 0.424999
O O4 0.341690 0.073167 0.234546
O O5 0.296414 0.896358 0.185007
O O6 0.322447 0.734299 0.310550
O O7 0.722502 0.795887 0.076377
O O8 0.223004 0.742104 0.061114
O O9 0.843606 0.336070 0.170359
O O10 0.376954 0.951027 0.436211
O O11 0.583684 0.922848 0.650486
O O12 0.903199 0.979271 0.385596
O O13 0.532904 0.094080 0.559617
O O14 0.463930 0.764471 0.551901
#
# Coordination Sequence:
#
# PCOD8046726 Si02
#       7
#     2   2   2   2   2   2   2
#     4  10  22  45  68  94 127 177 215 258 327 391
#     4  12  24  44  64  99 130 172 212 270 318 376
#     4  11  26  43  63  91 138 176 210 252 334 385
#     4  11  23  39  67 104 120 163 223 273 317 371
#     4  11  23  40  69  97 126 166 221 265 317 386
#     4  11  21  44  68  91 131 175 209 265 320 389
#     4  10  23  39  71  96 126 163 220 277 313 370
#
# _framework density 21.242925
#
# number of rings (size 3 to 8) (size 9 to 14) (size 15 to 20)
#    0.000    1.143    4.286    1.714    4.000    0.000 
#    2.571    1.429    0.000    0.000    0.000    0.000 
#    0.000    0.000    0.000    0.000    0.000    0.000 
#
# Total GULP energy -173536.408819 kJ/mol
# GULP energy per Si atom -12395.457773 kJ/mol
# Density = 2.119457 g / cm^3
# Si number density = 21.242925 Si / 1000 Ang^3
#
#
#
# Elastic Constant Matrix: (Units=GPa)
#
#
# Indices 1 2 3 4 5 6 
#
# 1 98.5075 25.1899 39.7245 0.0000 8.3831 0.0000
# 2 25.1899 101.8065 48.5397 0.0000 -4.5795 0.0000
# 3 39.7245 48.5397 122.1072 0.0000 4.0923 0.0000
# 4 0.0000 0.0000 0.0000 13.6755 0.0000 -1.2149
# 5 8.3831 -4.5795 4.0923 0.0000 40.0939 0.0000
# 6 0.0000 0.0000 0.0000 -1.2149 0.0000 27.9711
#
#
#
# Elastic Compliance Matrix: (Units=1/GPa)
#
#
# Indices 1 2 3 4 5 6 
#
# 1 0.012050 -0.001551 -0.003224 0.000000 -0.002367 0.000000
# 2 -0.001551 0.012462 -0.004524 0.000000 0.002209 0.000000
# 3 -0.003224 -0.004524 0.011069 0.000000 -0.000972 0.000000
# 4 0.000000 0.000000 0.000000 0.073407 0.000000 0.003188
# 5 -0.002367 0.002209 -0.000972 0.000000 0.025788 0.000000
# 6 0.000000 0.000000 0.000000 0.003188 0.000000 0.035890
#
#
# Mechanical properties :
#
#
# Convention : Reuss Voigt Hill
#
# Bulk Modulus (GPa) = 58.87797 61.03660 59.95729
# Shear Modulus (GPa) = 25.65097 30.27924 27.96510
#
# Velocity S-wave (km/s) = 3.47869 3.77952 3.63222
# Velocity P-wave (km/s) = 6.62659 6.91675 6.77322
#
# Compressibility (1/GPa) = 0.01698428
#
# Stress axis : x y z
#
# Youngs Moduli (GPa) = 82.98909 80.24140 90.34016
#
# Poissons Ratio (x) = 0.12443 0.29129
# Poissons Ratio (y) = 0.12869 0.40866
# Poissons Ratio (z) = 0.26759 0.36298
#
# Static dielectric constant tensor:
#      x y z
#    x 3.897410 0.000000 0.021500 
#    y 0.000000 3.912650 0.000000 
#    z 0.021500 0.000000 3.783840 
# 
# 
# High freq. dielectric constant tensor:
#      x y z
#    x 1.841340 0.000000 0.000050 
#    y 0.000000 1.821230 0.000000 
#    z 0.000050 0.000000 1.828150 
# 
# From -- ./inp_files/1495.got.cif
#   From: 2010.03.12/outbox.cif.g09.slc.cpg/sg4_1_cif.got.tgz:1495.got - 2010.03.31 09:31:35.
