data_PCOD8046200
_publ_section_title
;
Structure prediction by ZEFSAII (Michael W. Deem and Ramdas Pophale) SiO2 
 PCOD8046200
Probable space group: P 21
;
_chemical_formula_sum "Si O2"
_cell_formula_units_Z 14
_cell_length_a 16.622109
_cell_length_b 4.842124
_cell_length_c 26.777393
_cell_angle_alpha 90.000000
_cell_angle_beta 18.190534
_cell_angle_gamma 90.000000
_cell_volume 672.810209
_symmetry_space_group_name_H-M "P 21"
_symmetry_group_IT_number 4
_symmetry_cell_setting 'monoclinic'
loop_
_space_group_symop_operation_xyz
x,y,z
-x,1/2+y,-z
loop_
_atom_site_type_symbol
_atom_site_label
_atom_site_fract_x
_atom_site_fract_y
_atom_site_fract_z
Si Si1 0.331885 0.532830 0.925251
Si Si2 0.313126 0.188757 0.433700
Si Si3 0.148257 0.111156 0.425177
Si Si4 0.660748 0.691991 0.231369
Si Si5 0.534180 0.186073 0.045789
Si Si6 0.097758 0.029677 0.013163
Si Si7 0.216640 0.689702 0.204588
O O1 0.619491 0.447012 0.739823
O O2 0.309254 0.606706 0.996856
O O3 0.117720 0.299761 0.037336
O O4 0.306725 0.810908 0.907675
O O5 0.203782 0.274201 0.444292
O O6 0.531444 0.403194 0.325656
O O7 0.429170 0.889670 0.352886
O O8 0.086440 0.149460 0.607530
O O9 0.052508 0.361827 0.446264
O O10 0.850329 0.631987 0.073488
O O11 0.825272 0.861588 0.176232
O O12 0.288852 0.993265 0.180397
O O13 0.408728 0.489327 0.122257
O O14 0.741568 0.152691 0.879186
#
# Coordination Sequence:
#
# PCOD8046200 Si02
#       7
#     2   2   2   2   2   2   2
#     4  12  22  38  59  88 122 157 200 246 302 355
#     4  12  22  38  59  88 122 157 200 246 302 355
#     4  12  22  34  52  84 126 156 184 234 300 360
#     4  12  23  40  59  86 118 158 206 252 297 360
#     4  10  21  39  62  89 121 162 204 241 289 362
#     4  12  23  40  59  86 118 158 206 252 297 360
#     4  10  21  39  62  89 121 162 204 241 289 362
#
# _framework density 20.808243000000001
#
# number of rings (size 3 to 8) (size 9 to 14) (size 15 to 20)
#    0.000    0.571    2.857    7.714    0.000    0.000 
#    0.000    0.000    0.000    3.429    0.000    2.000 
#    0.000    0.000    0.000    0.000    0.000    0.000 
#
# Total GULP energy -173562.451538 kJ/mol
# GULP energy per Si atom -12397.317967 kJ/mol
# Density = 2.076088 g / cm^3
# Si number density = 20.808243 Si / 1000 Ang^3
#
#
#
# Elastic Constant Matrix: (Units=GPa)
#
#
# Indices 1 2 3 4 5 6 
#
# 1 85.4505 22.4555 36.8363 0.0000 0.1582 0.0000
# 2 22.4555 103.0208 24.5918 0.0000 -1.9625 0.0000
# 3 36.8363 24.5918 93.6162 0.0001 6.9309 0.0000
# 4 0.0000 0.0000 0.0001 31.4095 0.0000 -10.1044
# 5 0.1582 -1.9625 6.9309 0.0000 16.8751 0.0000
# 6 0.0000 0.0000 0.0000 -10.1044 0.0000 27.1271
#
#
#
# Elastic Compliance Matrix: (Units=1/GPa)
#
#
# Indices 1 2 3 4 5 6 
#
# 1 0.014493 -0.001846 -0.005355 0.000000 0.001849 0.000000
# 2 -0.001846 0.010686 -0.002242 0.000000 0.002181 0.000000
# 3 -0.005355 -0.002242 0.013814 0.000000 -0.005884 0.000000
# 4 0.000000 0.000000 0.000000 0.036172 0.000000 0.013473
# 5 0.001849 0.002181 -0.005884 0.000000 0.061912 0.000000
# 6 0.000000 0.000000 0.000000 0.013473 0.000000 0.041882
#
#
# Mechanical properties :
#
#
# Convention : Reuss Voigt Hill
#
# Bulk Modulus (GPa) = 49.73408 49.98384 49.85896
# Shear Modulus (GPa) = 24.44450 28.29594 26.37022
#
# Velocity S-wave (km/s) = 3.43118 3.69161 3.56377
# Velocity P-wave (km/s) = 6.29685 6.49953 6.39900
#
# Compressibility (1/GPa) = 0.02010694
#
# Stress axis : x y z
#
# Youngs Moduli (GPa) = 69.00103 93.58160 72.39284
#
# Poissons Ratio (x) = 0.17271 0.38764
# Poissons Ratio (y) = 0.12734 0.16233
# Poissons Ratio (z) = 0.36947 0.20984
#
# Static dielectric constant tensor:
#      x y z
#    x 3.664800 0.000000 -0.147000 
#    y 0.000000 4.001980 0.000000 
#    z -0.147000 0.000000 3.588600 
# 
# 
# High freq. dielectric constant tensor:
#      x y z
#    x 1.789900 0.000000 -0.017730 
#    y 0.000000 1.842460 0.000000 
#    z -0.017730 0.000000 1.791890 
# 
# From -- ./inp_files/16124.got.cif
#   From: 2010.03.12/outbox.cif.g09.slc.cpg/sg4_9_cif.got.tgz:16124.got - 2010.03.31 09:31:35.
