data_PCOD8046624
_publ_section_title
;
Structure prediction by ZEFSAII (Michael W. Deem and Ramdas Pophale) SiO2 
 PCOD8046624
Probable space group: P 21
;
_chemical_formula_sum "Si O2"
_cell_formula_units_Z 16
_cell_length_a 7.113723
_cell_length_b 5.427841
_cell_length_c 25.909029
_cell_angle_alpha 90.000000
_cell_angle_beta 133.402996
_cell_angle_gamma 90.000000
_cell_volume 726.831904
_symmetry_space_group_name_H-M "P 21"
_symmetry_group_IT_number 4
_symmetry_cell_setting 'monoclinic'
loop_
_space_group_symop_operation_xyz
x,y,z
-x,1/2+y,-z
loop_
_atom_site_type_symbol
_atom_site_label
_atom_site_fract_x
_atom_site_fract_y
_atom_site_fract_z
Si Si1 0.878310 0.181480 0.914347
Si Si2 0.550845 0.913906 0.581662
Si Si3 0.845217 0.199326 0.788048
Si Si4 0.857532 0.246092 0.573841
Si Si5 0.325005 0.182295 0.076866
Si Si6 0.088324 0.648250 0.678608
Si Si7 0.103639 0.696177 0.800489
Si Si8 0.645331 0.490625 0.342924
O O1 0.916213 0.173162 0.860826
O O2 0.728265 0.431737 0.901171
O O3 0.728974 0.932301 0.901581
O O4 0.161302 0.181483 0.993458
O O5 0.285891 0.854911 0.502351
O O6 0.793591 0.742077 0.614322
O O7 0.497397 0.903177 0.632058
O O8 0.640283 0.175476 0.575326
O O9 0.932462 0.467842 0.786329
O O10 0.538862 0.196400 0.717998
O O11 0.972181 0.963785 0.782633
O O12 0.073638 0.389713 0.647382
O O13 0.055965 0.050382 0.586307
O O14 0.625596 0.188181 0.117714
O O15 0.166485 0.646949 0.752604
O O16 0.325813 0.782821 0.695157
#
# Coordination Sequence:
#
# PCOD8046624 Si02
#       8
#     2   2   2   2   2   2   2   2
#     4  10  22  42  69 100 137 176 228 277 335 400
#     4  11  23  46  61  96 131 164 231 276 348 403
#     4  12  26  44  67 100 138 179 226 286 327 409
#     4  11  25  40  68  91 128 176 215 291 339 409
#     4  10  22  42  69 100 136 180 223 279 335 403
#     4  11  25  44  67  91 131 177 219 284 342 402
#     4  12  26  43  69  97 139 180 225 282 339 396
#     4  11  27  41  66  97 128 176 229 277 343 408
#
# _framework density 22.013342999999999
#
# number of rings (size 3 to 8) (size 9 to 14) (size 15 to 20)
#    0.000    1.000    2.500    3.000    7.000    2.000 
#    0.000    0.000    0.000    0.000    0.000    0.000 
#    0.000    0.000    0.000    0.000    0.000    0.000 
#
# Total GULP energy -198241.202280 kJ/mol
# GULP energy per Si atom -12390.075143 kJ/mol
# Density = 2.196324 g / cm^3
# Si number density = 22.013343 Si / 1000 Ang^3
#
#
#
# Elastic Constant Matrix: (Units=GPa)
#
#
# Indices 1 2 3 4 5 6 
#
# 1 107.8190 21.8056 46.1592 0.0000 0.1547 0.0000
# 2 21.8056 96.5707 15.5035 0.0000 4.8048 0.0000
# 3 46.1592 15.5035 103.7761 0.0000 -1.9291 0.0000
# 4 0.0000 0.0000 0.0000 27.7624 0.0000 3.8676
# 5 0.1547 4.8048 -1.9291 0.0000 49.6535 0.0000
# 6 0.0000 0.0000 0.0000 3.8676 0.0000 31.2847
#
#
#
# Elastic Compliance Matrix: (Units=1/GPa)
#
#
# Indices 1 2 3 4 5 6 
#
# 1 0.011775 -0.001860 -0.004960 0.000000 -0.000049 0.000000
# 2 -0.001860 0.010963 -0.000831 0.000000 -0.001087 0.000000
# 3 -0.004960 -0.000831 0.011977 0.000000 0.000561 0.000000
# 4 0.000000 0.000000 0.000000 0.036651 0.000000 -0.004531
# 5 -0.000049 -0.001087 0.000561 0.000000 0.020267 0.000000
# 6 0.000000 0.000000 0.000000 -0.004531 0.000000 0.032525
#
#
# Mechanical properties :
#
#
# Convention : Reuss Voigt Hill
#
# Bulk Modulus (GPa) = 51.51378 52.78917 52.15148
# Shear Modulus (GPa) = 34.26314 36.71996 35.49155
#
# Velocity S-wave (km/s) = 3.94949 4.08864 4.01967
# Velocity P-wave (km/s) = 6.65206 6.80602 6.72948
#
# Compressibility (1/GPa) = 0.01941228
#
# Stress axis : x y z
#
# Youngs Moduli (GPa) = 84.92819 91.21989 83.49325
#
# Poissons Ratio (x) = 0.16966 0.41416
# Poissons Ratio (y) = 0.15796 0.06935
# Poissons Ratio (z) = 0.42128 0.07577
#
# Static dielectric constant tensor:
#      x y z
#    x 3.866740 0.000000 0.097940 
#    y 0.000000 4.167430 0.000000 
#    z 0.097940 0.000000 4.037030 
# 
# 
# High freq. dielectric constant tensor:
#      x y z
#    x 1.867760 0.000000 0.011510 
#    y 0.000000 1.870020 0.000000 
#    z 0.011510 0.000000 1.882400 
# 
# From -- ./inp_files/4010.got.cif
#   From: 2010.03.12/outbox.cif.g09.slc.cpg/sg4_3_cif.got.tgz:4010.got - 2010.03.31 09:31:35.
