data_PCOD8046354
_publ_section_title
;
Structure prediction by ZEFSAII (Michael W. Deem and Ramdas Pophale) SiO2 
 PCOD8046354
Probable space group: P 21
;
_chemical_formula_sum "Si O2"
_cell_formula_units_Z 16
_cell_length_a 12.001402
_cell_length_b 10.417725
_cell_length_c 6.745357
_cell_angle_alpha 90.000000
_cell_angle_beta 116.749912
_cell_angle_gamma 90.000000
_cell_volume 753.097778
_symmetry_space_group_name_H-M "P 21"
_symmetry_group_IT_number 4
_symmetry_cell_setting 'monoclinic'
loop_
_space_group_symop_operation_xyz
x,y,z
-x,1/2+y,-z
loop_
_atom_site_type_symbol
_atom_site_label
_atom_site_fract_x
_atom_site_fract_y
_atom_site_fract_z
Si Si1 0.681714 0.326340 0.093023
Si Si2 0.062831 0.459930 0.988455
Si Si3 0.888312 0.807280 0.363512
Si Si4 0.727947 0.936338 0.551514
Si Si5 0.471104 0.238290 0.652774
Si Si6 0.330529 0.113560 0.876141
Si Si7 0.940468 0.241516 0.158175
Si Si8 0.563525 0.162724 0.321997
O O1 0.726211 0.471843 0.156459
O O2 0.791914 0.244766 0.078432
O O3 0.640757 0.274146 0.275033
O O4 0.558674 0.326048 0.859214
O O5 0.202550 0.474518 0.189594
O O6 0.978463 0.370115 0.065100
O O7 0.058362 0.389064 0.774781
O O8 0.018534 0.609258 0.924100
O O9 0.830375 0.904792 0.471582
O O10 0.786399 0.707736 0.201112
O O11 0.997904 0.736095 0.573051
O O12 0.639304 0.818261 0.536986
O O13 0.646244 0.037702 0.367597
O O14 0.407915 0.126248 0.733136
O O15 0.557555 0.182854 0.551700
O O16 0.424130 0.144212 0.129960
#
# Coordination Sequence:
#
# PCOD8046354 Si02
#       8
#     2   2   2   2   2   2   2   2
#     4  11  24  41  64 100 132 168 223 274 324 400
#     4  11  25  46  70  95 134 174 226 284 328 403
#     4  10  24  44  68  90 131 177 220 274 336 385
#     4  10  21  42  63  95 127 168 216 260 340 397
#     4  10  22  40  62  99 127 169 212 263 337 399
#     4  10  23  41  64  95 131 169 216 274 328 401
#     4  11  27  45  68 102 131 180 231 275 336 391
#     4  11  22  39  67  92 133 167 208 272 331 398
#
# _framework density 21.245583
#
# number of rings (size 3 to 8) (size 9 to 14) (size 15 to 20)
#    0.000    1.500    1.250    2.250    5.250    4.000 
#    0.000    0.000    0.000    0.000    0.000    0.000 
#    0.000    0.000    0.000    0.000    0.000    0.000 
#
# Total GULP energy -198345.297451 kJ/mol
# GULP energy per Si atom -12396.581091 kJ/mol
# Density = 2.119723 g / cm^3
# Si number density = 21.245583 Si / 1000 Ang^3
#
#
#
# Elastic Constant Matrix: (Units=GPa)
#
#
# Indices 1 2 3 4 5 6 
#
# 1 77.4421 25.4077 21.3430 0.0000 0.5355 0.0000
# 2 25.4077 109.0015 39.6515 0.0000 -8.9394 0.0000
# 3 21.3430 39.6515 101.1632 0.0000 12.6776 0.0000
# 4 0.0000 0.0000 0.0000 29.8757 0.0000 2.0162
# 5 0.5355 -8.9394 12.6776 0.0000 27.7230 0.0000
# 6 0.0000 0.0000 0.0000 2.0162 0.0000 20.0879
#
#
#
# Elastic Compliance Matrix: (Units=1/GPa)
#
#
# Indices 1 2 3 4 5 6 
#
# 1 0.014322 -0.002647 -0.001955 0.000000 -0.000236 0.000000
# 2 -0.002647 0.012109 -0.004968 0.000000 0.006228 0.000000
# 3 -0.001955 -0.004968 0.013197 0.000000 -0.007599 0.000000
# 4 0.000000 0.000000 0.000000 0.033700 0.000000 -0.003383
# 5 -0.000236 0.006228 -0.007599 0.000000 0.041559 0.000000
# 6 0.000000 0.000000 0.000000 -0.003383 0.000000 0.050121
#
#
# Mechanical properties :
#
#
# Convention : Reuss Voigt Hill
#
# Bulk Modulus (GPa) = 48.80727 51.15679 49.98203
# Shear Modulus (GPa) = 26.18126 28.95097 27.56612
#
# Velocity S-wave (km/s) = 3.51424 3.69546 3.60599
# Velocity P-wave (km/s) = 6.28405 6.50689 6.39644
#
# Compressibility (1/GPa) = 0.02048875
#
# Stress axis : x y z
#
# Youngs Moduli (GPa) = 69.82506 82.58196 75.77437
#
# Poissons Ratio (x) = 0.21857 0.14810
# Poissons Ratio (y) = 0.18480 0.37647
# Poissons Ratio (z) = 0.13647 0.41029
#
# Static dielectric constant tensor:
#      x y z
#    x 3.773980 0.000000 0.192030 
#    y 0.000000 3.779830 0.000000 
#    z 0.192030 0.000000 4.114420 
# 
# 
# High freq. dielectric constant tensor:
#      x y z
#    x 1.830180 0.000000 0.005100 
#    y 0.000000 1.831880 0.000000 
#    z 0.005100 0.000000 1.843880 
# 
# From -- ./inp_files/2663.got.cif
#   From: 2010.03.12/outbox.cif.g09.slc.cpg/sg4_2_cif.got.tgz:2663.got - 2010.03.31 09:31:35.
