data_PCOD8046360
_publ_section_title
;
Structure prediction by ZEFSAII (Michael W. Deem and Ramdas Pophale) SiO2 
 PCOD8046360
Probable space group: P 21
;
_chemical_formula_sum "Si O2"
_cell_formula_units_Z 14
_cell_length_a 11.448799
_cell_length_b 8.662440
_cell_length_c 11.561033
_cell_angle_alpha 90.000000
_cell_angle_beta 143.812398
_cell_angle_gamma 90.000000
_cell_volume 676.964650
_symmetry_space_group_name_H-M "P 21"
_symmetry_group_IT_number 4
_symmetry_cell_setting 'monoclinic'
loop_
_space_group_symop_operation_xyz
x,y,z
-x,1/2+y,-z
loop_
_atom_site_type_symbol
_atom_site_label
_atom_site_fract_x
_atom_site_fract_y
_atom_site_fract_z
Si Si1 0.880637 0.920540 0.290192
Si Si2 0.881091 0.565541 0.330062
Si Si3 0.097784 0.103111 0.268715
Si Si4 0.535716 0.061926 0.888406
Si Si5 0.469444 0.585896 0.374641
Si Si6 0.772395 0.349623 0.036085
Si Si7 0.313190 0.901857 0.277788
O O1 0.924883 0.740172 0.331213
O O2 0.926686 0.997126 0.451601
O O3 0.026704 0.998532 0.316739
O O4 0.654401 0.950987 0.071325
O O5 0.693499 0.549778 0.264660
O O6 0.851049 0.471855 0.189160
O O7 0.316015 0.169219 0.473182
O O8 0.952128 0.245281 0.129078
O O9 0.118139 0.985378 0.174774
O O10 0.584497 0.011685 0.793984
O O11 0.609010 0.238706 0.964436
O O12 0.309893 0.714875 0.285364
O O13 0.491383 0.459831 0.494653
O O14 0.676709 0.441324 0.850939
#
# Coordination Sequence:
#
# PCOD8046360 Si02
#       7
#     2   2   2   2   2   2   2
#     4  11  23  39  64  91 122 164 204 254 310 361
#     4  12  23  40  62  94 126 160 208 252 305 372
#     4   9  20  42  57  86 127 155 202 255 299 355
#     4  10  21  42  65  84 126 164 200 262 301 357
#     4   9  19  40  62  85 122 155 204 249 309 354
#     4  10  22  40  62  90 122 163 207 248 310 363
#     4   9  20  39  60  88 117 165 199 254 306 362
#
# _framework density 20.680551000000001
#
# number of rings (size 3 to 8) (size 9 to 14) (size 15 to 20)
#    0.857    1.143    1.429    2.571    0.000    2.286 
#   10.286    0.000    0.000    0.000    0.000    0.000 
#    0.000    0.000    0.000    0.000    0.000    0.000 
#
# Total GULP energy -173468.654138 kJ/mol
# GULP energy per Si atom -12390.618153 kJ/mol
# Density = 2.063348 g / cm^3
# Si number density = 20.680551 Si / 1000 Ang^3
#
#
#
# Elastic Constant Matrix: (Units=GPa)
#
#
# Indices 1 2 3 4 5 6 
#
# 1 43.9522 27.5454 18.4712 0.0000 -16.6941 0.0000
# 2 27.5454 99.2554 45.5893 0.0000 -27.3559 0.0000
# 3 18.4712 45.5893 126.0904 0.0000 -36.1151 0.0000
# 4 0.0000 0.0000 0.0000 38.4901 0.0000 -6.9155
# 5 -16.6941 -27.3559 -36.1151 0.0000 45.1990 0.0000
# 6 0.0000 0.0000 0.0000 -6.9155 0.0000 34.0758
#
#
#
# Elastic Compliance Matrix: (Units=1/GPa)
#
#
# Indices 1 2 3 4 5 6 
#
# 1 0.029319 -0.006172 -0.000041 0.000000 0.007061 0.000000
# 2 -0.006172 0.014302 -0.003165 0.000000 0.003848 0.000000
# 3 -0.000041 -0.003165 0.011059 0.000000 0.006906 0.000000
# 4 0.000000 0.000000 0.000000 0.026964 0.000000 0.005472
# 5 0.007061 0.003848 0.006906 0.000000 0.032579 0.000000
# 6 0.000000 0.000000 0.000000 0.005472 0.000000 0.030457
#
#
# Mechanical properties :
#
#
# Convention : Reuss Voigt Hill
#
# Bulk Modulus (GPa) = 27.83618 50.27888 39.05753
# Shear Modulus (GPa) = 28.50466 35.39914 31.95190
#
# Velocity S-wave (km/s) = 3.71662 4.14177 3.93494
# Velocity P-wave (km/s) = 5.64862 6.87294 6.29064
#
# Compressibility (1/GPa) = 0.03592447
#
# Stress axis : x y z
#
# Youngs Moduli (GPa) = 34.10758 69.92070 90.42322
#
# Poissons Ratio (x) = 0.43153 0.00373
# Poissons Ratio (y) = 0.21050 0.28617
# Poissons Ratio (z) = 0.00141 0.22129
#
# Static dielectric constant tensor:
#      x y z
#    x 3.501470 0.000000 -0.119610 
#    y 0.000000 3.562170 0.000000 
#    z -0.119610 0.000000 3.963340 
# 
# 
# High freq. dielectric constant tensor:
#      x y z
#    x 1.789470 0.000000 -0.013860 
#    y 0.000000 1.790970 0.000000 
#    z -0.013860 0.000000 1.826360 
# 
# From -- ./inp_files/12032.got.cif
#   From: 2010.03.12/outbox.cif.g09.slc.cpg/sg4_7_cif.got.tgz:12032.got - 2010.03.31 09:31:35.
