data_PCOD8046007
_publ_section_title
;
Structure prediction by ZEFSAII (Michael W. Deem and Ramdas Pophale) SiO2 
 PCOD8046007
Probable space group: P 21
;
_chemical_formula_sum "Si O2"
_cell_formula_units_Z 10
_cell_length_a 7.723118
_cell_length_b 12.682530
_cell_length_c 6.384064
_cell_angle_alpha 90.000000
_cell_angle_beta 54.994966
_cell_angle_gamma 90.000000
_cell_volume 512.192954
_symmetry_space_group_name_H-M "P 21"
_symmetry_group_IT_number 4
_symmetry_cell_setting 'monoclinic'
loop_
_space_group_symop_operation_xyz
x,y,z
-x,1/2+y,-z
loop_
_atom_site_type_symbol
_atom_site_label
_atom_site_fract_x
_atom_site_fract_y
_atom_site_fract_z
Si Si1 0.754018 0.410490 0.700258
Si Si2 0.872297 0.175010 0.606010
Si Si3 0.011213 0.035420 0.132429
Si Si4 0.235242 0.095568 0.590997
Si Si5 0.632698 0.038293 0.101607
O O1 0.776092 0.289175 0.627345
O O2 0.849902 0.483547 0.448267
O O3 0.503735 0.440114 0.895714
O O4 0.882540 0.436682 0.823857
O O5 0.913739 0.121347 0.355006
O O6 0.092354 0.186383 0.582170
O O7 0.705073 0.108951 0.857603
O O8 0.826876 0.995088 0.104976
O O9 0.195781 0.092411 0.867372
O O10 0.481173 0.110339 0.358809
#
# Coordination Sequence:
#
# PCOD8046007 Si02
#       5
#     2   2   2   2   2
#     4   9  21  40  58  85 120 148 194 237 283 340
#     4  10  20  40  60  85 117 153 192 237 284 341
#     4  10  20  39  63  77 121 153 184 247 286 328
#     4   8  20  39  56  87 116 146 194 234 281 342
#     4   9  21  40  57  88 116 150 196 229 288 347
#
# _framework density 19.523893000000001
#
# number of rings (size 3 to 8) (size 9 to 14) (size 15 to 20)
#    1.200    1.600    0.000    0.000    2.800    3.200 
#   14.400    0.000    0.000    0.000    0.000    0.000 
#    0.000    0.000    0.000    0.000    0.000    0.000 
#
# Total GULP energy -123895.612089 kJ/mol
# GULP energy per Si atom -12389.561209 kJ/mol
# Density = 1.947946 g / cm^3
# Si number density = 19.523893 Si / 1000 Ang^3
#
#
#
# Elastic Constant Matrix: (Units=GPa)
#
#
# Indices 1 2 3 4 5 6 
#
# 1 84.2123 14.2782 25.2660 0.0000 3.4815 0.0000
# 2 14.2782 54.5829 12.3034 0.0000 15.9813 0.0000
# 3 25.2660 12.3034 141.4737 0.0000 2.1889 0.0000
# 4 0.0000 0.0000 0.0000 19.0850 0.0000 -4.9280
# 5 3.4815 15.9813 2.1889 0.0000 27.2270 0.0000
# 6 0.0000 0.0000 0.0000 -4.9280 0.0000 23.0298
#
#
#
# Elastic Compliance Matrix: (Units=1/GPa)
#
#
# Indices 1 2 3 4 5 6 
#
# 1 0.012993 -0.003014 -0.002063 0.000000 0.000273 0.000000
# 2 -0.003014 0.023251 -0.001280 0.000000 -0.013159 0.000000
# 3 -0.002063 -0.001280 0.007542 0.000000 0.000409 0.000000
# 4 0.000000 0.000000 0.000000 0.055462 0.000000 0.011868
# 5 0.000273 -0.013159 0.000409 0.000000 0.044384 0.000000
# 6 0.000000 0.000000 0.000000 0.011868 0.000000 0.045962
#
#
# Mechanical properties :
#
#
# Convention : Reuss Voigt Hill
#
# Bulk Modulus (GPa) = 32.18318 42.66266 37.42292
# Shear Modulus (GPa) = 23.51127 29.09644 26.30386
#
# Velocity S-wave (km/s) = 3.47397 3.86463 3.67449
# Velocity P-wave (km/s) = 5.71061 6.46628 6.10016
#
# Compressibility (1/GPa) = 0.03107213
#
# Stress axis : x y z
#
# Youngs Moduli (GPa) = 76.96268 43.00983 132.59408
#
# Poissons Ratio (x) = 0.12963 0.27349
# Poissons Ratio (y) = 0.23197 0.16974
# Poissons Ratio (z) = 0.15874 0.05506
#
# Static dielectric constant tensor:
#      x y z
#    x 3.550190 0.000000 -0.071140 
#    y 0.000000 3.016200 0.000000 
#    z -0.071140 0.000000 3.660420 
# 
# 
# High freq. dielectric constant tensor:
#      x y z
#    x 1.764000 0.000000 -0.003030 
#    y 0.000000 1.713290 0.000000 
#    z -0.003030 0.000000 1.772960 
# 
# From -- ./inp_files/199.got.cif
#   From: 2010.03.12/outbox.cif.g09.slc.cpg/sg4_1_cif.got.tgz:199.got - 2010.03.31 09:31:35.
