data_PCOD8046410
_publ_section_title
;
Structure prediction by ZEFSAII (Michael W. Deem and Ramdas Pophale) SiO2 
 PCOD8046410
Probable space group: P 21
;
_chemical_formula_sum "Si O2"
_cell_formula_units_Z 16
_cell_length_a 17.441683
_cell_length_b 5.030248
_cell_length_c 9.022795
_cell_angle_alpha 90.000000
_cell_angle_beta 127.760362
_cell_angle_gamma 90.000000
_cell_volume 625.841074
_symmetry_space_group_name_H-M "P 21"
_symmetry_group_IT_number 4
_symmetry_cell_setting 'monoclinic'
loop_
_space_group_symop_operation_xyz
x,y,z
-x,1/2+y,-z
loop_
_atom_site_type_symbol
_atom_site_label
_atom_site_fract_x
_atom_site_fract_y
_atom_site_fract_z
Si Si1 0.530348 0.506060 0.454286
Si Si2 0.341123 0.555991 0.774180
Si Si3 0.873092 0.394307 0.351458
Si Si4 0.057491 0.400881 0.402863
Si Si5 0.194951 0.604642 0.347678
Si Si6 0.693686 0.647431 0.014758
Si Si7 0.258199 0.088998 0.259194
Si Si8 0.522014 0.313906 0.862452
O O1 0.468208 0.300805 0.473115
O O2 0.643186 0.431473 0.578254
O O3 0.476886 0.541728 0.232529
O O4 0.254581 0.673040 0.570885
O O5 0.408573 0.368300 0.751941
O O6 0.302949 0.408830 0.878355
O O7 0.418703 0.782689 0.914017
O O8 0.905193 0.601353 0.519196
O O9 0.759026 0.425390 0.178540
O O10 0.941769 0.438330 0.287241
O O11 0.888743 0.091620 0.416170
O O12 0.089010 0.496541 0.275064
O O13 0.181376 0.863881 0.225738
O O14 0.248766 0.365004 0.331524
O O15 0.747219 0.673405 0.919634
O O16 0.583712 0.544696 0.851444
#
# Coordination Sequence:
#
# PCOD8046410 Si02
#       8
#     2   2   2   2   2   2   2   2
#     4  12  25  45  64  90 134 186 228 277 332 408
#     4  12  26  40  68  96 132 174 231 290 337 391
#     4  10  22  41  74 106 131 174 218 283 343 400
#     4  10  21  43  72 105 136 167 224 278 344 406
#     4  12  26  46  68 101 136 182 225 285 338 410
#     4  12  26  46  64 100 135 178 227 287 335 412
#     4  12  28  43  68  96 140 185 230 270 346 412
#     4  12  26  38  66  94 130 172 231 284 335 387
#
# _framework density 25.565594999999998
#
# number of rings (size 3 to 8) (size 9 to 14) (size 15 to 20)
#    0.000    0.500    5.000    3.000    5.250    0.000 
#    0.000    1.250    0.000    0.000    0.000    0.000 
#    0.000    0.000    0.000    0.000    0.000    0.000 
#
# Total GULP energy -198306.449554 kJ/mol
# GULP energy per Si atom -12394.153097 kJ/mol
# Density = 2.550741 g / cm^3
# Si number density = 25.565595 Si / 1000 Ang^3
#
#
#
# Elastic Constant Matrix: (Units=GPa)
#
#
# Indices 1 2 3 4 5 6 
#
# 1 109.0253 -1.3590 16.6468 0.0000 -16.4175 0.0000
# 2 -1.3590 71.3713 0.7532 0.0000 -10.7265 0.0000
# 3 16.6468 0.7532 37.6408 0.0000 -9.8475 0.0000
# 4 0.0000 0.0000 0.0000 32.7070 0.0000 -5.0245
# 5 -16.4175 -10.7265 -9.8475 0.0000 42.6924 0.0000
# 6 0.0000 0.0000 0.0000 -5.0245 0.0000 32.0433
#
#
#
# Elastic Compliance Matrix: (Units=1/GPa)
#
#
# Indices 1 2 3 4 5 6 
#
# 1 0.010236 0.000725 -0.003687 0.000000 0.003268 0.000000
# 2 0.000725 0.014630 0.000448 0.000000 0.004058 0.000000
# 3 -0.003687 0.000448 0.029635 0.000000 0.005531 0.000000
# 4 0.000000 0.000000 0.000000 0.031329 0.000000 0.004912
# 5 0.003268 0.004058 0.005531 0.000000 0.026975 0.000000
# 6 0.000000 0.000000 0.000000 0.004912 0.000000 0.031978
#
#
# Mechanical properties :
#
#
# Convention : Reuss Voigt Hill
#
# Bulk Modulus (GPa) = 20.21215 27.79106 24.00161
# Shear Modulus (GPa) = 30.06566 34.95495 32.51030
#
# Velocity S-wave (km/s) = 3.43304 3.70167 3.56988
# Velocity P-wave (km/s) = 4.86184 5.40036 5.13816
#
# Compressibility (1/GPa) = 0.04947518
#
# Stress axis : x y z
#
# Youngs Moduli (GPa) = 97.69206 68.35175 33.74361
#
# Poissons Ratio (x) = -0.04956 0.12440
# Poissons Ratio (y) = -0.07083 -0.01513
# Poissons Ratio (z) = 0.36014 -0.03064
#
# Static dielectric constant tensor:
#      x y z
#    x 5.200470 0.000000 -0.042560 
#    y 0.000000 4.380560 0.000000 
#    z -0.042560 0.000000 4.290610 
# 
# 
# High freq. dielectric constant tensor:
#      x y z
#    x 2.043600 0.000000 -0.010020 
#    y 0.000000 2.024760 0.000000 
#    z -0.010020 0.000000 1.982270 
# 
# From -- ./inp_files/8696.got.cif
#   From: 2010.03.12/outbox.cif.g09.slc.cpg/sg4_5_cif.got.tgz:8696.got - 2010.03.31 09:31:35.
