data_PCOD8046722
_publ_section_title
;
Structure prediction by ZEFSAII (Michael W. Deem and Ramdas Pophale) SiO2 
 PCOD8046722
Probable space group: P 21
;
_chemical_formula_sum "Si O2"
_cell_formula_units_Z 16
_cell_length_a 9.928347
_cell_length_b 11.917043
_cell_length_c 7.080053
_cell_angle_alpha 90.000000
_cell_angle_beta 53.105312
_cell_angle_gamma 90.000000
_cell_volume 669.932359
_symmetry_space_group_name_H-M "P 21"
_symmetry_group_IT_number 4
_symmetry_cell_setting 'monoclinic'
loop_
_space_group_symop_operation_xyz
x,y,z
-x,1/2+y,-z
loop_
_atom_site_type_symbol
_atom_site_label
_atom_site_fract_x
_atom_site_fract_y
_atom_site_fract_z
Si Si1 0.118015 0.150800 0.331441
Si Si2 0.557459 0.864282 0.416609
Si Si3 0.633570 0.046032 0.621727
Si Si4 0.720862 0.639566 0.173935
Si Si5 0.766958 0.222529 0.229223
Si Si6 0.184245 0.567678 0.163501
Si Si7 0.302287 0.012459 0.437748
Si Si8 0.997715 0.360432 0.264098
O O1 0.294751 0.106522 0.277148
O O2 0.969481 0.090372 0.565558
O O3 0.084377 0.284793 0.356246
O O4 0.128398 0.118170 0.100517
O O5 0.682619 0.773974 0.216411
O O6 0.395131 0.802759 0.641614
O O7 0.658415 0.924725 0.501141
O O8 0.489521 0.961244 0.323411
O O9 0.440939 0.075972 0.762611
O O10 0.751326 0.136009 0.416096
O O11 0.662905 0.043806 0.822161
O O12 0.776127 0.583857 0.322285
O O13 0.939001 0.291744 0.125742
O O14 0.776367 0.166018 0.015781
O O15 0.133679 0.455338 0.090097
O O16 0.175356 0.910123 0.500468
#
# Coordination Sequence:
#
# PCOD8046722 Si02
#       8
#     2   2   2   2   2   2   2   2
#     4  11  24  43  65 100 133 171 227 277 332 405
#     4   9  21  44  73  94 135 183 223 280 347 389
#     4  10  22  45  68 100 131 176 234 275 333 410
#     4  10  23  43  69  96 137 176 220 281 331 406
#     4  10  22  47  68  97 140 179 226 285 335 402
#     4  11  25  44  71 100 138 177 228 281 335 414
#     4   9  22  45  64  95 135 177 224 276 331 401
#     4  10  23  43  64  98 133 177 222 271 342 391
#
# _framework density 23.883006999999999
#
# number of rings (size 3 to 8) (size 9 to 14) (size 15 to 20)
#    0.000    2.000    1.250    0.000    7.000    3.000 
#   15.750    0.000    0.000    0.000    0.000    0.000 
#    0.000    0.000    0.000    0.000    0.000    0.000 
#
# Total GULP energy -198266.401791 kJ/mol
# GULP energy per Si atom -12391.650112 kJ/mol
# Density = 2.382865 g / cm^3
# Si number density = 23.883007 Si / 1000 Ang^3
#
#
#
# Elastic Constant Matrix: (Units=GPa)
#
#
# Indices 1 2 3 4 5 6 
#
# 1 70.5525 45.0959 11.6604 0.0000 30.9134 0.0000
# 2 45.0959 120.1827 27.5201 0.0000 24.6699 0.0000
# 3 11.6604 27.5201 74.6402 0.0000 25.4739 0.0000
# 4 0.0000 0.0000 0.0000 32.7641 0.0000 13.0039
# 5 30.9134 24.6699 25.4739 0.0000 30.9545 0.0000
# 6 0.0000 0.0000 0.0000 13.0039 0.0000 47.6288
#
#
#
# Elastic Compliance Matrix: (Units=1/GPa)
#
#
# Indices 1 2 3 4 5 6 
#
# 1 0.032111 -0.007197 0.009211 0.000000 -0.033913 0.000000
# 2 -0.007197 0.011658 -0.003415 0.000000 0.000707 0.000000
# 3 0.009211 -0.003415 0.021454 0.000000 -0.024133 0.000000
# 4 0.000000 0.000000 0.000000 0.034231 0.000000 -0.009346
# 5 -0.033913 0.000707 -0.024133 0.000000 0.085470 0.000000
# 6 0.000000 0.000000 0.000000 -0.009346 0.000000 0.023547
#
#
# Mechanical properties :
#
#
# Convention : Reuss Voigt Hill
#
# Bulk Modulus (GPa) = 16.02021 48.21424 32.11722
# Shear Modulus (GPa) = 21.54435 34.34276 27.94355
#
# Velocity S-wave (km/s) = 3.00672 3.79616 3.42426
# Velocity P-wave (km/s) = 4.33315 6.28060 5.39546
#
# Compressibility (1/GPa) = 0.06242117
#
# Stress axis : x y z
#
# Youngs Moduli (GPa) = 31.14217 85.77728 46.61127
#
# Poissons Ratio (x) = 0.61732 -0.42934
# Poissons Ratio (y) = 0.22412 0.15919
# Poissons Ratio (z) = -0.28686 0.29295
#
# Static dielectric constant tensor:
#      x y z
#    x 4.511590 0.000000 0.202640 
#    y 0.000000 4.757430 0.000000 
#    z 0.202640 0.000000 4.012120 
# 
# 
# High freq. dielectric constant tensor:
#      x y z
#    x 1.955490 0.000000 -0.001650 
#    y 0.000000 1.956640 0.000000 
#    z -0.001650 0.000000 1.921780 
# 
# From -- ./inp_files/3047.got.cif
#   From: 2010.03.12/outbox.cif.g09.slc.cpg/sg4_2_cif.got.tgz:3047.got - 2010.03.31 09:31:35.
