data_PCOD8046084
_publ_section_title
;
Structure prediction by ZEFSAII (Michael W. Deem and Ramdas Pophale) SiO2 
 PCOD8046084
Probable space group: P 21
;
_chemical_formula_sum "Si O2"
_cell_formula_units_Z 16
_cell_length_a 11.641979
_cell_length_b 9.553483
_cell_length_c 6.410253
_cell_angle_alpha 90.000000
_cell_angle_beta 83.442571
_cell_angle_gamma 90.000000
_cell_volume 708.293377
_symmetry_space_group_name_H-M "P 21"
_symmetry_group_IT_number 4
_symmetry_cell_setting 'monoclinic'
loop_
_space_group_symop_operation_xyz
x,y,z
-x,1/2+y,-z
loop_
_atom_site_type_symbol
_atom_site_label
_atom_site_fract_x
_atom_site_fract_y
_atom_site_fract_z
Si Si1 0.556383 0.829730 0.526612
Si Si2 0.751037 0.707434 0.245909
Si Si3 0.762438 0.489672 0.571310
Si Si4 0.991412 0.590277 0.731005
Si Si5 0.428957 0.613313 0.291027
Si Si6 0.002299 0.293116 0.909817
Si Si7 0.174747 0.683978 0.374864
Si Si8 0.396765 0.139572 0.102741
O O1 0.681348 0.822880 0.391484
O O2 0.460809 0.759615 0.395959
O O3 0.560036 0.760241 0.752928
O O4 0.525666 0.992142 0.562868
O O5 0.727242 0.556070 0.356543
O O6 0.884200 0.744852 0.234521
O O7 0.705497 0.701900 0.019705
O O8 0.790673 0.329028 0.520840
O O9 0.657206 0.508408 0.758771
O O10 0.873156 0.576694 0.629575
O O11 0.098701 0.589872 0.547560
O O12 0.998008 0.462185 0.896870
O O13 0.994069 0.738527 0.853174
O O14 0.291030 0.601406 0.286116
O O15 0.492683 0.593335 0.056446
O O16 0.892878 0.221678 0.821862
#
# Coordination Sequence:
#
# PCOD8046084 Si02
#       8
#     2   2   2   2   2   2   2   2
#     4  10  25  43  68  98 129 180 221 282 332 398
#     4  10  20  42  68  94 133 173 223 271 337 400
#     4  10  22  41  69  98 133 177 225 274 341 398
#     4  11  24  41  64 101 135 179 224 274 335 399
#     4  11  26  45  69  97 137 175 227 279 341 396
#     4  11  24  41  67 100 135 180 223 275 336 402
#     4  11  26  41  67 100 142 175 220 286 335 401
#     4  10  23  40  70  96 126 175 225 277 331 402
#
# _framework density 22.589510000000001
#
# number of rings (size 3 to 8) (size 9 to 14) (size 15 to 20)
#    0.000    1.500    2.500    0.750    8.750    3.000 
#    0.000    0.000    0.000    0.000    0.000    0.000 
#    0.000    0.000    0.000    0.000    0.000    0.000 
#
# Total GULP energy -198417.015809 kJ/mol
# GULP energy per Si atom -12401.063488 kJ/mol
# Density = 2.253810 g / cm^3
# Si number density = 22.589510 Si / 1000 Ang^3
#
#
#
# Elastic Constant Matrix: (Units=GPa)
#
#
# Indices 1 2 3 4 5 6 
#
# 1 123.9813 14.4004 32.5390 0.0000 -24.0197 0.0000
# 2 14.4004 63.3286 10.9038 0.0000 -3.3134 0.0000
# 3 32.5390 10.9038 78.3162 0.0000 -14.6570 0.0000
# 4 0.0000 0.0000 0.0000 28.4152 0.0000 4.1629
# 5 -24.0197 -3.3134 -14.6570 0.0000 33.0933 0.0000
# 6 0.0000 0.0000 0.0000 4.1629 0.0000 29.1814
#
#
#
# Elastic Compliance Matrix: (Units=1/GPa)
#
#
# Indices 1 2 3 4 5 6 
#
# 1 0.010150 -0.001499 -0.002898 0.000000 0.005933 0.000000
# 2 -0.001499 0.016414 -0.001699 0.000000 -0.000197 0.000000
# 3 -0.002898 -0.001699 0.015030 0.000000 0.004383 0.000000
# 4 0.000000 0.000000 0.000000 0.035944 0.000000 -0.005128
# 5 0.005933 -0.000197 0.004383 0.000000 0.036446 0.000000
# 6 0.000000 0.000000 0.000000 -0.005128 0.000000 0.035000
#
#
# Mechanical properties :
#
#
# Convention : Reuss Voigt Hill
#
# Bulk Modulus (GPa) = 34.01223 42.36806 38.19015
# Shear Modulus (GPa) = 29.24405 31.99020 30.61712
#
# Velocity S-wave (km/s) = 3.60194 3.76726 3.68553
# Velocity P-wave (km/s) = 5.69104 6.14161 5.92061
#
# Compressibility (1/GPa) = 0.02940119
#
# Stress axis : x y z
#
# Youngs Moduli (GPa) = 98.52319 60.92465 66.53484
#
# Poissons Ratio (x) = 0.09130 0.19282
# Poissons Ratio (y) = 0.14765 0.11307
# Poissons Ratio (z) = 0.28552 0.10354
#
# Static dielectric constant tensor:
#      x y z
#    x 4.179320 0.000000 -0.100850 
#    y 0.000000 3.856030 0.000000 
#    z -0.100850 0.000000 3.906630 
# 
# 
# High freq. dielectric constant tensor:
#      x y z
#    x 1.906400 0.000000 -0.004430 
#    y 0.000000 1.877110 0.000000 
#    z -0.004430 0.000000 1.886510 
# 
# From -- ./inp_files/2629.got.cif
#   From: 2010.03.12/outbox.cif.g09.slc.cpg/sg4_2_cif.got.tgz:2629.got - 2010.03.31 09:31:35.
