data_PCOD8046743
_publ_section_title
;
Structure prediction by ZEFSAII (Michael W. Deem and Ramdas Pophale) SiO2 
 PCOD8046743
Probable space group: P 21
;
_chemical_formula_sum "Si O2"
_cell_formula_units_Z 16
_cell_length_a 13.462832
_cell_length_b 8.773347
_cell_length_c 16.906300
_cell_angle_alpha 90.000000
_cell_angle_beta 158.381195
_cell_angle_gamma 90.000000
_cell_volume 735.707070
_symmetry_space_group_name_H-M "P 21"
_symmetry_group_IT_number 4
_symmetry_cell_setting 'monoclinic'
loop_
_space_group_symop_operation_xyz
x,y,z
-x,1/2+y,-z
loop_
_atom_site_type_symbol
_atom_site_label
_atom_site_fract_x
_atom_site_fract_y
_atom_site_fract_z
Si Si1 0.586927 0.719100 0.004094
Si Si2 0.600875 0.565912 0.603475
Si Si3 0.602868 0.438971 0.269277
Si Si4 0.354784 0.981436 0.069746
Si Si5 0.786389 0.962050 0.267679
Si Si6 0.178761 0.677589 0.996908
Si Si7 0.253158 0.742277 0.232773
Si Si8 0.633485 0.712177 0.789497
O O1 0.424863 0.834294 0.828117
O O2 0.773524 0.608966 0.085705
O O3 0.366596 0.608955 0.884637
O O4 0.764830 0.809575 0.198604
O O5 0.371105 0.597017 0.368068
O O6 0.581196 0.392772 0.619545
O O7 0.551305 0.684036 0.638331
O O8 0.892332 0.595544 0.780810
O O9 0.394153 0.576803 0.109329
O O10 0.552662 0.344261 0.312695
O O11 0.903546 0.505249 0.492346
O O12 0.644901 0.929801 0.247999
O O13 0.157321 0.838087 0.934223
O O14 0.405641 0.054349 0.192910
O O15 0.285471 0.705156 0.164602
O O16 0.942270 0.767249 0.024362
#
# Coordination Sequence:
#
# PCOD8046743 Si02
#       8
#     2   2   2   2   2   2   2   2
#     4   9  24  42  63  95 132 168 216 271 316 387
#     4  11  25  41  66  95 132 171 212 274 328 387
#     4  11  24  42  70  93 125 176 214 267 329 382
#     4   9  22  42  66  93 126 177 208 268 324 380
#     4  10  24  44  65  96 131 172 215 269 326 381
#     4  11  24  43  66  95 133 164 224 272 318 397
#     4  11  25  42  65  98 129 172 216 270 332 388
#     4  10  22  46  63  91 136 166 215 267 321 392
#
# _framework density 21.747786999999999
#
# number of rings (size 3 to 8) (size 9 to 14) (size 15 to 20)
#    0.750    1.000    2.500    0.000    7.000    3.000 
#    0.000    0.000    0.000    0.000    0.000    0.000 
#    0.000    0.000    0.000    0.000    0.000    0.000 
#
# Total GULP energy -198358.780796 kJ/mol
# GULP energy per Si atom -12397.423800 kJ/mol
# Density = 2.169829 g / cm^3
# Si number density = 21.747787 Si / 1000 Ang^3
#
#
#
# Elastic Constant Matrix: (Units=GPa)
#
#
# Indices 1 2 3 4 5 6 
#
# 1 60.4996 13.7988 4.6175 0.0000 4.0708 0.0000
# 2 13.7988 85.0500 0.4931 0.0000 -5.9030 0.0000
# 3 4.6175 0.4931 33.6770 0.0000 -1.4283 0.0000
# 4 0.0000 0.0000 0.0000 27.3185 0.0000 1.2795
# 5 4.0708 -5.9030 -1.4283 0.0000 23.8151 0.0000
# 6 0.0000 0.0000 0.0000 1.2795 0.0000 42.0414
#
#
#
# Elastic Compliance Matrix: (Units=1/GPa)
#
#
# Indices 1 2 3 4 5 6 
#
# 1 0.017704 -0.003132 -0.002549 0.000000 -0.003955 0.000000
# 2 -0.003132 0.012518 0.000401 0.000000 0.003662 0.000000
# 3 -0.002549 0.000401 0.030137 0.000000 0.002343 0.000000
# 4 0.000000 0.000000 0.000000 0.036658 0.000000 -0.001116
# 5 -0.003955 0.003662 0.002343 0.000000 0.043714 0.000000
# 6 0.000000 0.000000 0.000000 -0.001116 0.000000 0.023820
#
#
# Mechanical properties :
#
#
# Convention : Reuss Voigt Hill
#
# Bulk Modulus (GPa) = 20.08080 24.11616 22.09848
# Shear Modulus (GPa) = 26.08101 29.32283 27.70192
#
# Velocity S-wave (km/s) = 3.46677 3.67592 3.57288
# Velocity P-wave (km/s) = 5.02775 5.39719 5.21574
#
# Compressibility (1/GPa) = 0.04979882
#
# Stress axis : x y z
#
# Youngs Moduli (GPa) = 56.48402 79.88620 33.18197
#
# Poissons Ratio (x) = 0.25021 0.08459
# Poissons Ratio (y) = 0.17692 -0.01332
# Poissons Ratio (z) = 0.14400 -0.03207
#
# Static dielectric constant tensor:
#      x y z
#    x 3.969670 0.000000 0.033850 
#    y 0.000000 3.997850 0.000000 
#    z 0.033850 0.000000 3.425620 
# 
# 
# High freq. dielectric constant tensor:
#      x y z
#    x 1.859730 0.000000 0.003360 
#    y 0.000000 1.866890 0.000000 
#    z 0.003360 0.000000 1.818400 
# 
# From -- ./inp_files/3508.got.cif
#   From: 2010.03.12/outbox.cif.g09.slc.cpg/sg4_2_cif.got.tgz:3508.got - 2010.03.31 09:31:35.
