data_PCOD8046367
_publ_section_title
;
Structure prediction by ZEFSAII (Michael W. Deem and Ramdas Pophale) SiO2 
 PCOD8046367
Probable space group: P 21
;
_chemical_formula_sum "Si O2"
_cell_formula_units_Z 16
_cell_length_a 16.657006
_cell_length_b 8.931720
_cell_length_c 13.268803
_cell_angle_alpha 90.000000
_cell_angle_beta 24.377199
_cell_angle_gamma 90.000000
_cell_volume 814.783903
_symmetry_space_group_name_H-M "P 21"
_symmetry_group_IT_number 4
_symmetry_cell_setting 'monoclinic'
loop_
_space_group_symop_operation_xyz
x,y,z
-x,1/2+y,-z
loop_
_atom_site_type_symbol
_atom_site_label
_atom_site_fract_x
_atom_site_fract_y
_atom_site_fract_z
Si Si1 0.118520 0.280140 0.270696
Si Si2 0.188653 0.729021 0.682694
Si Si3 0.109010 0.405769 0.073451
Si Si4 0.423574 0.757626 0.826220
Si Si5 0.831628 0.914169 0.389381
Si Si6 0.462042 0.414624 0.785780
Si Si7 0.938573 0.426934 0.671921
Si Si8 0.834730 0.223337 0.061950
O O1 0.017260 0.353251 0.286496
O O2 0.022824 0.358069 0.474780
O O3 0.095286 0.102700 0.301891
O O4 0.350679 0.318275 0.999780
O O5 0.211851 0.583819 0.588945
O O6 0.321838 0.858291 0.480880
O O7 0.240101 0.694843 0.739308
O O8 0.970139 0.795214 0.922867
O O9 0.343703 0.392225 0.814811
O O10 0.057051 0.577384 0.107199
O O11 0.632824 0.828961 0.598554
O O12 0.449277 0.587285 0.833790
O O13 0.352370 0.767034 0.791381
O O14 0.265340 0.844082 0.074457
O O15 0.903445 0.897090 0.421794
O O16 0.004034 0.853814 0.120507
#
# Coordination Sequence:
#
# PCOD8046367 Si02
#       8
#     2   2   2   2   2   2   2   2
#     4  10  21  42  67  87 127 158 202 260 310 372
#     4  12  21  38  63  91 125 164 211 254 309 368
#     4   9  21  42  59  86 126 163 199 260 302 367
#     4  10  22  41  60  90 129 160 204 256 298 375
#     4  11  23  39  61  95 126 156 213 260 303 372
#     4   9  21  40  60  86 124 163 201 252 305 361
#     4  11  22  42  65  96 118 167 205 253 323 366
#     4  10  23  38  63  89 125 169 205 251 314 365
#
# _framework density 19.637108000000001
#
# number of rings (size 3 to 8) (size 9 to 14) (size 15 to 20)
#    0.750    1.000    1.250    3.000    1.750    3.000 
#    2.250    0.000    0.000    0.000    0.000    0.000 
#    0.000    0.000    0.000    0.000    0.000    0.000 
#
# Total GULP energy -198295.222391 kJ/mol
# GULP energy per Si atom -12393.451399 kJ/mol
# Density = 1.959241 g / cm^3
# Si number density = 19.637108 Si / 1000 Ang^3
#
#
#
# Elastic Constant Matrix: (Units=GPa)
#
#
# Indices 1 2 3 4 5 6 
#
# 1 81.8779 42.1599 36.0922 0.0000 -1.9084 0.0000
# 2 42.1599 144.4098 47.8974 0.0000 -8.6065 0.0000
# 3 36.0922 47.8974 72.0188 0.0000 -9.8686 0.0000
# 4 0.0000 0.0000 0.0000 24.1387 0.0000 -5.5067
# 5 -1.9084 -8.6065 -9.8686 0.0000 32.6681 0.0000
# 6 0.0000 0.0000 0.0000 -5.5067 0.0000 31.7313
#
#
#
# Elastic Compliance Matrix: (Units=1/GPa)
#
#
# Indices 1 2 3 4 5 6 
#
# 1 0.016529 -0.002699 -0.006733 0.000000 -0.001779 0.000000
# 2 -0.002699 0.009336 -0.004737 0.000000 0.000871 0.000000
# 3 -0.006733 -0.004737 0.021057 0.000000 0.004720 0.000000
# 4 0.000000 0.000000 0.000000 0.043135 0.000000 0.007486
# 5 -0.001779 0.000871 0.004720 0.000000 0.032162 0.000000
# 6 0.000000 0.000000 0.000000 0.007486 0.000000 0.032814
#
#
# Mechanical properties :
#
#
# Convention : Reuss Voigt Hill
#
# Bulk Modulus (GPa) = 53.80781 61.17841 57.49311
# Shear Modulus (GPa) = 26.37633 29.18475 27.78054
#
# Velocity S-wave (km/s) = 3.66893 3.85931 3.76532
# Velocity P-wave (km/s) = 6.73859 7.14711 6.94586
#
# Compressibility (1/GPa) = 0.01858466
#
# Stress axis : x y z
#
# Youngs Moduli (GPa) = 60.49912 107.11592 47.49108
#
# Poissons Ratio (x) = 0.28906 0.31974
# Poissons Ratio (y) = 0.16326 0.22497
# Poissons Ratio (z) = 0.40732 0.50742
#
# Static dielectric constant tensor:
#      x y z
#    x 3.583710 0.000000 -0.114440 
#    y 0.000000 3.797120 0.000000 
#    z -0.114440 0.000000 3.333660 
# 
# 
# High freq. dielectric constant tensor:
#      x y z
#    x 1.761950 0.000000 -0.008640 
#    y 0.000000 1.783680 0.000000 
#    z -0.008640 0.000000 1.747280 
# 
# From -- ./inp_files/12645.got.cif
#   From: 2010.03.12/outbox.cif.g09.slc.cpg/sg4_7_cif.got.tgz:12645.got - 2010.03.31 09:31:35.
