data_PCOD8046559
_publ_section_title
;
Structure prediction by ZEFSAII (Michael W. Deem and Ramdas Pophale) SiO2 
 PCOD8046559
Probable space group: P 21
;
_chemical_formula_sum "Si O2"
_cell_formula_units_Z 16
_cell_length_a 17.244825
_cell_length_b 8.761746
_cell_length_c 9.503197
_cell_angle_alpha 90.000000
_cell_angle_beta 150.395594
_cell_angle_gamma 90.000000
_cell_volume 709.338946
_symmetry_space_group_name_H-M "P 21"
_symmetry_group_IT_number 4
_symmetry_cell_setting 'monoclinic'
loop_
_space_group_symop_operation_xyz
x,y,z
-x,1/2+y,-z
loop_
_atom_site_type_symbol
_atom_site_label
_atom_site_fract_x
_atom_site_fract_y
_atom_site_fract_z
Si Si1 0.925919 0.010560 0.227141
Si Si2 0.414255 0.257373 0.680993
Si Si3 0.538765 0.731510 0.726056
Si Si4 0.085964 0.592172 0.320664
Si Si5 0.094397 0.187996 0.703651
Si Si6 0.419722 0.569578 0.281946
Si Si7 0.075252 0.367694 0.066294
Si Si8 0.548996 0.079239 0.134952
O O1 0.054543 0.134290 0.481541
O O2 0.979979 0.852224 0.382548
O O3 0.763378 0.061475 0.040507
O O4 0.909364 0.995630 0.032663
O O5 0.510129 0.209567 0.695073
O O6 0.237668 0.279212 0.349261
O O7 0.488947 0.411311 0.864594
O O8 0.431322 0.120383 0.821652
O O9 0.441844 0.611588 0.479948
O O10 0.482857 0.705987 0.796714
O O11 0.500439 0.906848 0.627170
O O12 0.720232 0.692653 0.984736
O O13 0.025470 0.451178 0.130529
O O14 0.272533 0.582968 0.640946
O O15 0.987879 0.577284 0.310388
O O16 0.055263 0.747942 0.186920
#
# Coordination Sequence:
#
# PCOD8046559 Si02
#       8
#     2   2   2   2   2   2   2   2
#     4  10  22  41  62  91 126 165 209 259 312 373
#     4  11  23  42  64  92 129 167 210 265 319 381
#     4  11  24  40  62  97 129 166 215 263 315 373
#     4  10  22  41  62  90 124 164 208 253 309 375
#     4  10  23  40  61  89 124 161 210 258 310 373
#     4  11  21  40  65  90 130 171 210 263 316 377
#     4  10  23  42  62  91 128 163 207 261 313 374
#     4  11  24  40  62  94 126 163 215 264 316 378
#
# _framework density 22.556213
#
# number of rings (size 3 to 8) (size 9 to 14) (size 15 to 20)
#    0.000    1.500    0.000    6.000    0.000   12.000 
#    0.000    0.000    0.000    0.000    0.000    0.000 
#    0.000    0.000    0.000    0.000    0.000    0.000 
#
# Total GULP energy -198423.186730 kJ/mol
# GULP energy per Si atom -12401.449171 kJ/mol
# Density = 2.250487 g / cm^3
# Si number density = 22.556213 Si / 1000 Ang^3
#
#
#
# Elastic Constant Matrix: (Units=GPa)
#
#
# Indices 1 2 3 4 5 6 
#
# 1 76.3810 9.9616 25.7221 0.0000 -5.0577 0.0000
# 2 9.9616 58.9992 31.7421 0.0000 6.8912 0.0000
# 3 25.7221 31.7421 91.7970 0.0000 -18.5560 0.0000
# 4 0.0000 0.0000 0.0000 46.1425 0.0000 -9.4718
# 5 -5.0577 6.8912 -18.5560 0.0000 25.7096 0.0000
# 6 0.0000 0.0000 0.0000 -9.4718 0.0000 45.9953
#
#
#
# Elastic Compliance Matrix: (Units=1/GPa)
#
#
# Indices 1 2 3 4 5 6 
#
# 1 0.014462 -0.000355 -0.003905 0.000000 0.000122 0.000000
# 2 -0.000355 0.025035 -0.011624 0.000000 -0.015170 0.000000
# 3 -0.003905 -0.011624 0.019297 0.000000 0.016275 0.000000
# 4 0.000000 0.000000 0.000000 0.022629 0.000000 0.004660
# 5 0.000122 -0.015170 0.016275 0.000000 0.054733 0.000000
# 6 0.000000 0.000000 0.000000 0.004660 0.000000 0.022701
#
#
# Mechanical properties :
#
#
# Convention : Reuss Voigt Hill
#
# Bulk Modulus (GPa) = 37.00107 40.22543 38.61325
# Shear Modulus (GPa) = 25.04620 34.21956 29.63288
#
# Velocity S-wave (km/s) = 3.33587 3.89920 3.62848
# Velocity P-wave (km/s) = 5.59257 6.17606 5.89155
#
# Compressibility (1/GPa) = 0.02702625
#
# Stress axis : x y z
#
# Youngs Moduli (GPa) = 69.14851 39.94445 51.82187
#
# Poissons Ratio (x) = 0.01419 0.20235
# Poissons Ratio (y) = 0.02456 0.60235
# Poissons Ratio (z) = 0.27001 0.46430
#
# Static dielectric constant tensor:
#      x y z
#    x 3.983100 0.000000 -0.180920 
#    y 0.000000 4.133070 0.000000 
#    z -0.180920 0.000000 4.000240 
# 
# 
# High freq. dielectric constant tensor:
#      x y z
#    x 1.886740 0.000000 -0.014490 
#    y 0.000000 1.891150 0.000000 
#    z -0.014490 0.000000 1.890480 
# 
# From -- ./inp_files/9649.got.cif
#   From: 2010.03.12/outbox.cif.g09.slc.cpg/sg4_5_cif.got.tgz:9649.got - 2010.03.31 09:31:35.
