data_PCOD8046336
_publ_section_title
;
Structure prediction by ZEFSAII (Michael W. Deem and Ramdas Pophale) SiO2 
 PCOD8046336
Probable space group: P 21
;
_chemical_formula_sum "Si O2"
_cell_formula_units_Z 16
_cell_length_a 8.797671
_cell_length_b 16.961091
_cell_length_c 7.902255
_cell_angle_alpha 90.000000
_cell_angle_beta 146.336667
_cell_angle_gamma 90.000000
_cell_volume 653.622119
_symmetry_space_group_name_H-M "P 21"
_symmetry_group_IT_number 4
_symmetry_cell_setting 'monoclinic'
loop_
_space_group_symop_operation_xyz
x,y,z
-x,1/2+y,-z
loop_
_atom_site_type_symbol
_atom_site_label
_atom_site_fract_x
_atom_site_fract_y
_atom_site_fract_z
Si Si1 0.648473 0.719960 0.715329
Si Si2 0.325502 0.980694 0.878576
Si Si3 0.851523 0.719961 0.284659
Si Si4 0.642362 0.136002 0.081973
Si Si5 0.857642 0.136001 0.918039
Si Si6 0.176902 0.390055 0.630094
Si Si7 0.174495 0.980693 0.121417
Si Si8 0.323096 0.390053 0.369915
O O1 0.393851 0.661250 0.437579
O O2 0.555879 0.809104 0.593081
O O3 0.749999 0.705294 0.999995
O O4 0.920084 0.706004 0.851652
O O5 0.450418 0.067351 0.979250
O O6 0.039318 0.960456 0.520311
O O7 0.546705 0.916397 0.018774
O O8 0.249977 0.964273 0.999973
O O9 0.944119 0.809105 0.406906
O O10 0.106143 0.661250 0.562409
O O11 0.579912 0.706005 0.148334
O O12 0.749999 0.110350 0.000003
O O13 0.049587 0.067351 0.020763
O O14 0.250004 0.382418 0.500009
O O15 0.460685 0.960455 0.479679
O O16 0.953293 0.916395 0.981219
#
# Coordination Sequence:
#
# PCOD8046336 Si02
#       8
#     2   2   2   2   2   2   2   2
#     4  12  26  44  69 101 139 180 226 281 340 405
#     4  10  22  41  68  97 132 175 222 276 335 400
#     4  12  26  44  69 101 139 180 226 281 340 405
#     4  12  25  44  69 100 138 180 229 281 337 404
#     4  12  25  44  69 100 138 180 229 281 337 404
#     4  10  21  41  68  98 131 173 222 276 337 399
#     4  10  22  41  68  97 132 175 222 276 335 400
#     4  10  21  41  68  98 131 173 222 276 337 399
#
# _framework density 24.478975999999999
#
# number of rings (size 3 to 8) (size 9 to 14) (size 15 to 20)
#    0.000    1.000    0.000    6.750    0.000    7.000 
#    0.000    2.500    0.000    0.000    0.000    0.000 
#    0.000    0.000    0.000    0.000    0.000    0.000 
#
# Total GULP energy -198255.182827 kJ/mol
# GULP energy per Si atom -12390.948927 kJ/mol
# Density = 2.442326 g / cm^3
# Si number density = 24.478976 Si / 1000 Ang^3
#
#
#
# Elastic Constant Matrix: (Units=GPa)
#
#
# Indices 1 2 3 4 5 6 
#
# 1 57.3240 42.4276 61.3013 0.0000 25.6945 0.0000
# 2 42.4276 116.7074 64.0791 0.0000 9.3028 0.0000
# 3 61.3013 64.0791 172.7993 0.0000 22.8413 0.0000
# 4 0.0000 0.0000 0.0000 50.0154 0.0000 16.5155
# 5 25.6945 9.3028 22.8413 0.0000 33.3209 0.0000
# 6 0.0000 0.0000 0.0000 16.5155 0.0000 32.7782
#
#
#
# Elastic Compliance Matrix: (Units=1/GPa)
#
#
# Indices 1 2 3 4 5 6 
#
# 1 0.046746 -0.009665 -0.009447 0.000000 -0.026872 0.000000
# 2 -0.009665 0.012760 -0.001998 0.000000 0.005260 0.000000
# 3 -0.009447 -0.001998 0.009724 0.000000 0.001177 0.000000
# 4 0.000000 0.000000 0.000000 0.023984 0.000000 -0.012085
# 5 -0.026872 0.005260 0.001177 0.000000 0.048458 0.000000
# 6 0.000000 0.000000 0.000000 -0.012085 0.000000 0.036597
#
#
# Mechanical properties :
#
#
# Convention : Reuss Voigt Hill
#
# Bulk Modulus (GPa) = 37.02494 75.82740 56.42617
# Shear Modulus (GPa) = 21.78721 35.15774 28.47248
#
# Velocity S-wave (km/s) = 2.98659 3.79389 3.41418
# Velocity P-wave (km/s) = 5.20105 7.08768 6.21636
#
# Compressibility (1/GPa) = 0.02700882
#
# Stress axis : x y z
#
# Youngs Moduli (GPa) = 21.39231 78.37038 102.83868
#
# Poissons Ratio (x) = 0.75743 0.97153
# Poissons Ratio (y) = 0.20675 0.20552
# Poissons Ratio (z) = 0.20210 0.15662
#
# Static dielectric constant tensor:
#      x y z
#    x 4.195310 0.000000 0.479010 
#    y 0.000000 4.252540 0.000000 
#    z 0.479010 0.000000 4.984400 
# 
# 
# High freq. dielectric constant tensor:
#      x y z
#    x 1.962040 0.000000 0.028930 
#    y 0.000000 1.975540 0.000000 
#    z 0.028930 0.000000 1.988000 
# 
# From -- ./inp_files/6964.got.cif
#   From: 2010.03.12/outbox.cif.g09.slc.cpg/sg4_4_cif.got.tgz:6964.got - 2010.03.31 09:31:35.
