data_PCOD8046191
_publ_section_title
;
Structure prediction by ZEFSAII (Michael W. Deem and Ramdas Pophale) SiO2 
 PCOD8046191
Probable space group: P 21
;
_chemical_formula_sum "Si O2"
_cell_formula_units_Z 16
_cell_length_a 8.366371
_cell_length_b 16.753596
_cell_length_c 4.985157
_cell_angle_alpha 90.000000
_cell_angle_beta 82.245369
_cell_angle_gamma 90.000000
_cell_volume 692.363398
_symmetry_space_group_name_H-M "P 21"
_symmetry_group_IT_number 4
_symmetry_cell_setting 'monoclinic'
loop_
_space_group_symop_operation_xyz
x,y,z
-x,1/2+y,-z
loop_
_atom_site_type_symbol
_atom_site_label
_atom_site_fract_x
_atom_site_fract_y
_atom_site_fract_z
Si Si1 0.221181 0.820330 0.863659
Si Si2 0.042765 0.042815 0.430766
Si Si3 0.367393 0.498006 0.898887
Si Si4 0.772181 0.149842 0.366720
Si Si5 0.963811 0.947490 0.947672
Si Si6 0.434302 0.856782 0.331805
Si Si7 0.357886 0.105050 0.082719
Si Si8 0.555446 0.694992 0.415799
O O1 0.195951 0.725147 0.837727
O O2 0.295333 0.860922 0.583601
O O3 0.043620 0.859814 0.935596
O O4 0.345077 0.840581 0.071701
O O5 0.062195 0.005981 0.723663
O O6 0.938478 0.124906 0.477960
O O7 0.963357 0.977385 0.254302
O O8 0.212228 0.060235 0.253787
O O9 0.280551 0.570314 0.770972
O O10 0.462509 0.437677 0.682871
O O11 0.508354 0.539889 0.040834
O O12 0.227534 0.449729 0.096424
O O13 0.632960 0.173507 0.612466
O O14 0.568304 0.789516 0.372986
O O15 0.420733 0.171038 0.280436
O O16 0.318849 0.151299 0.813720
#
# Coordination Sequence:
#
# PCOD8046191 Si02
#       8
#     2   2   2   2   2   2   2   2
#     4  11  23  42  64  88 124 165 206 252 313 374
#     4  11  23  40  62  91 123 161 206 253 306 370
#     4  10  22  39  63  90 122 159 206 257 308 364
#     4   9  22  42  63  89 125 168 206 252 313 375
#     4  11  23  40  60  90 123 159 206 256 306 366
#     4  11  23  40  63  89 121 160 205 256 311 368
#     4  11  21  38  62  88 120 159 200 250 304 367
#     4  10  21  39  59  87 120 155 199 248 307 366
#
# _framework density 23.109252000000001
#
# number of rings (size 3 to 8) (size 9 to 14) (size 15 to 20)
#    0.000    1.500    0.000    6.000    0.000    9.000 
#    0.000    5.000    0.000    0.000    0.000    0.000 
#    0.000    0.000    0.000    0.000    0.000    0.000 
#
# Total GULP energy -198240.709940 kJ/mol
# GULP energy per Si atom -12390.044371 kJ/mol
# Density = 2.305665 g / cm^3
# Si number density = 23.109252 Si / 1000 Ang^3
#
#
#
# Elastic Constant Matrix: (Units=GPa)
#
#
# Indices 1 2 3 4 5 6 
#
# 1 62.0028 35.7910 -5.4035 0.0000 -13.0238 0.0000
# 2 35.7910 136.5613 22.9376 0.0000 -4.7130 0.0000
# 3 -5.4035 22.9376 74.6944 0.0000 0.9017 0.0000
# 4 0.0000 0.0000 0.0000 34.8251 0.0000 -14.1956
# 5 -13.0238 -4.7130 0.9017 0.0000 24.6150 0.0000
# 6 0.0000 0.0000 0.0000 -14.1956 0.0000 32.2365
#
#
#
# Elastic Compliance Matrix: (Units=1/GPa)
#
#
# Indices 1 2 3 4 5 6 
#
# 1 0.022050 -0.005975 0.003304 0.000000 0.010402 0.000000
# 2 -0.005975 0.009401 -0.003304 0.000000 -0.001240 0.000000
# 3 0.003304 -0.003304 0.014635 0.000000 0.000580 0.000000
# 4 0.000000 0.000000 0.000000 0.034997 0.000000 0.015411
# 5 0.010402 -0.001240 0.000580 0.000000 0.045870 0.000000
# 6 0.000000 0.000000 0.000000 0.015411 0.000000 0.037807
#
#
# Mechanical properties :
#
#
# Convention : Reuss Voigt Hill
#
# Bulk Modulus (GPa) = 29.29446 42.21208 35.75327
# Shear Modulus (GPa) = 26.58320 32.99756 29.79038
#
# Velocity S-wave (km/s) = 3.39533 3.78285 3.59431
# Velocity P-wave (km/s) = 5.29859 6.11440 5.72105
#
# Compressibility (1/GPa) = 0.03413615
#
# Stress axis : x y z
#
# Youngs Moduli (GPa) = 45.35076 106.37269 68.33122
#
# Poissons Ratio (x) = 0.63559 -0.22580
# Poissons Ratio (y) = 0.27098 0.22578
# Poissons Ratio (z) = -0.14986 0.35147
#
# Static dielectric constant tensor:
#      x y z
#    x 4.468540 0.000000 -0.155920 
#    y 0.000000 4.355500 0.000000 
#    z -0.155920 0.000000 4.087610 
# 
# 
# High freq. dielectric constant tensor:
#      x y z
#    x 1.903150 0.000000 -0.014420 
#    y 0.000000 1.917550 0.000000 
#    z -0.014420 0.000000 1.905220 
# 
# From -- ./inp_files/1685.got.cif
#   From: 2010.03.12/outbox.cif.g09.slc.cpg/sg4_1_cif.got.tgz:1685.got - 2010.03.31 09:31:35.
