data_PCOD8046488
_publ_section_title
;
Structure prediction by ZEFSAII (Michael W. Deem and Ramdas Pophale) SiO2 
 PCOD8046488
Probable space group: P 21
;
_chemical_formula_sum "Si O2"
_cell_formula_units_Z 16
_cell_length_a 6.814637
_cell_length_b 8.197648
_cell_length_c 14.234015
_cell_angle_alpha 90.000000
_cell_angle_beta 59.138041
_cell_angle_gamma 90.000000
_cell_volume 682.577540
_symmetry_space_group_name_H-M "P 21"
_symmetry_group_IT_number 4
_symmetry_cell_setting 'monoclinic'
loop_
_space_group_symop_operation_xyz
x,y,z
-x,1/2+y,-z
loop_
_atom_site_type_symbol
_atom_site_label
_atom_site_fract_x
_atom_site_fract_y
_atom_site_fract_z
Si Si1 0.777158 0.692800 0.116252
Si Si2 0.686371 0.550297 0.951913
Si Si3 0.944953 0.879165 0.582909
Si Si4 0.867035 0.940583 0.243636
Si Si5 0.152951 0.223951 0.584034
Si Si6 0.286305 0.707889 0.954505
Si Si7 0.567041 0.382459 0.254030
Si Si8 0.340635 0.712312 0.588102
O O1 0.760939 0.869232 0.171670
O O2 0.633925 0.565792 0.212372
O O3 0.685991 0.694103 0.031363
O O4 0.042115 0.636342 0.044579
O O5 0.472902 0.574533 0.936272
O O6 0.915584 0.553169 0.833244
O O7 0.659536 0.378173 0.008914
O O8 0.126011 0.743149 0.572984
O O9 0.906559 0.858539 0.480827
O O10 0.703616 0.854023 0.694878
O O11 0.033217 0.058034 0.583860
O O12 0.940863 0.788303 0.292588
O O13 0.683195 0.044561 0.347025
O O14 0.425658 0.196455 0.527435
O O15 0.299570 0.745219 0.839906
O O16 0.641418 0.361855 0.343420
#
# Coordination Sequence:
#
# PCOD8046488 Si02
#       8
#     2   2   2   2   2   2   2   2
#     4  10  23  42  61  92 129 166 216 267 321 385
#     4  10  23  40  62  91 126 167 213 268 325 382
#     4  11  24  43  66  94 133 168 214 270 318 386
#     4  11  23  41  67  95 127 173 217 264 328 385
#     4  11  25  43  65  96 130 172 216 265 324 382
#     4  10  22  39  60  89 124 164 212 267 322 382
#     4  10  23  40  63  91 123 170 212 259 325 378
#     4  11  23  42  66  94 130 168 212 266 321 384
#
# _framework density 23.440562
#
# number of rings (size 3 to 8) (size 9 to 14) (size 15 to 20)
#    0.000    1.500    0.000    3.750    0.000   16.000 
#    0.000    2.500    0.000    0.000    0.000    0.000 
#    0.000    0.000    0.000    0.000    0.000    0.000 
#
# Total GULP energy -198446.695409 kJ/mol
# GULP energy per Si atom -12402.918463 kJ/mol
# Density = 2.338721 g / cm^3
# Si number density = 23.440562 Si / 1000 Ang^3
#
#
#
# Elastic Constant Matrix: (Units=GPa)
#
#
# Indices 1 2 3 4 5 6 
#
# 1 94.8919 5.6831 23.8551 0.0000 -13.6847 0.0000
# 2 5.6831 44.6864 9.4513 0.0000 -4.2619 0.0000
# 3 23.8551 9.4513 94.5472 0.0000 -1.1069 0.0000
# 4 0.0000 0.0000 0.0000 35.1599 0.0000 -3.0192
# 5 -13.6847 -4.2619 -1.1069 0.0000 28.5211 0.0000
# 6 0.0000 0.0000 0.0000 -3.0192 0.0000 40.3537
#
#
#
# Elastic Compliance Matrix: (Units=1/GPa)
#
#
# Indices 1 2 3 4 5 6 
#
# 1 0.012117 -0.000378 -0.002953 0.000000 0.005643 0.000000
# 2 -0.000378 0.023194 -0.002186 0.000000 0.003200 0.000000
# 3 -0.002953 -0.002186 0.011525 0.000000 -0.001296 0.000000
# 4 0.000000 0.000000 0.000000 0.028625 0.000000 0.002142
# 5 0.005643 0.003200 -0.001296 0.000000 0.038197 0.000000
# 6 0.000000 0.000000 0.000000 0.002142 0.000000 0.024941
#
#
# Mechanical properties :
#
#
# Convention : Reuss Voigt Hill
#
# Bulk Modulus (GPa) = 27.93174 34.67829 31.30501
# Shear Modulus (GPa) = 30.94672 33.81600 32.38136
#
# Velocity S-wave (km/s) = 3.63743 3.80231 3.72078
# Velocity P-wave (km/s) = 5.43903 5.83978 5.64296
#
# Compressibility (1/GPa) = 0.03580156
#
# Stress axis : x y z
#
# Youngs Moduli (GPa) = 82.52742 43.11512 86.76630
#
# Poissons Ratio (x) = 0.01631 0.25626
# Poissons Ratio (y) = 0.03121 0.18964
# Poissons Ratio (z) = 0.24374 0.09423
#
# Static dielectric constant tensor:
#      x y z
#    x 4.195350 0.000000 0.107720 
#    y 0.000000 4.030180 0.000000 
#    z 0.107720 0.000000 4.380570 
# 
# 
# High freq. dielectric constant tensor:
#      x y z
#    x 1.923680 0.000000 0.004730 
#    y 0.000000 1.925460 0.000000 
#    z 0.004730 0.000000 1.936220 
# 
# From -- ./inp_files/2677.got.cif
#   From: 2010.03.12/outbox.cif.g09.slc.cpg/sg4_2_cif.got.tgz:2677.got - 2010.03.31 09:31:35.
