data_PCOD8046532
_publ_section_title
;
Structure prediction by ZEFSAII (Michael W. Deem and Ramdas Pophale) SiO2 
 PCOD8046532
Probable space group: P 21
;
_chemical_formula_sum "Si O2"
_cell_formula_units_Z 12
_cell_length_a 12.525943
_cell_length_b 5.070128
_cell_length_c 9.600183
_cell_angle_alpha 90.000000
_cell_angle_beta 127.698058
_cell_angle_gamma 90.000000
_cell_volume 482.413485
_symmetry_space_group_name_H-M "P 21"
_symmetry_group_IT_number 4
_symmetry_cell_setting 'monoclinic'
loop_
_space_group_symop_operation_xyz
x,y,z
-x,1/2+y,-z
loop_
_atom_site_type_symbol
_atom_site_label
_atom_site_fract_x
_atom_site_fract_y
_atom_site_fract_z
Si Si1 0.463965 0.507670 0.063448
Si Si2 0.538477 0.012174 0.622465
Si Si3 0.962961 0.521122 0.787919
Si Si4 0.797935 0.731568 0.889540
Si Si5 0.080955 0.010102 0.543370
Si Si6 0.785107 0.330252 0.095934
O O1 0.528056 0.506373 0.272943
O O2 0.475257 0.234290 0.988881
O O3 0.304602 0.567957 0.960993
O O4 0.481682 0.784613 0.475508
O O5 0.700160 0.974141 0.773942
O O6 0.833287 0.585966 0.775656
O O7 0.888289 0.419518 0.589428
O O8 0.064083 0.764028 0.835629
O O9 0.056173 0.298440 0.929971
O O10 0.719246 0.535347 0.933393
O O11 0.208938 0.965413 0.746182
O O12 0.957443 0.818126 0.488605
#
# Coordination Sequence:
#
# PCOD8046532 Si02
#       6
#     2   2   2   2   2   2
#     4  12  27  49  78 109 144 208 267 313 378 455
#     4  12  28  52  78 110 158 205 259 324 380 445
#     4  11  23  41  72 110 145 189 238 301 381 452
#     4  12  23  44  74 111 150 199 248 307 380 463
#     4  10  22  40  65 102 143 184 229 288 363 439
#     4  11  23  44  71 102 154 189 245 309 378 450
#
# _framework density 24.874925000000001
#
# number of rings (size 3 to 8) (size 9 to 14) (size 15 to 20)
#    0.000    0.667    5.000    3.000    0.000    1.333 
#    0.000   15.000    0.000    0.000    0.000    0.000 
#    0.000    0.000    0.000    0.000    0.000    0.000 
#
# Total GULP energy -148703.537063 kJ/mol
# GULP energy per Si atom -12391.961422 kJ/mol
# Density = 2.481831 g / cm^3
# Si number density = 24.874925 Si / 1000 Ang^3
#
#
#
# Elastic Constant Matrix: (Units=GPa)
#
#
# Indices 1 2 3 4 5 6 
#
# 1 80.7646 16.8255 52.1518 0.0000 -26.3975 0.0000
# 2 16.8255 73.5349 25.0541 0.0000 -13.6344 0.0000
# 3 52.1518 25.0541 158.9892 0.0000 -45.9786 0.0000
# 4 0.0000 0.0000 0.0000 50.7348 0.0000 -7.2596
# 5 -26.3975 -13.6344 -45.9786 0.0000 43.7743 0.0000
# 6 0.0000 0.0000 0.0000 -7.2596 0.0000 37.8493
#
#
#
# Elastic Compliance Matrix: (Units=1/GPa)
#
#
# Indices 1 2 3 4 5 6 
#
# 1 0.016982 -0.001551 -0.003597 0.000000 0.005980 0.000000
# 2 -0.001551 0.014794 -0.001092 0.000000 0.002525 0.000000
# 3 -0.003597 -0.001092 0.009933 0.000000 0.007924 0.000000
# 4 0.000000 0.000000 0.000000 0.020267 0.000000 0.003887
# 5 0.005980 0.002525 0.007924 0.000000 0.035560 0.000000
# 6 0.000000 0.000000 0.000000 0.003887 0.000000 0.027166
#
#
# Mechanical properties :
#
#
# Convention : Reuss Voigt Hill
#
# Bulk Modulus (GPa) = 34.21273 55.70572 44.95922
# Shear Modulus (GPa) = 34.03079 41.08884 37.55981
#
# Velocity S-wave (km/s) = 3.70276 4.06866 3.89002
# Velocity P-wave (km/s) = 5.66254 6.67196 6.18787
#
# Compressibility (1/GPa) = 0.02922889
#
# Stress axis : x y z
#
# Youngs Moduli (GPa) = 58.88683 67.59364 100.67158
#
# Poissons Ratio (x) = 0.10487 0.36208
# Poissons Ratio (y) = 0.09136 0.10995
# Poissons Ratio (z) = 0.21179 0.07382
#
# Static dielectric constant tensor:
#      x y z
#    x 4.370400 0.000000 -0.702940 
#    y 0.000000 4.346030 0.000000 
#    z -0.702940 0.000000 5.483520 
# 
# 
# High freq. dielectric constant tensor:
#      x y z
#    x 1.967720 0.000000 -0.031770 
#    y 0.000000 1.991680 0.000000 
#    z -0.031770 0.000000 2.013410 
# 
# From -- ./inp_files/8989.got.cif
#   From: 2010.03.12/outbox.cif.g09.slc.cpg/sg4_5_cif.got.tgz:8989.got - 2010.03.31 09:31:35.
