data_PCOD8046414
_publ_section_title
;
Structure prediction by ZEFSAII (Michael W. Deem and Ramdas Pophale) SiO2 
 PCOD8046414
Probable space group: P 21
;
_chemical_formula_sum "Si O2"
_cell_formula_units_Z 16
_cell_length_a 13.597845
_cell_length_b 13.124309
_cell_length_c 9.592728
_cell_angle_alpha 90.000000
_cell_angle_beta 29.471379
_cell_angle_gamma 90.000000
_cell_volume 842.255426
_symmetry_space_group_name_H-M "P 21"
_symmetry_group_IT_number 4
_symmetry_cell_setting 'monoclinic'
loop_
_space_group_symop_operation_xyz
x,y,z
-x,1/2+y,-z
loop_
_atom_site_type_symbol
_atom_site_label
_atom_site_fract_x
_atom_site_fract_y
_atom_site_fract_z
Si Si1 0.266166 0.051200 0.568048
Si Si2 0.058228 0.152283 0.296359
Si Si3 0.241026 0.231302 0.799446
Si Si4 0.299987 0.027259 0.208300
Si Si5 0.128097 0.443254 0.846944
Si Si6 0.760091 0.982613 0.604821
Si Si7 0.053593 0.374993 0.385756
Si Si8 0.607122 0.911482 0.253288
O O1 0.281598 0.075236 0.385346
O O2 0.411897 0.957957 0.426807
O O3 0.322335 0.156031 0.578882
O O4 0.050859 0.011942 0.876978
O O5 0.861109 0.082839 0.547042
O O6 0.123101 0.162065 0.055545
O O7 0.240153 0.109056 0.164912
O O8 0.994873 0.258570 0.439852
O O9 0.096944 0.320547 0.911805
O O10 0.420684 0.292684 0.659941
O O11 0.523189 0.990002 0.903778
O O12 0.156256 0.931112 0.371441
O O13 0.164963 0.465964 0.642346
O O14 0.323394 0.476975 0.696677
O O15 0.842499 0.887695 0.592136
O O16 0.208591 0.415603 0.080645
#
# Coordination Sequence:
#
# PCOD8046414 Si02
#       8
#     2   2   2   2   2   2   2   2
#     4  12  20  43  64  87 126 166 202 260 308 367
#     4  10  22  41  61  91 127 160 205 259 311 365
#     4   9  22  42  60  92 123 162 209 252 314 369
#     4  11  24  38  66  91 122 166 207 249 317 365
#     4  10  23  42  62  91 124 158 214 251 304 369
#     4  11  23  40  63  95 123 163 204 262 304 368
#     4  10  21  44  58  86 130 161 202 255 307 370
#     4   9  21  40  60  91 121 158 209 250 301 373
#
# _framework density 18.996614000000001
#
# number of rings (size 3 to 8) (size 9 to 14) (size 15 to 20)
#    0.750    1.000    3.750    0.000    3.500    1.000 
#    6.750    0.000    0.000    0.000    0.000    0.000 
#    0.000    0.000    0.000    0.000    0.000    0.000 
#
# Total GULP energy -198275.861415 kJ/mol
# GULP energy per Si atom -12392.241338 kJ/mol
# Density = 1.895338 g / cm^3
# Si number density = 18.996614 Si / 1000 Ang^3
#
#
#
# Elastic Constant Matrix: (Units=GPa)
#
#
# Indices 1 2 3 4 5 6 
#
# 1 103.8132 28.9951 30.8166 0.0000 5.5468 0.0000
# 2 28.9951 74.6983 20.3030 0.0000 2.9780 0.0000
# 3 30.8166 20.3030 47.4333 0.0000 -3.2395 0.0000
# 4 0.0000 0.0000 0.0000 22.1281 0.0000 7.1515
# 5 5.5468 2.9780 -3.2395 0.0000 30.5388 0.0000
# 6 0.0000 0.0000 0.0000 7.1515 0.0000 32.4713
#
#
#
# Elastic Compliance Matrix: (Units=1/GPa)
#
#
# Indices 1 2 3 4 5 6 
#
# 1 0.012730 -0.002863 -0.007236 0.000000 -0.002801 0.000000
# 2 -0.002863 0.015939 -0.005070 0.000000 -0.001572 0.000000
# 3 -0.007236 -0.005070 0.028282 0.000000 0.004809 0.000000
# 4 0.000000 0.000000 0.000000 0.048655 0.000000 -0.010716
# 5 -0.002801 -0.001572 0.004809 0.000000 0.033917 0.000000
# 6 0.000000 0.000000 0.000000 -0.010716 0.000000 0.033156
#
#
# Mechanical properties :
#
#
# Convention : Reuss Voigt Hill
#
# Bulk Modulus (GPa) = 37.57557 42.90824 40.24190
# Shear Modulus (GPa) = 23.59729 26.74966 25.17347
#
# Velocity S-wave (km/s) = 3.52829 3.75657 3.64422
# Velocity P-wave (km/s) = 6.03502 6.43833 6.23994
#
# Compressibility (1/GPa) = 0.02661304
#
# Stress axis : x y z
#
# Youngs Moduli (GPa) = 78.55457 62.73877 35.35808
#
# Poissons Ratio (x) = 0.17961 0.25586
# Poissons Ratio (y) = 0.22489 0.17926
# Poissons Ratio (z) = 0.56845 0.31808
#
# Static dielectric constant tensor:
#      x y z
#    x 3.757920 0.000000 0.139690 
#    y 0.000000 3.462590 0.000000 
#    z 0.139690 0.000000 3.290620 
# 
# 
# High freq. dielectric constant tensor:
#      x y z
#    x 1.757250 0.000000 0.012580 
#    y 0.000000 1.733000 0.000000 
#    z 0.012580 0.000000 1.721910 
# 
# From -- ./inp_files/8491.got.cif
#   From: 2010.03.12/outbox.cif.g09.slc.cpg/sg4_5_cif.got.tgz:8491.got - 2010.03.31 09:31:35.
