data_PCOD8046805
_publ_section_title
;
Structure prediction by ZEFSAII (Michael W. Deem and Ramdas Pophale) SiO2 
 PCOD8046805
Probable space group: P 21
;
_chemical_formula_sum "Si O2"
_cell_formula_units_Z 14
_cell_length_a 9.757944
_cell_length_b 5.248307
_cell_length_c 17.952307
_cell_angle_alpha 90.000000
_cell_angle_beta 143.991748
_cell_angle_gamma 90.000000
_cell_volume 540.508568
_symmetry_space_group_name_H-M "P 21"
_symmetry_group_IT_number 4
_symmetry_cell_setting 'monoclinic'
loop_
_space_group_symop_operation_xyz
x,y,z
-x,1/2+y,-z
loop_
_atom_site_type_symbol
_atom_site_label
_atom_site_fract_x
_atom_site_fract_y
_atom_site_fract_z
Si Si1 0.886399 0.451640 0.917030
Si Si2 0.557746 0.925515 0.194652
Si Si3 0.314918 0.258566 0.477501
Si Si4 0.796109 0.465702 0.708445
Si Si5 0.378523 0.887836 0.964113
Si Si6 0.060382 0.122707 0.719893
Si Si7 0.019170 0.613067 0.555022
O O1 0.618728 0.365127 0.815385
O O2 0.902548 0.528897 0.836380
O O3 0.952631 0.708809 0.991641
O O4 0.737784 0.698361 0.250440
O O5 0.380367 0.995977 0.049463
O O6 0.728942 0.159141 0.293830
O O7 0.579066 0.271130 0.622810
O O8 0.165533 0.519967 0.423305
O O9 0.178451 0.052199 0.469198
O O10 0.316366 0.196367 0.389452
O O11 0.005055 0.357218 0.750012
O O12 0.539599 0.097071 0.993161
O O13 0.137252 0.896703 0.812387
O O14 0.052808 0.361294 0.521286
#
# Coordination Sequence:
#
# PCOD8046805 Si02
#       7
#     2   2   2   2   2   2   2
#     4  12  32  54  77 115 165 215 263 323 405 478
#     4  11  25  49  74 110 145 201 260 317 380 460
#     4  12  26  47  78 117 155 210 260 327 402 472
#     4  12  27  47  78 112 161 210 260 326 397 476
#     4  10  23  40  69 105 140 184 244 317 373 438
#     4  11  24  46  76 110 148 198 258 324 383 461
#     4  12  27  47  76 113 158 200 261 328 390 465
#
# _framework density 25.901533000000001
#
# number of rings (size 3 to 8) (size 9 to 14) (size 15 to 20)
#    0.000    0.571    2.857    3.429    6.000   10.286 
#    0.000    0.000    0.000    0.000    0.000    0.000 
#    0.000    0.000    0.000    0.000    0.000    0.000 
#
# Total GULP energy -173432.858812 kJ/mol
# GULP energy per Si atom -12388.061344 kJ/mol
# Density = 2.584258 g / cm^3
# Si number density = 25.901533 Si / 1000 Ang^3
#
#
#
# Elastic Constant Matrix: (Units=GPa)
#
#
# Indices 1 2 3 4 5 6 
#
# 1 119.4332 16.9291 22.7414 0.0000 -9.0228 0.0000
# 2 16.9291 74.8015 20.2044 0.0000 -7.5600 0.0000
# 3 22.7414 20.2044 95.7115 0.0000 -13.2446 0.0000
# 4 0.0000 0.0000 0.0000 36.9387 0.0000 0.8558
# 5 -9.0228 -7.5600 -13.2446 0.0000 52.7533 0.0000
# 6 0.0000 0.0000 0.0000 0.8558 0.0000 31.2854
#
#
#
# Elastic Compliance Matrix: (Units=1/GPa)
#
#
# Indices 1 2 3 4 5 6 
#
# 1 0.008974 -0.001482 -0.001695 0.000000 0.000897 0.000000
# 2 -0.001482 0.014512 -0.002547 0.000000 0.001187 0.000000
# 3 -0.001695 -0.002547 0.011705 0.000000 0.002284 0.000000
# 4 0.000000 0.000000 0.000000 0.027089 0.000000 -0.000741
# 5 0.000897 0.001187 0.002284 0.000000 0.019853 0.000000
# 6 0.000000 0.000000 0.000000 -0.000741 0.000000 0.031984
#
#
# Mechanical properties :
#
#
# Convention : Reuss Voigt Hill
#
# Bulk Modulus (GPa) = 42.12105 45.52176 43.82140
# Shear Modulus (GPa) = 37.45908 39.53357 38.49633
#
# Velocity S-wave (km/s) = 3.80703 3.91103 3.85938
# Velocity P-wave (km/s) = 5.96841 6.16506 6.06753
#
# Compressibility (1/GPa) = 0.02374110
#
# Stress axis : x y z
#
# Youngs Moduli (GPa) = 111.43895 68.90796 85.43714
#
# Poissons Ratio (x) = 0.10215 0.14483
# Poissons Ratio (y) = 0.16520 0.21761
# Poissons Ratio (z) = 0.18890 0.17551
#
# Static dielectric constant tensor:
#      x y z
#    x 4.804310 0.000000 -0.257590 
#    y 0.000000 4.303960 0.000000 
#    z -0.257590 0.000000 5.177270 
# 
# 
# High freq. dielectric constant tensor:
#      x y z
#    x 2.038040 0.000000 -0.008120 
#    y 0.000000 2.016700 0.000000 
#    z -0.008120 0.000000 2.054540 
# 
# From -- ./inp_files/7083.got.cif
#   From: 2010.03.12/outbox.cif.g09.slc.cpg/sg4_4_cif.got.tgz:7083.got - 2010.03.31 09:31:35.
