data_PCOD8046428
_publ_section_title
;
Structure prediction by ZEFSAII (Michael W. Deem and Ramdas Pophale) SiO2 
 PCOD8046428
Probable space group: P 21
;
_chemical_formula_sum "Si O2"
_cell_formula_units_Z 16
_cell_length_a 7.003941
_cell_length_b 5.213290
_cell_length_c 22.488185
_cell_angle_alpha 90.000000
_cell_angle_beta 59.334213
_cell_angle_gamma 90.000000
_cell_volume 706.295575
_symmetry_space_group_name_H-M "P 21"
_symmetry_group_IT_number 4
_symmetry_cell_setting 'monoclinic'
loop_
_space_group_symop_operation_xyz
x,y,z
-x,1/2+y,-z
loop_
_atom_site_type_symbol
_atom_site_label
_atom_site_fract_x
_atom_site_fract_y
_atom_site_fract_z
Si Si1 0.516990 0.384960 0.732302
Si Si2 0.057615 0.165418 0.843990
Si Si3 0.221856 0.560751 0.223432
Si Si4 0.438758 0.349370 0.612148
Si Si5 0.898989 0.363201 0.485951
Si Si6 0.059928 0.444959 0.956795
Si Si7 0.643967 0.270606 0.156791
Si Si8 0.147230 0.847786 0.641655
O O1 0.299444 0.218664 0.778774
O O2 0.730218 0.276363 0.734109
O O3 0.565832 0.387477 0.654661
O O4 0.462217 0.668476 0.764719
O O5 0.885319 0.176116 0.818399
O O6 0.960713 0.365839 0.907886
O O7 0.112435 0.896654 0.868890
O O8 0.453968 0.452926 0.161119
O O9 0.054764 0.353784 0.279039
O O10 0.631273 0.363366 0.532411
O O11 0.262563 0.573405 0.630062
O O12 0.318650 0.076144 0.627955
O O13 0.957926 0.372091 0.407052
O O14 0.002291 0.609107 0.500860
O O15 0.307955 0.551503 0.901102
O O16 0.921433 0.680296 0.008055
#
# Coordination Sequence:
#
# PCOD8046428 Si02
#       8
#     2   2   2   2   2   2   2   2
#     4  10  23  39  66 100 143 182 232 295 351 415
#     4  10  21  44  69 104 137 187 229 291 349 422
#     4  11  24  41  71 107 145 181 242 292 356 422
#     4  12  25  45  69  98 142 186 247 289 363 425
#     4  12  26  45  70 100 143 187 247 305 358 427
#     4  11  22  44  78  99 138 193 232 282 359 422
#     4  10  23  40  73 100 141 178 237 287 352 412
#     4  12  26  44  70 102 139 194 238 295 366 423
#
# _framework density 22.653404999999999
#
# number of rings (size 3 to 8) (size 9 to 14) (size 15 to 20)
#    0.000    1.000    2.500    3.750    5.250    2.000 
#    0.000    0.000   11.000    0.000    0.000    0.000 
#    0.000    0.000    0.000    0.000    0.000    0.000 
#
# Total GULP energy -198306.696959 kJ/mol
# GULP energy per Si atom -12394.168560 kJ/mol
# Density = 2.260185 g / cm^3
# Si number density = 22.653405 Si / 1000 Ang^3
#
#
#
# Elastic Constant Matrix: (Units=GPa)
#
#
# Indices 1 2 3 4 5 6 
#
# 1 132.3297 36.1401 36.3356 0.0000 16.5754 0.0000
# 2 36.1401 106.5285 19.6596 0.0000 5.3798 0.0000
# 3 36.3356 19.6596 95.4246 0.0000 22.4817 0.0000
# 4 0.0000 0.0000 0.0000 37.9110 0.0000 2.3362
# 5 16.5754 5.3798 22.4817 0.0000 25.6184 0.0000
# 6 0.0000 0.0000 0.0000 2.3362 0.0000 30.9391
#
#
#
# Elastic Compliance Matrix: (Units=1/GPa)
#
#
# Indices 1 2 3 4 5 6 
#
# 1 0.009304 -0.002575 -0.002170 0.000000 -0.003575 0.000000
# 2 -0.002575 0.010474 -0.001326 0.000000 0.000630 0.000000
# 3 -0.002170 -0.001326 0.014097 0.000000 -0.010689 0.000000
# 4 0.000000 0.000000 0.000000 0.026501 0.000000 -0.002001
# 5 -0.003575 0.000630 -0.010689 0.000000 0.050595 0.000000
# 6 0.000000 0.000000 0.000000 -0.002001 0.000000 0.032473
#
#
# Mechanical properties :
#
#
# Convention : Reuss Voigt Hill
#
# Bulk Modulus (GPa) = 46.01368 57.61705 51.81537
# Shear Modulus (GPa) = 30.70703 35.03686 32.87194
#
# Velocity S-wave (km/s) = 3.68573 3.93701 3.81344
# Velocity P-wave (km/s) = 6.20233 6.79383 6.50481
#
# Compressibility (1/GPa) = 0.02173267
#
# Stress axis : x y z
#
# Youngs Moduli (GPa) = 107.48286 95.47746 70.93678
#
# Poissons Ratio (x) = 0.24589 0.15393
# Poissons Ratio (y) = 0.27681 0.09404
# Poissons Ratio (z) = 0.23323 0.12657
#
# Static dielectric constant tensor:
#      x y z
#    x 3.911890 0.000000 0.085150 
#    y 0.000000 4.362570 0.000000 
#    z 0.085150 0.000000 4.332560 
# 
# 
# High freq. dielectric constant tensor:
#      x y z
#    x 1.872680 0.000000 0.006310 
#    y 0.000000 1.908830 0.000000 
#    z 0.006310 0.000000 1.902490 
# 
# From -- ./inp_files/16013.got.cif
#   From: 2010.03.12/outbox.cif.g09.slc.cpg/sg4_9_cif.got.tgz:16013.got - 2010.03.31 09:31:35.
