data_PCOD8046999
_publ_section_title
;
Structure prediction by ZEFSAII (Michael W. Deem and Ramdas Pophale) SiO2 
 PCOD8046999
Probable space group: P 21
;
_chemical_formula_sum "Si O2"
_cell_formula_units_Z 10
_cell_length_a 6.599978
_cell_length_b 13.002217
_cell_length_c 5.182478
_cell_angle_alpha 90.000000
_cell_angle_beta 83.264163
_cell_angle_gamma 90.000000
_cell_volume 441.661197
_symmetry_space_group_name_H-M "P 21"
_symmetry_group_IT_number 4
_symmetry_cell_setting 'monoclinic'
loop_
_space_group_symop_operation_xyz
x,y,z
-x,1/2+y,-z
loop_
_atom_site_type_symbol
_atom_site_label
_atom_site_fract_x
_atom_site_fract_y
_atom_site_fract_z
Si Si1 0.880721 0.755890 0.045140
Si Si2 0.378953 0.935503 0.487441
Si Si3 0.882480 0.255185 0.505716
Si Si4 0.994766 0.559116 0.263684
Si Si5 0.370683 0.435387 0.034253
O O1 0.859287 0.632390 0.092151
O O2 0.971067 0.805711 0.295953
O O3 0.668381 0.813321 0.012922
O O4 0.034877 0.777051 0.789933
O O5 0.335279 0.813522 0.449792
O O6 0.513469 0.952961 0.718381
O O7 0.160547 0.991480 0.545880
O O8 0.497029 0.980728 0.221737
O O9 0.867962 0.132820 0.568442
O O10 0.149686 0.489968 0.075361
#
# Coordination Sequence:
#
# PCOD8046999 Si02
#       5
#     2   2   2   2   2
#     4  10  23  46  75  95 144 188 226 286 358 406
#     4  12  27  46  75 107 141 185 240 291 350 419
#     4  10  23  46  75  95 144 188 226 286 358 406
#     4  10  28  48  74 100 148 188 230 294 352 420
#     4  12  27  46  75 107 141 185 240 291 350 419
#
# _framework density 22.641788999999999
#
# number of rings (size 3 to 8) (size 9 to 14) (size 15 to 20)
#    1.200    0.000    2.000    2.400    5.600    1.600 
#    0.000    0.000    0.000    0.000    0.000    0.000 
#    0.000    0.000    0.000    0.000    0.000    0.000 
#
# Total GULP energy -123915.441307 kJ/mol
# GULP energy per Si atom -12391.544131 kJ/mol
# Density = 2.259026 g / cm^3
# Si number density = 22.641789 Si / 1000 Ang^3
#
#
#
# Elastic Constant Matrix: (Units=GPa)
#
#
# Indices 1 2 3 4 5 6 
#
# 1 83.4837 53.5123 45.7796 0.0000 -23.2252 0.0000
# 2 53.5123 108.5746 37.7783 0.0000 -13.1960 0.0000
# 3 45.7796 37.7783 136.0196 0.0000 -16.5070 0.0000
# 4 0.0000 0.0000 0.0000 24.3886 0.0000 6.7918
# 5 -23.2252 -13.1960 -16.5070 0.0000 49.3416 0.0000
# 6 0.0000 0.0000 0.0000 6.7918 0.0000 31.0424
#
#
#
# Elastic Compliance Matrix: (Units=1/GPa)
#
#
# Indices 1 2 3 4 5 6 
#
# 1 0.021347 -0.008312 -0.004092 0.000000 0.006456 0.000000
# 2 -0.008312 0.013598 -0.001055 0.000000 -0.000629 0.000000
# 3 -0.004092 -0.001055 0.009125 0.000000 0.000844 0.000000
# 4 0.000000 0.000000 0.000000 0.043663 0.000000 -0.009553
# 5 0.006456 -0.000629 0.000844 0.000000 0.023420 0.000000
# 6 0.000000 0.000000 0.000000 -0.009553 0.000000 0.034304
#
#
# Mechanical properties :
#
#
# Convention : Reuss Voigt Hill
#
# Bulk Modulus (GPa) = 58.31245 66.91314 62.61280
# Shear Modulus (GPa) = 28.07518 33.68836 30.88177
#
# Velocity S-wave (km/s) = 3.52514 3.86149 3.69715
# Velocity P-wave (km/s) = 6.50992 7.03553 6.77782
#
# Compressibility (1/GPa) = 0.01714900
#
# Stress axis : x y z
#
# Youngs Moduli (GPa) = 46.84561 73.54082 109.59126
#
# Poissons Ratio (x) = 0.61130 0.44849
# Poissons Ratio (y) = 0.38940 0.11566
# Poissons Ratio (z) = 0.19171 0.07761
#
# Static dielectric constant tensor:
#      x y z
#    x 3.745650 0.000000 -0.057500 
#    y 0.000000 4.197330 0.000000 
#    z -0.057500 0.000000 4.043930 
# 
# 
# High freq. dielectric constant tensor:
#      x y z
#    x 1.866570 0.000000 -0.005350 
#    y 0.000000 1.889730 0.000000 
#    z -0.005350 0.000000 1.907580 
# 
# From -- ./inp_files/197.got.cif
#   From: 2010.03.12/outbox.cif.g09.slc.cpg/sg4_1_cif.got.tgz:197.got - 2010.03.31 09:31:35.
