data_PCOD8046501
_publ_section_title
;
Structure prediction by ZEFSAII (Michael W. Deem and Ramdas Pophale) SiO2 
 PCOD8046501
Probable space group: P 21
;
_chemical_formula_sum "Si O2"
_cell_formula_units_Z 16
_cell_length_a 17.084428
_cell_length_b 6.956363
_cell_length_c 7.224978
_cell_angle_alpha 90.000000
_cell_angle_beta 125.281937
_cell_angle_gamma 90.000000
_cell_volume 700.937828
_symmetry_space_group_name_H-M "P 21"
_symmetry_group_IT_number 4
_symmetry_cell_setting 'monoclinic'
loop_
_space_group_symop_operation_xyz
x,y,z
-x,1/2+y,-z
loop_
_atom_site_type_symbol
_atom_site_label
_atom_site_fract_x
_atom_site_fract_y
_atom_site_fract_z
Si Si1 0.032162 0.962330 0.126646
Si Si2 0.204177 0.217716 0.423108
Si Si3 0.968171 0.595516 0.255368
Si Si4 0.820902 0.026674 0.896592
Si Si5 0.591795 0.760183 0.224205
Si Si6 0.474252 0.429373 0.235812
Si Si7 0.618090 0.104414 0.533975
Si Si8 0.135497 0.395815 0.673916
O O1 0.023721 0.762090 0.218456
O O2 0.119809 0.068318 0.348404
O O3 0.061037 0.943347 0.946668
O O4 0.931124 0.083874 0.999939
O O5 0.191136 0.310050 0.203190
O O6 0.311191 0.137983 0.600045
O O7 0.194705 0.385282 0.565960
O O8 0.880378 0.687338 0.249557
O O9 0.032780 0.491885 0.496045
O O10 0.733394 0.153991 0.693412
O O11 0.806951 0.024987 0.099658
O O12 0.507527 0.624754 0.181944
O O13 0.592647 0.964519 0.329487
O O14 0.581392 0.798816 0.990506
O O15 0.405523 0.488954 0.309789
O O16 0.561765 0.304032 0.439244
#
# Coordination Sequence:
#
# PCOD8046501 Si02
#       8
#     2   2   2   2   2   2   2   2
#     4  11  20  41  62  91 135 175 214 268 324 386
#     4  11  22  42  65  97 137 173 219 274 335 388
#     4  11  22  36  64  89 125 179 226 265 323 382
#     4  10  22  39  65  94 134 177 218 267 340 391
#     4  11  25  43  72 104 135 177 223 283 346 410
#     4  12  23  47  71 103 135 175 225 284 350 398
#     4  11  24  43  72 102 138 175 225 284 345 406
#     4  11  20  39  61  92 125 175 222 271 319 383
#
# _framework density 22.826561999999999
#
# number of rings (size 3 to 8) (size 9 to 14) (size 15 to 20)
#    0.000    1.000    6.250    2.250    0.000    1.000 
#    0.000    1.250    0.000    0.000    0.000    0.000 
#    0.000    0.000    0.000    0.000    0.000    0.000 
#
# Total GULP energy -198248.541525 kJ/mol
# GULP energy per Si atom -12390.533845 kJ/mol
# Density = 2.277461 g / cm^3
# Si number density = 22.826562 Si / 1000 Ang^3
#
#
#
# Elastic Constant Matrix: (Units=GPa)
#
#
# Indices 1 2 3 4 5 6 
#
# 1 66.5391 -1.9597 21.0008 0.0000 5.5523 0.0000
# 2 -1.9597 28.1775 3.2834 0.0000 -6.5654 0.0000
# 3 21.0008 3.2834 113.2254 0.0000 -14.7254 0.0000
# 4 0.0000 0.0000 0.0000 33.8806 0.0000 -6.8135
# 5 5.5523 -6.5654 -14.7254 0.0000 36.2846 0.0000
# 6 0.0000 0.0000 0.0000 -6.8135 0.0000 32.7799
#
#
#
# Elastic Compliance Matrix: (Units=1/GPa)
#
#
# Indices 1 2 3 4 5 6 
#
# 1 0.016501 0.000666 -0.003582 0.000000 -0.003858 0.000000
# 2 0.000666 0.037083 -0.000358 0.000000 0.006462 0.000000
# 3 -0.003582 -0.000358 0.010103 0.000000 0.004583 0.000000
# 4 0.000000 0.000000 0.000000 0.030803 0.000000 0.006403
# 5 -0.003858 0.006462 0.004583 0.000000 0.031180 0.000000
# 6 0.000000 0.000000 0.000000 0.006403 0.000000 0.031837
#
#
# Mechanical properties :
#
#
# Convention : Reuss Voigt Hill
#
# Bulk Modulus (GPa) = 17.50130 28.06566 22.78348
# Shear Modulus (GPa) = 27.30740 32.96352 30.13546
#
# Velocity S-wave (km/s) = 3.46251 3.80424 3.63739
# Velocity P-wave (km/s) = 4.86508 5.62300 5.25772
#
# Compressibility (1/GPa) = 0.05713860
#
# Stress axis : x y z
#
# Youngs Moduli (GPa) = 60.60349 26.96645 98.98347
#
# Poissons Ratio (x) = -0.01796 0.35452
# Poissons Ratio (y) = -0.04036 0.03548
# Poissons Ratio (z) = 0.21706 0.00967
#
# Static dielectric constant tensor:
#      x y z
#    x 4.050110 0.000000 -0.063210 
#    y 0.000000 3.753750 0.000000 
#    z -0.063210 0.000000 4.469980 
# 
# 
# High freq. dielectric constant tensor:
#      x y z
#    x 1.889550 0.000000 -0.009980 
#    y 0.000000 1.870780 0.000000 
#    z -0.009980 0.000000 1.925620 
# 
# From -- ./inp_files/4079.got.cif
#   From: 2010.03.12/outbox.cif.g09.slc.cpg/sg4_3_cif.got.tgz:4079.got - 2010.03.31 09:31:35.
