data_PCOD8046982
_publ_section_title
;
Structure prediction by ZEFSAII (Michael W. Deem and Ramdas Pophale) SiO2 
 PCOD8046982
Probable space group: P 21
;
_chemical_formula_sum "Si O2"
_cell_formula_units_Z 14
_cell_length_a 13.374885
_cell_length_b 7.840934
_cell_length_c 9.532359
_cell_angle_alpha 90.000000
_cell_angle_beta 147.075091
_cell_angle_gamma 90.000000
_cell_volume 543.362034
_symmetry_space_group_name_H-M "P 21"
_symmetry_group_IT_number 4
_symmetry_cell_setting 'monoclinic'
loop_
_space_group_symop_operation_xyz
x,y,z
-x,1/2+y,-z
loop_
_atom_site_type_symbol
_atom_site_label
_atom_site_fract_x
_atom_site_fract_y
_atom_site_fract_z
Si Si1 0.742405 0.046790 0.937875
Si Si2 0.808644 0.077612 0.710764
Si Si3 0.534008 0.364658 0.760024
Si Si4 0.021967 0.210282 0.458150
Si Si5 0.521902 0.307691 0.250150
Si Si6 0.893803 0.550812 0.171619
Si Si7 0.422407 0.144088 0.863510
O O1 0.864689 0.061289 0.940146
O O2 0.589321 0.195789 0.737044
O O3 0.643241 0.860426 0.836466
O O4 0.867506 0.077679 0.222194
O O5 0.706977 0.256924 0.551495
O O6 0.669715 0.921380 0.522123
O O7 0.996754 0.060855 0.844993
O O8 0.532954 0.301492 0.921305
O O9 0.675407 0.520996 0.889514
O O10 0.206876 0.172269 0.592054
O O11 0.954010 0.396368 0.341499
O O12 0.055180 0.209054 0.666552
O O13 0.532228 0.469255 0.160146
O O14 0.477276 0.145037 0.094402
#
# Coordination Sequence:
#
# PCOD8046982 Si02
#       7
#     2   2   2   2   2   2   2
#     4  10  25  45  68 101 146 182 235 284 353 422
#     4  12  24  47  68 102 140 193 226 285 357 423
#     4  10  23  46  69  97 139 181 235 291 348 413
#     4  11  23  43  65 104 134 177 229 297 343 412
#     4  11  24  41  72 100 140 188 237 291 350 422
#     4  11  25  42  71 101 137 175 241 288 345 416
#     4  11  22  42  71 103 134 184 235 298 354 400
#
# _framework density 25.765509999999999
#
# number of rings (size 3 to 8) (size 9 to 14) (size 15 to 20)
#    0.000    1.143    1.429    4.286    8.000    0.000 
#   10.286    0.000    0.000    0.000    0.000    0.000 
#    0.000    0.000    0.000    0.000    0.000    0.000 
#
# Total GULP energy -173533.487652 kJ/mol
# GULP energy per Si atom -12395.249118 kJ/mol
# Density = 2.570687 g / cm^3
# Si number density = 25.765510 Si / 1000 Ang^3
#
#
#
# Elastic Constant Matrix: (Units=GPa)
#
#
# Indices 1 2 3 4 5 6 
#
# 1 172.3986 11.4446 7.6859 0.0000 4.6201 0.0000
# 2 11.4446 55.7997 -18.2306 0.0000 -5.7057 0.0000
# 3 7.6859 -18.2306 41.4056 0.0000 9.0955 0.0000
# 4 0.0000 0.0000 0.0000 27.1440 0.0000 8.7160
# 5 4.6201 -5.7057 9.0955 0.0000 44.7334 0.0000
# 6 0.0000 0.0000 0.0000 8.7160 0.0000 27.3199
#
#
#
# Elastic Compliance Matrix: (Units=1/GPa)
#
#
# Indices 1 2 3 4 5 6 
#
# 1 0.006021 -0.001886 -0.001841 0.000000 -0.000488 0.000000
# 2 -0.001886 0.021553 0.009623 0.000000 0.000987 0.000000
# 3 -0.001841 0.009623 0.029747 0.000000 -0.004631 0.000000
# 4 0.000000 0.000000 0.000000 0.041045 0.000000 -0.013095
# 5 -0.000488 0.000987 -0.004631 0.000000 0.023473 0.000000
# 6 0.000000 0.000000 0.000000 -0.013095 0.000000 0.040781
#
#
# Mechanical properties :
#
#
# Convention : Reuss Voigt Hill
#
# Bulk Modulus (GPa) = 14.46911 30.15594 22.31253
# Shear Modulus (GPa) = 28.75777 37.75307 33.25542
#
# Velocity S-wave (km/s) = 3.34448 3.83202 3.59652
# Velocity P-wave (km/s) = 4.53233 5.59541 5.09169
#
# Compressibility (1/GPa) = 0.06911273
#
# Stress axis : x y z
#
# Youngs Moduli (GPa) = 166.08860 46.39719 33.61654
#
# Poissons Ratio (x) = 0.08752 0.06188
# Poissons Ratio (y) = 0.31328 -0.32349
# Poissons Ratio (z) = 0.30575 -0.44648
#
# Static dielectric constant tensor:
#      x y z
#    x 4.886130 0.000000 0.104500 
#    y 0.000000 5.086370 0.000000 
#    z 0.104500 0.000000 4.411110 
# 
# 
# High freq. dielectric constant tensor:
#      x y z
#    x 2.043040 0.000000 0.006410 
#    y 0.000000 2.044590 0.000000 
#    z 0.006410 0.000000 2.000980 
# 
# From -- ./inp_files/7925.got.cif
#   From: 2010.03.12/outbox.cif.g09.slc.cpg/sg4_4_cif.got.tgz:7925.got - 2010.03.31 09:31:35.
