data_PCOD8046955
_publ_section_title
;
Structure prediction by ZEFSAII (Michael W. Deem and Ramdas Pophale) SiO2 
 PCOD8046955
Probable space group: P 21
;
_chemical_formula_sum "Si O2"
_cell_formula_units_Z 14
_cell_length_a 5.400308
_cell_length_b 12.274873
_cell_length_c 9.264554
_cell_angle_alpha 90.000000
_cell_angle_beta 78.911183
_cell_angle_gamma 90.000000
_cell_volume 602.663970
_symmetry_space_group_name_H-M "P 21"
_symmetry_group_IT_number 4
_symmetry_cell_setting 'monoclinic'
loop_
_space_group_symop_operation_xyz
x,y,z
-x,1/2+y,-z
loop_
_atom_site_type_symbol
_atom_site_label
_atom_site_fract_x
_atom_site_fract_y
_atom_site_fract_z
Si Si1 0.537965 0.167420 0.820136
Si Si2 0.498756 0.396839 0.875885
Si Si3 0.215532 0.521290 0.680858
Si Si4 0.143578 0.457428 0.154708
Si Si5 0.846917 0.563122 0.953461
Si Si6 0.536617 0.215852 0.507408
Si Si7 0.051799 0.354654 0.469471
O O1 0.658421 0.285960 0.838839
O O2 0.437139 0.164839 0.668153
O O3 0.742621 0.075740 0.822340
O O4 0.298804 0.162948 0.956677
O O5 0.336795 0.417252 0.748655
O O6 0.675292 0.500378 0.859181
O O7 0.342335 0.386715 0.042138
O O8 0.407617 0.609264 0.594920
O O9 0.048152 0.461188 0.575040
O O10 0.077276 0.594262 0.822099
O O11 0.054746 0.395294 0.305133
O O12 0.907463 0.479670 0.077093
O O13 0.307805 0.284328 0.463285
O O14 0.793231 0.285333 0.510862
#
# Coordination Sequence:
#
# PCOD8046955 Si02
#       7
#     2   2   2   2   2   2   2
#     4  11  23  45  73 102 143 197 246 298 374 432
#     4  10  23  45  70 102 145 194 243 305 366 429
#     4  11  25  48  72 109 149 187 254 303 366 438
#     4  10  25  43  69 108 142 193 240 309 355 450
#     4  10  25  45  72 100 147 194 244 309 360 440
#     4  12  29  44  79 109 151 195 244 301 377 429
#     4  12  28  48  75 114 147 196 241 311 366 436
#
# _framework density 23.230194999999998
#
# number of rings (size 3 to 8) (size 9 to 14) (size 15 to 20)
#    0.000    1.143    2.857    0.857   10.000    4.571 
#    0.000    0.000    0.000    0.000    0.000    0.000 
#    0.000    0.000    0.000    0.000    0.000    0.000 
#
# Total GULP energy -173458.077677 kJ/mol
# GULP energy per Si atom -12389.862691 kJ/mol
# Density = 2.317732 g / cm^3
# Si number density = 23.230195 Si / 1000 Ang^3
#
#
#
# Elastic Constant Matrix: (Units=GPa)
#
#
# Indices 1 2 3 4 5 6 
#
# 1 73.8696 14.1355 7.1953 0.0000 -1.3180 0.0000
# 2 14.1355 85.1430 45.3184 0.0000 -19.0595 0.0000
# 3 7.1953 45.3184 130.3055 0.0000 4.0710 0.0000
# 4 0.0000 0.0000 0.0000 34.4912 0.0000 -2.7113
# 5 -1.3180 -19.0595 4.0710 0.0000 25.6903 0.0000
# 6 0.0000 0.0000 0.0000 -2.7113 0.0000 12.4841
#
#
#
# Elastic Compliance Matrix: (Units=1/GPa)
#
#
# Indices 1 2 3 4 5 6 
#
# 1 0.014018 -0.002751 0.000225 0.000000 -0.001357 0.000000
# 2 -0.002751 0.019414 -0.007081 0.000000 0.015384 0.000000
# 3 0.000225 -0.007081 0.010339 0.000000 -0.006880 0.000000
# 4 0.000000 0.000000 0.000000 0.029497 0.000000 0.006406
# 5 -0.001357 0.015384 -0.006880 0.000000 0.051359 0.000000
# 6 0.000000 0.000000 0.000000 0.006406 0.000000 0.081493
#
#
# Mechanical properties :
#
#
# Convention : Reuss Voigt Hill
#
# Bulk Modulus (GPa) = 40.71956 46.95738 43.83847
# Shear Modulus (GPa) = 21.41153 29.37772 25.39462
#
# Velocity S-wave (km/s) = 3.03926 3.56003 3.30990
# Velocity P-wave (km/s) = 5.46653 6.09559 5.78961
#
# Compressibility (1/GPa) = 0.02455822
#
# Stress axis : x y z
#
# Youngs Moduli (GPa) = 71.33873 51.50852 96.71779
#
# Poissons Ratio (x) = 0.14169 -0.02177
# Poissons Ratio (y) = 0.19624 0.68483
# Poissons Ratio (z) = -0.01606 0.36472
#
# Static dielectric constant tensor:
#      x y z
#    x 4.195680 0.000000 -0.047850 
#    y 0.000000 4.029730 0.000000 
#    z -0.047850 0.000000 4.561240 
# 
# 
# High freq. dielectric constant tensor:
#      x y z
#    x 1.903180 0.000000 -0.000500 
#    y 0.000000 1.913040 0.000000 
#    z -0.000500 0.000000 1.949030 
# 
# From -- ./inp_files/1123.got.cif
#   From: 2010.03.12/outbox.cif.g09.slc.cpg/sg4_1_cif.got.tgz:1123.got - 2010.03.31 09:31:35.
