data_PCOD8046886
_publ_section_title
;
Structure prediction by ZEFSAII (Michael W. Deem and Ramdas Pophale) SiO2 
 PCOD8046886
Probable space group: P 21
;
_chemical_formula_sum "Si O2"
_cell_formula_units_Z 12
_cell_length_a 5.083836
_cell_length_b 11.477692
_cell_length_c 8.800830
_cell_angle_alpha 90.000000
_cell_angle_beta 70.563214
_cell_angle_gamma 90.000000
_cell_volume 484.267877
_symmetry_space_group_name_H-M "P 21"
_symmetry_group_IT_number 4
_symmetry_cell_setting 'monoclinic'
loop_
_space_group_symop_operation_xyz
x,y,z
-x,1/2+y,-z
loop_
_atom_site_type_symbol
_atom_site_label
_atom_site_fract_x
_atom_site_fract_y
_atom_site_fract_z
Si Si1 0.160971 0.904240 0.837375
Si Si2 0.448946 0.259702 0.417235
Si Si3 0.461318 0.134149 0.736626
Si Si4 0.491626 0.018141 0.316131
Si Si5 0.547839 0.845020 0.035549
Si Si6 0.883983 0.969996 0.514099
O O1 0.290224 0.846138 0.660509
O O2 0.204952 0.044389 0.815008
O O3 0.302227 0.852356 0.961128
O O4 0.840536 0.866897 0.897430
O O5 0.428997 0.212191 0.592318
O O6 0.472026 0.156385 0.289167
O O7 0.172229 0.334743 0.435402
O O8 0.478277 0.220800 0.876126
O O9 0.743416 0.056747 0.665019
O O10 0.510919 0.952361 0.156099
O O11 0.759039 0.992730 0.369920
O O12 0.212400 0.985423 0.460611
#
# Coordination Sequence:
#
# PCOD8046886 Si02
#       6
#     2   2   2   2   2   2
#     4  11  29  47  71 110 143 186 241 289 363 431
#     4  10  24  47  75 102 141 187 246 296 345 422
#     4  10  25  48  77 101 147 187 241 299 347 424
#     4  11  24  40  71 100 140 182 232 288 356 408
#     4  12  27  47  72 104 150 189 232 291 371 417
#     4  10  23  43  68 109 129 183 242 291 338 410
#
# _framework density 24.779675000000001
#
# number of rings (size 3 to 8) (size 9 to 14) (size 15 to 20)
#    0.000    1.333    1.667    1.000    7.000   12.000 
#    0.000    0.000    0.000    0.000    0.000    0.000 
#    0.000    0.000    0.000    0.000    0.000    0.000 
#
# Total GULP energy -148764.494401 kJ/mol
# GULP energy per Si atom -12397.041200 kJ/mol
# Density = 2.472328 g / cm^3
# Si number density = 24.779675 Si / 1000 Ang^3
#
#
#
# Elastic Constant Matrix: (Units=GPa)
#
#
# Indices 1 2 3 4 5 6 
#
# 1 54.0504 3.9220 19.9000 0.0000 9.2544 0.0000
# 2 3.9220 165.2053 45.6503 0.0000 11.0678 0.0000
# 3 19.9000 45.6503 85.1388 0.0000 8.3525 0.0000
# 4 0.0000 0.0000 0.0000 61.0309 0.0000 -8.2340
# 5 9.2544 11.0678 8.3525 0.0000 34.5752 0.0000
# 6 0.0000 0.0000 0.0000 -8.2340 0.0000 8.5342
#
#
#
# Elastic Compliance Matrix: (Units=1/GPa)
#
#
# Indices 1 2 3 4 5 6 
#
# 1 0.021124 0.001238 -0.005129 0.000000 -0.004811 0.000000
# 2 0.001238 0.007244 -0.004009 0.000000 -0.001682 0.000000
# 3 -0.005129 -0.004009 0.015193 0.000000 -0.001014 0.000000
# 4 0.000000 0.000000 0.000000 0.018837 0.000000 0.018174
# 5 -0.004811 -0.001682 -0.001014 0.000000 0.030994 0.000000
# 6 0.000000 0.000000 0.000000 0.018174 0.000000 0.134711
#
#
# Mechanical properties :
#
#
# Convention : Reuss Voigt Hill
#
# Bulk Modulus (GPa) = 36.02091 49.25990 42.64040
# Shear Modulus (GPa) = 19.75072 36.48955 28.12013
#
# Velocity S-wave (km/s) = 2.82628 3.84156 3.37234
# Velocity P-wave (km/s) = 5.02180 6.29278 5.69287
#
# Compressibility (1/GPa) = 0.02776165
#
# Stress axis : x y z
#
# Youngs Moduli (GPa) = 47.34038 138.04485 65.81868
#
# Poissons Ratio (x) = -0.17092 0.33760
# Poissons Ratio (y) = -0.05862 0.26384
# Poissons Ratio (z) = 0.24282 0.55336
#
# Static dielectric constant tensor:
#      x y z
#    x 4.184620 0.000000 -0.117700 
#    y 0.000000 5.069810 0.000000 
#    z -0.117700 0.000000 4.483240 
# 
# 
# High freq. dielectric constant tensor:
#      x y z
#    x 1.976700 0.000000 0.003510 
#    y 0.000000 2.011940 0.000000 
#    z 0.003510 0.000000 1.990700 
# 
# From -- ./inp_files/2907.got.cif
#   From: 2010.03.12/outbox.cif.g09.slc.cpg/sg4_2_cif.got.tgz:2907.got - 2010.03.31 09:31:35.
