data_PCOD8046340
_publ_section_title
;
Structure prediction by ZEFSAII (Michael W. Deem and Ramdas Pophale) SiO2 
 PCOD8046340
Probable space group: P 21
;
_chemical_formula_sum "Si O2"
_cell_formula_units_Z 16
_cell_length_a 18.664870
_cell_length_b 5.044849
_cell_length_c 23.110128
_cell_angle_alpha 90.000000
_cell_angle_beta 162.633829
_cell_angle_gamma 90.000000
_cell_volume 649.511498
_symmetry_space_group_name_H-M "P 21"
_symmetry_group_IT_number 4
_symmetry_cell_setting 'monoclinic'
loop_
_space_group_symop_operation_xyz
x,y,z
-x,1/2+y,-z
loop_
_atom_site_type_symbol
_atom_site_label
_atom_site_fract_x
_atom_site_fract_y
_atom_site_fract_z
Si Si1 0.136948 0.836610 0.621032
Si Si2 0.451509 0.688046 0.663790
Si Si3 0.572901 0.529754 0.252403
Si Si4 0.826464 0.346250 0.109394
Si Si5 0.889802 0.351334 0.696188
Si Si6 0.858682 0.491925 0.898338
Si Si7 0.362623 0.856509 0.386425
Si Si8 0.982249 0.835333 0.622453
O O1 0.382667 0.868193 0.773472
O O2 0.065564 0.529169 0.562147
O O3 0.153748 0.929870 0.701547
O O4 0.565031 0.866673 0.803338
O O5 0.339222 0.851243 0.523547
O O6 0.674528 0.516024 0.810641
O O7 0.230441 0.527934 0.520638
O O8 0.831647 0.588339 0.480889
O O9 0.424890 0.790129 0.117489
O O10 0.894599 0.654951 0.156735
O O11 0.835153 0.268229 0.184560
O O12 0.021095 0.152119 0.230586
O O13 0.818371 0.249140 0.704343
O O14 0.740427 0.319957 0.756393
O O15 0.928125 0.779819 0.924362
O O16 0.589609 0.663302 0.563296
#
# Coordination Sequence:
#
# PCOD8046340 Si02
#       8
#     2   2   2   2   2   2   2   2
#     4  10  21  41  69 105 136 187 236 283 359 424
#     4  11  24  47  72  97 142 190 236 290 369 416
#     4  11  24  43  73 104 142 189 234 298 354 426
#     4  11  26  42  69 108 137 186 240 287 356 420
#     4  11  25  46  68 101 136 183 244 293 346 434
#     4  12  30  47  68 107 144 184 240 297 361 422
#     4  12  25  46  72  96 135 187 237 290 358 423
#     4  10  23  44  71 100 146 186 233 296 349 435
#
# _framework density 24.633899
#
# number of rings (size 3 to 8) (size 9 to 14) (size 15 to 20)
#    0.000    1.000    3.750    1.500    7.000    0.000 
#    0.000    7.500    0.000    0.000    0.000    0.000 
#    0.000    0.000    0.000    0.000    0.000    0.000 
#
# Total GULP energy -198215.437116 kJ/mol
# GULP energy per Si atom -12388.464820 kJ/mol
# Density = 2.457783 g / cm^3
# Si number density = 24.633899 Si / 1000 Ang^3
#
#
#
# Elastic Constant Matrix: (Units=GPa)
#
#
# Indices 1 2 3 4 5 6 
#
# 1 174.6014 16.4868 37.9878 0.0000 -13.7145 0.0000
# 2 16.4868 72.9383 5.4203 0.0000 0.0796 0.0000
# 3 37.9878 5.4203 59.1569 0.0000 -18.4303 0.0000
# 4 0.0000 0.0000 0.0000 39.4227 0.0000 -1.3142
# 5 -13.7145 0.0796 -18.4303 0.0000 31.1728 0.0000
# 6 0.0000 0.0000 0.0000 -1.3142 0.0000 37.1556
#
#
#
# Elastic Compliance Matrix: (Units=1/GPa)
#
#
# Indices 1 2 3 4 5 6 
#
# 1 0.006771 -0.001230 -0.004053 0.000000 0.000586 0.000000
# 2 -0.001230 0.014051 -0.000830 0.000000 -0.001068 0.000000
# 3 -0.004053 -0.000830 0.023324 0.000000 0.012009 0.000000
# 4 0.000000 0.000000 0.000000 0.025396 0.000000 0.000898
# 5 0.000586 -0.001068 0.012009 0.000000 0.039440 0.000000
# 6 0.000000 0.000000 0.000000 0.000898 0.000000 0.026946
#
#
# Mechanical properties :
#
#
# Convention : Reuss Voigt Hill
#
# Bulk Modulus (GPa) = 31.32814 47.38737 39.35775
# Shear Modulus (GPa) = 31.48718 38.00368 34.74543
#
# Velocity S-wave (km/s) = 3.57908 3.93203 3.75970
# Velocity P-wave (km/s) = 5.46121 6.31608 5.90414
#
# Compressibility (1/GPa) = 0.03192019
#
# Stress axis : x y z
#
# Youngs Moduli (GPa) = 147.68220 71.16876 42.87376
#
# Poissons Ratio (x) = 0.08754 0.17377
# Poissons Ratio (y) = 0.18165 0.03560
# Poissons Ratio (z) = 0.59855 0.05909
#
# Static dielectric constant tensor:
#      x y z
#    x 4.959080 0.000000 -0.259300 
#    y 0.000000 4.358840 0.000000 
#    z -0.259300 0.000000 4.218150 
# 
# 
# High freq. dielectric constant tensor:
#      x y z
#    x 2.000320 0.000000 -0.014730 
#    y 0.000000 1.974420 0.000000 
#    z -0.014730 0.000000 1.951550 
# 
# From -- ./inp_files/15889.got.cif
#   From: 2010.03.12/outbox.cif.g09.slc.cpg/sg4_8_cif.got.tgz:15889.got - 2010.03.31 09:31:35.
