data_PCOD8046825
_publ_section_title
;
Structure prediction by ZEFSAII (Michael W. Deem and Ramdas Pophale) SiO2 
 PCOD8046825
Probable space group: P 21
;
_chemical_formula_sum "Si O2"
_cell_formula_units_Z 10
_cell_length_a 11.391330
_cell_length_b 8.368975
_cell_length_c 12.341859
_cell_angle_alpha 90.000000
_cell_angle_beta 157.363799
_cell_angle_gamma 90.000000
_cell_volume 452.846481
_symmetry_space_group_name_H-M "P 21"
_symmetry_group_IT_number 4
_symmetry_cell_setting 'monoclinic'
loop_
_space_group_symop_operation_xyz
x,y,z
-x,1/2+y,-z
loop_
_atom_site_type_symbol
_atom_site_label
_atom_site_fract_x
_atom_site_fract_y
_atom_site_fract_z
Si Si1 0.069514 0.208970 0.610765
Si Si2 0.436185 0.901259 0.404970
Si Si3 0.873727 0.700959 0.904967
Si Si4 0.347937 0.893068 0.889233
Si Si5 0.015885 0.551072 0.250008
O O1 0.803830 0.238311 0.297444
O O2 0.915892 0.183265 0.598679
O O3 0.268578 0.051005 0.749997
O O4 0.291124 0.363714 0.797441
O O5 0.620460 0.838817 0.667164
O O6 0.216972 0.051121 0.250015
O O7 0.673945 0.959993 0.516985
O O8 0.213823 0.763406 0.167155
O O9 0.860014 0.642190 0.016992
O O10 0.218472 0.918837 0.901299
#
# Coordination Sequence:
#
# PCOD8046825 Si02
#       5
#     2   2   2   2   2
#     4  10  23  41  72  99 134 177 223 277 336 408
#     4  12  24  44  73 100 137 186 235 284 344 412
#     4  12  24  44  73 100 137 186 235 284 344 412
#     4  10  23  41  72  99 134 177 223 277 336 408
#     4  10  26  42  80  88 154 178 220 286 366 376
#
# _framework density 22.082539000000001
#
# number of rings (size 3 to 8) (size 9 to 14) (size 15 to 20)
#    1.200    0.000    4.000    1.200    5.600    0.000 
#    0.000    8.000    4.400    0.000    0.000    0.000 
#    0.000    0.000    0.000    0.000    0.000    0.000 
#
# Total GULP energy -123897.372545 kJ/mol
# GULP energy per Si atom -12389.737255 kJ/mol
# Density = 2.203228 g / cm^3
# Si number density = 22.082539 Si / 1000 Ang^3
#
#
#
# Elastic Constant Matrix: (Units=GPa)
#
#
# Indices 1 2 3 4 5 6 
#
# 1 111.0195 64.9002 60.5452 0.0000 -2.5384 0.0000
# 2 64.9002 82.6246 41.5039 0.0000 -1.8368 0.0000
# 3 60.5452 41.5039 142.1189 0.0000 5.0814 0.0000
# 4 0.0000 0.0000 0.0000 69.1539 0.0000 2.9709
# 5 -2.5384 -1.8368 5.0814 0.0000 9.7264 0.0000
# 6 0.0000 0.0000 0.0000 2.9709 0.0000 31.9122
#
#
#
# Elastic Compliance Matrix: (Units=1/GPa)
#
#
# Indices 1 2 3 4 5 6 
#
# 1 0.018887 -0.012414 -0.004599 0.000000 0.004987 0.000000
# 2 -0.012414 0.022580 -0.001368 0.000000 0.001739 0.000000
# 3 -0.004599 -0.001368 0.009627 0.000000 -0.006488 0.000000
# 4 0.000000 0.000000 0.000000 0.014519 0.000000 -0.001352
# 5 0.004987 0.001739 -0.006488 0.000000 0.107833 0.000000
# 6 0.000000 0.000000 0.000000 -0.001352 0.000000 0.031462
#
#
# Mechanical properties :
#
#
# Convention : Reuss Voigt Hill
#
# Bulk Modulus (GPa) = 69.77474 74.40684 72.09079
# Shear Modulus (GPa) = 20.28851 33.41274 26.85062
#
# Velocity S-wave (km/s) = 3.03439 3.89406 3.49079
# Velocity P-wave (km/s) = 6.62892 7.34754 6.99746
#
# Compressibility (1/GPa) = 0.01433184
#
# Stress axis : x y z
#
# Youngs Moduli (GPa) = 52.94756 44.28773 103.87468
#
# Poissons Ratio (x) = 0.54979 0.47772
# Poissons Ratio (y) = 0.65730 0.14206
# Poissons Ratio (z) = 0.24351 0.06057
#
# Static dielectric constant tensor:
#      x y z
#    x 3.477200 0.000000 0.058200 
#    y 0.000000 4.265870 0.000000 
#    z 0.058200 0.000000 4.204940 
# 
# 
# High freq. dielectric constant tensor:
#      x y z
#    x 1.816880 0.000000 0.006220 
#    y 0.000000 1.872900 0.000000 
#    z 0.006220 0.000000 1.894620 
# 
# From -- ./inp_files/2334.got.cif
#   From: 2010.03.12/outbox.cif.g09.slc.cpg/sg4_2_cif.got.tgz:2334.got - 2010.03.31 09:31:35.
