data_PCOD8046759
_publ_section_title
;
Structure prediction by ZEFSAII (Michael W. Deem and Ramdas Pophale) SiO2 
 PCOD8046759
Probable space group: P 21
;
_chemical_formula_sum "Si O2"
_cell_formula_units_Z 14
_cell_length_a 5.599060
_cell_length_b 9.306259
_cell_length_c 12.018478
_cell_angle_alpha 90.000000
_cell_angle_beta 64.332689
_cell_angle_gamma 90.000000
_cell_volume 564.443927
_symmetry_space_group_name_H-M "P 21"
_symmetry_group_IT_number 4
_symmetry_cell_setting 'monoclinic'
loop_
_space_group_symop_operation_xyz
x,y,z
-x,1/2+y,-z
loop_
_atom_site_type_symbol
_atom_site_label
_atom_site_fract_x
_atom_site_fract_y
_atom_site_fract_z
Si Si1 0.917774 0.389740 0.221779
Si Si2 0.672288 0.976626 0.232173
Si Si3 0.146386 0.864453 0.428392
Si Si4 0.589892 0.676622 0.897243
Si Si5 0.812193 0.414316 0.989220
Si Si6 0.302656 0.677259 0.588997
Si Si7 0.121859 0.111034 0.590349
O O1 0.663398 0.311054 0.330310
O O2 0.982245 0.533616 0.277861
O O3 0.164339 0.279431 0.181631
O O4 0.845440 0.437790 0.113396
O O5 0.441652 0.870830 0.319347
O O6 0.894182 0.889868 0.120100
O O7 0.534013 0.102284 0.187013
O O8 0.819269 0.047359 0.311075
O O9 0.120870 0.742907 0.530067
O O10 0.966173 0.778010 0.376946
O O11 0.031384 0.015474 0.497969
O O12 0.675826 0.556315 0.968132
O O13 0.362879 0.773991 0.001018
O O14 0.564365 0.614316 0.481339
#
# Coordination Sequence:
#
# PCOD8046759 Si02
#       7
#     2   2   2   2   2   2   2
#     4  11  25  50  77 109 155 192 250 313 371 446
#     4  11  25  50  77 109 155 192 250 313 371 446
#     4  10  25  45  77 110 148 197 245 300 372 446
#     4  12  26  50  82 106 150 202 248 312 382 442
#     4  12  26  52  80 108 150 196 254 316 378 440
#     4  10  22  46  72 106 150 196 232 308 362 434
#     4  10  25  45  77 110 148 197 245 300 372 446
#
# _framework density 24.803173999999999
#
# number of rings (size 3 to 8) (size 9 to 14) (size 15 to 20)
#    0.000    1.143    2.857    0.857    8.000    5.714 
#   25.714    0.000    0.000    0.000    0.000    0.000 
#    0.000    0.000    0.000    0.000    0.000    0.000 
#
# Total GULP energy -173454.458280 kJ/mol
# GULP energy per Si atom -12389.604163 kJ/mol
# Density = 2.474672 g / cm^3
# Si number density = 24.803174 Si / 1000 Ang^3
#
#
#
# Elastic Constant Matrix: (Units=GPa)
#
#
# Indices 1 2 3 4 5 6 
#
# 1 46.1617 31.9266 20.1579 0.0000 -20.2281 0.0000
# 2 31.9266 121.7122 43.6069 0.0000 -9.1656 0.0000
# 3 20.1579 43.6069 114.5697 0.0000 -14.3474 0.0000
# 4 0.0000 0.0000 0.0000 39.0657 0.0000 -10.3851
# 5 -20.2281 -9.1656 -14.3474 0.0000 12.3300 0.0000
# 6 0.0000 0.0000 0.0000 -10.3851 0.0000 51.3764
#
#
#
# Elastic Compliance Matrix: (Units=1/GPa)
#
#
# Indices 1 2 3 4 5 6 
#
# 1 0.102787 -0.017849 0.009557 0.000000 0.166481 0.000000
# 2 -0.017849 0.012732 -0.004902 0.000000 -0.025522 0.000000
# 3 0.009557 -0.004902 0.012197 0.000000 0.026228 0.000000
# 4 0.000000 0.000000 0.000000 0.027052 0.000000 0.005468
# 5 0.166481 -0.025522 0.026228 0.000000 0.365773 0.000000
# 6 0.000000 0.000000 0.000000 0.005468 0.000000 0.020570
#
#
# Mechanical properties :
#
#
# Convention : Reuss Voigt Hill
#
# Bulk Modulus (GPa) = 9.86893 52.64737 31.25815
# Shear Modulus (GPa) = 8.31567 33.00457 20.66012
#
# Velocity S-wave (km/s) = 1.83301 3.65178 2.88924
# Velocity P-wave (km/s) = 2.90989 6.24922 4.87444
#
# Compressibility (1/GPa) = 0.10132810
#
# Stress axis : x y z
#
# Youngs Moduli (GPa) = 9.72889 78.53944 81.98770
#
# Poissons Ratio (x) = 1.40188 -0.78357
# Poissons Ratio (y) = 0.17365 0.40188
# Poissons Ratio (z) = -0.09298 0.38498
#
# Static dielectric constant tensor:
#      x y z
#    x 4.264160 0.000000 0.065970 
#    y 0.000000 4.775050 0.000000 
#    z 0.065970 0.000000 4.636770 
# 
# 
# High freq. dielectric constant tensor:
#      x y z
#    x 1.969480 0.000000 0.004050 
#    y 0.000000 2.004290 0.000000 
#    z 0.004050 0.000000 1.997240 
# 
# From -- ./inp_files/10241.got.cif
#   From: 2010.03.12/outbox.cif.g09.slc.cpg/sg4_6_cif.got.tgz:10241.got - 2010.03.31 09:31:35.
