data_PCOD8046564
_publ_section_title
;
Structure prediction by ZEFSAII (Michael W. Deem and Ramdas Pophale) SiO2 
 PCOD8046564
Probable space group: P 21
;
_chemical_formula_sum "Si O2"
_cell_formula_units_Z 14
_cell_length_a 18.465533
_cell_length_b 5.248569
_cell_length_c 15.171540
_cell_angle_alpha 90.000000
_cell_angle_beta 22.789312
_cell_angle_gamma 90.000000
_cell_volume 569.546027
_symmetry_space_group_name_H-M "P 21"
_symmetry_group_IT_number 4
_symmetry_cell_setting 'monoclinic'
loop_
_space_group_symop_operation_xyz
x,y,z
-x,1/2+y,-z
loop_
_atom_site_type_symbol
_atom_site_label
_atom_site_fract_x
_atom_site_fract_y
_atom_site_fract_z
Si Si1 0.275582 0.221910 0.298421
Si Si2 0.176745 0.841333 0.731276
Si Si3 0.711233 0.090819 0.010502
Si Si4 0.176090 0.074865 0.909903
Si Si5 0.280012 0.716633 0.194044
Si Si6 0.535765 0.606071 0.272878
Si Si7 0.063251 0.200840 0.714277
O O1 0.199575 0.470611 0.334032
O O2 0.206547 0.252618 0.475201
O O3 0.201386 0.971332 0.329611
O O4 0.497353 0.216839 0.054378
O O5 0.312943 0.620006 0.540224
O O6 0.955102 0.784670 0.989311
O O7 0.186450 0.074666 0.652541
O O8 0.250327 0.898670 0.747093
O O9 0.788091 0.189055 0.830289
O O10 0.890580 0.029805 0.870876
O O11 0.582759 0.319107 0.192696
O O12 0.593895 0.825718 0.136183
O O13 0.357148 0.181877 0.756686
O O14 0.035284 0.954125 0.139603
#
# Coordination Sequence:
#
# PCOD8046564 Si02
#       7
#     2   2   2   2   2   2   2
#     4  10  23  39  65  97 132 182 229 283 351 419
#     4  12  25  45  75  97 146 191 233 300 359 416
#     4  11  24  46  68 104 143 178 238 294 341 433
#     4  11  26  46  67 108 141 181 249 294 349 431
#     4  10  22  41  63  98 137 173 234 285 341 426
#     4  11  27  44  73 104 142 187 236 287 358 419
#     4  11  25  43  69  98 141 184 235 295 353 420
#
# _framework density 24.580983
#
# number of rings (size 3 to 8) (size 9 to 14) (size 15 to 20)
#    0.000    1.143    2.857    1.714    6.000    5.714 
#    0.000    0.000    0.000    0.000    0.000    0.000 
#    0.000    0.000    0.000    0.000    0.000    0.000 
#
# Total GULP energy -173567.206984 kJ/mol
# GULP energy per Si atom -12397.657642 kJ/mol
# Density = 2.452504 g / cm^3
# Si number density = 24.580983 Si / 1000 Ang^3
#
#
#
# Elastic Constant Matrix: (Units=GPa)
#
#
# Indices 1 2 3 4 5 6 
#
# 1 86.6551 11.6351 14.7383 0.0000 19.5372 0.0000
# 2 11.6351 107.9411 23.8673 0.0000 9.2480 0.0000
# 3 14.7383 23.8673 84.5742 0.0000 22.5108 0.0000
# 4 0.0000 0.0000 0.0000 33.4521 0.0000 4.3022
# 5 19.5372 9.2480 22.5108 0.0000 44.6774 0.0000
# 6 0.0000 0.0000 0.0000 4.3022 0.0000 30.9888
#
#
#
# Elastic Compliance Matrix: (Units=1/GPa)
#
#
# Indices 1 2 3 4 5 6 
#
# 1 0.012921 -0.000807 -0.000652 0.000000 -0.005155 0.000000
# 2 -0.000807 0.009952 -0.002556 0.000000 -0.000419 0.000000
# 3 -0.000652 -0.002556 0.014369 0.000000 -0.006426 0.000000
# 4 0.000000 0.000000 0.000000 0.030437 0.000000 -0.004226
# 5 -0.005155 -0.000419 -0.006426 0.000000 0.027961 0.000000
# 6 0.000000 0.000000 0.000000 -0.004226 0.000000 0.032856
#
#
# Mechanical properties :
#
#
# Convention : Reuss Voigt Hill
#
# Bulk Modulus (GPa) = 34.23196 42.18353 38.20775
# Shear Modulus (GPa) = 34.18427 37.08565 35.63496
#
# Velocity S-wave (km/s) = 3.73323 3.88843 3.81162
# Velocity P-wave (km/s) = 5.70430 6.11213 5.91174
#
# Compressibility (1/GPa) = 0.02921247
#
# Stress axis : x y z
#
# Youngs Moduli (GPa) = 77.39061 100.47748 69.59278
#
# Poissons Ratio (x) = 0.08109 0.04537
# Poissons Ratio (y) = 0.06245 0.17791
# Poissons Ratio (z) = 0.05045 0.25686
#
# Static dielectric constant tensor:
#      x y z
#    x 4.660460 0.000000 0.018660 
#    y 0.000000 4.306480 0.000000 
#    z 0.018660 0.000000 4.283290 
# 
# 
# High freq. dielectric constant tensor:
#      x y z
#    x 1.986730 0.000000 0.001840 
#    y 0.000000 1.968690 0.000000 
#    z 0.001840 0.000000 1.977570 
# 
# From -- ./inp_files/10150.got.cif
#   From: 2010.03.12/outbox.cif.g09.slc.cpg/sg4_6_cif.got.tgz:10150.got - 2010.03.31 09:31:35.
