data_PCOD8046762
_publ_section_title
;
Structure prediction by ZEFSAII (Michael W. Deem and Ramdas Pophale) SiO2 
 PCOD8046762
Probable space group: P 21
;
_chemical_formula_sum "Si O2"
_cell_formula_units_Z 16
_cell_length_a 11.076644
_cell_length_b 10.311915
_cell_length_c 9.074685
_cell_angle_alpha 90.000000
_cell_angle_beta 37.564894
_cell_angle_gamma 90.000000
_cell_volume 631.926400
_symmetry_space_group_name_H-M "P 21"
_symmetry_group_IT_number 4
_symmetry_cell_setting 'monoclinic'
loop_
_space_group_symop_operation_xyz
x,y,z
-x,1/2+y,-z
loop_
_atom_site_type_symbol
_atom_site_label
_atom_site_fract_x
_atom_site_fract_y
_atom_site_fract_z
Si Si1 0.642676 0.737030 0.544387
Si Si2 0.931756 0.855558 0.833547
Si Si3 0.840305 0.974759 0.237378
Si Si4 0.161281 0.080693 0.106539
Si Si5 0.491792 0.359681 0.864517
Si Si6 0.922254 0.573260 0.475178
Si Si7 0.382079 0.643003 0.025486
Si Si8 0.479599 0.672395 0.402444
O O1 0.429840 0.720270 0.828637
O O2 0.630076 0.674665 0.394944
O O3 0.813561 0.680398 0.483620
O O4 0.689599 0.886859 0.475990
O O5 0.975595 0.704454 0.812043
O O6 0.106952 0.932319 0.577252
O O7 0.745451 0.852170 0.902176
O O8 0.877508 0.929368 0.035790
O O9 0.729012 0.112893 0.347204
O O10 0.049651 0.969722 0.121595
O O11 0.154719 0.057900 0.286177
O O12 0.393248 0.090684 0.840965
O O13 0.530346 0.512019 0.874591
O O14 0.560706 0.316358 0.630470
O O15 0.574470 0.246345 0.889119
O O16 0.154641 0.605879 0.249992
#
# Coordination Sequence:
#
# PCOD8046762 Si02
#       8
#     2   2   2   2   2   2   2   2
#     4  12  26  45  74 104 151 190 249 312 366 455
#     4  10  23  49  70 106 150 185 251 311 366 452
#     4  12  26  47  75 103 148 195 251 312 375 447
#     4  11  25  46  74 107 145 191 245 310 372 447
#     4  10  22  46  73 105 148 190 243 307 365 443
#     4  11  26  46  75 107 147 196 241 304 380 440
#     4  11  26  46  75 108 151 195 251 310 376 448
#     4  11  24  47  72 108 144 196 243 310 376 444
#
# _framework density 25.319406000000001
#
# number of rings (size 3 to 8) (size 9 to 14) (size 15 to 20)
#    0.000    1.000    2.500    4.500    7.000    3.000 
#    4.500    0.000    0.000    0.000    0.000    0.000 
#    0.000    0.000    0.000    0.000    0.000    0.000 
#
# Total GULP energy -198222.897185 kJ/mol
# GULP energy per Si atom -12388.931074 kJ/mol
# Density = 2.526178 g / cm^3
# Si number density = 25.319406 Si / 1000 Ang^3
#
#
#
# Elastic Constant Matrix: (Units=GPa)
#
#
# Indices 1 2 3 4 5 6 
#
# 1 123.2799 32.7947 35.6836 0.0000 20.3589 0.0000
# 2 32.7947 64.2870 12.6668 0.0000 10.3603 0.0000
# 3 35.6836 12.6668 84.5618 0.0000 36.8588 0.0000
# 4 0.0000 0.0000 0.0000 46.0267 0.0000 3.0003
# 5 20.3589 10.3603 36.8588 0.0000 26.9205 0.0000
# 6 0.0000 0.0000 0.0000 3.0003 0.0000 41.3116
#
#
#
# Elastic Compliance Matrix: (Units=1/GPa)
#
#
# Indices 1 2 3 4 5 6 
#
# 1 0.010475 -0.004401 -0.002595 0.000000 -0.002675 0.000000
# 2 -0.004401 0.018452 0.001830 0.000000 -0.006278 0.000000
# 3 -0.002595 0.001830 0.030005 0.000000 -0.039823 0.000000
# 4 0.000000 0.000000 0.000000 0.021830 0.000000 -0.001585
# 5 -0.002675 -0.006278 -0.039823 0.000000 0.096110 0.000000
# 6 0.000000 0.000000 0.000000 -0.001585 0.000000 0.024321
#
#
# Mechanical properties :
#
#
# Convention : Reuss Voigt Hill
#
# Bulk Modulus (GPa) = 20.57686 48.26877 34.42281
# Shear Modulus (GPa) = 21.95614 35.58401 28.77008
#
# Velocity S-wave (km/s) = 2.94796 3.75294 3.37454
# Velocity P-wave (km/s) = 4.44206 6.15506 5.36734
#
# Compressibility (1/GPa) = 0.04859828
#
# Stress axis : x y z
#
# Youngs Moduli (GPa) = 95.46176 54.19560 33.32794
#
# Poissons Ratio (x) = 0.23853 0.08649
# Poissons Ratio (y) = 0.42016 -0.06098
# Poissons Ratio (z) = 0.24773 -0.09916
#
# Static dielectric constant tensor:
#      x y z
#    x 4.562610 0.000000 0.086410 
#    y 0.000000 5.211720 0.000000 
#    z 0.086410 0.000000 4.634110 
# 
# 
# High freq. dielectric constant tensor:
#      x y z
#    x 2.021570 0.000000 -0.000690 
#    y 0.000000 2.009460 0.000000 
#    z -0.000690 0.000000 2.015330 
# 
# From -- ./inp_files/8427.got.cif
#   From: 2010.03.12/outbox.cif.g09.slc.cpg/sg4_5_cif.got.tgz:8427.got - 2010.03.31 09:31:35.
