data_PCOD8046430
_publ_section_title
;
Structure prediction by ZEFSAII (Michael W. Deem and Ramdas Pophale) SiO2 
 PCOD8046430
Probable space group: P 21
;
_chemical_formula_sum "Si O2"
_cell_formula_units_Z 16
_cell_length_a 11.547646
_cell_length_b 9.311005
_cell_length_c 13.413812
_cell_angle_alpha 90.000000
_cell_angle_beta 145.746824
_cell_angle_gamma 90.000000
_cell_volume 811.774646
_symmetry_space_group_name_H-M "P 21"
_symmetry_group_IT_number 4
_symmetry_cell_setting 'monoclinic'
loop_
_space_group_symop_operation_xyz
x,y,z
-x,1/2+y,-z
loop_
_atom_site_type_symbol
_atom_site_label
_atom_site_fract_x
_atom_site_fract_y
_atom_site_fract_z
Si Si1 0.156633 0.248840 0.324672
Si Si2 0.118095 0.403416 0.497062
Si Si3 0.064012 0.955536 0.176334
Si Si4 0.760646 0.721193 0.028175
Si Si5 0.926407 0.694111 0.354431
Si Si6 0.373722 0.656837 0.631107
Si Si7 0.045131 0.509574 0.121087
Si Si8 0.604490 0.219222 0.576818
O O1 0.065673 0.313495 0.361326
O O2 0.084911 0.346288 0.181078
O O3 0.403883 0.239346 0.501381
O O4 0.060894 0.091335 0.247012
O O5 0.938943 0.523213 0.391417
O O6 0.331931 0.489242 0.628904
O O7 0.146688 0.291516 0.606438
O O8 0.274259 0.868814 0.341920
O O9 0.863186 0.863257 0.056566
O O10 0.056863 0.012919 0.059018
O O11 0.762971 0.722443 0.149919
O O12 0.885974 0.580653 0.084521
O O13 0.528755 0.720375 0.822973
O O14 0.155709 0.742928 0.481522
O O15 0.461489 0.670378 0.581732
O O16 0.258682 0.596460 0.274239
#
# Coordination Sequence:
#
# PCOD8046430 Si02
#       8
#     2   2   2   2   2   2   2   2
#     4  12  22  37  64  97 132 169 223 260 327 398
#     4  10  23  43  71  89 127 177 216 278 326 376
#     4  11  23  33  62  98 134 170 211 267 324 400
#     4  11  22  43  66  90 134 170 216 271 332 385
#     4  10  22  46  66  90 127 169 225 270 331 375
#     4  10  21  44  70  90 124 177 210 266 334 385
#     4  11  20  40  57  94 135 176 202 268 331 384
#     4  11  21  40  62  94 133 174 213 260 335 397
#
# _framework density 19.709903000000001
#
# number of rings (size 3 to 8) (size 9 to 14) (size 15 to 20)
#    0.750    0.500    5.000    3.750    3.500    0.000 
#    2.250    0.000    0.000    0.000    0.000    0.000 
#    0.000    0.000    0.000    0.000    0.000    0.000 
#
# Total GULP energy -198398.414612 kJ/mol
# GULP energy per Si atom -12399.900913 kJ/mol
# Density = 1.966504 g / cm^3
# Si number density = 19.709903 Si / 1000 Ang^3
#
#
#
# Elastic Constant Matrix: (Units=GPa)
#
#
# Indices 1 2 3 4 5 6 
#
# 1 53.6673 30.9112 30.2119 0.0000 -21.9226 0.0000
# 2 30.9112 124.0708 41.0246 0.0000 -12.8080 0.0000
# 3 30.2119 41.0246 120.8029 0.0000 -14.4733 0.0000
# 4 0.0000 0.0000 0.0000 25.4278 0.0000 -11.0535
# 5 -21.9226 -12.8080 -14.4733 0.0000 35.2472 0.0000
# 6 0.0000 0.0000 0.0000 -11.0535 0.0000 29.9217
#
#
#
# Elastic Compliance Matrix: (Units=1/GPa)
#
#
# Indices 1 2 3 4 5 6 
#
# 1 0.029718 -0.004485 -0.004091 0.000000 0.015174 0.000000
# 2 -0.004485 0.009912 -0.002258 0.000000 -0.000115 0.000000
# 3 -0.004091 -0.002258 0.010165 0.000000 0.000809 0.000000
# 4 0.000000 0.000000 0.000000 0.046850 0.000000 0.017307
# 5 0.015174 -0.000115 0.000809 0.000000 0.038099 0.000000
# 6 0.000000 0.000000 0.000000 0.017307 0.000000 0.039814
#
#
# Mechanical properties :
#
#
# Convention : Reuss Voigt Hill
#
# Bulk Modulus (GPa) = 35.55365 55.87071 45.71218
# Shear Modulus (GPa) = 24.31871 31.21222 27.76546
#
# Velocity S-wave (km/s) = 3.51641 3.98374 3.75735
# Velocity P-wave (km/s) = 5.87915 7.04048 6.48586
#
# Compressibility (1/GPa) = 0.02812651
#
# Stress axis : x y z
#
# Youngs Moduli (GPa) = 33.64952 100.88661 98.37723
#
# Poissons Ratio (x) = 0.45245 0.40249
# Poissons Ratio (y) = 0.15091 0.22217
# Poissons Ratio (z) = 0.13767 0.22783
#
# Static dielectric constant tensor:
#      x y z
#    x 3.249840 0.000000 -0.105740 
#    y 0.000000 3.654650 0.000000 
#    z -0.105740 0.000000 3.608480 
# 
# 
# High freq. dielectric constant tensor:
#      x y z
#    x 1.739520 0.000000 -0.011890 
#    y 0.000000 1.776080 0.000000 
#    z -0.011890 0.000000 1.769300 
# 
# From -- ./inp_files/12151.got.cif
#   From: 2010.03.12/outbox.cif.g09.slc.cpg/sg4_7_cif.got.tgz:12151.got - 2010.03.31 09:31:35.
