data_PCOD8046586
_publ_section_title
;
Structure prediction by ZEFSAII (Michael W. Deem and Ramdas Pophale) SiO2 
 PCOD8046586
Probable space group: P 21
;
_chemical_formula_sum "Si O2"
_cell_formula_units_Z 16
_cell_length_a 10.940402
_cell_length_b 9.759669
_cell_length_c 11.419795
_cell_angle_alpha 90.000000
_cell_angle_beta 146.216031
_cell_angle_gamma 90.000000
_cell_volume 678.032865
_symmetry_space_group_name_H-M "P 21"
_symmetry_group_IT_number 4
_symmetry_cell_setting 'monoclinic'
loop_
_space_group_symop_operation_xyz
x,y,z
-x,1/2+y,-z
loop_
_atom_site_type_symbol
_atom_site_label
_atom_site_fract_x
_atom_site_fract_y
_atom_site_fract_z
Si Si1 0.185223 0.506170 0.232854
Si Si2 0.330950 0.991086 0.478636
Si Si3 0.655475 0.296780 0.986485
Si Si4 0.809267 0.202323 0.345825
Si Si5 0.645003 0.589568 0.996444
Si Si6 0.016961 0.200213 0.119945
Si Si7 0.272439 0.107438 0.672066
Si Si8 0.071272 0.731693 0.305001
O O1 0.431397 0.475143 0.388508
O O2 0.067560 0.359397 0.135687
O O3 0.185122 0.585840 0.358757
O O4 0.051088 0.617628 0.049602
O O5 0.176170 0.860650 0.318825
O O6 0.227357 0.130893 0.347271
O O7 0.355560 0.001296 0.639204
O O8 0.708100 0.302034 0.167675
O O9 0.813046 0.189685 0.046624
O O10 0.700422 0.448698 0.972228
O O11 0.403793 0.251556 0.762374
O O12 0.609802 0.110031 0.233292
O O13 0.899355 0.272305 0.535145
O O14 0.010752 0.121720 0.446329
O O15 0.674299 0.553920 0.156599
O O16 0.805792 0.710768 0.077266
#
# Coordination Sequence:
#
# PCOD8046586 Si02
#       8
#     2   2   2   2   2   2   2   2
#     4  12  27  49  70 106 138 186 236 285 349 413
#     4  12  25  45  72 103 140 185 234 288 343 418
#     4  11  21  44  69 102 140 184 231 281 349 412
#     4  10  23  42  69 103 140 182 224 291 345 413
#     4  10  23  41  70 104 142 184 223 291 348 412
#     4  12  26  47  74  97 142 184 234 288 342 415
#     4  10  22  41  67 105 138 180 230 279 347 414
#     4  11  25  45  69 106 142 179 234 285 351 417
#
# _framework density 23.597674999999999
#
# number of rings (size 3 to 8) (size 9 to 14) (size 15 to 20)
#    0.000    1.000    3.750    2.250    0.000    9.000 
#    2.250    0.000    0.000    0.000    0.000    0.000 
#    0.000    0.000    0.000    0.000    0.000    0.000 
#
# Total GULP energy -198261.491163 kJ/mol
# GULP energy per Si atom -12391.343198 kJ/mol
# Density = 2.354397 g / cm^3
# Si number density = 23.597675 Si / 1000 Ang^3
#
#
#
# Elastic Constant Matrix: (Units=GPa)
#
#
# Indices 1 2 3 4 5 6 
#
# 1 108.4863 30.3456 36.1668 0.0000 27.7007 0.0000
# 2 30.3456 139.3831 31.6923 0.0000 12.1831 0.0000
# 3 36.1668 31.6923 90.9959 0.0000 34.3015 0.0000
# 4 0.0000 0.0000 0.0000 21.1685 0.0000 13.3429
# 5 27.7007 12.1831 34.3015 0.0000 42.6419 0.0000
# 6 0.0000 0.0000 0.0000 13.3429 0.0000 28.0804
#
#
#
# Elastic Compliance Matrix: (Units=1/GPa)
#
#
# Indices 1 2 3 4 5 6 
#
# 1 0.011761 -0.001616 -0.002017 0.000000 -0.005555 0.000000
# 2 -0.001616 0.008014 -0.002413 0.000000 0.000701 0.000000
# 3 -0.002017 -0.002413 0.017047 0.000000 -0.011713 0.000000
# 4 0.000000 0.000000 0.000000 0.067438 0.000000 -0.032045
# 5 -0.005555 0.000701 -0.011713 0.000000 0.036282 0.000000
# 6 0.000000 0.000000 0.000000 -0.032045 0.000000 0.050839
#
#
# Mechanical properties :
#
#
# Convention : Reuss Voigt Hill
#
# Bulk Modulus (GPa) = 40.43953 59.47496 49.95724
# Shear Modulus (GPa) = 23.61653 34.42218 29.01936
#
# Velocity S-wave (km/s) = 3.16697 3.82345 3.51059
# Velocity P-wave (km/s) = 5.52696 6.68956 6.13585
#
# Compressibility (1/GPa) = 0.02472828
#
# Stress axis : x y z
#
# Youngs Moduli (GPa) = 85.02742 124.78624 58.66153
#
# Poissons Ratio (x) = 0.20168 0.11834
# Poissons Ratio (y) = 0.13742 0.14155
# Poissons Ratio (z) = 0.17153 0.30112
#
# Static dielectric constant tensor:
#      x y z
#    x 4.387300 0.000000 0.074450 
#    y 0.000000 4.004590 0.000000 
#    z 0.074450 0.000000 4.207480 
# 
# 
# High freq. dielectric constant tensor:
#      x y z
#    x 1.948480 0.000000 0.009800 
#    y 0.000000 1.923550 0.000000 
#    z 0.009800 0.000000 1.927510 
# 
# From -- ./inp_files/12079.got.cif
#   From: 2010.03.12/outbox.cif.g09.slc.cpg/sg4_7_cif.got.tgz:12079.got - 2010.03.31 09:31:35.
