data_PCOD8046085
_publ_section_title
;
Structure prediction by ZEFSAII (Michael W. Deem and Ramdas Pophale) SiO2 
 PCOD8046085
Probable space group: P 21
;
_chemical_formula_sum "Si O2"
_cell_formula_units_Z 16
_cell_length_a 9.184757
_cell_length_b 9.335536
_cell_length_c 11.594808
_cell_angle_alpha 90.000000
_cell_angle_beta 46.643692
_cell_angle_gamma 90.000000
_cell_volume 722.875800
_symmetry_space_group_name_H-M "P 21"
_symmetry_group_IT_number 4
_symmetry_cell_setting 'monoclinic'
loop_
_space_group_symop_operation_xyz
x,y,z
-x,1/2+y,-z
loop_
_atom_site_type_symbol
_atom_site_label
_atom_site_fract_x
_atom_site_fract_y
_atom_site_fract_z
Si Si1 0.565289 0.944520 0.593115
Si Si2 0.749194 0.242598 0.554360
Si Si3 0.157324 0.205935 0.461370
Si Si4 0.069949 0.789651 0.198224
Si Si5 0.837657 0.330970 0.263563
Si Si6 0.652287 0.450021 0.784163
Si Si7 0.212902 0.502174 0.754471
Si Si8 0.768861 0.014439 0.993242
O O1 0.682242 0.833009 0.611143
O O2 0.328158 0.907556 0.728735
O O3 0.621678 0.949169 0.426963
O O4 0.630138 0.095897 0.606797
O O5 0.752053 0.340144 0.439156
O O6 0.617145 0.311226 0.725719
O O7 0.980896 0.236109 0.467159
O O8 0.064483 0.191644 0.641424
O O9 0.269353 0.069800 0.348146
O O10 0.190475 0.911825 0.202031
O O11 0.195492 0.679901 0.054463
O O12 0.958685 0.883385 0.163056
O O13 0.048848 0.411465 0.138968
O O14 0.869203 0.162501 0.222027
O O15 0.438259 0.480369 0.961287
O O16 0.294193 0.496555 0.839312
#
# Coordination Sequence:
#
# PCOD8046085 Si02
#       8
#     2   2   2   2   2   2   2   2
#     4  10  22  39  65  95 123 159 212 267 318 374
#     4  10  21  40  65  93 121 159 209 268 320 374
#     4  10  20  42  69  92 117 156 212 269 320 371
#     4  10  24  43  65  93 126 164 213 265 315 376
#     4  11  23  39  61  91 125 167 211 259 315 378
#     4  11  23  41  64  93 126 164 209 262 320 378
#     4  10  22  42  63  89 122 163 211 264 315 371
#     4  12  25  40  60  90 130 174 209 254 315 380
#
# _framework density 22.133817000000001
#
# number of rings (size 3 to 8) (size 9 to 14) (size 15 to 20)
#    0.000    1.500    0.000    6.000    0.000   10.000 
#    0.000    3.750    0.000    0.000    0.000    0.000 
#    0.000    0.000    0.000    0.000    0.000    0.000 
#
# Total GULP energy -198229.965958 kJ/mol
# GULP energy per Si atom -12389.372872 kJ/mol
# Density = 2.208344 g / cm^3
# Si number density = 22.133817 Si / 1000 Ang^3
#
#
#
# Elastic Constant Matrix: (Units=GPa)
#
#
# Indices 1 2 3 4 5 6 
#
# 1 75.7063 49.3238 29.6072 0.0000 -13.9264 0.0000
# 2 49.3238 103.3063 46.3703 0.0000 -17.1621 0.0000
# 3 29.6072 46.3703 49.0020 0.0000 -20.7471 0.0000
# 4 0.0000 0.0000 0.0000 30.4303 0.0000 1.0982
# 5 -13.9264 -17.1621 -20.7471 0.0000 42.3170 0.0000
# 6 0.0000 0.0000 0.0000 1.0982 0.0000 37.4494
#
#
#
# Elastic Compliance Matrix: (Units=1/GPa)
#
#
# Indices 1 2 3 4 5 6 
#
# 1 0.019991 -0.007224 -0.004666 0.000000 0.001361 0.000000
# 2 -0.007224 0.019490 -0.014813 0.000000 -0.001736 0.000000
# 3 -0.004666 -0.014813 0.042970 0.000000 0.013524 0.000000
# 4 0.000000 0.000000 0.000000 0.032897 0.000000 -0.000965
# 5 0.001361 -0.001736 0.013524 0.000000 0.030006 0.000000
# 6 0.000000 0.000000 0.000000 -0.000965 0.000000 0.026731
#
#
# Mechanical properties :
#
#
# Convention : Reuss Voigt Hill
#
# Bulk Modulus (GPa) = 34.43016 53.17970 43.80493
# Shear Modulus (GPa) = 21.26103 28.88690 25.07397
#
# Velocity S-wave (km/s) = 3.10267 3.61654 3.36941
# Velocity P-wave (km/s) = 5.33147 6.44343 5.91364
#
# Compressibility (1/GPa) = 0.02904430
#
# Stress axis : x y z
#
# Youngs Moduli (GPa) = 50.02316 51.30891 23.27200
#
# Poissons Ratio (x) = 0.37066 0.10859
# Poissons Ratio (y) = 0.36137 0.34473
# Poissons Ratio (z) = 0.23341 0.76005
#
# Static dielectric constant tensor:
#      x y z
#    x 4.111230 0.000000 0.040140 
#    y 0.000000 4.101570 0.000000 
#    z 0.040140 0.000000 3.847310 
# 
# 
# High freq. dielectric constant tensor:
#      x y z
#    x 1.881950 0.000000 -0.001570 
#    y 0.000000 1.880260 0.000000 
#    z -0.001570 0.000000 1.856450 
# 
# From -- ./inp_files/11024.got.cif
#   From: 2010.03.12/outbox.cif.g09.slc.cpg/sg4_6_cif.got.tgz:11024.got - 2010.03.31 09:31:35.
