data_PCOD8046055
_publ_section_title
;
Structure prediction by ZEFSAII (Michael W. Deem and Ramdas Pophale) SiO2 
 PCOD8046055
Probable space group: P 21
;
_chemical_formula_sum "Si O2"
_cell_formula_units_Z 12
_cell_length_a 6.753476
_cell_length_b 9.343877
_cell_length_c 11.613472
_cell_angle_alpha 90.000000
_cell_angle_beta 52.803677
_cell_angle_gamma 90.000000
_cell_volume 583.767345
_symmetry_space_group_name_H-M "P 21"
_symmetry_group_IT_number 4
_symmetry_cell_setting 'monoclinic'
loop_
_space_group_symop_operation_xyz
x,y,z
-x,1/2+y,-z
loop_
_atom_site_type_symbol
_atom_site_label
_atom_site_fract_x
_atom_site_fract_y
_atom_site_fract_z
Si Si1 0.862571 0.910390 0.585578
Si Si2 0.183847 0.102842 0.333477
Si Si3 0.628620 0.135250 0.823226
Si Si4 0.842114 0.801767 0.100535
Si Si5 0.065157 0.360499 0.681031
Si Si6 0.710177 0.095147 0.054695
O O1 0.932627 0.762555 0.625649
O O2 0.753995 0.866416 0.495853
O O3 0.662981 0.996005 0.730981
O O4 0.105645 0.010964 0.475799
O O5 0.481851 0.112171 0.223285
O O6 0.073800 0.016117 0.261444
O O7 0.373274 0.207116 0.876524
O O8 0.856030 0.242574 0.727589
O O9 0.604995 0.084992 0.962741
O O10 0.783835 0.826861 0.256722
O O11 0.861512 0.951212 0.027520
O O12 0.109822 0.729636 0.992036
#
# Coordination Sequence:
#
# PCOD8046055 Si02
#       6
#     2   2   2   2   2   2
#     4  10  20  40  71  94 125 180 222 261 339 385
#     4  10  21  41  69  94 130 177 217 267 331 386
#     4  11  23  43  67  93 134 173 215 280 321 392
#     4  11  25  43  63 101 133 170 225 273 320 399
#     4   9  20  43  62  93 131 166 214 277 322 375
#     4  11  27  40  70  95 137 176 217 272 331 385
#
# _framework density 20.556134
#
# number of rings (size 3 to 8) (size 9 to 14) (size 15 to 20)
#    1.000    0.667    3.333    0.000    7.000    0.000 
#    3.000    1.667    0.000    0.000    0.000    0.000 
#    0.000    0.000    0.000    0.000    0.000    0.000 
#
# Total GULP energy -148696.792063 kJ/mol
# GULP energy per Si atom -12391.399339 kJ/mol
# Density = 2.050935 g / cm^3
# Si number density = 20.556134 Si / 1000 Ang^3
#
#
#
# Elastic Constant Matrix: (Units=GPa)
#
#
# Indices 1 2 3 4 5 6 
#
# 1 86.2472 27.5331 37.4629 0.0000 14.9553 0.0000
# 2 27.5331 135.4471 45.4139 0.0000 0.9701 0.0000
# 3 37.4629 45.4139 82.3047 0.0000 -1.5162 0.0000
# 4 0.0000 0.0000 0.0000 36.7472 0.0000 1.4478
# 5 14.9553 0.9701 -1.5162 0.0000 25.3930 0.0000
# 6 0.0000 0.0000 0.0000 1.4478 0.0000 34.9980
#
#
#
# Elastic Compliance Matrix: (Units=1/GPa)
#
#
# Indices 1 2 3 4 5 6 
#
# 1 0.016879 -0.000880 -0.007388 0.000000 -0.010348 0.000000
# 2 -0.000880 0.009115 -0.004631 0.000000 -0.000107 0.000000
# 3 -0.007388 -0.004631 0.018172 0.000000 0.005613 0.000000
# 4 0.000000 0.000000 0.000000 0.027257 0.000000 -0.001128
# 5 -0.010348 -0.000107 0.005613 0.000000 0.045815 0.000000
# 6 0.000000 0.000000 0.000000 -0.001128 0.000000 0.028620
#
#
# Mechanical properties :
#
#
# Convention : Reuss Voigt Hill
#
# Bulk Modulus (GPa) = 54.44279 58.31320 56.37799
# Shear Modulus (GPa) = 28.12490 32.33358 30.22924
#
# Velocity S-wave (km/s) = 3.70293 3.97033 3.83896
# Velocity P-wave (km/s) = 6.69513 7.03189 6.86557
#
# Compressibility (1/GPa) = 0.01836791
#
# Stress axis : x y z
#
# Youngs Moduli (GPa) = 59.24524 109.70527 55.03111
#
# Poissons Ratio (x) = 0.09653 0.40657
# Poissons Ratio (y) = 0.05213 0.25486
# Poissons Ratio (z) = 0.43770 0.50806
#
# Static dielectric constant tensor:
#      x y z
#    x 3.336900 0.000000 0.146760 
#    y 0.000000 3.968480 0.000000 
#    z 0.146760 0.000000 3.749040 
# 
# 
# High freq. dielectric constant tensor:
#      x y z
#    x 1.762110 0.000000 0.004860 
#    y 0.000000 1.825240 0.000000 
#    z 0.004860 0.000000 1.807000 
# 
# From -- ./inp_files/10234.got.cif
#   From: 2010.03.12/outbox.cif.g09.slc.cpg/sg4_6_cif.got.tgz:10234.got - 2010.03.31 09:31:35.
