data_PCOD8046837
_publ_section_title
;
Structure prediction by ZEFSAII (Michael W. Deem and Ramdas Pophale) SiO2 
 PCOD8046837
Probable space group: P 21
;
_chemical_formula_sum "Si O2"
_cell_formula_units_Z 16
_cell_length_a 9.368155
_cell_length_b 7.645086
_cell_length_c 9.368161
_cell_angle_alpha 90.000000
_cell_angle_beta 90.000000
_cell_angle_gamma 90.000000
_cell_volume 670.950976
_symmetry_space_group_name_H-M "P 21"
_symmetry_group_IT_number 4
_symmetry_cell_setting 'monoclinic'
loop_
_space_group_symop_operation_xyz
x,y,z
-x,1/2+y,-z
loop_
_atom_site_type_symbol
_atom_site_label
_atom_site_fract_x
_atom_site_fract_y
_atom_site_fract_z
Si Si1 0.045531 0.912790 0.163656
Si Si2 0.836343 0.162790 0.045531
Si Si3 0.667035 0.786249 0.554486
Si Si4 0.838392 0.331231 0.340027
Si Si5 0.530164 0.224336 0.942867
Si Si6 0.445514 0.036250 0.667035
Si Si7 0.340027 0.081231 0.161607
Si Si8 0.942867 0.974336 0.469835
O O1 0.023149 0.895615 0.331940
O O2 0.174643 0.046672 0.125369
O O3 0.087822 0.725002 0.100249
O O4 0.899751 0.975002 0.087823
O O5 0.874630 0.296672 0.174643
O O6 0.668060 0.145615 0.023148
O O7 0.590489 0.965028 0.598811
O O8 0.598809 0.715028 0.409512
O O9 0.649925 0.636220 0.673846
O O10 0.831529 0.830889 0.527228
O O11 0.673846 0.386221 0.350076
O O12 0.937549 0.486447 0.404568
O O13 0.866721 0.157680 0.435585
O O14 0.564415 0.407680 0.866721
O O15 0.472771 0.080890 0.831530
O O16 0.404568 0.236447 0.062451
#
# Coordination Sequence:
#
# PCOD8046837 Si02
#       8
#     2   2   2   2   2   2   2   2
#     4  10  23  42  64  95 132 175 226 283 345 417
#     4  10  23  42  64  95 132 175 226 283 345 417
#     4  12  25  43  67  99 137 184 236 294 357 424
#     4  11  23  45  69 100 137 178 234 295 358 426
#     4  11  25  44  70 100 138 183 234 296 356 421
#     4  12  25  43  67  99 137 184 236 294 357 424
#     4  11  23  45  69 100 137 178 234 295 358 426
#     4  11  25  44  70 100 138 183 234 296 356 421
#
# _framework density 23.84675
#
# number of rings (size 3 to 8) (size 9 to 14) (size 15 to 20)
#    0.000    1.000    0.000    7.500    0.000   12.000 
#    0.000    0.000    0.000    0.000    0.000    0.000 
#    0.000    0.000    0.000    0.000    0.000    0.000 
#
# Total GULP energy -198444.196152 kJ/mol
# GULP energy per Si atom -12402.762259 kJ/mol
# Density = 2.379247 g / cm^3
# Si number density = 23.846750 Si / 1000 Ang^3
#
#
#
# Elastic Constant Matrix: (Units=GPa)
#
#
# Indices 1 2 3 4 5 6 
#
# 1 118.9830 27.5762 58.3727 0.0000 -7.2704 0.0000
# 2 27.5762 61.0057 27.5760 0.0000 0.0000 0.0000
# 3 58.3727 27.5760 118.9838 0.0000 7.2703 0.0000
# 4 0.0000 0.0000 0.0000 41.0916 0.0000 -0.0001
# 5 -7.2704 0.0000 7.2703 0.0000 47.8258 0.0000
# 6 0.0000 0.0000 0.0000 -0.0001 0.0000 41.0917
#
#
#
# Elastic Compliance Matrix: (Units=1/GPa)
#
#
# Indices 1 2 3 4 5 6 
#
# 1 0.011842 -0.002966 -0.005281 0.000000 0.002603 0.000000
# 2 -0.002966 0.019073 -0.002965 0.000000 0.000000 0.000000
# 3 -0.005281 -0.002965 0.011842 0.000000 -0.002603 0.000000
# 4 0.000000 0.000000 0.000000 0.024336 0.000000 0.000000
# 5 0.002603 0.000000 -0.002603 0.000000 0.021701 0.000000
# 6 0.000000 0.000000 0.000000 0.000000 0.000000 0.024336
#
#
# Mechanical properties :
#
#
# Convention : Reuss Voigt Hill
#
# Bulk Modulus (GPa) = 49.18387 58.44694 53.81540
# Shear Modulus (GPa) = 35.12936 38.36499 36.74717
#
# Velocity S-wave (km/s) = 3.84230 4.01535 3.92978
# Velocity P-wave (km/s) = 6.35249 6.78675 6.57321
#
# Compressibility (1/GPa) = 0.02033187
#
# Stress axis : x y z
#
# Youngs Moduli (GPa) = 84.44563 52.43040 84.44645
#
# Poissons Ratio (x) = 0.15549 0.44599
# Poissons Ratio (y) = 0.25043 0.25042
# Poissons Ratio (z) = 0.44598 0.15548
#
# Static dielectric constant tensor:
#      x y z
#    x 4.413780 0.000000 0.000000 
#    y 0.000000 3.949980 0.000000 
#    z 0.000000 0.000000 4.413790 
# 
# 
# High freq. dielectric constant tensor:
#      x y z
#    x 1.955590 0.000000 0.000000 
#    y 0.000000 1.931110 0.000000 
#    z 0.000000 0.000000 1.955590 
# 
# From -- ./inp_files/5748.got.cif
#   From: 2010.03.12/outbox.cif.g09.slc.cpg/sg4_3_cif.got.tgz:5748.got - 2010.03.31 09:31:35.
