data_PCOD8046472
_publ_section_title
;
Structure prediction by ZEFSAII (Michael W. Deem and Ramdas Pophale) SiO2 
 PCOD8046472
Probable space group: P 21
;
_chemical_formula_sum "Si O2"
_cell_formula_units_Z 16
_cell_length_a 11.998815
_cell_length_b 8.351945
_cell_length_c 8.751065
_cell_angle_alpha 90.000000
_cell_angle_beta 53.291718
_cell_angle_gamma 90.000000
_cell_volume 703.060912
_symmetry_space_group_name_H-M "P 21"
_symmetry_group_IT_number 4
_symmetry_cell_setting 'monoclinic'
loop_
_space_group_symop_operation_xyz
x,y,z
-x,1/2+y,-z
loop_
_atom_site_type_symbol
_atom_site_label
_atom_site_fract_x
_atom_site_fract_y
_atom_site_fract_z
Si Si1 0.550469 0.150380 0.122873
Si Si2 0.806955 0.408464 0.664059
Si Si3 0.340960 0.976233 0.496059
Si Si4 0.615453 0.614794 0.024123
Si Si5 0.011699 0.637026 0.349295
Si Si6 0.513595 0.927665 0.630289
Si Si7 0.204635 0.282326 0.689024
Si Si8 0.208335 0.407475 0.018684
O O1 0.409966 0.087177 0.312855
O O2 0.518962 0.163935 0.968535
O O3 0.571057 0.323327 0.177835
O O4 0.677701 0.045095 0.073118
O O5 0.752492 0.363016 0.535451
O O6 0.692113 0.461756 0.883229
O O7 0.867939 0.240713 0.671676
O O8 0.913990 0.557380 0.558228
O O9 0.255436 0.099172 0.673924
O O10 0.452263 0.887242 0.512071
O O11 0.537873 0.596207 0.254371
O O12 0.728605 0.756510 0.942239
O O13 0.929526 0.765297 0.310143
O O14 0.073053 0.483431 0.208529
O O15 0.678784 0.897173 0.486852
O O16 0.163045 0.359146 0.884629
#
# Coordination Sequence:
#
# PCOD8046472 Si02
#       8
#     2   2   2   2   2   2   2   2
#     4  10  22  38  60 105 135 166 226 287 353 415
#     4  10  23  46  65  99 135 178 237 284 338 418
#     4   9  19  41  68  93 135 167 220 290 350 401
#     4  11  23  40  71  99 139 178 224 296 357 407
#     4  11  25  45  68  97 139 193 238 274 338 419
#     4  11  20  41  70  96 133 175 219 295 361 404
#     4  10  23  43  66 101 136 177 230 282 338 419
#     4  12  23  42  66 100 142 188 234 284 343 417
#
# _framework density 22.757629000000001
#
# number of rings (size 3 to 8) (size 9 to 14) (size 15 to 20)
#    0.000    1.500    2.500    3.000    0.000    3.000 
#    6.750    1.250    0.000    0.000    0.000    0.000 
#    0.000    0.000    0.000    0.000    0.000    0.000 
#
# Total GULP energy -198222.325599 kJ/mol
# GULP energy per Si atom -12388.895350 kJ/mol
# Density = 2.270583 g / cm^3
# Si number density = 22.757629 Si / 1000 Ang^3
#
#
#
# Elastic Constant Matrix: (Units=GPa)
#
#
# Indices 1 2 3 4 5 6 
#
# 1 109.5246 29.6413 33.5383 0.0000 14.0174 0.0000
# 2 29.6413 40.2312 30.1675 0.0000 2.6083 0.0000
# 3 33.5383 30.1675 87.1109 0.0000 12.3817 0.0000
# 4 0.0000 0.0000 0.0000 38.8095 0.0000 -0.3029
# 5 14.0174 2.6083 12.3817 0.0000 28.5933 0.0000
# 6 0.0000 0.0000 0.0000 -0.3029 0.0000 44.6844
#
#
#
# Elastic Compliance Matrix: (Units=1/GPa)
#
#
# Indices 1 2 3 4 5 6 
#
# 1 0.012231 -0.007668 -0.001386 0.000000 -0.004696 0.000000
# 2 -0.007668 0.038501 -0.011099 0.000000 0.005053 0.000000
# 3 -0.001386 -0.011099 0.016641 0.000000 -0.005514 0.000000
# 4 0.000000 0.000000 0.000000 0.025768 0.000000 0.000175
# 5 -0.004696 0.005053 -0.005514 0.000000 0.039202 0.000000
# 6 0.000000 0.000000 0.000000 0.000175 0.000000 0.022380
#
#
# Mechanical properties :
#
#
# Convention : Reuss Voigt Hill
#
# Bulk Modulus (GPa) = 36.94606 47.06229 42.00418
# Shear Modulus (GPa) = 24.50351 31.98542 28.24446
#
# Velocity S-wave (km/s) = 3.28490 3.75304 3.52674
# Velocity P-wave (km/s) = 5.53690 6.28531 5.92294
#
# Compressibility (1/GPa) = 0.02706649
#
# Stress axis : x y z
#
# Youngs Moduli (GPa) = 81.75934 25.97334 60.09295
#
# Poissons Ratio (x) = 0.19915 0.08330
# Poissons Ratio (y) = 0.62690 0.66700
# Poissons Ratio (z) = 0.11333 0.28829
#
# Static dielectric constant tensor:
#      x y z
#    x 4.066640 0.000000 0.002220 
#    y 0.000000 4.136650 0.000000 
#    z 0.002220 0.000000 4.247330 
# 
# 
# High freq. dielectric constant tensor:
#      x y z
#    x 1.897090 0.000000 0.005540 
#    y 0.000000 1.888700 0.000000 
#    z 0.005540 0.000000 1.902050 
# 
# From -- ./inp_files/7826.got.cif
#   From: 2010.03.12/outbox.cif.g09.slc.cpg/sg4_4_cif.got.tgz:7826.got - 2010.03.31 09:31:35.
