data_PCOD8046810
_publ_section_title
;
Structure prediction by ZEFSAII (Michael W. Deem and Ramdas Pophale) SiO2 
 PCOD8046810
Probable space group: P 21
;
_chemical_formula_sum "Si O2"
_cell_formula_units_Z 14
_cell_length_a 6.928331
_cell_length_b 8.353732
_cell_length_c 11.457603
_cell_angle_alpha 90.000000
_cell_angle_beta 105.170803
_cell_angle_gamma 90.000000
_cell_volume 640.026183
_symmetry_space_group_name_H-M "P 21"
_symmetry_group_IT_number 4
_symmetry_cell_setting 'monoclinic'
loop_
_space_group_symop_operation_xyz
x,y,z
-x,1/2+y,-z
loop_
_atom_site_type_symbol
_atom_site_label
_atom_site_fract_x
_atom_site_fract_y
_atom_site_fract_z
Si Si1 0.461920 0.321060 0.270552
Si Si2 0.014179 0.403643 0.684417
Si Si3 0.122999 0.232955 0.385669
Si Si4 0.584935 0.997329 0.188234
Si Si5 0.835942 0.339783 0.885605
Si Si6 0.164535 0.972543 0.569711
Si Si7 0.224152 0.496773 0.032026
O O1 0.339094 0.263693 0.364190
O O2 0.591602 0.179367 0.234325
O O3 0.616853 0.453057 0.342450
O O4 0.320065 0.397552 0.151759
O O5 0.256717 0.390912 0.710414
O O6 0.983575 0.595324 0.710130
O O7 0.937210 0.293889 0.777932
O O8 0.881140 0.359361 0.550784
O O9 0.002321 0.402451 0.366351
O O10 0.140973 0.157246 0.522448
O O11 0.359613 0.942599 0.171278
O O12 0.646153 0.973629 0.063455
O O13 0.771933 0.183385 0.942758
O O14 0.994728 0.440957 0.985648
#
# Coordination Sequence:
#
# PCOD8046810 Si02
#       7
#     2   2   2   2   2   2   2
#     4  12  23  42  68  96 130 173 213 268 326 384
#     4   9  22  41  64  92 125 170 205 266 317 374
#     4  10  23  42  64  93 130 170 212 266 316 380
#     4  11  21  43  69  88 131 169 215 269 325 372
#     4  11  23  44  63  94 130 165 221 266 321 385
#     4  10  23  41  65  94 129 170 216 263 324 380
#     4  11  27  39  67  97 127 173 214 268 325 383
#
# _framework density 21.874105
#
# number of rings (size 3 to 8) (size 9 to 14) (size 15 to 20)
#    0.857    0.571    2.857    1.714    2.000    9.143 
#    0.000    0.000    0.000    0.000    0.000    0.000 
#    0.000    0.000    0.000    0.000    0.000    0.000 
#
# Total GULP energy -173456.472038 kJ/mol
# GULP energy per Si atom -12389.748003 kJ/mol
# Density = 2.182432 g / cm^3
# Si number density = 21.874105 Si / 1000 Ang^3
#
#
#
# Elastic Constant Matrix: (Units=GPa)
#
#
# Indices 1 2 3 4 5 6 
#
# 1 118.0252 5.1642 17.2569 0.0000 12.9845 0.0000
# 2 5.1642 35.7980 -10.7865 0.0000 -11.7269 0.0000
# 3 17.2569 -10.7865 61.1712 0.0000 14.8330 0.0000
# 4 0.0000 0.0000 0.0000 34.8915 0.0000 -0.0297
# 5 12.9845 -11.7269 14.8330 0.0000 34.8426 0.0000
# 6 0.0000 0.0000 0.0000 -0.0297 0.0000 13.5294
#
#
#
# Elastic Compliance Matrix: (Units=1/GPa)
#
#
# Indices 1 2 3 4 5 6 
#
# 1 0.009349 -0.003224 -0.002340 0.000000 -0.003573 0.000000
# 2 -0.003224 0.033123 0.004188 0.000000 0.010567 0.000000
# 3 -0.002340 0.004188 0.019172 0.000000 -0.005880 0.000000
# 4 0.000000 0.000000 0.000000 0.028660 0.000000 0.000063
# 5 -0.003573 0.010567 -0.005880 0.000000 0.036092 0.000000
# 6 0.000000 0.000000 0.000000 0.000063 0.000000 0.073913
#
#
# Mechanical properties :
#
#
# Convention : Reuss Voigt Hill
#
# Bulk Modulus (GPa) = 16.98006 26.47372 21.72689
# Shear Modulus (GPa) = 22.45257 30.21001 26.33129
#
# Velocity S-wave (km/s) = 3.20729 3.72033 3.47330
# Velocity P-wave (km/s) = 4.63628 5.53023 5.10287
#
# Compressibility (1/GPa) = 0.05889260
#
# Stress axis : x y z
#
# Youngs Moduli (GPa) = 106.96322 30.19048 52.15960
#
# Poissons Ratio (x) = 0.09734 0.12203
# Poissons Ratio (y) = 0.34486 -0.21844
# Poissons Ratio (z) = 0.25024 -0.12644
#
# Static dielectric constant tensor:
#      x y z
#    x 3.924280 0.000000 0.136410 
#    y 0.000000 3.726040 0.000000 
#    z 0.136410 0.000000 3.898820 
# 
# 
# High freq. dielectric constant tensor:
#      x y z
#    x 1.868270 0.000000 0.007550 
#    y 0.000000 1.844810 0.000000 
#    z 0.007550 0.000000 1.860180 
# 
# From -- ./inp_files/2612.got.cif
#   From: 2010.03.12/outbox.cif.g09.slc.cpg/sg4_2_cif.got.tgz:2612.got - 2010.03.31 09:31:35.
