data_PCOD8046119
_publ_section_title
;
Structure prediction by ZEFSAII (Michael W. Deem and Ramdas Pophale) SiO2 
 PCOD8046119
Probable space group: P 21
;
_chemical_formula_sum "Si O2"
_cell_formula_units_Z 14
_cell_length_a 22.260111
_cell_length_b 5.116087
_cell_length_c 13.805416
_cell_angle_alpha 90.000000
_cell_angle_beta 22.784240
_cell_angle_gamma 90.000000
_cell_volume 608.863064
_symmetry_space_group_name_H-M "P 21"
_symmetry_group_IT_number 4
_symmetry_cell_setting 'monoclinic'
loop_
_space_group_symop_operation_xyz
x,y,z
-x,1/2+y,-z
loop_
_atom_site_type_symbol
_atom_site_label
_atom_site_fract_x
_atom_site_fract_y
_atom_site_fract_z
Si Si1 0.602619 0.200120 0.340189
Si Si2 0.134880 0.798642 0.194522
Si Si3 0.520181 0.428352 0.854286
Si Si4 0.619529 0.421123 0.915817
Si Si5 0.057592 0.804460 0.530760
Si Si6 0.822821 0.591763 0.306794
Si Si7 0.833366 0.099621 0.168012
O O1 0.507472 0.451786 0.522801
O O2 0.724661 0.080068 0.236008
O O3 0.695866 0.311908 0.107430
O O4 0.138868 0.828028 0.304084
O O5 0.076356 0.512395 0.254009
O O6 0.015276 0.023167 0.334003
O O7 0.506567 0.413437 0.990796
O O8 0.697064 0.477222 0.566187
O O9 0.419597 0.667014 0.961461
O O10 0.432166 0.172311 0.943393
O O11 0.798751 0.394997 0.615587
O O12 0.818376 0.397661 0.223163
O O13 0.787346 0.883672 0.318534
O O14 0.983917 0.563472 0.126751
#
# Coordination Sequence:
#
# PCOD8046119 Si02
#       7
#     2   2   2   2   2   2   2
#     4  12  26  44  65  98 132 170 218 269 329 386
#     4  10  23  41  63  92 120 162 217 256 309 374
#     4  10  21  36  56  91 123 159 198 250 312 372
#     4  10  21  36  57  92 126 153 201 248 313 376
#     4  10  21  41  64  90 122 164 209 256 310 374
#     4  10  21  41  63  89 126 168 216 260 315 377
#     4  10  23  41  62  92 123 166 221 263 310 381
#
# _framework density 22.993677999999999
#
# number of rings (size 3 to 8) (size 9 to 14) (size 15 to 20)
#    0.000    1.714    0.000    3.429    2.000    3.429 
#    5.143    0.000    0.000    0.000    0.000    0.000 
#    0.000    0.000    0.000    0.000    0.000    0.000 
#
# Total GULP energy -173440.409699 kJ/mol
# GULP energy per Si atom -12388.600693 kJ/mol
# Density = 2.294134 g / cm^3
# Si number density = 22.993678 Si / 1000 Ang^3
#
#
#
# Elastic Constant Matrix: (Units=GPa)
#
#
# Indices 1 2 3 4 5 6 
#
# 1 42.8291 19.2842 22.3879 0.0000 -11.6945 0.0000
# 2 19.2842 166.1735 56.5358 0.0000 -0.9676 0.0000
# 3 22.3879 56.5358 132.9161 0.0000 -1.6888 0.0000
# 4 0.0000 0.0000 0.0000 48.4613 0.0000 -7.7856
# 5 -11.6945 -0.9676 -1.6888 0.0000 23.4522 0.0000
# 6 0.0000 0.0000 0.0000 -7.7856 0.0000 17.2611
#
#
#
# Elastic Compliance Matrix: (Units=1/GPa)
#
#
# Indices 1 2 3 4 5 6 
#
# 1 0.030443 -0.002065 -0.004061 0.000000 0.014803 0.000000
# 2 -0.002065 0.007176 -0.002716 0.000000 -0.000929 0.000000
# 3 -0.004061 -0.002716 0.009344 0.000000 -0.001464 0.000000
# 4 0.000000 0.000000 0.000000 0.022247 0.000000 0.010035
# 5 0.014803 -0.000929 -0.001464 0.000000 0.049878 0.000000
# 6 0.000000 0.000000 0.000000 0.010035 0.000000 0.062460
#
#
# Mechanical properties :
#
#
# Convention : Reuss Voigt Hill
#
# Bulk Modulus (GPa) = 34.15467 59.81493 46.98480
# Shear Modulus (GPa) = 23.92418 34.08229 29.00324
#
# Velocity S-wave (km/s) = 3.22913 3.85417 3.55541
# Velocity P-wave (km/s) = 5.36556 6.77320 6.11005
#
# Compressibility (1/GPa) = 0.02927857
#
# Stress axis : x y z
#
# Youngs Moduli (GPa) = 32.84795 139.34944 107.01564
#
# Poissons Ratio (x) = 0.28775 0.43463
# Poissons Ratio (y) = 0.06783 0.29070
# Poissons Ratio (z) = 0.13341 0.37853
#
# Static dielectric constant tensor:
#      x y z
#    x 3.747300 0.000000 -0.243500 
#    y 0.000000 4.707590 0.000000 
#    z -0.243500 0.000000 4.265300 
# 
# 
# High freq. dielectric constant tensor:
#      x y z
#    x 1.871460 0.000000 -0.017330 
#    y 0.000000 1.934040 0.000000 
#    z -0.017330 0.000000 1.911900 
# 
# From -- ./inp_files/14504.got.cif
#   From: 2010.03.12/outbox.cif.g09.slc.cpg/sg4_8_cif.got.tgz:14504.got - 2010.03.31 09:31:35.
