data_PCOD8046397
_publ_section_title
;
Structure prediction by ZEFSAII (Michael W. Deem and Ramdas Pophale) SiO2 
 PCOD8046397
Probable space group: P 21
;
_chemical_formula_sum "Si O2"
_cell_formula_units_Z 16
_cell_length_a 7.249792
_cell_length_b 5.249517
_cell_length_c 20.908818
_cell_angle_alpha 90.000000
_cell_angle_beta 62.919556
_cell_angle_gamma 90.000000
_cell_volume 708.506819
_symmetry_space_group_name_H-M "P 21"
_symmetry_group_IT_number 4
_symmetry_cell_setting 'monoclinic'
loop_
_space_group_symop_operation_xyz
x,y,z
-x,1/2+y,-z
loop_
_atom_site_type_symbol
_atom_site_label
_atom_site_fract_x
_atom_site_fract_y
_atom_site_fract_z
Si Si1 0.749807 0.062740 0.386215
Si Si2 0.478788 0.094493 0.109935
Si Si3 0.163909 0.023025 0.791830
Si Si4 0.124795 0.486626 0.489613
Si Si5 0.715540 0.448226 0.989980
Si Si6 0.451617 0.062258 0.632380
Si Si7 0.164741 0.256473 0.919383
Si Si8 0.042574 0.028632 0.227144
O O1 0.655563 0.343673 0.393285
O O2 0.964219 0.044091 0.312503
O O3 0.785616 0.025121 0.454591
O O4 0.595446 0.843482 0.386752
O O5 0.678568 0.989722 0.116618
O O6 0.550355 0.364090 0.070574
O O7 0.287757 0.090655 0.189398
O O8 0.403085 0.945512 0.058045
O O9 0.374630 0.038096 0.717380
O O10 0.226746 0.045536 0.856388
O O11 0.009983 0.252850 0.794550
O O12 0.060528 0.747288 0.800054
O O13 0.302294 0.524742 0.408381
O O14 0.951293 0.697069 0.503736
O O15 0.801717 0.702908 0.009993
O O16 0.920121 0.281793 0.947207
#
# Coordination Sequence:
#
# PCOD8046397 Si02
#       8
#     2   2   2   2   2   2   2   2
#     4  10  21  43  67  93 127 176 216 256 319 389
#     4  12  26  42  64  92 127 173 218 276 335 390
#     4  10  24  43  68  94 128 169 218 272 324 391
#     4  12  24  38  64 102 136 168 212 272 314 370
#     4  12  26  42  62  92 126 168 224 270 334 396
#     4  10  21  43  67  93 127 176 216 256 319 389
#     4  12  26  42  64  92 127 173 218 276 335 390
#     4  10  24  43  68  94 128 169 218 272 324 391
#
# _framework density 22.582705000000001
#
# number of rings (size 3 to 8) (size 9 to 14) (size 15 to 20)
#    0.000    1.000    3.750    2.250    7.000    1.000 
#    2.250    0.000    0.000    0.000    0.000    0.000 
#    0.000    0.000    0.000    0.000    0.000    0.000 
#
# Total GULP energy -198274.534637 kJ/mol
# GULP energy per Si atom -12392.158415 kJ/mol
# Density = 2.253131 g / cm^3
# Si number density = 22.582705 Si / 1000 Ang^3
#
#
#
# Elastic Constant Matrix: (Units=GPa)
#
#
# Indices 1 2 3 4 5 6 
#
# 1 60.0214 -3.3819 23.3596 0.0000 -9.2512 0.0000
# 2 -3.3819 66.8537 0.8926 0.0000 -0.9617 0.0000
# 3 23.3596 0.8926 97.5094 0.0000 -26.6253 0.0000
# 4 0.0000 0.0000 0.0000 29.2320 0.0000 -1.9847
# 5 -9.2512 -0.9617 -26.6253 0.0000 38.9391 0.0000
# 6 0.0000 0.0000 0.0000 -1.9847 0.0000 28.4771
#
#
#
# Elastic Compliance Matrix: (Units=1/GPa)
#
#
# Indices 1 2 3 4 5 6 
#
# 1 0.018531 0.001015 -0.003983 0.000000 0.001704 0.000000
# 2 0.001015 0.015019 -0.000263 0.000000 0.000433 0.000000
# 3 -0.003983 -0.000263 0.013466 0.000000 0.008255 0.000000
# 4 0.000000 0.000000 0.000000 0.034372 0.000000 0.002396
# 5 0.001704 0.000433 0.008255 0.000000 0.031741 0.000000
# 6 0.000000 0.000000 0.000000 0.002396 0.000000 0.035283
#
#
# Mechanical properties :
#
#
# Convention : Reuss Voigt Hill
#
# Bulk Modulus (GPa) = 24.65817 29.56947 27.11382
# Shear Modulus (GPa) = 29.69273 32.89725 31.29499
#
# Velocity S-wave (km/s) = 3.63001 3.82087 3.72666
# Velocity P-wave (km/s) = 5.33967 5.70857 5.52720
#
# Compressibility (1/GPa) = 0.04055451
#
# Stress axis : x y z
#
# Youngs Moduli (GPa) = 53.96416 66.58187 74.26066
#
# Poissons Ratio (x) = -0.06759 0.29580
# Poissons Ratio (y) = -0.05478 0.01950
# Poissons Ratio (z) = 0.21495 0.01748
#
# Static dielectric constant tensor:
#      x y z
#    x 3.922480 0.000000 -0.166550 
#    y 0.000000 4.221580 0.000000 
#    z -0.166550 0.000000 4.441210 
# 
# 
# High freq. dielectric constant tensor:
#      x y z
#    x 1.873850 0.000000 -0.009610 
#    y 0.000000 1.896110 0.000000 
#    z -0.009610 0.000000 1.906860 
# 
# From -- ./inp_files/4385.got.cif
#   From: 2010.03.12/outbox.cif.g09.slc.cpg/sg4_3_cif.got.tgz:4385.got - 2010.03.31 09:31:35.
