data_PCOD8046760
_publ_section_title
;
Structure prediction by ZEFSAII (Michael W. Deem and Ramdas Pophale) SiO2 
 PCOD8046760
Probable space group: P 21
;
_chemical_formula_sum "Si O2"
_cell_formula_units_Z 16
_cell_length_a 5.929706
_cell_length_b 18.512285
_cell_length_c 8.690401
_cell_angle_alpha 90.000000
_cell_angle_beta 46.971478
_cell_angle_gamma 90.000000
_cell_volume 697.362782
_symmetry_space_group_name_H-M "P 21"
_symmetry_group_IT_number 4
_symmetry_cell_setting 'monoclinic'
loop_
_space_group_symop_operation_xyz
x,y,z
-x,1/2+y,-z
loop_
_atom_site_type_symbol
_atom_site_label
_atom_site_fract_x
_atom_site_fract_y
_atom_site_fract_z
Si Si1 0.228903 0.065770 0.995415
Si Si2 0.787281 0.508931 0.336786
Si Si3 0.428808 0.625898 0.663048
Si Si4 0.754748 0.746199 0.337035
Si Si5 0.583243 0.936068 0.916781
Si Si6 0.563595 0.186061 0.000003
Si Si7 0.539191 0.363150 0.336675
Si Si8 0.780106 0.806367 0.995587
O O1 0.503440 0.120904 0.908738
O O2 0.919324 0.100980 0.204449
O O3 0.281271 0.987416 0.053426
O O4 0.210691 0.055927 0.820640
O O5 0.643396 0.555655 0.541415
O O6 0.591320 0.436026 0.408690
O O7 0.132101 0.490744 0.226262
O O8 0.507048 0.686035 0.500017
O O9 0.479954 0.657618 0.807712
O O10 0.726170 0.816393 0.458765
O O11 0.671352 0.771195 0.204741
O O12 0.095255 0.714475 0.192106
O O13 0.611866 0.884735 0.053471
O O14 0.584654 0.881384 0.773769
O O15 0.321055 0.251242 0.091112
O O16 0.852076 0.316171 0.179132
#
# Coordination Sequence:
#
# PCOD8046760 Si02
#       8
#     2   2   2   2   2   2   2   2
#     4  11  24  45  68  97 135 173 219 274 327 390
#     4  10  24  45  69  99 133 170 218 273 328 391
#     4  12  25  43  67  99 134 174 222 272 326 388
#     4  12  25  43  67  99 134 174 222 272 326 388
#     4  10  22  46  72  96 132 174 216 270 334 390
#     4  12  26  42  68  98 132 178 220 268 328 388
#     4  10  24  45  69  99 133 170 218 273 328 391
#     4  11  24  45  68  97 135 173 219 274 327 390
#
# _framework density 22.943584000000001
#
# number of rings (size 3 to 8) (size 9 to 14) (size 15 to 20)
#    0.000    1.000    0.000    6.750    0.000   12.000 
#    0.000    5.000    0.000    0.000    0.000    0.000 
#    0.000    0.000    0.000    0.000    0.000    0.000 
#
# Total GULP energy -198454.330123 kJ/mol
# GULP energy per Si atom -12403.395633 kJ/mol
# Density = 2.289136 g / cm^3
# Si number density = 22.943584 Si / 1000 Ang^3
#
#
#
# Elastic Constant Matrix: (Units=GPa)
#
#
# Indices 1 2 3 4 5 6 
#
# 1 139.3315 73.3746 72.2044 0.0000 -2.9061 0.0000
# 2 73.3746 158.4676 91.2927 0.0000 1.3305 0.0000
# 3 72.2044 91.2927 129.6084 0.0000 2.2486 0.0000
# 4 0.0000 0.0000 0.0000 56.9074 0.0000 -0.4982
# 5 -2.9061 1.3305 2.2486 0.0000 14.0211 0.0000
# 6 0.0000 0.0000 0.0000 -0.4982 0.0000 63.7711
#
#
#
# Elastic Compliance Matrix: (Units=1/GPa)
#
#
# Indices 1 2 3 4 5 6 
#
# 1 0.010808 -0.002576 -0.004262 0.000000 0.003168 0.000000
# 2 -0.002576 0.011234 -0.006468 0.000000 -0.000563 0.000000
# 3 -0.004262 -0.006468 0.014691 0.000000 -0.002626 0.000000
# 4 0.000000 0.000000 0.000000 0.017574 0.000000 0.000137
# 5 0.003168 -0.000563 -0.002626 0.000000 0.072452 0.000000
# 6 0.000000 0.000000 0.000000 0.000137 0.000000 0.015682
#
#
# Mechanical properties :
#
#
# Convention : Reuss Voigt Hill
#
# Bulk Modulus (GPa) = 98.79563 100.12790 99.46177
# Shear Modulus (GPa) = 28.99759 39.64231 34.31995
#
# Velocity S-wave (km/s) = 3.55894 4.16121 3.87181
# Velocity P-wave (km/s) = 7.74867 8.17455 7.96445
#
# Compressibility (1/GPa) = 0.01012191
#
# Stress axis : x y z
#
# Youngs Moduli (GPa) = 92.52155 89.01350 68.06666
#
# Poissons Ratio (x) = 0.22929 0.29009
# Poissons Ratio (y) = 0.23832 0.44028
# Poissons Ratio (z) = 0.39431 0.57577
#
# Static dielectric constant tensor:
#      x y z
#    x 4.185970 0.000000 -0.023300 
#    y 0.000000 4.613520 0.000000 
#    z -0.023300 0.000000 3.863810 
# 
# 
# High freq. dielectric constant tensor:
#      x y z
#    x 1.913640 0.000000 -0.002380 
#    y 0.000000 1.941750 0.000000 
#    z -0.002380 0.000000 1.881100 
# 
# From -- ./inp_files/487.got.cif
#   From: 2010.03.12/outbox.cif.g09.slc.cpg/sg4_1_cif.got.tgz:487.got - 2010.03.31 09:31:35.
