data_PCOD8046702
_publ_section_title
;
Structure prediction by ZEFSAII (Michael W. Deem and Ramdas Pophale) SiO2 
 PCOD8046702
Probable space group: P 21
;
_chemical_formula_sum "Si O2"
_cell_formula_units_Z 16
_cell_length_a 11.560973
_cell_length_b 11.344352
_cell_length_c 9.119993
_cell_angle_alpha 90.000000
_cell_angle_beta 37.913155
_cell_angle_gamma 90.000000
_cell_volume 734.965062
_symmetry_space_group_name_H-M "P 21"
_symmetry_group_IT_number 4
_symmetry_cell_setting 'monoclinic'
loop_
_space_group_symop_operation_xyz
x,y,z
-x,1/2+y,-z
loop_
_atom_site_type_symbol
_atom_site_label
_atom_site_fract_x
_atom_site_fract_y
_atom_site_fract_z
Si Si1 0.203889 0.501210 0.169847
Si Si2 0.279749 0.758896 0.058693
Si Si3 0.088079 0.293678 0.738984
Si Si4 0.796224 0.584741 0.577557
Si Si5 0.614587 0.928359 0.715594
Si Si6 0.614506 0.657603 0.055331
Si Si7 0.911818 0.792269 0.915252
Si Si8 0.279655 0.827049 0.381823
O O1 0.319612 0.437219 0.182066
O O2 0.000059 0.542982 0.434156
O O3 0.314005 0.618563 0.008181
O O4 0.176585 0.412356 0.061904
O O5 0.480046 0.816713 0.828867
O O6 0.203254 0.792973 0.296701
O O7 0.127759 0.806733 0.094932
O O8 0.176476 0.173594 0.584998
O O9 0.204327 0.407597 0.567499
O O10 0.098407 0.292983 0.901587
O O11 0.686131 0.467383 0.636113
O O12 0.680475 0.648734 0.821251
O O13 0.500066 0.042985 0.778972
O O14 0.795496 0.678362 0.976414
O O15 0.479957 0.769257 0.211066
O O16 0.127623 0.779184 0.649581
#
# Coordination Sequence:
#
# PCOD8046702 Si02
#       8
#     2   2   2   2   2   2   2   2
#     4  10  22  44  71 102 132 178 231 290 346 403
#     4  11  22  44  71 100 133 173 233 288 347 398
#     4  11  26  46  64  98 142 185 223 275 349 422
#     4  10  22  44  71 102 132 178 231 290 346 403
#     4  12  25  41  71 104 129 175 235 292 339 401
#     4  12  25  41  71 104 129 175 235 292 339 401
#     4  11  26  46  64  98 142 185 223 275 349 422
#     4  11  22  44  71 100 133 173 233 288 347 398
#
# _framework density 21.769745
#
# number of rings (size 3 to 8) (size 9 to 14) (size 15 to 20)
#    0.000    1.000    2.500    5.250    0.000    1.000 
#   18.000    0.000    0.000    0.000    0.000    0.000 
#    0.000    0.000    0.000    0.000    0.000    0.000 
#
# Total GULP energy -198449.528952 kJ/mol
# GULP energy per Si atom -12403.095559 kJ/mol
# Density = 2.172020 g / cm^3
# Si number density = 21.769745 Si / 1000 Ang^3
#
#
#
# Elastic Constant Matrix: (Units=GPa)
#
#
# Indices 1 2 3 4 5 6 
#
# 1 100.7824 36.3091 75.6042 0.0000 10.6117 0.0000
# 2 36.3091 87.6575 39.2997 0.0000 -10.0825 0.0000
# 3 75.6042 39.2997 96.2760 0.0000 3.6685 0.0000
# 4 0.0000 0.0000 0.0000 36.1392 0.0000 -15.9839
# 5 10.6117 -10.0825 3.6685 0.0000 34.1288 0.0000
# 6 0.0000 0.0000 0.0000 -15.9839 0.0000 31.3841
#
#
#
# Elastic Compliance Matrix: (Units=1/GPa)
#
#
# Indices 1 2 3 4 5 6 
#
# 1 0.025848 -0.003087 -0.018774 0.000000 -0.006931 0.000000
# 2 -0.003087 0.015146 -0.003982 0.000000 0.005862 0.000000
# 3 -0.018774 -0.003982 0.026687 0.000000 0.001792 0.000000
# 4 0.000000 0.000000 0.000000 0.035716 0.000000 0.018190
# 5 -0.006931 0.005862 0.001792 0.000000 0.032995 0.000000
# 6 0.000000 0.000000 0.000000 0.018190 0.000000 0.041128
#
#
# Mechanical properties :
#
#
# Convention : Reuss Voigt Hill
#
# Bulk Modulus (GPa) = 62.51751 65.23801 63.87776
# Shear Modulus (GPa) = 21.31864 29.23063 25.27463
#
# Velocity S-wave (km/s) = 3.13274 3.66829 3.41104
# Velocity P-wave (km/s) = 6.47034 6.92633 6.70222
#
# Compressibility (1/GPa) = 0.01599552
#
# Stress axis : x y z
#
# Youngs Moduli (GPa) = 38.68788 66.02312 37.47174
#
# Poissons Ratio (x) = 0.20381 0.70349
# Poissons Ratio (y) = 0.11943 0.14921
# Poissons Ratio (z) = 0.72632 0.26290
#
# Static dielectric constant tensor:
#      x y z
#    x 3.789450 0.000000 -0.356590 
#    y 0.000000 4.259370 0.000000 
#    z -0.356590 0.000000 3.895640 
# 
# 
# High freq. dielectric constant tensor:
#      x y z
#    x 1.840280 0.000000 -0.033680 
#    y 0.000000 1.871560 0.000000 
#    z -0.033680 0.000000 1.850310 
# 
# From -- ./inp_files/8298.got.cif
#   From: 2010.03.12/outbox.cif.g09.slc.cpg/sg4_5_cif.got.tgz:8298.got - 2010.03.31 09:31:35.
