data_PCOD8046272
_publ_section_title
;
Structure prediction by ZEFSAII (Michael W. Deem and Ramdas Pophale) SiO2 
 PCOD8046272
Probable space group: P 21
;
_chemical_formula_sum "Si O2"
_cell_formula_units_Z 14
_cell_length_a 15.574340
_cell_length_b 4.890423
_cell_length_c 15.598742
_cell_angle_alpha 90.000000
_cell_angle_beta 148.403558
_cell_angle_gamma 90.000000
_cell_volume 622.474287
_symmetry_space_group_name_H-M "P 21"
_symmetry_group_IT_number 4
_symmetry_cell_setting 'monoclinic'
loop_
_space_group_symop_operation_xyz
x,y,z
-x,1/2+y,-z
loop_
_atom_site_type_symbol
_atom_site_label
_atom_site_fract_x
_atom_site_fract_y
_atom_site_fract_z
Si Si1 0.102440 0.296490 0.751924
Si Si2 0.550392 0.266109 0.594992
Si Si3 0.092006 0.751079 0.045777
Si Si4 0.602062 0.550556 0.103395
Si Si5 0.739321 0.284845 0.391537
Si Si6 0.319323 0.285174 0.550334
Si Si7 0.957012 0.304510 0.190171
O O1 0.116833 0.604556 0.799449
O O2 0.937032 0.274852 0.554595
O O3 0.253271 0.209325 0.821741
O O4 0.101674 0.107034 0.835444
O O5 0.552719 0.519482 0.532393
O O6 0.470743 0.353271 0.617598
O O7 0.735592 0.169949 0.766307
O O8 0.107963 0.717877 0.957448
O O9 0.952962 0.560163 0.968125
O O10 0.666358 0.393717 0.241514
O O11 0.476797 0.800446 0.019066
O O12 0.673141 0.474892 0.411475
O O13 0.675814 0.982172 0.361824
O O14 0.153428 0.316533 0.354987
#
# Coordination Sequence:
#
# PCOD8046272 Si02
#       7
#     2   2   2   2   2   2   2
#     4  10  23  42  66  91 125 171 213 255 315 387
#     4  12  25  42  66  96 131 171 213 263 317 377
#     4  12  25  42  66  96 131 171 213 263 317 377
#     4  12  26  42  64  98 134 166 208 270 322 370
#     4  10  23  42  66  91 125 171 213 255 315 387
#     4  10  21  40  65  94 125 164 214 265 314 374
#     4  10  21  40  65  94 125 164 214 265 314 374
#
# _framework density 22.49089
#
# number of rings (size 3 to 8) (size 9 to 14) (size 15 to 20)
#    0.000    1.143    0.000    6.000    0.000   10.286 
#    0.000    0.000    0.000    0.000    0.000    0.000 
#    0.000    0.000    0.000    0.000    0.000    0.000 
#
# Total GULP energy -173637.817746 kJ/mol
# GULP energy per Si atom -12402.701268 kJ/mol
# Density = 2.243970 g / cm^3
# Si number density = 22.490890 Si / 1000 Ang^3
#
#
#
# Elastic Constant Matrix: (Units=GPa)
#
#
# Indices 1 2 3 4 5 6 
#
# 1 75.3613 4.9700 58.3651 0.0000 2.7808 0.0000
# 2 4.9700 96.0505 32.7632 0.0000 5.1213 0.0000
# 3 58.3651 32.7632 97.1626 0.0000 4.7407 0.0000
# 4 0.0000 0.0000 0.0000 36.4826 0.0000 2.4289
# 5 2.7808 5.1213 4.7407 0.0000 25.7260 0.0000
# 6 0.0000 0.0000 0.0000 2.4289 0.0000 25.6355
#
#
#
# Elastic Compliance Matrix: (Units=1/GPa)
#
#
# Indices 1 2 3 4 5 6 
#
# 1 0.026494 0.004609 -0.017441 0.000000 -0.000567 0.000000
# 2 0.004609 0.012634 -0.006944 0.000000 -0.001734 0.000000
# 3 -0.017441 -0.006944 0.023159 0.000000 -0.001000 0.000000
# 4 0.000000 0.000000 0.000000 0.027584 0.000000 -0.002614
# 5 -0.000567 -0.001734 -0.001000 0.000000 0.039462 0.000000
# 6 0.000000 0.000000 0.000000 -0.002614 0.000000 0.039256
#
#
# Mechanical properties :
#
#
# Convention : Reuss Voigt Hill
#
# Bulk Modulus (GPa) = 43.98693 51.19676 47.59184
# Shear Modulus (GPa) = 23.17815 29.06722 26.12268
#
# Velocity S-wave (km/s) = 3.21371 3.59890 3.41174
# Velocity P-wave (km/s) = 5.77674 6.33105 6.06023
#
# Compressibility (1/GPa) = 0.02273403
#
# Stress axis : x y z
#
# Youngs Moduli (GPa) = 37.74421 79.15311 43.17944
#
# Poissons Ratio (x) = -0.36479 0.75310
# Poissons Ratio (y) = -0.17395 0.29983
# Poissons Ratio (z) = 0.65831 0.54963
#
# Static dielectric constant tensor:
#      x y z
#    x 3.700450 0.000000 0.066960 
#    y 0.000000 4.421770 0.000000 
#    z 0.066960 0.000000 4.045190 
# 
# 
# High freq. dielectric constant tensor:
#      x y z
#    x 1.877320 0.000000 0.001460 
#    y 0.000000 1.906310 0.000000 
#    z 0.001460 0.000000 1.884960 
# 
# From -- ./inp_files/14104.got.cif
#   From: 2010.03.12/outbox.cif.g09.slc.cpg/sg4_8_cif.got.tgz:14104.got - 2010.03.31 09:31:35.
