data_PCOD8046903
_publ_section_title
;
Structure prediction by ZEFSAII (Michael W. Deem and Ramdas Pophale) SiO2 
 PCOD8046903
Probable space group: P 21
;
_chemical_formula_sum "Si O2"
_cell_formula_units_Z 16
_cell_length_a 11.520301
_cell_length_b 12.901384
_cell_length_c 10.992526
_cell_angle_alpha 90.000000
_cell_angle_beta 25.667987
_cell_angle_gamma 90.000000
_cell_volume 707.687491
_symmetry_space_group_name_H-M "P 21"
_symmetry_group_IT_number 4
_symmetry_cell_setting 'monoclinic'
loop_
_space_group_symop_operation_xyz
x,y,z
-x,1/2+y,-z
loop_
_atom_site_type_symbol
_atom_site_label
_atom_site_fract_x
_atom_site_fract_y
_atom_site_fract_z
Si Si1 0.438107 0.984360 0.970588
Si Si2 0.895205 0.356754 0.324327
Si Si3 0.582683 0.970773 0.111860
Si Si4 0.375654 0.648171 0.371008
Si Si5 0.667527 0.572733 0.303711
Si Si6 0.775550 0.128392 0.104528
Si Si7 0.140997 0.854161 0.925679
Si Si8 0.881767 0.943499 0.383964
O O1 0.645069 0.910287 0.700502
O O2 0.491812 0.105022 0.879311
O O3 0.473941 0.979961 0.079785
O O4 0.148454 0.941181 0.212946
O O5 0.669814 0.443873 0.562240
O O6 0.784997 0.254002 0.494797
O O7 0.185539 0.383166 0.104760
O O8 0.945423 0.343782 0.132692
O O9 0.717127 0.079936 0.026605
O O10 0.609800 0.658150 0.252545
O O11 0.166711 0.561149 0.619020
O O12 0.408987 0.562901 0.631829
O O13 0.918762 0.607868 0.146212
O O14 0.687667 0.459832 0.218813
O O15 0.703051 0.250255 0.180394
O O16 0.894504 0.867042 0.254522
#
# Coordination Sequence:
#
# PCOD8046903 Si02
#       8
#     2   2   2   2   2   2   2   2
#     4  10  24  45  72  87 144 179 230 277 319 395
#     4  12  27  39  78  98 142 178 223 279 358 403
#     4  12  26  50  61 106 140 183 225 288 330 399
#     4  10  25  44  71 103 130 188 227 276 335 413
#     4  12  24  42  67 101 140 176 221 285 342 410
#     4  12  27  42  68  99 144 178 217 288 348 403
#     4  12  24  43  71 105 135 173 227 277 359 406
#     4  10  23  43  72  97 131 177 226 284 323 399
#
# _framework density 22.60885
#
# number of rings (size 3 to 8) (size 9 to 14) (size 15 to 20)
#    0.750    0.000    5.000    1.500    3.500    4.000 
#    4.500    0.000    0.000    0.000    0.000    0.000 
#    0.000    0.000    0.000    0.000    0.000    0.000 
#
# Total GULP energy -198295.540872 kJ/mol
# GULP energy per Si atom -12393.471304 kJ/mol
# Density = 2.255739 g / cm^3
# Si number density = 22.608850 Si / 1000 Ang^3
#
#
#
# Elastic Constant Matrix: (Units=GPa)
#
#
# Indices 1 2 3 4 5 6 
#
# 1 116.4130 18.4850 35.6617 0.0000 0.5887 0.0000
# 2 18.4850 81.0078 9.0858 0.0000 6.2575 0.0000
# 3 35.6617 9.0858 93.5106 0.0000 -12.4307 0.0000
# 4 0.0000 0.0000 0.0000 27.9201 0.0000 1.1988
# 5 0.5887 6.2575 -12.4307 0.0000 32.7944 0.0000
# 6 0.0000 0.0000 0.0000 1.1988 0.0000 23.1003
#
#
#
# Elastic Compliance Matrix: (Units=1/GPa)
#
#
# Indices 1 2 3 4 5 6 
#
# 1 0.010051 -0.001763 -0.003834 0.000000 -0.001297 0.000000
# 2 -0.001763 0.013075 -0.000974 0.000000 -0.002833 0.000000
# 3 -0.003834 -0.000974 0.012937 0.000000 0.005158 0.000000
# 4 0.000000 0.000000 0.000000 0.035897 0.000000 -0.001863
# 5 -0.001297 -0.002833 0.005158 0.000000 0.033012 0.000000
# 6 0.000000 0.000000 0.000000 -0.001863 0.000000 0.043386
#
#
# Mechanical properties :
#
#
# Convention : Reuss Voigt Hill
#
# Bulk Modulus (GPa) = 43.63261 46.37736 45.00498
# Shear Modulus (GPa) = 29.56105 31.94288 30.75197
#
# Velocity S-wave (km/s) = 3.61986 3.76287 3.69205
# Velocity P-wave (km/s) = 6.06729 6.27984 6.17448
#
# Compressibility (1/GPa) = 0.02291864
#
# Stress axis : x y z
#
# Youngs Moduli (GPa) = 99.49005 76.48216 77.29965
#
# Poissons Ratio (x) = 0.13486 0.29639
# Poissons Ratio (y) = 0.17543 0.07533
# Poissons Ratio (z) = 0.38148 0.07453
#
# Static dielectric constant tensor:
#      x y z
#    x 3.861970 0.000000 0.001500 
#    y 0.000000 4.037120 0.000000 
#    z 0.001500 0.000000 4.133760 
# 
# 
# High freq. dielectric constant tensor:
#      x y z
#    x 1.883000 0.000000 -0.003160 
#    y 0.000000 1.870130 0.000000 
#    z -0.003160 0.000000 1.902370 
# 
# From -- ./inp_files/12348.got.cif
#   From: 2010.03.12/outbox.cif.g09.slc.cpg/sg4_7_cif.got.tgz:12348.got - 2010.03.31 09:31:35.
