data_PCOD8046143
_publ_section_title
;
Structure prediction by ZEFSAII (Michael W. Deem and Ramdas Pophale) SiO2 
 PCOD8046143
Probable space group: P 21
;
_chemical_formula_sum "Si O2"
_cell_formula_units_Z 14
_cell_length_a 9.577439
_cell_length_b 7.342688
_cell_length_c 16.899840
_cell_angle_alpha 90.000000
_cell_angle_beta 35.787157
_cell_angle_gamma 90.000000
_cell_volume 694.986706
_symmetry_space_group_name_H-M "P 21"
_symmetry_group_IT_number 4
_symmetry_cell_setting 'monoclinic'
loop_
_space_group_symop_operation_xyz
x,y,z
-x,1/2+y,-z
loop_
_atom_site_type_symbol
_atom_site_label
_atom_site_fract_x
_atom_site_fract_y
_atom_site_fract_z
Si Si1 0.863204 0.091090 0.554247
Si Si2 0.500153 0.077973 0.098882
Si Si3 0.234482 0.398379 0.150448
Si Si4 0.377467 0.163212 0.483568
Si Si5 0.630546 0.711857 0.680939
Si Si6 0.151443 0.759372 0.280563
Si Si7 0.755787 0.261227 0.437691
O O1 0.804782 0.248929 0.644781
O O2 0.781272 0.131785 0.502209
O O3 0.149892 0.068605 0.421696
O O4 0.744440 0.909757 0.645327
O O5 0.448387 0.259867 0.072283
O O6 0.547616 0.144484 0.167488
O O7 0.274139 0.942954 0.194031
O O8 0.729942 0.971847 0.956585
O O9 0.256883 0.576491 0.194192
O O10 0.990660 0.286745 0.275471
O O11 0.503183 0.221595 0.342688
O O12 0.547888 0.178491 0.479729
O O13 0.132277 0.277409 0.608945
O O14 0.316781 0.955048 0.496686
#
# Coordination Sequence:
#
# PCOD8046143 Si02
#       7
#     2   2   2   2   2   2   2
#     4  11  19  34  59  92 123 150 197 259 309 353
#     4  12  21  38  61  86 124 162 205 249 289 354
#     4  11  23  37  60  90 122 161 205 243 296 357
#     4  10  22  36  57  89 122 156 191 253 316 361
#     4  11  20  34  59  90 119 158 199 251 305 354
#     4  10  21  37  59  92 122 152 200 253 306 355
#     4  11  22  38  57  91 124 155 199 248 311 366
#
# _framework density 20.144269000000001
#
# number of rings (size 3 to 8) (size 9 to 14) (size 15 to 20)
#    0.000    1.143    4.286    5.143    2.000    0.000 
#    0.000    0.000    0.000   10.286    0.000    0.000 
#    0.000    0.000    0.000    0.000    0.000    0.000 
#
# Total GULP energy -173453.808671 kJ/mol
# GULP energy per Si atom -12389.557762 kJ/mol
# Density = 2.009842 g / cm^3
# Si number density = 20.144269 Si / 1000 Ang^3
#
#
#
# Elastic Constant Matrix: (Units=GPa)
#
#
# Indices 1 2 3 4 5 6 
#
# 1 117.7875 9.2086 37.8813 0.0000 12.1374 0.0000
# 2 9.2086 61.9825 28.4488 0.0000 8.3091 0.0000
# 3 37.8813 28.4488 84.5954 0.0000 28.1654 0.0000
# 4 0.0000 0.0000 0.0000 32.3374 0.0000 14.2988
# 5 12.1374 8.3091 28.1654 0.0000 29.8729 0.0000
# 6 0.0000 0.0000 0.0000 14.2988 0.0000 24.5300
#
#
#
# Elastic Compliance Matrix: (Units=1/GPa)
#
#
# Indices 1 2 3 4 5 6 
#
# 1 0.009943 0.000676 -0.004769 0.000000 0.000269 0.000000
# 2 0.000676 0.019148 -0.007109 0.000000 0.001102 0.000000
# 3 -0.004769 -0.007109 0.021927 0.000000 -0.016759 0.000000
# 4 0.000000 0.000000 0.000000 0.041662 0.000000 -0.024285
# 5 0.000269 0.001102 -0.016759 0.000000 0.048860 0.000000
# 6 0.000000 0.000000 0.000000 -0.024285 0.000000 0.054923
#
#
# Mechanical properties :
#
#
# Convention : Reuss Voigt Hill
#
# Bulk Modulus (GPa) = 34.94841 46.16032 40.55436
# Shear Modulus (GPa) = 21.89082 29.93650 25.91366
#
# Velocity S-wave (km/s) = 3.30009 3.85919 3.59054
# Velocity P-wave (km/s) = 5.64868 6.54388 6.11269
#
# Compressibility (1/GPa) = 0.02861360
#
# Stress axis : x y z
#
# Youngs Moduli (GPa) = 100.57171 52.22393 45.60602
#
# Poissons Ratio (x) = -0.03529 0.21750
# Poissons Ratio (y) = -0.06796 0.32421
# Poissons Ratio (z) = 0.47965 0.37126
#
# Static dielectric constant tensor:
#      x y z
#    x 4.431320 0.000000 0.298480 
#    y 0.000000 3.835920 0.000000 
#    z 0.298480 0.000000 3.625650 
# 
# 
# High freq. dielectric constant tensor:
#      x y z
#    x 1.765570 0.000000 0.040140 
#    y 0.000000 1.816630 0.000000 
#    z 0.040140 0.000000 1.753720 
# 
# From -- ./inp_files/9129.got.cif
#   From: 2010.03.12/outbox.cif.g09.slc.cpg/sg4_5_cif.got.tgz:9129.got - 2010.03.31 09:31:35.
