data_PCOD8046924
_publ_section_title
;
Structure prediction by ZEFSAII (Michael W. Deem and Ramdas Pophale) SiO2 
 PCOD8046924
Probable space group: P 21
;
_chemical_formula_sum "Si O2"
_cell_formula_units_Z 16
_cell_length_a 6.014574
_cell_length_b 9.620725
_cell_length_c 11.813585
_cell_angle_alpha 90.000000
_cell_angle_beta 82.947482
_cell_angle_gamma 90.000000
_cell_volume 678.415920
_symmetry_space_group_name_H-M "P 21"
_symmetry_group_IT_number 4
_symmetry_cell_setting 'monoclinic'
loop_
_space_group_symop_operation_xyz
x,y,z
-x,1/2+y,-z
loop_
_atom_site_type_symbol
_atom_site_label
_atom_site_fract_x
_atom_site_fract_y
_atom_site_fract_z
Si Si1 0.317253 0.159620 0.910362
Si Si2 0.883621 0.427793 0.210272
Si Si3 0.248147 0.633167 0.243926
Si Si4 0.456981 0.290711 0.343900
Si Si5 0.903558 0.915185 0.475024
Si Si6 0.163109 0.165590 0.164576
Si Si7 0.750216 0.196373 0.510419
Si Si8 0.930886 0.870753 0.218413
O O1 0.553470 0.097258 0.854270
O O2 0.260355 0.309902 0.854973
O O3 0.140173 0.039017 0.889367
O O4 0.321828 0.170267 0.045081
O O5 0.644433 0.396435 0.283295
O O6 0.077672 0.501721 0.275646
O O7 0.975078 0.282459 0.159106
O O8 0.352470 0.675850 0.358742
O O9 0.136056 0.766126 0.193719
O O10 0.300812 0.388638 0.428010
O O11 0.324967 0.198336 0.260239
O O12 0.565956 0.180717 0.424017
O O13 0.840588 0.862006 0.352964
O O14 0.129156 0.845286 0.507571
O O15 0.941429 0.081216 0.471027
O O16 0.023064 0.023415 0.183755
#
# Coordination Sequence:
#
# PCOD8046924 Si02
#       8
#     2   2   2   2   2   2   2   2
#     4  11  24  45  72  94 128 179 224 275 335 391
#     4  11  24  45  67  96 133 172 224 275 326 394
#     4  10  23  44  68  97 130 173 225 271 330 398
#     4  12  25  40  67 100 135 177 216 267 338 400
#     4  11  23  42  67  97 133 172 217 270 330 397
#     4  12  26  44  67 100 136 173 223 274 329 398
#     4  11  23  41  66  95 133 171 216 274 328 394
#     4  10  24  43  66 101 136 169 221 282 330 388
#
# _framework density 23.584351000000002
#
# number of rings (size 3 to 8) (size 9 to 14) (size 15 to 20)
#    0.000    1.000    0.000    6.750    0.000   11.000 
#    0.000    1.250    0.000    0.000    0.000    0.000 
#    0.000    0.000    0.000    0.000    0.000    0.000 
#
# Total GULP energy -198332.545643 kJ/mol
# GULP energy per Si atom -12395.784103 kJ/mol
# Density = 2.353067 g / cm^3
# Si number density = 23.584351 Si / 1000 Ang^3
#
#
#
# Elastic Constant Matrix: (Units=GPa)
#
#
# Indices 1 2 3 4 5 6 
#
# 1 72.1550 24.8514 54.3056 0.0000 -10.9894 0.0000
# 2 24.8514 131.8774 22.5926 0.0000 1.3750 0.0000
# 3 54.3056 22.5926 128.1493 0.0000 -9.4887 0.0000
# 4 0.0000 0.0000 0.0000 24.7926 0.0000 2.2552
# 5 -10.9894 1.3750 -9.4887 0.0000 35.2722 0.0000
# 6 0.0000 0.0000 0.0000 2.2552 0.0000 34.5510
#
#
#
# Elastic Compliance Matrix: (Units=1/GPa)
#
#
# Indices 1 2 3 4 5 6 
#
# 1 0.021854 -0.002721 -0.008437 0.000000 0.004645 0.000000
# 2 -0.002721 0.008174 -0.000382 0.000000 -0.001269 0.000000
# 3 -0.008437 -0.000382 0.011481 0.000000 0.000475 0.000000
# 4 0.000000 0.000000 0.000000 0.040576 0.000000 -0.002648
# 5 0.004645 -0.001269 0.000475 0.000000 0.029975 0.000000
# 6 0.000000 0.000000 0.000000 -0.002648 0.000000 0.029116
#
#
# Mechanical properties :
#
#
# Convention : Reuss Voigt Hill
#
# Bulk Modulus (GPa) = 54.26342 59.52007 56.89175
# Shear Modulus (GPa) = 29.34278 34.28529 31.81403
#
# Velocity S-wave (km/s) = 3.53110 3.81692 3.67679
# Velocity P-wave (km/s) = 6.29945 6.68708 6.49616
#
# Compressibility (1/GPa) = 0.01842862
#
# Stress axis : x y z
#
# Youngs Moduli (GPa) = 45.75855 122.33526 87.09789
#
# Poissons Ratio (x) = 0.33290 0.73487
# Poissons Ratio (y) = 0.12452 0.03327
# Poissons Ratio (z) = 0.38608 0.04672
#
# Static dielectric constant tensor:
#      x y z
#    x 4.143200 0.000000 0.125330 
#    y 0.000000 4.401290 0.000000 
#    z 0.125330 0.000000 4.265730 
# 
# 
# High freq. dielectric constant tensor:
#      x y z
#    x 1.922120 0.000000 0.002880 
#    y 0.000000 1.947990 0.000000 
#    z 0.002880 0.000000 1.937810 
# 
# From -- ./inp_files/2589.got.cif
#   From: 2010.03.12/outbox.cif.g09.slc.cpg/sg4_2_cif.got.tgz:2589.got - 2010.03.31 09:31:35.
