data_PCOD8046497
_publ_section_title
;
Structure prediction by ZEFSAII (Michael W. Deem and Ramdas Pophale) SiO2 
 PCOD8046497
Probable space group: P 21
;
_chemical_formula_sum "Si O2"
_cell_formula_units_Z 12
_cell_length_a 12.813464
_cell_length_b 5.281258
_cell_length_c 20.906959
_cell_angle_alpha 90.000000
_cell_angle_beta 158.654483
_cell_angle_gamma 90.000000
_cell_volume 514.974559
_symmetry_space_group_name_H-M "P 21"
_symmetry_group_IT_number 4
_symmetry_cell_setting 'monoclinic'
loop_
_space_group_symop_operation_xyz
x,y,z
-x,1/2+y,-z
loop_
_atom_site_type_symbol
_atom_site_label
_atom_site_fract_x
_atom_site_fract_y
_atom_site_fract_z
Si Si1 0.540806 0.018980 0.408098
Si Si2 0.316714 0.518982 0.212542
Si Si3 0.423274 0.125007 0.052414
Si Si4 0.058707 0.026293 0.224806
Si Si5 0.762037 0.326723 0.948524
Si Si6 0.128020 0.848276 0.774180
O O1 0.455407 0.252267 0.312824
O O2 0.389564 0.001441 0.391598
O O3 0.465296 0.754470 0.331889
O O4 0.880673 0.049258 0.614773
O O5 0.358048 0.587501 0.160469
O O6 0.970719 0.506846 0.025013
O O7 0.129777 0.279150 0.894753
O O8 0.373089 0.944611 0.962412
O O9 0.708657 0.282454 0.198592
O O10 0.488056 0.985840 0.157717
O O11 0.034933 0.110072 0.285379
O O12 0.949220 0.246100 0.116023
#
# Coordination Sequence:
#
# PCOD8046497 Si02
#       6
#     2   2   2   2   2   2
#     4  11  26  41  68 108 142 181 233 295 362 406
#     4  11  23  42  70 105 138 181 235 303 348 404
#     4  11  22  42  66 103 134 191 235 280 356 428
#     4  10  22  39  65 100 136 181 231 288 347 411
#     4  10  22  40  71 102 133 180 244 289 341 424
#     4  11  25  40  68 100 147 186 230 291 354 437
#
# _framework density 23.302122000000001
#
# number of rings (size 3 to 8) (size 9 to 14) (size 15 to 20)
#    0.000    1.333    3.333    2.000    7.000    0.000 
#    0.000    0.000    3.667    0.000    0.000    0.000 
#    0.000    0.000    0.000    0.000    0.000    0.000 
#
# Total GULP energy -148688.225177 kJ/mol
# GULP energy per Si atom -12390.685431 kJ/mol
# Density = 2.324909 g / cm^3
# Si number density = 23.302122 Si / 1000 Ang^3
#
#
#
# Elastic Constant Matrix: (Units=GPa)
#
#
# Indices 1 2 3 4 5 6 
#
# 1 135.8333 46.1937 50.3945 0.0000 23.0138 0.0000
# 2 46.1937 102.8129 25.1335 0.0000 8.1551 0.0000
# 3 50.3945 25.1335 83.6431 0.0000 17.8198 0.0000
# 4 0.0000 0.0000 0.0000 29.9377 0.0000 -2.6525
# 5 23.0138 8.1551 17.8198 0.0000 31.2166 0.0000
# 6 0.0000 0.0000 0.0000 -2.6525 0.0000 46.5191
#
#
#
# Elastic Compliance Matrix: (Units=1/GPa)
#
#
# Indices 1 2 3 4 5 6 
#
# 1 0.011034 -0.003462 -0.004631 0.000000 -0.004587 0.000000
# 2 -0.003462 0.011615 -0.001482 0.000000 0.000364 0.000000
# 3 -0.004631 -0.001482 0.016372 0.000000 -0.005545 0.000000
# 4 0.000000 0.000000 0.000000 0.033572 0.000000 0.001914
# 5 -0.004587 0.000364 -0.005545 0.000000 0.038486 0.000000
# 6 0.000000 0.000000 0.000000 0.001914 0.000000 0.021606
#
#
# Mechanical properties :
#
#
# Convention : Reuss Voigt Hill
#
# Bulk Modulus (GPa) = 50.32001 62.85920 56.58961
# Shear Modulus (GPa) = 31.55380 34.90583 33.22982
#
# Velocity S-wave (km/s) = 3.68382 3.87456 3.78039
# Velocity P-wave (km/s) = 6.30362 6.85934 6.58734
#
# Compressibility (1/GPa) = 0.01987281
#
# Stress axis : x y z
#
# Youngs Moduli (GPa) = 90.62520 86.09374 61.07931
#
# Poissons Ratio (x) = 0.29805 0.28284
# Poissons Ratio (y) = 0.31374 0.09052
# Poissons Ratio (z) = 0.41966 0.12759
#
# Static dielectric constant tensor:
#      x y z
#    x 4.720780 0.000000 0.108950 
#    y 0.000000 4.277420 0.000000 
#    z 0.108950 0.000000 3.852710 
# 
# 
# High freq. dielectric constant tensor:
#      x y z
#    x 1.927440 0.000000 0.005580 
#    y 0.000000 1.929720 0.000000 
#    z 0.005580 0.000000 1.879330 
# 
# From -- ./inp_files/8787.got.cif
#   From: 2010.03.12/outbox.cif.g09.slc.cpg/sg4_5_cif.got.tgz:8787.got - 2010.03.31 09:31:35.
