data_PCOD8046925
_publ_section_title
;
Structure prediction by ZEFSAII (Michael W. Deem and Ramdas Pophale) SiO2 
 PCOD8046925
Probable space group: P 21
;
_chemical_formula_sum "Si O2"
_cell_formula_units_Z 16
_cell_length_a 6.602404
_cell_length_b 13.119495
_cell_length_c 8.790975
_cell_angle_alpha 90.000000
_cell_angle_beta 105.554640
_cell_angle_gamma 90.000000
_cell_volume 733.587131
_symmetry_space_group_name_H-M "P 21"
_symmetry_group_IT_number 4
_symmetry_cell_setting 'monoclinic'
loop_
_space_group_symop_operation_xyz
x,y,z
-x,1/2+y,-z
loop_
_atom_site_type_symbol
_atom_site_label
_atom_site_fract_x
_atom_site_fract_y
_atom_site_fract_z
Si Si1 0.193013 0.012980 0.726683
Si Si2 0.844815 0.166930 0.213806
Si Si3 0.091474 0.470031 0.592723
Si Si4 0.925449 0.142848 0.885285
Si Si5 0.247840 0.295569 0.406043
Si Si6 0.786265 0.826580 0.139019
Si Si7 0.480838 0.833435 0.827593
Si Si8 0.471071 0.192759 0.707283
O O1 0.009716 0.044763 0.808993
O O2 0.381311 0.092555 0.769201
O O3 0.279333 0.905402 0.796425
O O4 0.118864 0.003737 0.536228
O O5 0.619350 0.223247 0.152712
O O6 0.028999 0.244795 0.305560
O O7 0.804769 0.076149 0.328170
O O8 0.896642 0.118850 0.058271
O O9 0.215668 0.399483 0.496625
O O10 0.056719 0.402802 0.739171
O O11 0.089285 0.233682 0.906826
O O12 0.720323 0.182211 0.755789
O O13 0.405112 0.332119 0.309192
O O14 0.375233 0.207618 0.520394
O O15 0.601273 0.791363 0.214268
O O16 0.657010 0.877882 0.976975
#
# Coordination Sequence:
#
# PCOD8046925 Si02
#       8
#     2   2   2   2   2   2   2   2
#     4  11  26  42  68 102 140 179 235 287 349 418
#     4  12  25  47  71 101 142 185 239 291 346 421
#     4  11  26  46  67 102 141 181 233 293 342 420
#     4  11  25  45  72 100 140 186 228 294 350 411
#     4  11  25  45  70 101 141 187 231 288 351 415
#     4  10  24  46  67 103 140 178 238 284 347 420
#     4  12  26  43  71 102 140 185 231 288 354 416
#     4  10  23  44  68  97 136 181 229 283 347 415
#
# _framework density 21.810632999999999
#
# number of rings (size 3 to 8) (size 9 to 14) (size 15 to 20)
#    0.000    1.000    5.000    0.000    7.000    1.000 
#    0.000    0.000    0.000    0.000    0.000    0.000 
#    0.000    0.000    0.000    0.000    0.000    0.000 
#
# Total GULP energy -198275.703562 kJ/mol
# GULP energy per Si atom -12392.231473 kJ/mol
# Density = 2.176099 g / cm^3
# Si number density = 21.810633 Si / 1000 Ang^3
#
#
#
# Elastic Constant Matrix: (Units=GPa)
#
#
# Indices 1 2 3 4 5 6 
#
# 1 86.6202 28.9324 46.3369 0.0000 -2.2803 0.0000
# 2 28.9324 93.6304 38.3922 0.0000 -7.0533 0.0000
# 3 46.3369 38.3922 133.0626 0.0000 3.6551 0.0000
# 4 0.0000 0.0000 0.0000 41.0162 0.0000 1.1605
# 5 -2.2803 -7.0533 3.6551 0.0000 35.0527 0.0000
# 6 0.0000 0.0000 0.0000 1.1605 0.0000 27.5609
#
#
#
# Elastic Compliance Matrix: (Units=1/GPa)
#
#
# Indices 1 2 3 4 5 6 
#
# 1 0.014830 -0.002709 -0.004407 0.000000 0.000879 0.000000
# 2 -0.002709 0.012891 -0.002850 0.000000 0.002715 0.000000
# 3 -0.004407 -0.002850 0.009924 0.000000 -0.001895 0.000000
# 4 0.000000 0.000000 0.000000 0.024410 0.000000 -0.001028
# 5 0.000879 0.002715 -0.001895 0.000000 0.029330 0.000000
# 6 0.000000 0.000000 0.000000 -0.001028 0.000000 0.036327
#
#
# Mechanical properties :
#
#
# Convention : Reuss Voigt Hill
#
# Bulk Modulus (GPa) = 56.45866 60.07067 58.26466
# Shear Modulus (GPa) = 32.56304 34.03609 33.29957
#
# Velocity S-wave (km/s) = 3.86811 3.95464 3.91161
# Velocity P-wave (km/s) = 6.77435 6.96088 6.86825
#
# Compressibility (1/GPa) = 0.01771208
#
# Stress axis : x y z
#
# Youngs Moduli (GPa) = 67.43018 77.57461 100.76262
#
# Poissons Ratio (x) = 0.21018 0.44404
# Poissons Ratio (y) = 0.18270 0.28721
# Poissons Ratio (z) = 0.29715 0.22112
#
# Static dielectric constant tensor:
#      x y z
#    x 3.716600 0.000000 0.033140 
#    y 0.000000 4.078670 0.000000 
#    z 0.033140 0.000000 4.229430 
# 
# 
# High freq. dielectric constant tensor:
#      x y z
#    x 1.841490 0.000000 0.006020 
#    y 0.000000 1.859690 0.000000 
#    z 0.006020 0.000000 1.876520 
# 
# From -- ./inp_files/1649.got.cif
#   From: 2010.03.12/outbox.cif.g09.slc.cpg/sg4_1_cif.got.tgz:1649.got - 2010.03.31 09:31:35.
