data_PCOD8046294
_publ_section_title
;
Structure prediction by ZEFSAII (Michael W. Deem and Ramdas Pophale) SiO2 
 PCOD8046294
Probable space group: P 21
;
_chemical_formula_sum "Si O2"
_cell_formula_units_Z 16
_cell_length_a 8.019332
_cell_length_b 16.627112
_cell_length_c 5.545993
_cell_angle_alpha 90.000000
_cell_angle_beta 57.193027
_cell_angle_gamma 90.000000
_cell_volume 621.544742
_symmetry_space_group_name_H-M "P 21"
_symmetry_group_IT_number 4
_symmetry_cell_setting 'monoclinic'
loop_
_space_group_symop_operation_xyz
x,y,z
-x,1/2+y,-z
loop_
_atom_site_type_symbol
_atom_site_label
_atom_site_fract_x
_atom_site_fract_y
_atom_site_fract_z
Si Si1 0.635611 0.578250 0.151488
Si Si2 0.435936 0.294046 0.085975
Si Si3 0.018337 0.365258 0.482882
Si Si4 0.747479 0.395841 0.077911
Si Si5 0.018851 0.540958 0.339905
Si Si6 0.079500 0.607321 0.796794
Si Si7 0.397589 0.128232 0.326709
Si Si8 0.283638 0.763833 0.516590
O O1 0.703993 0.488250 0.151176
O O2 0.503260 0.603209 0.491700
O O3 0.514824 0.589558 0.992303
O O4 0.842909 0.628461 0.971935
O O5 0.240529 0.346602 0.235647
O O6 0.604775 0.360945 0.982713
O O7 0.419284 0.225344 0.304611
O O8 0.503026 0.248422 0.784709
O O9 0.958902 0.446469 0.380535
O O10 0.894488 0.284372 0.527609
O O11 0.974418 0.385384 0.800706
O O12 0.695777 0.345206 0.350543
O O13 0.136979 0.560942 0.499238
O O14 0.828290 0.598618 0.480453
O O15 0.138462 0.558990 0.997217
O O16 0.209764 0.687830 0.725625
#
# Coordination Sequence:
#
# PCOD8046294 Si02
#       8
#     2   2   2   2   2   2   2   2
#     4  10  21  42  73  97 139 192 245 294 362 427
#     4  11  28  45  70 111 149 190 243 301 375 439
#     4  11  23  47  75 100 147 192 243 299 373 437
#     4  11  25  46  71 107 146 193 238 308 369 438
#     4  10  21  42  72 105 130 194 248 294 353 436
#     4  10  21  40  69 101 138 182 249 289 358 423
#     4  10  21  42  68 100 140 188 238 296 358 426
#     4  11  26  44  72 105 147 193 240 305 366 444
#
# _framework density 25.742317
#
# number of rings (size 3 to 8) (size 9 to 14) (size 15 to 20)
#    0.000    1.500    2.500    3.000   10.500    1.000 
#    2.250    0.000    0.000    0.000    0.000    0.000 
#    0.000    0.000    0.000    0.000    0.000    0.000 
#
# Total GULP energy -198218.518370 kJ/mol
# GULP energy per Si atom -12388.657398 kJ/mol
# Density = 2.568373 g / cm^3
# Si number density = 25.742317 Si / 1000 Ang^3
#
#
#
# Elastic Constant Matrix: (Units=GPa)
#
#
# Indices 1 2 3 4 5 6 
#
# 1 43.3816 7.2052 43.5383 0.0000 20.0765 0.0000
# 2 7.2052 109.2538 61.0488 0.0000 -9.9135 0.0000
# 3 43.5383 61.0488 192.7496 0.0000 25.1099 0.0000
# 4 0.0000 0.0000 0.0000 45.4454 0.0000 8.7665
# 5 20.0765 -9.9135 25.1099 0.0000 53.9849 0.0000
# 6 0.0000 0.0000 0.0000 8.7665 0.0000 30.7448
#
#
#
# Elastic Compliance Matrix: (Units=1/GPa)
#
#
# Indices 1 2 3 4 5 6 
#
# 1 0.033981 0.000613 -0.006641 0.000000 -0.009436 0.000000
# 2 0.000613 0.011969 -0.004456 0.000000 0.004043 0.000000
# 3 -0.006641 -0.004456 0.008393 0.000000 -0.002252 0.000000
# 4 0.000000 0.000000 0.000000 0.023285 0.000000 -0.006639
# 5 -0.009436 0.004043 -0.002252 0.000000 0.023823 0.000000
# 6 0.000000 0.000000 0.000000 -0.006639 0.000000 0.034419
#
#
# Mechanical properties :
#
#
# Convention : Reuss Voigt Hill
#
# Bulk Modulus (GPa) = 29.96138 63.21883 46.59011
# Shear Modulus (GPa) = 29.76857 41.60788 35.68822
#
# Velocity S-wave (km/s) = 3.40429 4.02471 3.72743
# Velocity P-wave (km/s) = 5.20735 6.79775 6.05499
#
# Compressibility (1/GPa) = 0.03337629
#
# Stress axis : x y z
#
# Youngs Moduli (GPa) = 29.42837 83.54625 119.14803
#
# Poissons Ratio (x) = -0.05126 0.79122
# Poissons Ratio (y) = -0.01805 0.53095
# Poissons Ratio (z) = 0.19542 0.37230
#
# Static dielectric constant tensor:
#      x y z
#    x 4.682690 0.000000 0.525310 
#    y 0.000000 4.740360 0.000000 
#    z 0.525310 0.000000 5.281230 
# 
# 
# High freq. dielectric constant tensor:
#      x y z
#    x 2.004360 0.000000 0.014700 
#    y 0.000000 2.033320 0.000000 
#    z 0.014700 0.000000 2.050830 
# 
# From -- ./inp_files/1910.got.cif
#   From: 2010.03.12/outbox.cif.g09.slc.cpg/sg4_1_cif.got.tgz:1910.got - 2010.03.31 09:31:35.
