data_PCOD8046311
_publ_section_title
;
Structure prediction by ZEFSAII (Michael W. Deem and Ramdas Pophale) SiO2 
 PCOD8046311
Probable space group: P 21
;
_chemical_formula_sum "Si O2"
_cell_formula_units_Z 16
_cell_length_a 11.565433
_cell_length_b 11.096357
_cell_length_c 5.137880
_cell_angle_alpha 90.000000
_cell_angle_beta 80.039610
_cell_angle_gamma 90.000000
_cell_volume 649.427338
_symmetry_space_group_name_H-M "P 21"
_symmetry_group_IT_number 4
_symmetry_cell_setting 'monoclinic'
loop_
_space_group_symop_operation_xyz
x,y,z
-x,1/2+y,-z
loop_
_atom_site_type_symbol
_atom_site_label
_atom_site_fract_x
_atom_site_fract_y
_atom_site_fract_z
Si Si1 0.862262 0.867690 0.256022
Si Si2 0.122424 0.788539 0.195686
Si Si3 0.521740 0.232088 0.482541
Si Si4 0.318798 0.213057 0.921513
Si Si5 0.251876 0.857091 0.630553
Si Si6 0.800255 0.017679 0.780812
Si Si7 0.389789 0.032479 0.258837
Si Si8 0.570770 0.918396 0.839027
O O1 0.776345 0.748827 0.262662
O O2 0.855333 0.932185 0.536893
O O3 0.990856 0.814267 0.160689
O O4 0.830501 0.965287 0.052093
O O5 0.147603 0.852649 0.461514
O O6 0.140294 0.647645 0.235565
O O7 0.207437 0.847373 0.942898
O O8 0.450986 0.191135 0.763030
O O9 0.661759 0.242804 0.461657
O O10 0.488443 0.132917 0.280453
O O11 0.479085 0.368125 0.414093
O O12 0.292382 0.092497 0.100830
O O13 0.327869 0.325744 0.110150
O O14 0.322922 0.982277 0.541630
O O15 0.657677 0.034162 0.777626
O O16 0.461110 0.927427 0.080627
#
# Coordination Sequence:
#
# PCOD8046311 Si02
#       8
#     2   2   2   2   2   2   2   2
#     4  11  25  51  73 103 143 188 256 295 349 441
#     4  12  28  49  73 107 145 189 246 303 364 427
#     4  11  23  41  67 102 144 188 239 290 366 451
#     4  10  23  42  68 104 138 193 240 296 356 444
#     4  12  27  46  69 109 152 187 238 308 362 439
#     4  11  24  46  78 103 137 199 238 298 365 429
#     4  11  25  40  70 107 149 191 229 308 382 424
#     4  10  21  41  64 103 146 187 238 292 360 449
#
# _framework density 24.637091000000002
#
# number of rings (size 3 to 8) (size 9 to 14) (size 15 to 20)
#    0.000    1.000    2.500    3.000    7.000    2.000 
#    2.250    0.000    0.000    0.000    0.000    0.000 
#    0.000    0.000    0.000    0.000    0.000    0.000 
#
# Total GULP energy -198274.740058 kJ/mol
# GULP energy per Si atom -12392.171254 kJ/mol
# Density = 2.458102 g / cm^3
# Si number density = 24.637091 Si / 1000 Ang^3
#
#
#
# Elastic Constant Matrix: (Units=GPa)
#
#
# Indices 1 2 3 4 5 6 
#
# 1 89.5444 23.6995 9.9168 0.0000 -9.6747 0.0000
# 2 23.6995 80.7487 19.1923 0.0000 -5.1514 0.0000
# 3 9.9168 19.1923 104.5400 0.0000 -7.7199 0.0000
# 4 0.0000 0.0000 0.0000 34.8238 0.0000 1.7019
# 5 -9.6747 -5.1514 -7.7199 0.0000 36.8840 0.0000
# 6 0.0000 0.0000 0.0000 1.7019 0.0000 26.3051
#
#
#
# Elastic Compliance Matrix: (Units=1/GPa)
#
#
# Indices 1 2 3 4 5 6 
#
# 1 0.012394 -0.003381 -0.000355 0.000000 0.002704 0.000000
# 2 -0.003381 0.013936 -0.002193 0.000000 0.000601 0.000000
# 3 -0.000355 -0.002193 0.010129 0.000000 0.001721 0.000000
# 4 0.000000 0.000000 0.000000 0.028807 0.000000 -0.001864
# 5 0.002704 0.000601 0.001721 0.000000 0.028265 0.000000
# 6 0.000000 0.000000 0.000000 -0.001864 0.000000 0.038136
#
#
# Mechanical properties :
#
#
# Convention : Reuss Voigt Hill
#
# Bulk Modulus (GPa) = 40.64995 42.27225 41.46110
# Shear Modulus (GPa) = 32.95405 34.40421 33.67913
#
# Velocity S-wave (km/s) = 3.66126 3.74095 3.70132
# Velocity P-wave (km/s) = 5.86587 5.98789 5.92719
#
# Compressibility (1/GPa) = 0.02460027
#
# Stress axis : x y z
#
# Youngs Moduli (GPa) = 80.68466 71.75693 98.72480
#
# Poissons Ratio (x) = 0.24258 0.03508
# Poissons Ratio (y) = 0.27276 0.21655
# Poissons Ratio (z) = 0.02867 0.15739
#
# Static dielectric constant tensor:
#      x y z
#    x 4.418040 0.000000 0.176520 
#    y 0.000000 4.521690 0.000000 
#    z 0.176520 0.000000 4.305820 
# 
# 
# High freq. dielectric constant tensor:
#      x y z
#    x 1.966740 0.000000 0.015060 
#    y 0.000000 1.983610 0.000000 
#    z 0.015060 0.000000 1.986830 
# 
# From -- ./inp_files/3066.got.cif
#   From: 2010.03.12/outbox.cif.g09.slc.cpg/sg4_2_cif.got.tgz:3066.got - 2010.03.31 09:31:35.
