data_PCOD8046461
_publ_section_title
;
Structure prediction by ZEFSAII (Michael W. Deem and Ramdas Pophale) SiO2 
 PCOD8046461
Probable space group: P 21
;
_chemical_formula_sum "Si O2"
_cell_formula_units_Z 16
_cell_length_a 13.784699
_cell_length_b 7.875704
_cell_length_c 11.350786
_cell_angle_alpha 90.000000
_cell_angle_beta 148.510572
_cell_angle_gamma 90.000000
_cell_volume 643.675406
_symmetry_space_group_name_H-M "P 21"
_symmetry_group_IT_number 4
_symmetry_cell_setting 'monoclinic'
loop_
_space_group_symop_operation_xyz
x,y,z
-x,1/2+y,-z
loop_
_atom_site_type_symbol
_atom_site_label
_atom_site_fract_x
_atom_site_fract_y
_atom_site_fract_z
Si Si1 0.769992 0.611840 0.519348
Si Si2 0.546612 0.081809 0.441979
Si Si3 0.442658 0.463077 0.290919
Si Si4 0.959102 0.880109 0.096311
Si Si5 0.897612 0.103078 0.303303
Si Si6 0.744531 0.419739 0.009870
Si Si7 0.906157 0.914176 0.784287
Si Si8 0.086138 0.227253 0.716403
O O1 0.556314 0.546334 0.298361
O O2 0.782304 0.807993 0.564648
O O3 0.869544 0.508994 0.728795
O O4 0.888437 0.583537 0.522743
O O5 0.471672 0.261570 0.323062
O O6 0.487991 0.048944 0.516310
O O7 0.772777 0.078003 0.667820
O O8 0.452895 0.937123 0.260481
O O9 0.221822 0.488699 0.044145
O O10 0.995886 0.737373 0.234518
O O11 0.927509 0.812418 0.931456
O O12 0.770360 0.234574 0.096527
O O13 0.916005 0.176996 0.454114
O O14 0.819078 0.908309 0.224260
O O15 0.766624 0.571074 0.129832
O O16 0.894801 0.452630 0.062513
#
# Coordination Sequence:
#
# PCOD8046461 Si02
#       8
#     2   2   2   2   2   2   2   2
#     4  10  23  39  62  92 130 165 220 271 325 390
#     4  11  24  38  63  97 135 176 212 267 339 399
#     4  11  22  38  61  93 134 172 213 272 323 405
#     4  10  22  36  65  94 125 175 213 261 335 393
#     4  10  23  41  69 101 122 177 227 279 324 387
#     4  11  23  44  69  93 136 175 220 276 329 396
#     4  10  24  38  62  98 132 165 216 269 331 394
#     4  11  21  40  69  96 128 171 231 265 332 390
#
# _framework density 24.857250000000001
#
# number of rings (size 3 to 8) (size 9 to 14) (size 15 to 20)
#    0.000    1.500    2.500    2.250    5.250   10.000 
#    0.000    0.000    5.500    4.500    0.000    0.000 
#    0.000    0.000    0.000    0.000    0.000    0.000 
#
# Total GULP energy -198220.313354 kJ/mol
# GULP energy per Si atom -12388.769585 kJ/mol
# Density = 2.480067 g / cm^3
# Si number density = 24.857250 Si / 1000 Ang^3
#
#
#
# Elastic Constant Matrix: (Units=GPa)
#
#
# Indices 1 2 3 4 5 6 
#
# 1 62.2533 5.9544 26.9323 0.0000 -0.2308 0.0000
# 2 5.9544 109.3901 -9.4005 0.0000 -14.2248 0.0000
# 3 26.9323 -9.4005 37.7343 0.0000 -4.8743 0.0000
# 4 0.0000 0.0000 0.0000 29.4812 0.0000 -5.8182
# 5 -0.2308 -14.2248 -4.8743 0.0000 35.3751 0.0000
# 6 0.0000 0.0000 0.0000 -5.8182 0.0000 28.0427
#
#
#
# Elastic Compliance Matrix: (Units=1/GPa)
#
#
# Indices 1 2 3 4 5 6 
#
# 1 0.024545 -0.003456 -0.018875 0.000000 -0.003830 0.000000
# 2 -0.003456 0.010468 0.005717 0.000000 0.004974 0.000000
# 3 -0.018875 0.005717 0.042433 0.000000 0.008023 0.000000
# 4 0.000000 0.000000 0.000000 0.035368 0.000000 0.007338
# 5 -0.003830 0.004974 0.008023 0.000000 0.031349 0.000000
# 6 0.000000 0.000000 0.000000 0.007338 0.000000 0.037182
#
#
# Mechanical properties :
#
#
# Convention : Reuss Voigt Hill
#
# Bulk Modulus (GPa) = 22.61466 28.48334 25.54900
# Shear Modulus (GPa) = 21.80420 30.97258 26.38839
#
# Velocity S-wave (km/s) = 2.96493 3.53373 3.26175
# Velocity P-wave (km/s) = 4.56494 5.30408 4.94833
#
# Compressibility (1/GPa) = 0.04421910
#
# Stress axis : x y z
#
# Youngs Moduli (GPa) = 40.74071 95.53014 23.56640
#
# Poissons Ratio (x) = 0.33017 0.44481
# Poissons Ratio (y) = 0.14081 -0.13473
# Poissons Ratio (z) = 0.76897 -0.54616
#
# Static dielectric constant tensor:
#      x y z
#    x 4.249860 0.000000 -0.092610 
#    y 0.000000 4.563930 0.000000 
#    z -0.092610 0.000000 4.399980 
# 
# 
# High freq. dielectric constant tensor:
#      x y z
#    x 1.956570 0.000000 -0.008540 
#    y 0.000000 2.004130 0.000000 
#    z -0.008540 0.000000 1.979220 
# 
# From -- ./inp_files/12669.got.cif
#   From: 2010.03.12/outbox.cif.g09.slc.cpg/sg4_7_cif.got.tgz:12669.got - 2010.03.31 09:31:35.
