data_PCOD8046790
_publ_section_title
;
Structure prediction by ZEFSAII (Michael W. Deem and Ramdas Pophale) SiO2 
 PCOD8046790
Probable space group: P 21
;
_chemical_formula_sum "Si O2"
_cell_formula_units_Z 14
_cell_length_a 12.945565
_cell_length_b 4.801951
_cell_length_c 8.658457
_cell_angle_alpha 90.000000
_cell_angle_beta 105.383091
_cell_angle_gamma 90.000000
_cell_volume 518.960775
_symmetry_space_group_name_H-M "P 21"
_symmetry_group_IT_number 4
_symmetry_cell_setting 'monoclinic'
loop_
_space_group_symop_operation_xyz
x,y,z
-x,1/2+y,-z
loop_
_atom_site_type_symbol
_atom_site_label
_atom_site_fract_x
_atom_site_fract_y
_atom_site_fract_z
Si Si1 0.270474 0.982180 0.388615
Si Si2 0.053196 0.783832 0.197298
Si Si3 0.484907 0.688950 0.894651
Si Si4 0.063782 0.390857 0.464451
Si Si5 0.335645 0.469390 0.227882
Si Si6 0.849907 0.098757 0.065594
Si Si7 0.261464 0.664043 0.681323
O O1 0.141932 0.981170 0.313419
O O2 0.335060 0.783485 0.293391
O O3 0.288454 0.914081 0.574998
O O4 0.311365 0.290526 0.371384
O O5 0.059627 0.479824 0.281549
O O6 0.082748 0.786421 0.027193
O O7 0.931954 0.880227 0.173756
O O8 0.552902 0.865044 0.797729
O O9 0.377568 0.552923 0.780121
O O10 0.547627 0.419107 0.987098
O O11 0.187470 0.425770 0.571053
O O12 0.019052 0.080408 0.468336
O O13 0.244367 0.433922 0.061262
O O14 0.800531 0.274490 0.188962
#
# Coordination Sequence:
#
# PCOD8046790 Si02
#       7
#     2   2   2   2   2   2   2
#     4  10  25  47  70 107 143 190 242 305 370 450
#     4  10  23  38  69  99 143 183 238 291 366 433
#     4  12  27  47  76 110 146 193 252 316 372 439
#     4  11  25  45  69 101 144 186 235 298 365 441
#     4  11  24  47  73 101 149 189 245 306 366 438
#     4  11  22  44  70 110 143 200 245 308 369 450
#     4  11  26  46  75 108 148 195 253 306 380 447
#
# _framework density 26.976990000000001
#
# number of rings (size 3 to 8) (size 9 to 14) (size 15 to 20)
#    0.000    1.143    2.857    1.714    4.000   11.429 
#    0.000    0.000    0.000    0.000    0.000    0.000 
#    0.000    0.000    0.000    0.000    0.000    0.000 
#
# Total GULP energy -173567.949196 kJ/mol
# GULP energy per Si atom -12397.710657 kJ/mol
# Density = 2.691559 g / cm^3
# Si number density = 26.976990 Si / 1000 Ang^3
#
#
#
# Elastic Constant Matrix: (Units=GPa)
#
#
# Indices 1 2 3 4 5 6 
#
# 1 134.1939 -1.9868 52.0503 0.0000 9.6799 0.0000
# 2 -1.9868 37.9293 -1.5773 0.0000 15.3800 0.0000
# 3 52.0503 -1.5773 137.5515 0.0000 -2.4437 0.0000
# 4 0.0000 0.0000 0.0000 21.5665 0.0000 -9.9307
# 5 9.6799 15.3800 -2.4437 0.0000 51.0504 0.0000
# 6 0.0000 0.0000 0.0000 -9.9307 0.0000 41.4112
#
#
#
# Elastic Compliance Matrix: (Units=1/GPa)
#
#
# Indices 1 2 3 4 5 6 
#
# 1 0.008956 0.001233 -0.003414 0.000000 -0.002233 0.000000
# 2 0.001233 0.030208 -0.000286 0.000000 -0.009348 0.000000
# 3 -0.003414 -0.000286 0.008579 0.000000 0.001144 0.000000
# 4 0.000000 0.000000 0.000000 0.052124 0.000000 0.012500
# 5 -0.002233 -0.009348 0.001144 0.000000 0.022883 0.000000
# 6 0.000000 0.000000 0.000000 0.012500 0.000000 0.027146
#
#
# Mechanical properties :
#
#
# Convention : Reuss Voigt Hill
#
# Bulk Modulus (GPa) = 23.36072 45.18302 34.27187
# Shear Modulus (GPa) = 29.56833 40.21818 34.89325
#
# Velocity S-wave (km/s) = 3.31427 3.86532 3.60035
# Velocity P-wave (km/s) = 4.82951 6.05855 5.47860
#
# Compressibility (1/GPa) = 0.04280690
#
# Stress axis : x y z
#
# Youngs Moduli (GPa) = 111.66244 33.10370 116.56271
#
# Poissons Ratio (x) = -0.04080 0.39799
# Poissons Ratio (y) = -0.13763 0.03335
# Poissons Ratio (z) = 0.38126 0.00947
#
# Static dielectric constant tensor:
#      x y z
#    x 4.936260 0.000000 -0.205730 
#    y 0.000000 4.414140 0.000000 
#    z -0.205730 0.000000 5.171800 
# 
# 
# High freq. dielectric constant tensor:
#      x y z
#    x 2.096330 0.000000 -0.021130 
#    y 0.000000 2.059450 0.000000 
#    z -0.021130 0.000000 2.100810 
# 
# From -- ./inp_files/7240.got.cif
#   From: 2010.03.12/outbox.cif.g09.slc.cpg/sg4_4_cif.got.tgz:7240.got - 2010.03.31 09:31:35.
