data_PCOD8046161
_publ_section_title
;
Structure prediction by ZEFSAII (Michael W. Deem and Ramdas Pophale) SiO2 
 PCOD8046161
Probable space group: P 21
;
_chemical_formula_sum "Si O2"
_cell_formula_units_Z 10
_cell_length_a 8.964241
_cell_length_b 8.088046
_cell_length_c 6.494711
_cell_angle_alpha 90.000000
_cell_angle_beta 99.820759
_cell_angle_gamma 90.000000
_cell_volume 463.986984
_symmetry_space_group_name_H-M "P 21"
_symmetry_group_IT_number 4
_symmetry_cell_setting 'monoclinic'
loop_
_space_group_symop_operation_xyz
x,y,z
-x,1/2+y,-z
loop_
_atom_site_type_symbol
_atom_site_label
_atom_site_fract_x
_atom_site_fract_y
_atom_site_fract_z
Si Si1 0.568493 0.266560 0.340846
Si Si2 0.764869 0.250682 0.003562
Si Si3 0.189035 0.938016 0.374244
Si Si4 0.298398 0.484391 0.350037
Si Si5 0.973832 0.770336 0.612067
O O1 0.618665 0.268747 0.114505
O O2 0.651489 0.416923 0.475666
O O3 0.391684 0.316627 0.314272
O O4 0.611679 0.092003 0.457638
O O5 0.919327 0.238070 0.167219
O O6 0.785587 0.412587 0.863405
O O7 0.732924 0.088448 0.862410
O O8 0.075134 0.794699 0.431541
O O9 0.131806 0.113196 0.434737
O O10 0.134485 0.429784 0.394681
#
# Coordination Sequence:
#
# PCOD8046161 Si02
#       5
#     2   2   2   2   2
#     4  10  23  41  60  88 120 156 197 242 296 351
#     4  10  22  39  59  88 119 154 199 242 292 350
#     4  10  21  38  59  86 120 155 198 243 292 349
#     4  11  23  40  62  87 120 157 197 243 294 349
#     4  11  21  38  62  87 119 158 197 244 292 347
#
# _framework density 21.552330000000001
#
# number of rings (size 3 to 8) (size 9 to 14) (size 15 to 20)
#    0.000    1.600    0.000    6.000    0.000    6.400 
#    0.000    2.000    0.000    0.000    0.000    0.000 
#    0.000    0.000    0.000    0.000    0.000    0.000 
#
# Total GULP energy -123977.523181 kJ/mol
# GULP energy per Si atom -12397.752318 kJ/mol
# Density = 2.150328 g / cm^3
# Si number density = 21.552330 Si / 1000 Ang^3
#
#
#
# Elastic Constant Matrix: (Units=GPa)
#
#
# Indices 1 2 3 4 5 6 
#
# 1 94.3576 9.3694 27.6180 0.0000 -9.1865 0.0000
# 2 9.3694 66.5589 18.5473 0.0000 -0.3199 0.0000
# 3 27.6180 18.5473 108.4868 0.0000 -22.7406 0.0000
# 4 0.0000 0.0000 0.0000 15.7801 0.0000 0.8701
# 5 -9.1865 -0.3199 -22.7406 0.0000 27.4589 0.0000
# 6 0.0000 0.0000 0.0000 0.8701 0.0000 50.8310
#
#
#
# Elastic Compliance Matrix: (Units=1/GPa)
#
#
# Indices 1 2 3 4 5 6 
#
# 1 0.011575 -0.000955 -0.002389 0.000000 0.001883 0.000000
# 2 -0.000955 0.015995 -0.003049 0.000000 -0.002658 0.000000
# 3 -0.002389 -0.003049 0.012309 0.000000 0.009359 0.000000
# 4 0.000000 0.000000 0.000000 0.063431 0.000000 -0.001086
# 5 0.001883 -0.002658 0.009359 0.000000 0.044768 0.000000
# 6 0.000000 0.000000 0.000000 -0.001086 0.000000 0.019692
#
#
# Mechanical properties :
#
#
# Convention : Reuss Voigt Hill
#
# Bulk Modulus (GPa) = 36.90702 42.27473 39.59088
# Shear Modulus (GPa) = 26.37322 33.07192 29.72257
#
# Velocity S-wave (km/s) = 3.50191 3.92151 3.71764
# Velocity P-wave (km/s) = 5.78902 6.33734 6.06937
#
# Compressibility (1/GPa) = 0.02709511
#
# Stress axis : x y z
#
# Youngs Moduli (GPa) = 86.39075 62.51769 81.24199
#
# Poissons Ratio (x) = 0.05969 0.19407
# Poissons Ratio (y) = 0.08248 0.24769
# Poissons Ratio (z) = 0.20637 0.19060
#
# Static dielectric constant tensor:
#      x y z
#    x 4.071600 0.000000 -0.146260 
#    y 0.000000 3.724800 0.000000 
#    z -0.146260 0.000000 3.809770 
# 
# 
# High freq. dielectric constant tensor:
#      x y z
#    x 1.862250 0.000000 -0.010240 
#    y 0.000000 1.845140 0.000000 
#    z -0.010240 0.000000 1.837410 
# 
# From -- ./inp_files/901.got.cif
#   From: 2010.03.12/outbox.cif.g09.slc.cpg/sg4_1_cif.got.tgz:901.got - 2010.03.31 09:31:35.
