data_PCOD8046400
_publ_section_title
;
Structure prediction by ZEFSAII (Michael W. Deem and Ramdas Pophale) SiO2 
 PCOD8046400
Probable space group: P 21
;
_chemical_formula_sum "Si O2"
_cell_formula_units_Z 16
_cell_length_a 11.453153
_cell_length_b 12.416305
_cell_length_c 8.711315
_cell_angle_alpha 90.000000
_cell_angle_beta 36.415363
_cell_angle_gamma 90.000000
_cell_volume 735.394574
_symmetry_space_group_name_H-M "P 21"
_symmetry_group_IT_number 4
_symmetry_cell_setting 'monoclinic'
loop_
_space_group_symop_operation_xyz
x,y,z
-x,1/2+y,-z
loop_
_atom_site_type_symbol
_atom_site_label
_atom_site_fract_x
_atom_site_fract_y
_atom_site_fract_z
Si Si1 0.448381 0.666420 0.887509
Si Si2 0.277152 0.989797 0.870945
Si Si3 0.133161 0.821988 0.271044
Si Si4 0.446367 0.592505 0.220135
Si Si5 0.955244 0.911981 0.017208
Si Si6 0.741537 0.858466 0.538542
Si Si7 0.440861 0.466263 0.695116
Si Si8 0.734035 0.315146 0.533499
O O1 0.563494 0.776699 0.739800
O O2 0.487164 0.586044 0.706557
O O3 0.219022 0.701890 0.146074
O O4 0.516127 0.608213 0.972014
O O5 0.356555 0.093988 0.880220
O O6 0.462220 0.949284 0.573760
O O7 0.086046 0.006763 0.963082
O O8 0.231599 0.901400 0.045727
O O9 0.188546 0.857326 0.384938
O O10 0.898010 0.825535 0.504508
O O11 0.329811 0.480452 0.360547
O O12 0.303999 0.687766 0.426109
O O13 0.105310 0.835928 0.767626
O O14 0.845696 0.842714 0.263216
O O15 0.795329 0.958817 0.068514
O O16 0.529102 0.377444 0.717404
#
# Coordination Sequence:
#
# PCOD8046400 Si02
#       8
#     2   2   2   2   2   2   2   2
#     4  11  25  42  71  98 132 179 221 284 334 405
#     4  10  21  43  68  95 134 177 219 276 333 400
#     4  10  22  44  67  96 135 171 227 272 333 396
#     4  11  23  46  71  95 139 174 224 283 334 402
#     4  10  23  45  68  96 140 178 223 276 330 412
#     4  11  24  48  67  98 133 183 218 279 349 385
#     4  11  23  43  67 100 138 175 224 276 337 401
#     4  10  25  43  67 108 131 177 228 278 334 407
#
# _framework density 21.757027000000001
#
# number of rings (size 3 to 8) (size 9 to 14) (size 15 to 20)
#    0.000    1.500    2.500    0.750    3.500    6.000 
#   22.500    0.000    0.000    0.000    0.000    0.000 
#    0.000    0.000    0.000    0.000    0.000    0.000 
#
# Total GULP energy -198332.992574 kJ/mol
# GULP energy per Si atom -12395.812036 kJ/mol
# Density = 2.170751 g / cm^3
# Si number density = 21.757027 Si / 1000 Ang^3
#
#
#
# Elastic Constant Matrix: (Units=GPa)
#
#
# Indices 1 2 3 4 5 6 
#
# 1 150.6751 58.9769 45.9730 0.0000 -18.4265 0.0000
# 2 58.9769 120.9522 42.6647 0.0000 -6.6585 0.0000
# 3 45.9730 42.6647 93.6056 0.0000 0.3691 0.0000
# 4 0.0000 0.0000 0.0000 21.0485 0.0000 0.7257
# 5 -18.4265 -6.6585 0.3691 0.0000 42.6756 0.0000
# 6 0.0000 0.0000 0.0000 0.7257 0.0000 21.8363
#
#
#
# Elastic Compliance Matrix: (Units=1/GPa)
#
#
# Indices 1 2 3 4 5 6 
#
# 1 0.009281 -0.003239 -0.003096 0.000000 0.003529 0.000000
# 2 -0.003239 0.011089 -0.003465 0.000000 0.000362 0.000000
# 3 -0.003096 -0.003465 0.013791 0.000000 -0.001997 0.000000
# 4 0.000000 0.000000 0.000000 0.047564 0.000000 -0.001581
# 5 0.003529 0.000362 -0.001997 0.000000 0.025030 0.000000
# 6 0.000000 0.000000 0.000000 -0.001581 0.000000 0.045848
#
#
# Mechanical properties :
#
#
# Convention : Reuss Voigt Hill
#
# Bulk Modulus (GPa) = 68.67565 73.38466 71.03016
# Shear Modulus (GPa) = 28.23976 31.61998 29.92987
#
# Velocity S-wave (km/s) = 3.60663 3.81638 3.71299
# Velocity P-wave (km/s) = 6.99836 7.29535 7.14840
#
# Compressibility (1/GPa) = 0.01456120
#
# Stress axis : x y z
#
# Youngs Moduli (GPa) = 107.75073 90.17722 72.51273
#
# Poissons Ratio (x) = 0.29209 0.22447
# Poissons Ratio (y) = 0.34902 0.25126
# Poissons Ratio (z) = 0.33356 0.31246
#
# Static dielectric constant tensor:
#      x y z
#    x 4.528950 0.000000 -0.082950 
#    y 0.000000 3.611420 0.000000 
#    z -0.082950 0.000000 3.950820 
# 
# 
# High freq. dielectric constant tensor:
#      x y z
#    x 1.878950 0.000000 0.002830 
#    y 0.000000 1.827750 0.000000 
#    z 0.002830 0.000000 1.859190 
# 
# From -- ./inp_files/8397.got.cif
#   From: 2010.03.12/outbox.cif.g09.slc.cpg/sg4_5_cif.got.tgz:8397.got - 2010.03.31 09:31:35.
