data_PCOD8046795
_publ_section_title
;
Structure prediction by ZEFSAII (Michael W. Deem and Ramdas Pophale) SiO2 
 PCOD8046795
Probable space group: P 21
;
_chemical_formula_sum "Si O2"
_cell_formula_units_Z 12
_cell_length_a 9.352484
_cell_length_b 11.687132
_cell_length_c 4.972745
_cell_angle_alpha 90.000000
_cell_angle_beta 63.149686
_cell_angle_gamma 90.000000
_cell_volume 484.940258
_symmetry_space_group_name_H-M "P 21"
_symmetry_group_IT_number 4
_symmetry_cell_setting 'monoclinic'
loop_
_space_group_symop_operation_xyz
x,y,z
-x,1/2+y,-z
loop_
_atom_site_type_symbol
_atom_site_label
_atom_site_fract_x
_atom_site_fract_y
_atom_site_fract_z
Si Si1 0.265121 0.703790 0.516868
Si Si2 0.469931 0.048137 0.586859
Si Si3 0.175554 0.956277 0.592314
Si Si4 0.972453 0.000578 0.253053
Si Si5 0.315096 0.343110 0.600695
Si Si6 0.424939 0.222063 0.017987
O O1 0.390671 0.641250 0.622168
O O2 0.192467 0.823839 0.678224
O O3 0.122081 0.614889 0.574627
O O4 0.378877 0.731717 0.158938
O O5 0.376128 0.099304 0.927535
O O6 0.349294 0.018091 0.447538
O O7 0.555685 0.933850 0.615460
O O8 0.102194 0.964191 0.361526
O O9 0.061558 0.023648 0.896993
O O10 0.860858 0.890423 0.301176
O O11 0.342153 0.317090 0.891895
O O12 0.349615 0.232321 0.380665
#
# Coordination Sequence:
#
# PCOD8046795 Si02
#       6
#     2   2   2   2   2   2
#     4   9  24  50  68 106 135 188 231 293 330 421
#     4   9  22  44  69  99 129 181 238 282 328 408
#     4  12  25  46  71 104 140 188 223 289 352 412
#     4  11  28  44  70 101 152 175 227 281 363 410
#     4  11  22  45  66 101 132 185 224 286 337 411
#     4  10  23  39  76  95 130 175 241 279 328 398
#
# _framework density 24.745315000000002
#
# number of rings (size 3 to 8) (size 9 to 14) (size 15 to 20)
#    1.000    0.667    1.667    1.000    2.333    9.333 
#    0.000    0.000    0.000    0.000    0.000    0.000 
#    0.000    0.000    0.000    0.000    0.000    0.000 
#
# Total GULP energy -148660.440045 kJ/mol
# GULP energy per Si atom -12388.370004 kJ/mol
# Density = 2.468899 g / cm^3
# Si number density = 24.745315 Si / 1000 Ang^3
#
#
#
# Elastic Constant Matrix: (Units=GPa)
#
#
# Indices 1 2 3 4 5 6 
#
# 1 135.9983 42.2491 14.7224 0.0000 -3.7718 0.0000
# 2 42.2491 96.9128 -12.4994 0.0000 2.3583 0.0000
# 3 14.7224 -12.4994 70.7062 0.0000 10.9973 0.0000
# 4 0.0000 0.0000 0.0000 31.3249 0.0000 -9.3874
# 5 -3.7718 2.3583 10.9973 0.0000 19.8533 0.0000
# 6 0.0000 0.0000 0.0000 -9.3874 0.0000 45.7040
#
#
#
# Elastic Compliance Matrix: (Units=1/GPa)
#
#
# Indices 1 2 3 4 5 6 
#
# 1 0.009256 -0.004574 -0.003386 0.000000 0.004177 0.000000
# 2 -0.004574 0.012934 0.003954 0.000000 -0.004595 0.000000
# 3 -0.003386 0.003954 0.017202 0.000000 -0.010642 0.000000
# 4 0.000000 0.000000 0.000000 0.034017 0.000000 0.006987
# 5 0.004177 -0.004595 -0.010642 0.000000 0.057604 0.000000
# 6 0.000000 0.000000 0.000000 0.006987 0.000000 0.023315
#
#
# Mechanical properties :
#
#
# Convention : Reuss Voigt Hill
#
# Bulk Modulus (GPa) = 31.86619 43.61797 37.74208
# Shear Modulus (GPa) = 28.93521 36.65277 32.79399
#
# Velocity S-wave (km/s) = 3.42324 3.85281 3.64436
# Velocity P-wave (km/s) = 5.34139 6.12023 5.74403
#
# Compressibility (1/GPa) = 0.03138122
#
# Stress axis : x y z
#
# Youngs Moduli (GPa) = 108.03588 77.31495 58.13277
#
# Poissons Ratio (x) = 0.35360 0.19681
# Poissons Ratio (y) = 0.49411 -0.22983
# Poissons Ratio (z) = 0.36576 -0.30567
#
# Static dielectric constant tensor:
#      x y z
#    x 4.449640 0.000000 -0.198020 
#    y 0.000000 4.576370 0.000000 
#    z -0.198020 0.000000 3.835890 
# 
# 
# High freq. dielectric constant tensor:
#      x y z
#    x 1.989420 0.000000 -0.005580 
#    y 0.000000 1.999180 0.000000 
#    z -0.005580 0.000000 1.949880 
# 
# From -- ./inp_files/1069.got.cif
#   From: 2010.03.12/outbox.cif.g09.slc.cpg/sg4_1_cif.got.tgz:1069.got - 2010.03.31 09:31:35.
