data_PCOD8046293
_publ_section_title
;
Structure prediction by ZEFSAII (Michael W. Deem and Ramdas Pophale) SiO2 
 PCOD8046293
Probable space group: P 21
;
_chemical_formula_sum "Si O2"
_cell_formula_units_Z 16
_cell_length_a 17.004337
_cell_length_b 7.329949
_cell_length_c 14.966152
_cell_angle_alpha 90.000000
_cell_angle_beta 22.660618
_cell_angle_gamma 90.000000
_cell_volume 718.684180
_symmetry_space_group_name_H-M "P 21"
_symmetry_group_IT_number 4
_symmetry_cell_setting 'monoclinic'
loop_
_space_group_symop_operation_xyz
x,y,z
-x,1/2+y,-z
loop_
_atom_site_type_symbol
_atom_site_label
_atom_site_fract_x
_atom_site_fract_y
_atom_site_fract_z
Si Si1 0.439949 0.663740 0.259898
Si Si2 0.081999 0.844826 0.529189
Si Si3 0.863911 0.197984 0.831882
Si Si4 0.690908 0.171491 0.256162
Si Si5 0.506364 0.011070 0.289624
Si Si6 0.572739 0.975027 0.543536
Si Si7 0.108575 0.199742 0.744490
Si Si8 0.206287 0.020853 0.224433
O O1 0.224420 0.736742 0.449691
O O2 0.561868 0.826898 0.180013
O O3 0.426146 0.514357 0.352208
O O4 0.568409 0.579192 0.043653
O O5 0.221362 0.952252 0.310642
O O6 0.941534 0.694585 0.628285
O O7 0.945378 0.997797 0.719722
O O8 0.881253 0.348668 0.737735
O O9 0.996642 0.278796 0.774174
O O10 0.628036 0.173358 0.110272
O O11 0.629005 0.369464 0.280249
O O12 0.587289 0.008942 0.306679
O O13 0.614351 0.153191 0.438985
O O14 0.933438 0.134103 0.996545
O O15 0.262397 0.042360 0.547656
O O16 0.765581 0.843162 0.329161
#
# Coordination Sequence:
#
# PCOD8046293 Si02
#       8
#     2   2   2   2   2   2   2   2
#     4  12  25  43  69 104 136 183 234 289 352 426
#     4  12  26  45  70 101 135 186 235 293 362 421
#     4  11  22  45  71  95 141 180 228 291 357 415
#     4  10  23  42  67  99 139 186 223 293 340 413
#     4  10  21  40  68  98 137 178 225 281 348 413
#     4  11  24  43  65 102 138 181 238 280 351 421
#     4  10  21  41  65  97 134 184 224 282 346 414
#     4  12  26  45  69 102 138 182 235 295 358 427
#
# _framework density 22.262906999999998
#
# number of rings (size 3 to 8) (size 9 to 14) (size 15 to 20)
#    0.000    1.000    3.750    3.750    0.000    5.000 
#    2.250    0.000    0.000    0.000    0.000    0.000 
#    0.000    0.000    0.000    0.000    0.000    0.000 
#
# Total GULP energy -198300.669851 kJ/mol
# GULP energy per Si atom -12393.791866 kJ/mol
# Density = 2.221224 g / cm^3
# Si number density = 22.262907 Si / 1000 Ang^3
#
#
#
# Elastic Constant Matrix: (Units=GPa)
#
#
# Indices 1 2 3 4 5 6 
#
# 1 55.9192 18.3719 29.1511 0.0000 5.9980 0.0000
# 2 18.3719 90.0143 32.2448 0.0000 -2.5003 0.0000
# 3 29.1511 32.2448 134.8781 0.0000 -1.4728 0.0000
# 4 0.0000 0.0000 0.0000 31.5053 0.0000 7.7119
# 5 5.9980 -2.5003 -1.4728 0.0000 35.6304 0.0000
# 6 0.0000 0.0000 0.0000 7.7119 0.0000 46.0199
#
#
#
# Elastic Compliance Matrix: (Units=1/GPa)
#
#
# Indices 1 2 3 4 5 6 
#
# 1 0.021364 -0.003063 -0.003928 0.000000 -0.003974 0.000000
# 2 -0.003063 0.012608 -0.002338 0.000000 0.001304 0.000000
# 3 -0.003928 -0.002338 0.008831 0.000000 0.000862 0.000000
# 4 0.000000 0.000000 0.000000 0.033098 0.000000 -0.005547
# 5 -0.003974 0.001304 0.000862 0.000000 0.028862 0.000000
# 6 0.000000 0.000000 0.000000 -0.005547 0.000000 0.022659
#
#
# Mechanical properties :
#
#
# Convention : Reuss Voigt Hill
#
# Bulk Modulus (GPa) = 41.41822 48.92746 45.17284
# Shear Modulus (GPa) = 32.44013 36.03405 34.23709
#
# Velocity S-wave (km/s) = 3.82139 4.02751 3.92580
# Velocity P-wave (km/s) = 6.17375 6.60701 6.39405
#
# Compressibility (1/GPa) = 0.02414396
#
# Stress axis : x y z
#
# Youngs Moduli (GPa) = 46.80876 79.31290 113.23183
#
# Poissons Ratio (x) = 0.24297 0.44481
# Poissons Ratio (y) = 0.14340 0.26472
# Poissons Ratio (z) = 0.18388 0.18542
#
# Static dielectric constant tensor:
#      x y z
#    x 3.924890 0.000000 0.092380 
#    y 0.000000 3.901230 0.000000 
#    z 0.092380 0.000000 4.045860 
# 
# 
# High freq. dielectric constant tensor:
#      x y z
#    x 1.872510 0.000000 0.007930 
#    y 0.000000 1.872380 0.000000 
#    z 0.007930 0.000000 1.882800 
# 
# From -- ./inp_files/3456.got.cif
#   From: 2010.03.12/outbox.cif.g09.slc.cpg/sg4_2_cif.got.tgz:3456.got - 2010.03.31 09:31:35.
