data_PCOD8046232
_publ_section_title
;
Structure prediction by ZEFSAII (Michael W. Deem and Ramdas Pophale) SiO2 
 PCOD8046232
Probable space group: P 21
;
_chemical_formula_sum "Si O2"
_cell_formula_units_Z 14
_cell_length_a 17.807574
_cell_length_b 5.183849
_cell_length_c 17.772250
_cell_angle_alpha 90.000000
_cell_angle_beta 155.655350
_cell_angle_gamma 90.000000
_cell_volume 676.290510
_symmetry_space_group_name_H-M "P 21"
_symmetry_group_IT_number 4
_symmetry_cell_setting 'monoclinic'
loop_
_space_group_symop_operation_xyz
x,y,z
-x,1/2+y,-z
loop_
_atom_site_type_symbol
_atom_site_label
_atom_site_fract_x
_atom_site_fract_y
_atom_site_fract_z
Si Si1 0.447227 0.338190 0.346676
Si Si2 0.226361 0.003456 0.673746
Si Si3 0.150790 0.738285 0.050137
Si Si4 0.768857 0.537491 0.731016
Si Si5 0.415418 0.538090 0.089360
Si Si6 0.358071 0.040613 0.133159
Si Si7 0.186889 0.507428 0.732572
O O1 0.315500 0.539542 0.182980
O O2 0.643330 0.441631 0.548662
O O3 0.341022 0.257940 0.325343
O O4 0.489380 0.110017 0.324733
O O5 0.253192 0.731136 0.738176
O O6 0.376962 0.006560 0.746729
O O7 0.251185 0.234502 0.756655
O O8 0.030435 0.020326 0.454821
O O9 0.172753 0.817375 0.157235
O O10 0.169523 0.968098 0.005381
O O11 0.949544 0.632588 0.854440
O O12 0.340101 0.289208 0.064264
O O13 0.423524 0.796990 0.145584
O O14 0.278221 0.566650 0.895124
#
# Coordination Sequence:
#
# PCOD8046232 Si02
#       7
#     2   2   2   2   2   2   2
#     4  11  22  42  63  99 123 166 218 279 326 391
#     4  10  21  39  67  99 124 159 220 272 307 369
#     4  11  22  42  63  99 123 166 218 279 326 391
#     4  11  22  38  72  91 124 164 222 284 338 365
#     4  12  22  43  64  91 132 184 198 260 324 391
#     4  11  26  43  62  90 144 170 216 254 322 410
#     4  10  21  39  67  99 124 159 220 272 307 369
#
# _framework density 20.701163999999999
#
# number of rings (size 3 to 8) (size 9 to 14) (size 15 to 20)
#    0.000    1.143    4.286    2.571    0.000    0.000 
#    2.571    2.857    0.000    0.000    0.000    0.000 
#    0.000    0.000    0.000    0.000    0.000    0.000 
#
# Total GULP energy -173540.595212 kJ/mol
# GULP energy per Si atom -12395.756801 kJ/mol
# Density = 2.065405 g / cm^3
# Si number density = 20.701164 Si / 1000 Ang^3
#
#
#
# Elastic Constant Matrix: (Units=GPa)
#
#
# Indices 1 2 3 4 5 6 
#
# 1 85.3392 23.1954 51.8419 0.0000 2.9959 0.0000
# 2 23.1954 95.3413 33.5063 0.0000 7.7513 0.0000
# 3 51.8419 33.5063 125.8545 0.0000 17.1254 0.0000
# 4 0.0000 0.0000 0.0000 27.8122 0.0000 -0.4230
# 5 2.9959 7.7513 17.1254 0.0000 16.4997 0.0000
# 6 0.0000 0.0000 0.0000 -0.4230 0.0000 50.9919
#
#
#
# Elastic Compliance Matrix: (Units=1/GPa)
#
#
# Indices 1 2 3 4 5 6 
#
# 1 0.016238 -0.001953 -0.006862 0.000000 0.005091 0.000000
# 2 -0.001953 0.011903 -0.001923 0.000000 -0.003241 0.000000
# 3 -0.006862 -0.001923 0.012799 0.000000 -0.011135 0.000000
# 4 0.000000 0.000000 0.000000 0.035960 0.000000 0.000298
# 5 0.005091 -0.003241 -0.011135 0.000000 0.072763 0.000000
# 6 0.000000 0.000000 0.000000 0.000298 0.000000 0.019613
#
#
# Mechanical properties :
#
#
# Convention : Reuss Voigt Hill
#
# Bulk Modulus (GPa) = 51.37531 58.18025 54.77778
# Shear Modulus (GPa) = 25.34957 32.26021 28.80489
#
# Velocity S-wave (km/s) = 3.50315 3.95191 3.73428
# Velocity P-wave (km/s) = 6.42139 6.99924 6.71653
#
# Compressibility (1/GPa) = 0.01946460
#
# Stress axis : x y z
#
# Youngs Moduli (GPa) = 61.58232 84.01057 78.12828
#
# Poissons Ratio (x) = 0.16408 0.53609
# Poissons Ratio (y) = 0.12027 0.15028
# Poissons Ratio (z) = 0.42256 0.16159
#
# Static dielectric constant tensor:
#      x y z
#    x 3.738550 0.000000 -0.076890 
#    y 0.000000 4.110250 0.000000 
#    z -0.076890 0.000000 3.389780 
# 
# 
# High freq. dielectric constant tensor:
#      x y z
#    x 1.808050 0.000000 -0.000710 
#    y 0.000000 1.829820 0.000000 
#    z -0.000710 0.000000 1.798380 
# 
# From -- ./inp_files/14107.got.cif
#   From: 2010.03.12/outbox.cif.g09.slc.cpg/sg4_8_cif.got.tgz:14107.got - 2010.03.31 09:31:35.
