data_PCOD8046829
_publ_section_title
;
Structure prediction by ZEFSAII (Michael W. Deem and Ramdas Pophale) SiO2 
 PCOD8046829
Probable space group: P 21
;
_chemical_formula_sum "Si O2"
_cell_formula_units_Z 16
_cell_length_a 9.469964
_cell_length_b 5.380513
_cell_length_c 16.588653
_cell_angle_alpha 90.000000
_cell_angle_beta 64.929193
_cell_angle_gamma 90.000000
_cell_volume 765.611014
_symmetry_space_group_name_H-M "P 21"
_symmetry_group_IT_number 4
_symmetry_cell_setting 'monoclinic'
loop_
_space_group_symop_operation_xyz
x,y,z
-x,1/2+y,-z
loop_
_atom_site_type_symbol
_atom_site_label
_atom_site_fract_x
_atom_site_fract_y
_atom_site_fract_z
Si Si1 0.692066 0.617710 0.213694
Si Si2 0.988114 0.572025 0.240677
Si Si3 0.700509 0.061222 0.933562
Si Si4 0.009934 0.817410 0.405710
Si Si5 0.807117 0.199173 0.384777
Si Si6 0.426260 0.601730 0.683213
Si Si7 0.248152 0.994752 0.457223
Si Si8 0.641889 0.563376 0.041267
O O1 0.864233 0.681891 0.206168
O O2 0.620450 0.370951 0.271542
O O3 0.702709 0.558395 0.117247
O O4 0.586996 0.866133 0.253087
O O5 0.014834 0.745068 0.310762
O O6 0.916561 0.316247 0.289793
O O7 0.153281 0.531586 0.159651
O O8 0.545597 0.057133 0.916312
O O9 0.711252 0.319384 0.980392
O O10 0.704389 0.819926 0.989237
O O11 0.905587 0.654905 0.489967
O O12 0.919765 0.077623 0.423261
O O13 0.185395 0.820618 0.398974
O O14 0.681772 0.029783 0.367827
O O15 0.705302 0.379938 0.467221
O O16 0.603455 0.640282 0.612115
#
# Coordination Sequence:
#
# PCOD8046829 Si02
#       8
#     2   2   2   2   2   2   2   2
#     4  11  24  44  64  98 132 162 221 263 318 390
#     4  10  24  40  65  93 126 173 206 268 325 378
#     4  10  23  42  68  95 127 167 206 257 332 376
#     4  11  22  42  58  94 129 165 222 270 313 382
#     4  10  23  42  60  89 135 162 221 268 313 382
#     4  11  26  41  66  95 127 179 213 267 323 375
#     4  11  25  38  66  91 128 178 221 269 324 376
#     4  10  23  43  65  97 130 160 210 266 310 399
#
# _framework density 20.898340999999999
#
# number of rings (size 3 to 8) (size 9 to 14) (size 15 to 20)
#    0.000    1.500    2.500    0.750    7.000    2.000 
#    0.000    0.000    0.000    0.000    0.000    0.000 
#    0.000    0.000    0.000    0.000    0.000    0.000 
#
# Total GULP energy -198262.049160 kJ/mol
# GULP energy per Si atom -12391.378073 kJ/mol
# Density = 2.085078 g / cm^3
# Si number density = 20.898341 Si / 1000 Ang^3
#
#
#
# Elastic Constant Matrix: (Units=GPa)
#
#
# Indices 1 2 3 4 5 6 
#
# 1 102.8352 23.8102 71.6278 0.0000 5.3249 0.0000
# 2 23.8102 102.8399 29.8264 0.0000 -2.3636 0.0000
# 3 71.6278 29.8264 115.6531 0.0000 4.2205 0.0000
# 4 0.0000 0.0000 0.0000 -4.2955 0.0000 5.3871
# 5 5.3249 -2.3636 4.2205 0.0000 34.2353 0.0000
# 6 0.0000 0.0000 0.0000 5.3871 0.0000 25.2273
#
#
#
# Elastic Compliance Matrix: (Units=1/GPa)
#
#
# Indices 1 2 3 4 5 6 
#
# 1 0.017263 -0.001022 -0.010374 0.000000 -0.001477 0.000000
# 2 -0.001022 0.010609 -0.002145 0.000000 0.001156 0.000000
# 3 -0.010374 -0.002145 0.015642 0.000000 -0.000463 0.000000
# 4 0.000000 0.000000 0.000000 -0.183626 0.000000 0.039212
# 5 -0.001477 0.001156 -0.000463 0.000000 0.029576 0.000000
# 6 0.000000 0.000000 0.000000 0.039212 0.000000 0.031266
#
#
# Mechanical properties :
#
#
# Convention : Reuss Voigt Hill
#
# Bulk Modulus (GPa) = 60.85975 63.53968 62.19971
# Shear Modulus (GPa) = -107.04638 24.10432 -41.47103
#
# Velocity S-wave (km/s) = -7.16475 3.39987 -4.45951
# Velocity P-wave (km/s) = 6.26577 6.77365 1.81969
#
# Compressibility (1/GPa) = 0.01643122
#
# Stress axis : x y z
#
# Youngs Moduli (GPa) = 57.92579 94.25747 63.93092
#
# Poissons Ratio (x) = 0.09634 0.66324
# Poissons Ratio (y) = 0.05920 0.13715
# Poissons Ratio (z) = 0.60094 0.20221
#
# Static dielectric constant tensor:
#      x y z
#    x 4.036390 0.000000 0.117330 
#    y 0.000000 3.948950 0.000000 
#    z 0.117330 0.000000 3.685770 
# 
# 
# High freq. dielectric constant tensor:
#      x y z
#    x 1.824030 0.000000 0.012590 
#    y 0.000000 1.821190 0.000000 
#    z 0.012590 0.000000 1.817910 
# 
# From -- ./inp_files/7307.got.cif
#   From: 2010.03.12/outbox.cif.g09.slc.cpg/sg4_4_cif.got.tgz:7307.got - 2010.03.31 09:31:35.
