data_PCOD8046922
_publ_section_title
;
Structure prediction by ZEFSAII (Michael W. Deem and Ramdas Pophale) SiO2 
 PCOD8046922
Probable space group: P 21
;
_chemical_formula_sum "Si O2"
_cell_formula_units_Z 14
_cell_length_a 11.323950
_cell_length_b 8.712054
_cell_length_c 5.225754
_cell_angle_alpha 90.000000
_cell_angle_beta 85.308769
_cell_angle_gamma 90.000000
_cell_volume 513.818927
_symmetry_space_group_name_H-M "P 21"
_symmetry_group_IT_number 4
_symmetry_cell_setting 'monoclinic'
loop_
_space_group_symop_operation_xyz
x,y,z
-x,1/2+y,-z
loop_
_atom_site_type_symbol
_atom_site_label
_atom_site_fract_x
_atom_site_fract_y
_atom_site_fract_z
Si Si1 0.175667 0.738800 0.645248
Si Si2 0.199722 0.036415 0.390189
Si Si3 0.547982 0.222819 0.309243
Si Si4 0.129812 0.265380 0.006376
Si Si5 0.068131 0.599375 0.173484
Si Si6 0.638540 0.709130 0.277635
Si Si7 0.423957 0.957450 0.092042
O O1 0.316794 0.737168 0.644065
O O2 0.137814 0.622088 0.426582
O O3 0.131704 0.914073 0.585221
O O4 0.124237 0.691972 0.926353
O O5 0.279247 0.167333 0.498666
O O6 0.111467 0.129816 0.220987
O O7 0.292023 0.925366 0.219377
O O8 0.474734 0.295954 0.567683
O O9 0.514674 0.303990 0.039095
O O10 0.510510 0.045735 0.275068
O O11 0.269278 0.302525 0.923256
O O12 0.062185 0.182426 0.775502
O O13 0.065770 0.418961 0.110474
O O14 0.593719 0.553929 0.162726
#
# Coordination Sequence:
#
# PCOD8046922 Si02
#       7
#     2   2   2   2   2   2   2
#     4  12  28  50  78 120 157 210 265 331 398 488
#     4  10  23  48  77 103 157 207 262 323 400 469
#     4  11  25  45  75 111 160 206 263 318 400 483
#     4  11  28  53  78 114 155 206 275 332 406 480
#     4  12  31  50  84 115 159 209 269 338 401 478
#     4  10  24  44  76 108 151 204 255 326 394 458
#     4  10  23  44  68 111 151 212 251 318 391 470
#
# _framework density 27.246952
#
# number of rings (size 3 to 8) (size 9 to 14) (size 15 to 20)
#    0.000    1.143    1.429    1.714   12.000    4.571 
#    0.000    0.000    0.000    0.000    0.000    0.000 
#    0.000    0.000    0.000    0.000    0.000    0.000 
#
# Total GULP energy -173512.977394 kJ/mol
# GULP energy per Si atom -12393.784100 kJ/mol
# Density = 2.718494 g / cm^3
# Si number density = 27.246952 Si / 1000 Ang^3
#
#
#
# Elastic Constant Matrix: (Units=GPa)
#
#
# Indices 1 2 3 4 5 6 
#
# 1 90.1882 17.4190 0.4130 0.0000 -16.1587 0.0000
# 2 17.4190 92.1374 -7.3882 0.0000 -5.4070 0.0000
# 3 0.4130 -7.3882 90.0928 0.0000 -13.5117 0.0000
# 4 0.0000 0.0000 0.0000 34.7147 0.0000 5.1319
# 5 -16.1587 -5.4070 -13.5117 0.0000 44.5881 0.0000
# 6 0.0000 0.0000 0.0000 5.1319 0.0000 35.4643
#
#
#
# Elastic Compliance Matrix: (Units=1/GPa)
#
#
# Indices 1 2 3 4 5 6 
#
# 1 0.012252 -0.002029 0.000426 0.000000 0.004323 0.000000
# 2 -0.002029 0.011381 0.001089 0.000000 0.000975 0.000000
# 3 0.000426 0.001089 0.011765 0.000000 0.003851 0.000000
# 4 0.000000 0.000000 0.000000 0.029436 0.000000 -0.004260
# 5 0.004323 0.000975 0.003851 0.000000 0.025280 0.000000
# 6 0.000000 0.000000 0.000000 -0.004260 0.000000 0.028814
#
#
# Mechanical properties :
#
#
# Convention : Reuss Voigt Hill
#
# Bulk Modulus (GPa) = 29.09442 32.58954 30.84198
# Shear Modulus (GPa) = 38.04824 40.41840 39.23332
#
# Velocity S-wave (km/s) = 3.74093 3.85568 3.79874
# Velocity P-wave (km/s) = 5.41854 5.63990 5.53033
#
# Compressibility (1/GPa) = 0.03437085
#
# Stress axis : x y z
#
# Youngs Moduli (GPa) = 81.61697 87.86279 85.00052
#
# Poissons Ratio (x) = 0.17823 -0.03620
# Poissons Ratio (y) = 0.16556 -0.09256
# Poissons Ratio (z) = -0.03476 -0.09567
#
# Static dielectric constant tensor:
#      x y z
#    x 5.307220 0.000000 -0.310510 
#    y 0.000000 4.775650 0.000000 
#    z -0.310510 0.000000 5.417000 
# 
# 
# High freq. dielectric constant tensor:
#      x y z
#    x 2.108690 0.000000 -0.000520 
#    y 0.000000 2.088330 0.000000 
#    z -0.000520 0.000000 2.124500 
# 
# From -- ./inp_files/2606.got.cif
#   From: 2010.03.12/outbox.cif.g09.slc.cpg/sg4_2_cif.got.tgz:2606.got - 2010.03.31 09:31:35.
