data_PCOD8046727
_publ_section_title
;
Structure prediction by ZEFSAII (Michael W. Deem and Ramdas Pophale) SiO2 
 PCOD8046727
Probable space group: P 21
;
_chemical_formula_sum "Si O2"
_cell_formula_units_Z 16
_cell_length_a 11.512288
_cell_length_b 8.501493
_cell_length_c 8.657561
_cell_angle_alpha 90.000000
_cell_angle_beta 124.014001
_cell_angle_gamma 90.000000
_cell_volume 702.352317
_symmetry_space_group_name_H-M "P 21"
_symmetry_group_IT_number 4
_symmetry_cell_setting 'monoclinic'
loop_
_space_group_symop_operation_xyz
x,y,z
-x,1/2+y,-z
loop_
_atom_site_type_symbol
_atom_site_label
_atom_site_fract_x
_atom_site_fract_y
_atom_site_fract_z
Si Si1 0.342691 0.839390 0.551531
Si Si2 0.666283 0.697965 0.386866
Si Si3 0.089365 0.092940 0.645773
Si Si4 0.112212 0.194405 0.010327
Si Si5 0.643189 0.870606 0.681732
Si Si6 0.157229 0.866514 0.152349
Si Si7 0.355572 0.679335 0.120848
Si Si8 0.817946 0.230713 0.295510
O O1 0.491946 0.787922 0.592619
O O2 0.207735 0.791748 0.350833
O O3 0.316386 0.752656 0.692616
O O4 0.340404 0.027469 0.543279
O O5 0.791482 0.695763 0.354608
O O6 0.688649 0.833684 0.536813
O O7 0.514840 0.722124 0.190018
O O8 0.075468 0.155606 0.807962
O O9 0.941394 0.117789 0.448482
O O10 0.122020 0.907334 0.684204
O O11 0.986993 0.285272 0.002120
O O12 0.252706 0.294430 0.117783
O O13 0.131454 0.050356 0.140307
O O14 0.645867 0.052883 0.738391
O O15 0.283115 0.839123 0.125567
O O16 0.255048 0.637318 0.900897
#
# Coordination Sequence:
#
# PCOD8046727 Si02
#       8
#     2   2   2   2   2   2   2   2
#     4  10  22  45  68  96 138 182 228 285 348 414
#     4  10  23  44  69  99 139 180 228 290 350 414
#     4  11  26  45  69 101 141 182 231 291 357 411
#     4  12  26  43  69 104 136 187 231 288 350 421
#     4  11  24  42  71 102 135 182 234 291 351 422
#     4  12  23  44  68  98 138 182 237 282 343 418
#     4  11  25  43  70 102 141 185 232 289 355 422
#     4  11  25  46  68 100 144 186 229 290 352 422
#
# _framework density 22.78059
#
# number of rings (size 3 to 8) (size 9 to 14) (size 15 to 20)
#    0.000    1.000    5.000    0.750    5.250    1.000 
#    0.000    0.000    0.000    0.000    0.000    0.000 
#    0.000    0.000    0.000    0.000    0.000    0.000 
#
# Total GULP energy -198229.245328 kJ/mol
# GULP energy per Si atom -12389.327833 kJ/mol
# Density = 2.272874 g / cm^3
# Si number density = 22.780590 Si / 1000 Ang^3
#
#
#
# Elastic Constant Matrix: (Units=GPa)
#
#
# Indices 1 2 3 4 5 6 
#
# 1 99.3685 24.3088 26.3705 0.0000 20.0101 0.0000
# 2 24.3088 53.7147 14.4174 0.0000 14.9560 0.0000
# 3 26.3705 14.4174 131.5647 0.0000 20.6209 0.0000
# 4 0.0000 0.0000 0.0000 38.6572 0.0000 -0.7772
# 5 20.0101 14.9560 20.6209 0.0000 38.3915 0.0000
# 6 0.0000 0.0000 0.0000 -0.7772 0.0000 22.9719
#
#
#
# Elastic Compliance Matrix: (Units=1/GPa)
#
#
# Indices 1 2 3 4 5 6 
#
# 1 0.012234 -0.004036 -0.001372 0.000000 -0.004067 0.000000
# 2 -0.004036 0.022362 -0.000662 0.000000 -0.006253 0.000000
# 3 -0.001372 -0.000662 0.008513 0.000000 -0.003599 0.000000
# 4 0.000000 0.000000 0.000000 0.025886 0.000000 0.000876
# 5 -0.004067 -0.006253 -0.003599 0.000000 0.032536 0.000000
# 6 0.000000 0.000000 0.000000 0.000876 0.000000 0.043561
#
#
# Mechanical properties :
#
#
# Convention : Reuss Voigt Hill
#
# Bulk Modulus (GPa) = 32.29057 46.09347 39.19202
# Shear Modulus (GPa) = 29.84110 34.64087 32.24098
#
# Velocity S-wave (km/s) = 3.62323 3.90376 3.76611
# Velocity P-wave (km/s) = 5.63108 6.37155 6.01273
#
# Compressibility (1/GPa) = 0.03096880
#
# Stress axis : x y z
#
# Youngs Moduli (GPa) = 81.73896 44.71920 117.47388
#
# Poissons Ratio (x) = 0.18048 0.16123
# Poissons Ratio (y) = 0.32988 0.07772
# Poissons Ratio (z) = 0.11218 0.02959
#
# Static dielectric constant tensor:
#      x y z
#    x 4.193450 0.000000 0.172080 
#    y 0.000000 3.894380 0.000000 
#    z 0.172080 0.000000 4.366290 
# 
# 
# High freq. dielectric constant tensor:
#      x y z
#    x 1.902220 0.000000 0.016110 
#    y 0.000000 1.884460 0.000000 
#    z 0.016110 0.000000 1.911460 
# 
# From -- ./inp_files/5419.got.cif
#   From: 2010.03.12/outbox.cif.g09.slc.cpg/sg4_3_cif.got.tgz:5419.got - 2010.03.31 09:31:35.
