data_PCOD8046523
_publ_section_title
;
Structure prediction by ZEFSAII (Michael W. Deem and Ramdas Pophale) SiO2 
 PCOD8046523
Probable space group: P 21
;
_chemical_formula_sum "Si O2"
_cell_formula_units_Z 16
_cell_length_a 6.648419
_cell_length_b 6.540768
_cell_length_c 22.081043
_cell_angle_alpha 90.000000
_cell_angle_beta 127.703737
_cell_angle_gamma 90.000000
_cell_volume 759.703298
_symmetry_space_group_name_H-M "P 21"
_symmetry_group_IT_number 4
_symmetry_cell_setting 'monoclinic'
loop_
_space_group_symop_operation_xyz
x,y,z
-x,1/2+y,-z
loop_
_atom_site_type_symbol
_atom_site_label
_atom_site_fract_x
_atom_site_fract_y
_atom_site_fract_z
Si Si1 0.617030 0.807760 0.832798
Si Si2 0.159205 0.034860 0.465113
Si Si3 0.556907 0.720348 0.584032
Si Si4 0.316698 0.507284 0.282449
Si Si5 0.676541 0.828175 0.403049
Si Si6 0.088103 0.057726 0.945701
Si Si7 0.677771 0.397155 0.893176
Si Si8 0.734324 0.568980 0.153003
O O1 0.579083 0.906664 0.759863
O O2 0.616843 0.561164 0.829063
O O3 0.395498 0.874684 0.838650
O O4 0.894162 0.868845 0.908684
O O5 0.350411 0.845612 0.507831
O O6 0.880084 0.948167 0.399896
O O7 0.210614 0.184048 0.418539
O O8 0.164978 0.169432 0.526917
O O9 0.655572 0.841785 0.659940
O O10 0.466816 0.493400 0.582982
O O11 0.481328 0.709276 0.324307
O O12 0.027351 0.582721 0.226539
O O13 0.273277 0.054418 0.921386
O O14 0.921894 0.265358 0.918068
O O15 0.267537 0.028777 0.036448
O O16 0.424001 0.265884 0.855247
#
# Coordination Sequence:
#
# PCOD8046523 Si02
#       8
#     2   2   2   2   2   2   2   2
#     4  10  23  45  64  92 135 172 219 269 324 397
#     4  11  22  41  67 104 126 164 218 273 326 379
#     4  11  23  40  70  97 134 167 216 274 325 387
#     4  10  26  46  63  95 136 182 215 261 330 402
#     4  11  23  41  70  96 132 169 214 271 328 386
#     4  10  22  40  64 101 128 164 220 275 335 381
#     4  11  22  39  70  95 130 172 213 285 328 382
#     4  10  25  42  64  96 133 168 225 268 320 406
#
# _framework density 21.060855
#
# number of rings (size 3 to 8) (size 9 to 14) (size 15 to 20)
#    0.000    1.500    3.750    0.000    1.750    8.000 
#    0.000    0.000    0.000    0.000    0.000    0.000 
#    0.000    0.000    0.000    0.000    0.000    0.000 
#
# Total GULP energy -198405.226769 kJ/mol
# GULP energy per Si atom -12400.326673 kJ/mol
# Density = 2.101292 g / cm^3
# Si number density = 21.060855 Si / 1000 Ang^3
#
#
#
# Elastic Constant Matrix: (Units=GPa)
#
#
# Indices 1 2 3 4 5 6 
#
# 1 118.9198 32.2547 35.4691 0.0000 -5.6151 0.0000
# 2 32.2547 105.5950 30.9416 0.0000 3.3590 0.0000
# 3 35.4691 30.9416 75.6579 0.0000 -2.3385 0.0000
# 4 0.0000 0.0000 0.0000 30.4504 0.0000 -2.2953
# 5 -5.6151 3.3590 -2.3385 0.0000 29.1152 0.0000
# 6 0.0000 0.0000 0.0000 -2.2953 0.0000 33.1391
#
#
#
# Elastic Compliance Matrix: (Units=1/GPa)
#
#
# Indices 1 2 3 4 5 6 
#
# 1 0.010213 -0.002038 -0.003896 0.000000 0.001892 0.000000
# 2 -0.002038 0.011241 -0.003703 0.000000 -0.001987 0.000000
# 3 -0.003896 -0.003703 0.016589 0.000000 0.001008 0.000000
# 4 0.000000 0.000000 0.000000 0.033013 0.000000 0.002287
# 5 0.001892 -0.001987 0.001008 0.000000 0.035021 0.000000
# 6 0.000000 0.000000 0.000000 0.002287 0.000000 0.030334
#
#
# Mechanical properties :
#
#
# Convention : Reuss Voigt Hill
#
# Bulk Modulus (GPa) = 53.27921 55.27818 54.27870
# Shear Modulus (GPa) = 30.87504 31.97476 31.42490
#
# Velocity S-wave (km/s) = 3.83298 3.90065 3.86696
# Velocity P-wave (km/s) = 6.70385 6.82573 6.76507
#
# Compressibility (1/GPa) = 0.01876905
#
# Stress axis : x y z
#
# Youngs Moduli (GPa) = 97.91230 88.95964 60.27921
#
# Poissons Ratio (x) = 0.18132 0.23485
# Poissons Ratio (y) = 0.19957 0.22322
# Poissons Ratio (z) = 0.38147 0.32943
#
# Static dielectric constant tensor:
#      x y z
#    x 3.871560 0.000000 -0.058180 
#    y 0.000000 3.900580 0.000000 
#    z -0.058180 0.000000 3.668220 
# 
# 
# High freq. dielectric constant tensor:
#      x y z
#    x 1.831790 0.000000 -0.003860 
#    y 0.000000 1.837140 0.000000 
#    z -0.003860 0.000000 1.815250 
# 
# From -- ./inp_files/4002.got.cif
#   From: 2010.03.12/outbox.cif.g09.slc.cpg/sg4_3_cif.got.tgz:4002.got - 2010.03.31 09:31:35.
