data_PCOD8046985
_publ_section_title
;
Structure prediction by ZEFSAII (Michael W. Deem and Ramdas Pophale) SiO2 
 PCOD8046985
Probable space group: P 21
;
_chemical_formula_sum "Si O2"
_cell_formula_units_Z 16
_cell_length_a 29.008548
_cell_length_b 5.199373
_cell_length_c 9.495730
_cell_angle_alpha 90.000000
_cell_angle_beta 151.198814
_cell_angle_gamma 90.000000
_cell_volume 689.996218
_symmetry_space_group_name_H-M "P 21"
_symmetry_group_IT_number 4
_symmetry_cell_setting 'monoclinic'
loop_
_space_group_symop_operation_xyz
x,y,z
-x,1/2+y,-z
loop_
_atom_site_type_symbol
_atom_site_label
_atom_site_fract_x
_atom_site_fract_y
_atom_site_fract_z
Si Si1 0.403535 0.512870 0.860696
Si Si2 0.757970 0.867876 0.375495
Si Si3 0.781248 0.440919 0.109237
Si Si4 0.092104 0.763803 0.333046
Si Si5 0.480345 0.507228 0.767032
Si Si6 0.909456 0.541068 0.933335
Si Si7 0.327303 0.422952 0.138890
Si Si8 0.061140 0.892917 0.686226
O O1 0.439372 0.794504 0.996284
O O2 0.470069 0.287105 0.103837
O O3 0.297201 0.505604 0.642784
O O4 0.402833 0.490433 0.687935
O O5 0.810567 0.635474 0.597847
O O6 0.839312 0.021541 0.508967
O O7 0.677867 0.814670 0.037572
O O8 0.843153 0.484220 0.418518
O O9 0.850297 0.330043 0.175218
O O10 0.733470 0.709963 0.935624
O O11 0.706279 0.215116 0.935653
O O12 0.048861 0.834698 0.066005
O O13 0.000770 0.730768 0.193317
O O14 0.432442 0.436236 0.488582
O O15 0.889438 0.413648 0.028599
O O16 0.013526 0.160876 0.513369
#
# Coordination Sequence:
#
# PCOD8046985 Si02
#       8
#     2   2   2   2   2   2   2   2
#     4  10  24  44  69 100 131 166 226 265 341 403
#     4  11  26  41  66 103 129 177 227 274 324 410
#     4  11  24  44  63  99 135 175 228 273 325 399
#     4  11  24  43  66  94 139 183 224 275 336 384
#     4  10  23  46  70  95 134 174 204 285 342 396
#     4  12  25  42  67  94 138 185 225 280 333 387
#     4  11  24  43  70  97 135 172 218 276 337 396
#     4  12  28  43  65  96 133 184 234 280 328 391
#
# _framework density 23.188533
#
# number of rings (size 3 to 8) (size 9 to 14) (size 15 to 20)
#    0.000    1.000    3.750    1.500    8.750    2.000 
#    0.000    0.000    0.000    0.000    0.000    0.000 
#    0.000    0.000    0.000    0.000    0.000    0.000 
#
# Total GULP energy -198247.952514 kJ/mol
# GULP energy per Si atom -12390.497032 kJ/mol
# Density = 2.313575 g / cm^3
# Si number density = 23.188533 Si / 1000 Ang^3
#
#
#
# Elastic Constant Matrix: (Units=GPa)
#
#
# Indices 1 2 3 4 5 6 
#
# 1 81.7733 -8.3195 18.5219 0.0000 -1.3239 0.0000
# 2 -8.3195 78.1341 10.5616 0.0000 -7.8986 0.0000
# 3 18.5219 10.5616 79.6653 0.0000 -20.3467 0.0000
# 4 0.0000 0.0000 0.0000 25.9268 0.0000 -2.7520
# 5 -1.3239 -7.8986 -20.3467 0.0000 32.1734 0.0000
# 6 0.0000 0.0000 0.0000 -2.7520 0.0000 22.5999
#
#
#
# Elastic Compliance Matrix: (Units=1/GPa)
#
#
# Indices 1 2 3 4 5 6 
#
# 1 0.013213 0.001765 -0.003645 0.000000 -0.001328 0.000000
# 2 0.001765 0.013440 -0.001587 0.000000 0.002368 0.000000
# 3 -0.003645 -0.001587 0.016068 0.000000 0.009622 0.000000
# 4 0.000000 0.000000 0.000000 0.039075 0.000000 0.004758
# 5 -0.001328 0.002368 0.009622 0.000000 0.037693 0.000000
# 6 0.000000 0.000000 0.000000 0.004758 0.000000 0.044827
#
#
# Mechanical properties :
#
#
# Convention : Reuss Voigt Hill
#
# Bulk Modulus (GPa) = 27.94348 31.23342 29.58845
# Shear Modulus (GPa) = 27.29552 30.72726 29.01139
#
# Velocity S-wave (km/s) = 3.43463 3.64415 3.54094
# Velocity P-wave (km/s) = 5.27310 5.58614 5.43188
#
# Compressibility (1/GPa) = 0.03578652
#
# Stress axis : x y z
#
# Youngs Moduli (GPa) = 75.68488 74.40219 62.23595
#
# Poissons Ratio (x) = -0.13134 0.22686
# Poissons Ratio (y) = -0.13361 0.09879
# Poissons Ratio (z) = 0.27588 0.11811
#
# Static dielectric constant tensor:
#      x y z
#    x 4.251210 0.000000 -0.291310 
#    y 0.000000 4.007730 0.000000 
#    z -0.291310 0.000000 4.330430 
# 
# 
# High freq. dielectric constant tensor:
#      x y z
#    x 1.916070 0.000000 -0.013190 
#    y 0.000000 1.916110 0.000000 
#    z -0.013190 0.000000 1.913920 
# 
# From -- ./inp_files/9036.got.cif
#   From: 2010.03.12/outbox.cif.g09.slc.cpg/sg4_5_cif.got.tgz:9036.got - 2010.03.31 09:31:35.
