data_PCOD8046873
_publ_section_title
;
Structure prediction by ZEFSAII (Michael W. Deem and Ramdas Pophale) SiO2 
 PCOD8046873
Probable space group: P 21
;
_chemical_formula_sum "Si O2"
_cell_formula_units_Z 16
_cell_length_a 8.953245
_cell_length_b 12.874311
_cell_length_c 8.488773
_cell_angle_alpha 90.000000
_cell_angle_beta 131.302797
_cell_angle_gamma 90.000000
_cell_volume 735.061056
_symmetry_space_group_name_H-M "P 21"
_symmetry_group_IT_number 4
_symmetry_cell_setting 'monoclinic'
loop_
_space_group_symop_operation_xyz
x,y,z
-x,1/2+y,-z
loop_
_atom_site_type_symbol
_atom_site_label
_atom_site_fract_x
_atom_site_fract_y
_atom_site_fract_z
Si Si1 0.501325 0.054650 0.950325
Si Si2 0.124047 0.013388 0.870820
Si Si3 0.990832 0.723555 0.347990
Si Si4 0.576142 0.195215 0.277925
Si Si5 0.732857 0.889854 0.630258
Si Si6 0.359549 0.041980 0.335660
Si Si7 0.723425 0.864948 0.981145
Si Si8 0.270232 0.178058 0.551450
O O1 0.302756 0.992166 0.870404
O O2 0.449960 0.147209 0.793432
O O3 0.659076 0.980569 0.978517
O O4 0.612660 0.103626 0.177936
O O5 0.070160 0.135012 0.819609
O O6 0.201495 0.992433 0.103027
O O7 0.928435 0.946061 0.693455
O O8 0.927026 0.692433 0.480815
O O9 0.224364 0.741082 0.511073
O O10 0.899166 0.831269 0.221480
O O11 0.451042 0.148497 0.334045
O O12 0.460103 0.288398 0.114358
O O13 0.792163 0.859821 0.848614
O O14 0.680589 0.787573 0.495368
O O15 0.536676 0.961335 0.495142
O O16 0.244273 0.080739 0.412607
#
# Coordination Sequence:
#
# PCOD8046873 Si02
#       8
#     2   2   2   2   2   2   2   2
#     4  10  24  45  71  94 141 178 222 285 339 408
#     4  10  23  43  64  97 131 178 223 278 333 399
#     4  11  24  43  68  95 135 176 225 282 331 404
#     4  11  23  45  69  94 136 181 214 287 340 394
#     4  12  25  41  70 100 135 183 224 278 339 404
#     4  11  22  45  69  94 140 175 222 279 343 397
#     4  12  24  45  67 103 133 178 230 272 344 407
#     4  11  23  45  66 103 135 175 230 277 333 409
#
# _framework density 21.7669
#
# number of rings (size 3 to 8) (size 9 to 14) (size 15 to 20)
#    0.000    1.000    7.500    0.000    5.250    2.000 
#    2.250    0.000    0.000    0.000    0.000    0.000 
#    0.000    0.000    0.000    0.000    0.000    0.000 
#
# Total GULP energy -198395.021186 kJ/mol
# GULP energy per Si atom -12399.688824 kJ/mol
# Density = 2.171736 g / cm^3
# Si number density = 21.766900 Si / 1000 Ang^3
#
#
#
# Elastic Constant Matrix: (Units=GPa)
#
#
# Indices 1 2 3 4 5 6 
#
# 1 65.4686 32.1686 43.0999 0.0000 -11.2175 0.0000
# 2 32.1686 80.5853 30.0870 0.0000 3.2234 0.0000
# 3 43.0999 30.0870 92.3434 0.0000 -2.3134 0.0000
# 4 0.0000 0.0000 0.0000 33.2011 0.0000 -7.3388
# 5 -11.2175 3.2234 -2.3134 0.0000 36.9016 0.0000
# 6 0.0000 0.0000 0.0000 -7.3388 0.0000 30.4368
#
#
#
# Elastic Compliance Matrix: (Units=1/GPa)
#
#
# Indices 1 2 3 4 5 6 
#
# 1 0.026801 -0.007322 -0.009919 0.000000 0.008165 0.000000
# 2 -0.007322 0.016214 -0.001960 0.000000 -0.003765 0.000000
# 3 -0.009919 -0.001960 0.016051 0.000000 -0.001838 0.000000
# 4 0.000000 0.000000 0.000000 0.031815 0.000000 0.007671
# 5 0.008165 -0.003765 -0.001838 0.000000 0.029795 0.000000
# 6 0.000000 0.000000 0.000000 0.007671 0.000000 0.034705
#
#
# Mechanical properties :
#
#
# Convention : Reuss Voigt Hill
#
# Bulk Modulus (GPa) = 48.39029 49.90094 49.14561
# Shear Modulus (GPa) = 24.91646 28.97735 26.94691
#
# Velocity S-wave (km/s) = 3.38700 3.65260 3.52231
# Velocity P-wave (km/s) = 6.12986 6.38463 6.25854
#
# Compressibility (1/GPa) = 0.02066530
#
# Stress axis : x y z
#
# Youngs Moduli (GPa) = 37.31200 61.67383 62.30100
#
# Poissons Ratio (x) = 0.45157 0.61795
# Poissons Ratio (y) = 0.27320 0.12210
# Poissons Ratio (z) = 0.37009 0.12087
#
# Static dielectric constant tensor:
#      x y z
#    x 3.887510 0.000000 -0.126620 
#    y 0.000000 3.837810 0.000000 
#    z -0.126620 0.000000 3.939640 
# 
# 
# High freq. dielectric constant tensor:
#      x y z
#    x 1.847650 0.000000 -0.010600 
#    y 0.000000 1.849670 0.000000 
#    z -0.010600 0.000000 1.859460 
# 
# From -- ./inp_files/6463.got.cif
#   From: 2010.03.12/outbox.cif.g09.slc.cpg/sg4_4_cif.got.tgz:6463.got - 2010.03.31 09:31:35.
