data_PCOD8046153
_publ_section_title
;
Structure prediction by ZEFSAII (Michael W. Deem and Ramdas Pophale) SiO2 
 PCOD8046153
Probable space group: P 21
;
_chemical_formula_sum "Si O2"
_cell_formula_units_Z 14
_cell_length_a 10.453305
_cell_length_b 5.025240
_cell_length_c 21.298651
_cell_angle_alpha 90.000000
_cell_angle_beta 34.738276
_cell_angle_gamma 90.000000
_cell_volume 637.539046
_symmetry_space_group_name_H-M "P 21"
_symmetry_group_IT_number 4
_symmetry_cell_setting 'monoclinic'
loop_
_space_group_symop_operation_xyz
x,y,z
-x,1/2+y,-z
loop_
_atom_site_type_symbol
_atom_site_label
_atom_site_fract_x
_atom_site_fract_y
_atom_site_fract_z
Si Si1 0.078994 0.923900 0.786121
Si Si2 0.406155 0.992341 0.259647
Si Si3 0.501017 0.997951 0.702485
Si Si4 0.783101 0.416016 0.913704
Si Si5 0.893255 0.983330 0.446467
Si Si6 0.060416 0.998023 0.653435
Si Si7 0.418348 0.714671 0.129603
O O1 0.290849 0.920228 0.745427
O O2 0.159101 0.004817 0.683993
O O3 0.978160 0.629479 0.823310
O O4 0.892974 0.132171 0.886931
O O5 0.533321 0.789475 0.254870
O O6 0.480414 0.926468 0.158594
O O7 0.140031 0.954746 0.376117
O O8 0.478349 0.290395 0.248317
O O9 0.726791 0.999603 0.571408
O O10 0.636091 0.390690 0.909767
O O11 0.624552 0.515100 0.033961
O O12 0.824670 0.731889 0.432078
O O13 0.876505 0.229619 0.406617
O O14 0.791074 0.033071 0.764762
#
# Coordination Sequence:
#
# PCOD8046153 Si02
#       7
#     2   2   2   2   2   2   2
#     4  11  24  41  60  93 131 166 205 248 312 381
#     4  11  23  40  63  91 122 162 212 258 302 369
#     4  12  25  41  61  87 131 176 203 244 307 378
#     4  11  23  41  69  96 121 156 206 266 317 366
#     4  11  22  39  64  92 120 161 215 264 307 352
#     4  10  21  37  63  94 122 152 206 271 313 360
#     4  10  22  41  70  97 121 155 207 271 324 352
#
# _framework density 21.959440000000001
#
# number of rings (size 3 to 8) (size 9 to 14) (size 15 to 20)
#    0.000    1.143    0.000    8.571    0.000    6.857 
#    0.000    2.857    0.000    0.000    0.000    0.000 
#    0.000    0.000    0.000    0.000    0.000    0.000 
#
# Total GULP energy -173685.673637 kJ/mol
# GULP energy per Si atom -12406.119546 kJ/mol
# Density = 2.190946 g / cm^3
# Si number density = 21.959440 Si / 1000 Ang^3
#
#
#
# Elastic Constant Matrix: (Units=GPa)
#
#
# Indices 1 2 3 4 5 6 
#
# 1 101.8903 14.4242 24.9473 0.0000 0.5181 0.0000
# 2 14.4242 109.1052 53.9246 0.0000 8.4931 0.0000
# 3 24.9473 53.9246 20.6232 0.0000 23.2695 0.0000
# 4 0.0000 0.0000 0.0000 36.2457 0.0000 11.1684
# 5 0.5181 8.4931 23.2695 0.0000 23.8604 0.0000
# 6 0.0000 0.0000 0.0000 11.1684 0.0000 34.2631
#
#
#
# Elastic Compliance Matrix: (Units=1/GPa)
#
#
# Indices 1 2 3 4 5 6 
#
# 1 0.008664 -0.004308 0.007310 0.000000 -0.005784 0.000000
# 2 -0.004308 0.003041 0.016185 0.000000 -0.016774 0.000000
# 3 0.007310 0.016185 -0.039899 0.000000 0.032991 0.000000
# 4 0.000000 0.000000 0.000000 0.030670 0.000000 -0.009997
# 5 -0.005784 -0.016774 0.032991 0.000000 0.015832 0.000000
# 6 0.000000 0.000000 0.000000 -0.009997 0.000000 0.032445
#
#
# Mechanical properties :
#
#
# Convention : Reuss Voigt Hill
#
# Bulk Modulus (GPa) = 98.22701 46.46786 72.34744
# Shear Modulus (GPa) = 317.03569 28.09534 172.56551
#
# Velocity S-wave (km/s) = 12.02858 3.58078 8.87436
# Velocity P-wave (km/s) = 15.41894 6.18891 11.74833
#
# Compressibility (1/GPa) = 0.01018050
#
# Stress axis : x y z
#
# Youngs Moduli (GPa) = 115.42094 328.82276 -25.06302
#
# Poissons Ratio (x) = 1.41662 0.18321
# Poissons Ratio (y) = 0.49725 0.40566
# Poissons Ratio (z) = -0.84374 -5.32216
#
# Static dielectric constant tensor:
#      x y z
#    x 3.840590 0.000000 0.196120 
#    y 0.000000 4.113590 0.000000 
#    z 0.196120 0.000000 3.860740 
# 
# 
# High freq. dielectric constant tensor:
#      x y z
#    x 1.853830 0.000000 0.016310 
#    y 0.000000 1.883170 0.000000 
#    z 0.016310 0.000000 1.853840 
# 
# From -- ./inp_files/14757.got.cif
#   From: 2010.03.12/outbox.cif.g09.slc.cpg/sg4_8_cif.got.tgz:14757.got - 2010.03.31 09:31:35.
