data_PCOD8046102
_publ_section_title
;
Structure prediction by ZEFSAII (Michael W. Deem and Ramdas Pophale) SiO2 
 PCOD8046102
Probable space group: P 21
;
_chemical_formula_sum "Si O2"
_cell_formula_units_Z 16
_cell_length_a 17.002901
_cell_length_b 5.826976
_cell_length_c 16.745224
_cell_angle_alpha 90.000000
_cell_angle_beta 155.351830
_cell_angle_gamma 90.000000
_cell_volume 691.895014
_symmetry_space_group_name_H-M "P 21"
_symmetry_group_IT_number 4
_symmetry_cell_setting 'monoclinic'
loop_
_space_group_symop_operation_xyz
x,y,z
-x,1/2+y,-z
loop_
_atom_site_type_symbol
_atom_site_label
_atom_site_fract_x
_atom_site_fract_y
_atom_site_fract_z
Si Si1 0.730789 0.248120 0.168340
Si Si2 0.873273 0.784299 0.540693
Si Si3 0.431391 0.568252 0.824308
Si Si4 0.039500 0.137187 0.817118
Si Si5 0.225432 0.748067 0.065478
Si Si6 0.646093 0.940924 0.949856
Si Si7 0.835799 0.540067 0.660032
Si Si8 0.509204 0.165163 0.552599
O O1 0.697180 0.199927 0.230128
O O2 0.956151 0.246576 0.363789
O O3 0.627489 0.484009 0.045877
O O4 0.635916 0.050797 0.027894
O O5 0.819139 0.570658 0.547686
O O6 0.687237 0.857091 0.320829
O O7 0.942632 0.971003 0.666731
O O8 0.484287 0.744873 0.801321
O O9 0.869659 0.267115 0.708247
O O10 0.145560 0.337281 0.867195
O O11 0.200431 0.018851 0.021552
O O12 0.371573 0.629733 0.137173
O O13 0.296615 0.706308 0.220519
O O14 0.012674 0.663991 0.863434
O O15 0.655545 0.644990 0.535499
O O16 0.477357 0.411390 0.477210
#
# Coordination Sequence:
#
# PCOD8046102 Si02
#       8
#     2   2   2   2   2   2   2   2
#     4  12  24  46  58 102 143 192 248 309 381 435
#     4  11  25  42  68 106 134 192 258 307 358 462
#     4  12  27  39  69  94 152 193 243 320 383 428
#     4  10  20  43  75 102 137 181 252 302 362 437
#     4  10  24  46  77 105 146 196 243 308 367 452
#     4  11  21  43  69  98 137 194 243 303 366 450
#     4  10  25  46  76 106 145 195 246 302 378 449
#     4  12  32  51  76 119 160 193 251 311 387 475
#
# _framework density 23.124896
#
# number of rings (size 3 to 8) (size 9 to 14) (size 15 to 20)
#    0.000    1.000    6.250    0.000   12.250    3.000 
#    0.000    0.000    0.000    0.000    0.000    0.000 
#    0.000    0.000    0.000    0.000    0.000    0.000 
#
# Total GULP energy -198213.166670 kJ/mol
# GULP energy per Si atom -12388.322917 kJ/mol
# Density = 2.307226 g / cm^3
# Si number density = 23.124896 Si / 1000 Ang^3
#
#
#
# Elastic Constant Matrix: (Units=GPa)
#
#
# Indices 1 2 3 4 5 6 
#
# 1 62.7499 33.6290 26.2360 0.0000 6.8957 0.0000
# 2 33.6290 117.2472 16.3080 0.0000 -2.9813 0.0000
# 3 26.2360 16.3080 77.4561 0.0000 -4.6058 0.0000
# 4 0.0000 0.0000 0.0000 21.6005 0.0000 8.5056
# 5 6.8957 -2.9813 -4.6058 0.0000 36.3100 0.0000
# 6 0.0000 0.0000 0.0000 8.5056 0.0000 36.2233
#
#
#
# Elastic Compliance Matrix: (Units=1/GPa)
#
#
# Indices 1 2 3 4 5 6 
#
# 1 0.022373 -0.005623 -0.006725 0.000000 -0.005564 0.000000
# 2 -0.005623 0.010208 -0.000132 0.000000 0.001889 0.000000
# 3 -0.006725 -0.000132 0.015408 0.000000 0.003221 0.000000
# 4 0.000000 0.000000 0.000000 0.051012 0.000000 -0.011978
# 5 -0.005564 0.001889 0.003221 0.000000 0.029161 0.000000
# 6 0.000000 0.000000 0.000000 -0.011978 0.000000 0.030419
#
#
# Mechanical properties :
#
#
# Convention : Reuss Voigt Hill
#
# Bulk Modulus (GPa) = 43.42528 45.53325 44.47926
# Shear Modulus (GPa) = 26.14812 30.91210 28.53011
#
# Velocity S-wave (km/s) = 3.36629 3.66012 3.51627
# Velocity P-wave (km/s) = 5.82482 6.13146 5.98011
#
# Compressibility (1/GPa) = 0.02302806
#
# Stress axis : x y z
#
# Youngs Moduli (GPa) = 44.69659 97.95987 64.90199
#
# Poissons Ratio (x) = 0.55084 0.43647
# Poissons Ratio (y) = 0.25134 0.00859
# Poissons Ratio (z) = 0.30059 0.01296
#
# Static dielectric constant tensor:
#      x y z
#    x 4.114040 0.000000 0.075310 
#    y 0.000000 5.087980 0.000000 
#    z 0.075310 0.000000 4.087480 
# 
# 
# High freq. dielectric constant tensor:
#      x y z
#    x 1.900940 0.000000 0.016750 
#    y 0.000000 1.928920 0.000000 
#    z 0.016750 0.000000 1.905860 
# 
# From -- ./inp_files/14109.got.cif
#   From: 2010.03.12/outbox.cif.g09.slc.cpg/sg4_8_cif.got.tgz:14109.got - 2010.03.31 09:31:35.
