data_PCOD8046071
_publ_section_title
;
Structure prediction by ZEFSAII (Michael W. Deem and Ramdas Pophale) SiO2 
 PCOD8046071
Probable space group: P 21
;
_chemical_formula_sum "Si O2"
_cell_formula_units_Z 16
_cell_length_a 11.401948
_cell_length_b 8.830748
_cell_length_c 8.171388
_cell_angle_alpha 90.000000
_cell_angle_beta 60.263353
_cell_angle_gamma 90.000000
_cell_volume 714.413087
_symmetry_space_group_name_H-M "P 21"
_symmetry_group_IT_number 4
_symmetry_cell_setting 'monoclinic'
loop_
_space_group_symop_operation_xyz
x,y,z
-x,1/2+y,-z
loop_
_atom_site_type_symbol
_atom_site_label
_atom_site_fract_x
_atom_site_fract_y
_atom_site_fract_z
Si Si1 0.912623 0.134420 0.557823
Si Si2 0.034536 0.934639 0.192960
Si Si3 0.802943 0.731607 0.590548
Si Si4 0.786892 0.918868 0.899904
Si Si5 0.891527 0.698164 0.081665
Si Si6 0.744912 0.402057 0.707538
Si Si7 0.373440 0.213768 0.567290
Si Si8 0.480702 0.453852 0.730740
O O1 0.794311 0.248989 0.582285
O O2 0.034164 0.253671 0.515953
O O3 0.939999 0.010608 0.399178
O O4 0.867820 0.051342 0.754642
O O5 0.972982 0.772814 0.177948
O O6 0.187696 0.909291 0.156740
O O7 0.033876 0.051338 0.041650
O O8 0.735269 0.795117 0.802737
O O9 0.792041 0.550210 0.576352
O O10 0.719621 0.807788 0.499289
O O11 0.887166 0.830480 0.949958
O O12 0.661604 0.990285 0.085618
O O13 0.740209 0.641758 0.234237
O O14 0.581898 0.403629 0.808254
O O15 0.469767 0.321691 0.604388
O O16 0.468342 0.098345 0.404933
#
# Coordination Sequence:
#
# PCOD8046071 Si02
#       8
#     2   2   2   2   2   2   2   2
#     4  11  22  40  69 102 130 175 229 281 343 407
#     4  11  25  42  69 101 140 179 224 293 351 404
#     4  10  20  41  69  91 136 172 216 287 346 387
#     4  11  23  42  66 100 135 177 227 275 338 411
#     4  11  24  42  66 103 140 175 229 287 351 405
#     4  10  22  40  65  97 126 182 223 273 334 404
#     4  10  23  45  68  95 133 182 221 287 343 396
#     4  10  25  46  68  93 138 182 231 279 336 416
#
# _framework density 22.396007000000001
#
# number of rings (size 3 to 8) (size 9 to 14) (size 15 to 20)
#    0.000    1.500    2.500    3.000    3.500    6.000 
#    4.500    0.000    0.000    0.000    0.000    0.000 
#    0.000    0.000    0.000    0.000    0.000    0.000 
#
# Total GULP energy -198250.591080 kJ/mol
# GULP energy per Si atom -12390.661943 kJ/mol
# Density = 2.234503 g / cm^3
# Si number density = 22.396007 Si / 1000 Ang^3
#
#
#
# Elastic Constant Matrix: (Units=GPa)
#
#
# Indices 1 2 3 4 5 6 
#
# 1 94.9343 28.2950 19.5914 0.0000 10.3016 0.0000
# 2 28.2950 91.2078 45.5648 0.0000 -2.7642 0.0000
# 3 19.5914 45.5648 119.0152 0.0000 0.1364 0.0000
# 4 0.0000 0.0000 0.0000 42.0427 0.0000 2.0987
# 5 10.3016 -2.7642 0.1364 0.0000 31.0980 0.0000
# 6 0.0000 0.0000 0.0000 2.0987 0.0000 34.5291
#
#
#
# Elastic Compliance Matrix: (Units=1/GPa)
#
#
# Indices 1 2 3 4 5 6 
#
# 1 0.012211 -0.003609 -0.000623 0.000000 -0.004363 0.000000
# 2 -0.003609 0.014671 -0.005025 0.000000 0.002522 0.000000
# 3 -0.000623 -0.005025 0.010429 0.000000 -0.000286 0.000000
# 4 0.000000 0.000000 0.000000 0.023858 0.000000 -0.001450
# 5 -0.004363 0.002522 -0.000286 0.000000 0.033827 0.000000
# 6 0.000000 0.000000 0.000000 -0.001450 0.000000 0.029049
#
#
# Mechanical properties :
#
#
# Convention : Reuss Voigt Hill
#
# Bulk Modulus (GPa) = 53.20456 54.67330 53.93893
# Shear Modulus (GPa) = 33.59622 35.64768 34.62195
#
# Velocity S-wave (km/s) = 3.87731 3.99394 3.93606
# Velocity P-wave (km/s) = 6.62213 6.76268 6.69277
#
# Compressibility (1/GPa) = 0.01879538
#
# Stress axis : x y z
#
# Youngs Moduli (GPa) = 81.89068 68.16369 95.88454
#
# Poissons Ratio (x) = 0.24601 0.05978
# Poissons Ratio (y) = 0.29555 0.48186
# Poissons Ratio (z) = 0.05105 0.34255
#
# Static dielectric constant tensor:
#      x y z
#    x 4.294250 0.000000 0.117480 
#    y 0.000000 3.989460 0.000000 
#    z 0.117480 0.000000 4.005040 
# 
# 
# High freq. dielectric constant tensor:
#      x y z
#    x 1.883040 0.000000 0.012020 
#    y 0.000000 1.885120 0.000000 
#    z 0.012020 0.000000 1.876550 
# 
# From -- ./inp_files/7834.got.cif
#   From: 2010.03.12/outbox.cif.g09.slc.cpg/sg4_4_cif.got.tgz:7834.got - 2010.03.31 09:31:35.
