data_PCOD8046393
_publ_section_title
;
Structure prediction by ZEFSAII (Michael W. Deem and Ramdas Pophale) SiO2 
 PCOD8046393
Probable space group: P 21
;
_chemical_formula_sum "Si O2"
_cell_formula_units_Z 16
_cell_length_a 15.829377
_cell_length_b 9.719605
_cell_length_c 5.253139
_cell_angle_alpha 90.000000
_cell_angle_beta 122.578168
_cell_angle_gamma 90.000000
_cell_volume 681.055474
_symmetry_space_group_name_H-M "P 21"
_symmetry_group_IT_number 4
_symmetry_cell_setting 'monoclinic'
loop_
_space_group_symop_operation_xyz
x,y,z
-x,1/2+y,-z
loop_
_atom_site_type_symbol
_atom_site_label
_atom_site_fract_x
_atom_site_fract_y
_atom_site_fract_z
Si Si1 0.192682 0.011100 0.923941
Si Si2 0.063124 0.031858 0.218902
Si Si3 0.410773 0.393228 0.836919
Si Si4 0.434492 0.691170 0.743356
Si Si5 0.790197 0.983574 0.209351
Si Si6 0.077910 0.327340 0.226592
Si Si7 0.689069 0.245058 0.956230
Si Si8 0.267066 0.272697 0.260109
O O1 0.137939 0.996327 0.567186
O O2 0.113232 0.004852 0.023854
O O3 0.260713 0.149620 0.045129
O O4 0.273473 0.891404 0.076061
O O5 0.014916 0.186368 0.183414
O O6 0.973246 0.918676 0.078103
O O7 0.469825 0.533061 0.854180
O O8 0.305308 0.441835 0.776615
O O9 0.380113 0.294059 0.548286
O O10 0.472098 0.297132 0.132163
O O11 0.376642 0.685876 0.382749
O O12 0.373564 0.753700 0.884290
O O13 0.895932 0.931787 0.499116
O O14 0.774120 0.916711 0.911084
O O15 0.786314 0.147899 0.164679
O O16 0.182187 0.245381 0.335120
#
# Coordination Sequence:
#
# PCOD8046393 Si02
#       8
#     2   2   2   2   2   2   2   2
#     4  11  25  43  65  96 130 168 217 266 328 383
#     4  11  25  42  65  98 129 165 222 266 320 388
#     4  10  24  41  64  97 128 171 215 268 325 385
#     4  11  25  42  65  98 129 165 222 266 320 388
#     4  10  21  43  66  88 132 172 209 259 330 388
#     4  10  24  41  64  97 128 171 215 268 325 385
#     4  11  25  43  65  96 130 168 217 266 328 383
#     4  10  21  43  66  88 132 172 209 259 330 388
#
# _framework density 23.492946
#
# number of rings (size 3 to 8) (size 9 to 14) (size 15 to 20)
#    0.000    1.500    2.500    0.750    7.000    2.000 
#    0.000    0.000    0.000    0.000    0.000    0.000 
#    0.000    0.000    0.000    0.000    0.000    0.000 
#
# Total GULP energy -198243.572225 kJ/mol
# GULP energy per Si atom -12390.223264 kJ/mol
# Density = 2.343948 g / cm^3
# Si number density = 23.492946 Si / 1000 Ang^3
#
#
#
# Elastic Constant Matrix: (Units=GPa)
#
#
# Indices 1 2 3 4 5 6 
#
# 1 29.6087 12.1968 10.8461 0.0000 -10.1751 0.0000
# 2 12.1968 128.5397 38.7673 0.0000 25.5163 0.0000
# 3 10.8461 38.7673 116.8462 0.0000 -0.4237 0.0000
# 4 0.0000 0.0000 0.0000 49.3092 0.0000 5.3214
# 5 -10.1751 25.5163 -0.4237 0.0000 29.6406 0.0000
# 6 0.0000 0.0000 0.0000 5.3214 0.0000 24.3934
#
#
#
# Elastic Compliance Matrix: (Units=1/GPa)
#
#
# Indices 1 2 3 4 5 6 
#
# 1 0.045648 -0.008484 -0.001339 0.000000 0.022954 0.000000
# 2 -0.008484 0.012276 -0.003334 0.000000 -0.013528 0.000000
# 3 -0.001339 -0.003334 0.009798 0.000000 0.002551 0.000000
# 4 0.000000 0.000000 0.000000 0.020769 0.000000 -0.004531
# 5 0.022954 -0.013528 0.002551 0.000000 0.053299 0.000000
# 6 0.000000 0.000000 0.000000 -0.004531 0.000000 0.041983
#
#
# Mechanical properties :
#
#
# Convention : Reuss Voigt Hill
#
# Bulk Modulus (GPa) = 24.15099 44.29054 34.22077
# Shear Modulus (GPa) = 22.33237 34.88096 28.60666
#
# Velocity S-wave (km/s) = 3.08652 3.85741 3.49330
# Velocity P-wave (km/s) = 4.79631 6.22360 5.55598
#
# Compressibility (1/GPa) = 0.04140617
#
# Stress axis : x y z
#
# Youngs Moduli (GPa) = 21.90698 81.46119 102.06079
#
# Poissons Ratio (x) = 0.69113 0.13666
# Poissons Ratio (y) = 0.18586 0.34031
# Poissons Ratio (z) = 0.02933 0.27162
#
# Static dielectric constant tensor:
#      x y z
#    x 4.049790 0.000000 -0.000620 
#    y 0.000000 4.733970 0.000000 
#    z -0.000620 0.000000 4.184900 
# 
# 
# High freq. dielectric constant tensor:
#      x y z
#    x 1.900910 0.000000 -0.008060 
#    y 0.000000 1.948000 0.000000 
#    z -0.008060 0.000000 1.934210 
# 
# From -- ./inp_files/3413.got.cif
#   From: 2010.03.12/outbox.cif.g09.slc.cpg/sg4_2_cif.got.tgz:3413.got - 2010.03.31 09:31:35.
