data_PCOD8046931
_publ_section_title
;
Structure prediction by ZEFSAII (Michael W. Deem and Ramdas Pophale) SiO2 
 PCOD8046931
Probable space group: P 21
;
_chemical_formula_sum "Si O2"
_cell_formula_units_Z 16
_cell_length_a 11.698536
_cell_length_b 8.116799
_cell_length_c 14.931027
_cell_angle_alpha 90.000000
_cell_angle_beta 27.512957
_cell_angle_gamma 90.000000
_cell_volume 654.938016
_symmetry_space_group_name_H-M "P 21"
_symmetry_group_IT_number 4
_symmetry_cell_setting 'monoclinic'
loop_
_space_group_symop_operation_xyz
x,y,z
-x,1/2+y,-z
loop_
_atom_site_type_symbol
_atom_site_label
_atom_site_fract_x
_atom_site_fract_y
_atom_site_fract_z
Si Si1 0.072364 0.291170 0.471812
Si Si2 0.817043 0.304995 0.213049
Si Si3 0.438966 0.791760 0.084608
Si Si4 0.060594 0.783929 0.073187
Si Si5 0.217148 0.961176 0.463839
Si Si6 0.645194 0.595961 0.441082
Si Si7 0.717240 0.933863 0.036787
Si Si8 0.538534 0.450166 0.107420
O O1 0.169723 0.108471 0.425366
O O2 0.297919 0.418554 0.337192
O O3 0.845672 0.331742 0.694953
O O4 0.983378 0.321585 0.428576
O O5 0.650297 0.461792 0.358173
O O6 0.640822 0.143520 0.339977
O O7 0.938839 0.327216 0.031439
O O8 0.058362 0.301762 0.109053
O O9 0.621960 0.928704 0.000765
O O10 0.526183 0.619731 0.064475
O O11 0.469406 0.797825 0.957415
O O12 0.787419 0.759858 0.305585
O O13 0.205306 0.615296 0.989266
O O14 0.205115 0.937331 0.016880
O O15 0.207081 0.024004 0.573973
O O16 0.487909 0.882003 0.260134
#
# Coordination Sequence:
#
# PCOD8046931 Si02
#       8
#     2   2   2   2   2   2   2   2
#     4  11  23  42  70  99 145 181 232 290 363 427
#     4  11  26  47  72 103 140 196 242 304 363 419
#     4  11  26  40  66 107 135 188 236 286 364 435
#     4  11  24  45  70 100 142 188 241 308 359 418
#     4  11  22  46  72 106 144 193 237 300 366 432
#     4  11  26  46  74 103 144 192 247 301 364 435
#     4  10  23  44  69  97 145 184 236 303 356 418
#     4  12  24  42  69  99 143 184 235 292 363 436
#
# _framework density 24.429794000000001
#
# number of rings (size 3 to 8) (size 9 to 14) (size 15 to 20)
#    0.000    1.000    3.750    1.500    7.000    3.000 
#    2.250    0.000    0.000    0.000    0.000    0.000 
#    0.000    0.000    0.000    0.000    0.000    0.000 
#
# Total GULP energy -198265.280162 kJ/mol
# GULP energy per Si atom -12391.580010 kJ/mol
# Density = 2.437419 g / cm^3
# Si number density = 24.429794 Si / 1000 Ang^3
#
#
#
# Elastic Constant Matrix: (Units=GPa)
#
#
# Indices 1 2 3 4 5 6 
#
# 1 74.0910 9.7888 37.2496 0.0000 8.5428 0.0000
# 2 9.7888 60.8334 6.6734 0.0000 0.9835 0.0000
# 3 37.2496 6.6734 90.3492 0.0000 -6.2572 0.0000
# 4 0.0000 0.0000 0.0000 34.2074 0.0000 -1.8781
# 5 8.5428 0.9835 -6.2572 0.0000 39.7498 0.0000
# 6 0.0000 0.0000 0.0000 -1.8781 0.0000 41.6169
#
#
#
# Elastic Compliance Matrix: (Units=1/GPa)
#
#
# Indices 1 2 3 4 5 6 
#
# 1 0.018229 -0.002004 -0.007719 0.000000 -0.005083 0.000000
# 2 -0.002004 0.016808 -0.000419 0.000000 -0.000051 0.000000
# 3 -0.007719 -0.000419 0.014556 0.000000 0.003961 0.000000
# 4 0.000000 0.000000 0.000000 0.029306 0.000000 0.001323
# 5 -0.005083 -0.000051 0.003961 0.000000 0.026875 0.000000
# 6 0.000000 0.000000 0.000000 0.001323 0.000000 0.024088
#
#
# Mechanical properties :
#
#
# Convention : Reuss Voigt Hill
#
# Bulk Modulus (GPa) = 34.12073 36.96635 35.54354
# Shear Modulus (GPa) = 31.26654 34.55226 32.90940
#
# Velocity S-wave (km/s) = 3.58138 3.76486 3.67427
# Velocity P-wave (km/s) = 5.57664 5.83639 5.70799
#
# Compressibility (1/GPa) = 0.02930770
#
# Stress axis : x y z
#
# Youngs Moduli (GPa) = 54.85825 59.49686 68.70019
#
# Poissons Ratio (x) = 0.11925 0.53033
# Poissons Ratio (y) = 0.10995 0.02876
# Poissons Ratio (z) = 0.42348 0.02491
#
# Static dielectric constant tensor:
#      x y z
#    x 4.568750 0.000000 -0.222140 
#    y 0.000000 4.185480 0.000000 
#    z -0.222140 0.000000 4.644140 
# 
# 
# High freq. dielectric constant tensor:
#      x y z
#    x 1.963680 0.000000 -0.014680 
#    y 0.000000 1.953100 0.000000 
#    z -0.014680 0.000000 1.984910 
# 
# From -- ./inp_files/13935.got.cif
#   From: 2010.03.12/outbox.cif.g09.slc.cpg/sg4_7_cif.got.tgz:13935.got - 2010.03.31 09:31:35.
