data_PCOD8046419
_publ_section_title
;
Structure prediction by ZEFSAII (Michael W. Deem and Ramdas Pophale) SiO2 
 PCOD8046419
Probable space group: P 21
;
_chemical_formula_sum "Si O2"
_cell_formula_units_Z 16
_cell_length_a 6.675272
_cell_length_b 8.137590
_cell_length_c 19.214918
_cell_angle_alpha 90.000000
_cell_angle_beta 44.573251
_cell_angle_gamma 90.000000
_cell_volume 732.536712
_symmetry_space_group_name_H-M "P 21"
_symmetry_group_IT_number 4
_symmetry_cell_setting 'monoclinic'
loop_
_space_group_symop_operation_xyz
x,y,z
-x,1/2+y,-z
loop_
_atom_site_type_symbol
_atom_site_label
_atom_site_fract_x
_atom_site_fract_y
_atom_site_fract_z
Si Si1 0.716885 0.404620 0.936139
Si Si2 0.689125 0.730521 0.194126
Si Si3 0.463166 0.618876 0.110822
Si Si4 0.530653 0.876328 0.517811
Si Si5 0.470017 0.041944 0.402720
Si Si6 0.139976 0.998324 0.727558
Si Si7 0.824072 0.481749 0.657936
Si Si8 0.942149 0.629389 0.771515
O O1 0.524619 0.268751 0.946262
O O2 0.032483 0.342797 0.875188
O O3 0.723924 0.562735 0.883063
O O4 0.560861 0.454691 0.046271
O O5 0.676435 0.649743 0.121178
O O6 0.708577 0.578902 0.243078
O O7 0.403975 0.835304 0.278717
O O8 0.142859 0.602144 0.221028
O O9 0.478772 0.695905 0.559038
O O10 0.367334 0.005516 0.608541
O O11 0.864371 0.908821 0.428828
O O12 0.390787 0.892257 0.474729
O O13 0.780186 0.009216 0.291723
O O14 0.242064 0.075565 0.398552
O O15 0.036436 0.812739 0.767315
O O16 0.805745 0.608355 0.727468
#
# Coordination Sequence:
#
# PCOD8046419 Si02
#       8
#     2   2   2   2   2   2   2   2
#     4  11  23  44  69  96 132 172 223 280 346 410
#     4  11  25  43  69  99 136 178 227 283 341 419
#     4  11  25  44  69  99 132 181 219 284 345 409
#     4  10  25  38  66  96 135 174 226 272 332 401
#     4  10  23  40  62  95 129 178 219 275 330 394
#     4  10  25  43  65  98 137 174 229 283 336 403
#     4  11  23  40  70  94 135 182 224 275 346 399
#     4  10  21  44  64  93 132 173 221 280 336 401
#
# _framework density 21.841911
#
# number of rings (size 3 to 8) (size 9 to 14) (size 15 to 20)
#    0.000    1.500    2.500    0.750    5.250    7.000 
#    2.250    0.000    0.000    0.000    0.000    0.000 
#    0.000    0.000    0.000    0.000    0.000    0.000 
#
# Total GULP energy -198352.094889 kJ/mol
# GULP energy per Si atom -12397.005931 kJ/mol
# Density = 2.179220 g / cm^3
# Si number density = 21.841911 Si / 1000 Ang^3
#
#
#
# Elastic Constant Matrix: (Units=GPa)
#
#
# Indices 1 2 3 4 5 6 
#
# 1 135.8607 32.3787 42.1742 0.0000 17.6923 0.0000
# 2 32.3787 78.1404 21.7542 0.0000 5.3111 0.0000
# 3 42.1742 21.7542 86.6640 0.0000 4.8339 0.0000
# 4 0.0000 0.0000 0.0000 39.5543 0.0000 6.7360
# 5 17.6923 5.3111 4.8339 0.0000 26.5759 0.0000
# 6 0.0000 0.0000 0.0000 6.7360 0.0000 36.1669
#
#
#
# Elastic Compliance Matrix: (Units=1/GPa)
#
#
# Indices 1 2 3 4 5 6 
#
# 1 0.009885 -0.002662 -0.003844 0.000000 -0.005349 0.000000
# 2 -0.002662 0.014598 -0.002329 0.000000 -0.000721 0.000000
# 3 -0.003844 -0.002329 0.013967 0.000000 0.000484 0.000000
# 4 0.000000 0.000000 0.000000 0.026110 0.000000 -0.004863
# 5 -0.005349 -0.000721 0.000484 0.000000 0.041245 0.000000
# 6 0.000000 0.000000 0.000000 -0.004863 0.000000 0.028555
#
#
# Mechanical properties :
#
#
# Convention : Reuss Voigt Hill
#
# Bulk Modulus (GPa) = 48.12184 54.80881 51.46532
# Shear Modulus (GPa) = 31.45530 34.08330 32.76930
#
# Velocity S-wave (km/s) = 3.79903 3.95454 3.87757
# Velocity P-wave (km/s) = 6.42831 6.78226 6.60766
#
# Compressibility (1/GPa) = 0.02078059
#
# Stress axis : x y z
#
# Youngs Moduli (GPa) = 101.16629 68.50290 71.59829
#
# Poissons Ratio (x) = 0.18237 0.27520
# Poissons Ratio (y) = 0.26933 0.16672
# Poissons Ratio (z) = 0.38885 0.15951
#
# Static dielectric constant tensor:
#      x y z
#    x 4.049040 0.000000 0.122650 
#    y 0.000000 3.822760 0.000000 
#    z 0.122650 0.000000 4.194380 
# 
# 
# High freq. dielectric constant tensor:
#      x y z
#    x 1.856640 0.000000 0.007060 
#    y 0.000000 1.854140 0.000000 
#    z 0.007060 0.000000 1.871300 
# 
# From -- ./inp_files/3412.got.cif
#   From: 2010.03.12/outbox.cif.g09.slc.cpg/sg4_2_cif.got.tgz:3412.got - 2010.03.31 09:31:35.
