data_PCOD8046156
_publ_section_title
;
Structure prediction by ZEFSAII (Michael W. Deem and Ramdas Pophale) SiO2 
 PCOD8046156
Probable space group: P 21
;
_chemical_formula_sum "Si O2"
_cell_formula_units_Z 14
_cell_length_a 23.198740
_cell_length_b 5.069577
_cell_length_c 16.777769
_cell_angle_alpha 90.000000
_cell_angle_beta 18.451028
_cell_angle_gamma 90.000000
_cell_volume 624.504821
_symmetry_space_group_name_H-M "P 21"
_symmetry_group_IT_number 4
_symmetry_cell_setting 'monoclinic'
loop_
_space_group_symop_operation_xyz
x,y,z
-x,1/2+y,-z
loop_
_atom_site_type_symbol
_atom_site_label
_atom_site_fract_x
_atom_site_fract_y
_atom_site_fract_z
Si Si1 0.014758 0.638570 0.762045
Si Si2 0.014595 0.970382 0.528213
Si Si3 0.405699 0.771375 0.037509
Si Si4 0.072031 0.172658 0.948742
Si Si5 0.522821 0.736208 0.525145
Si Si6 0.419637 0.766999 0.200025
Si Si7 0.842666 0.127063 0.916600
O O1 0.203597 0.773143 0.489714
O O2 0.012226 0.567690 0.858173
O O3 0.976057 0.371183 0.763622
O O4 0.868638 0.870105 0.938267
O O5 0.189712 0.802452 0.325668
O O6 0.919392 0.748418 0.597016
O O7 0.880164 0.040878 0.776693
O O8 0.485407 0.757114 0.021910
O O9 0.478148 0.516107 0.894450
O O10 0.498685 0.007607 0.865713
O O11 0.288182 0.215692 0.674774
O O12 0.972975 0.446493 0.056361
O O13 0.502879 0.518347 0.482665
O O14 0.365690 0.713005 0.798264
#
# Coordination Sequence:
#
# PCOD8046156 Si02
#       7
#     2   2   2   2   2   2   2
#     4  12  23  43  74 100 133 180 237 289 350 432
#     4  12  26  44  66  95 144 185 232 297 357 403
#     4  10  21  39  62  90 129 168 219 278 342 394
#     4  12  26  46  70 105 150 181 221 305 376 417
#     4  12  23  47  77 105 137 188 250 292 348 447
#     4  10  21  37  66  94 120 167 224 286 320 399
#     4  12  24  44  75 101 131 187 253 289 337 434
#
# _framework density 22.417762
#
# number of rings (size 3 to 8) (size 9 to 14) (size 15 to 20)
#    0.000    0.571    4.286    4.286    4.000    0.000 
#    7.714    0.000    0.000    0.000    0.000    0.000 
#    0.000    0.000    0.000    0.000    0.000    0.000 
#
# Total GULP energy -173562.519625 kJ/mol
# GULP energy per Si atom -12397.322830 kJ/mol
# Density = 2.236674 g / cm^3
# Si number density = 22.417762 Si / 1000 Ang^3
#
#
#
# Elastic Constant Matrix: (Units=GPa)
#
#
# Indices 1 2 3 4 5 6 
#
# 1 71.4761 30.5121 38.0011 0.0000 2.0844 0.0000
# 2 30.5121 153.2007 43.6577 0.0000 0.5568 0.0000
# 3 38.0011 43.6577 123.2837 0.0000 -8.6980 0.0000
# 4 0.0000 0.0000 0.0000 38.7539 0.0000 -5.6250
# 5 2.0844 0.5568 -8.6980 0.0000 34.0657 0.0000
# 6 0.0000 0.0000 0.0000 -5.6250 0.0000 37.2322
#
#
#
# Elastic Compliance Matrix: (Units=1/GPa)
#
#
# Indices 1 2 3 4 5 6 
#
# 1 0.017515 -0.002109 -0.004812 0.000000 -0.002266 0.000000
# 2 -0.002109 0.007535 -0.002055 0.000000 -0.000519 0.000000
# 3 -0.004812 -0.002055 0.010535 0.000000 0.003018 0.000000
# 4 0.000000 0.000000 0.000000 0.026382 0.000000 0.003986
# 5 -0.002266 -0.000519 0.003018 0.000000 0.030273 0.000000
# 6 0.000000 0.000000 0.000000 0.003986 0.000000 0.027461
#
#
# Mechanical properties :
#
#
# Convention : Reuss Voigt Hill
#
# Bulk Modulus (GPa) = 56.70870 63.58913 60.14891
# Shear Modulus (GPa) = 34.83574 37.72967 36.28270
#
# Velocity S-wave (km/s) = 3.94627 4.10692 4.02740
# Velocity P-wave (km/s) = 6.79083 7.13556 6.96532
#
# Compressibility (1/GPa) = 0.01763398
#
# Stress axis : x y z
#
# Youngs Moduli (GPa) = 57.09258 132.71656 94.91978
#
# Poissons Ratio (x) = 0.27989 0.45675
# Poissons Ratio (y) = 0.12040 0.19504
# Poissons Ratio (z) = 0.27473 0.27271
#
# Static dielectric constant tensor:
#      x y z
#    x 3.783070 0.000000 -0.101020 
#    y 0.000000 4.572240 0.000000 
#    z -0.101020 0.000000 3.903360 
# 
# 
# High freq. dielectric constant tensor:
#      x y z
#    x 1.852970 0.000000 -0.008030 
#    y 0.000000 1.915470 0.000000 
#    z -0.008030 0.000000 1.885510 
# 
# From -- ./inp_files/14382.got.cif
#   From: 2010.03.12/outbox.cif.g09.slc.cpg/sg4_8_cif.got.tgz:14382.got - 2010.03.31 09:31:35.
