data_PCOD8046366
_publ_section_title
;
Structure prediction by ZEFSAII (Michael W. Deem and Ramdas Pophale) SiO2 
 PCOD8046366
Probable space group: P 21
;
_chemical_formula_sum "Si O2"
_cell_formula_units_Z 16
_cell_length_a 7.702430
_cell_length_b 20.445472
_cell_length_c 7.119420
_cell_angle_alpha 90.000000
_cell_angle_beta 140.517147
_cell_angle_gamma 90.000000
_cell_volume 712.889674
_symmetry_space_group_name_H-M "P 21"
_symmetry_group_IT_number 4
_symmetry_cell_setting 'monoclinic'
loop_
_space_group_symop_operation_xyz
x,y,z
-x,1/2+y,-z
loop_
_atom_site_type_symbol
_atom_site_label
_atom_site_fract_x
_atom_site_fract_y
_atom_site_fract_z
Si Si1 0.984652 0.505710 0.738696
Si Si2 0.461884 0.699598 0.935797
Si Si3 0.896460 0.116434 0.874780
Si Si4 0.483954 0.421952 0.241606
Si Si5 0.600690 0.699296 0.622414
Si Si6 0.297706 0.841249 0.916069
Si Si7 0.689679 0.840994 0.555814
Si Si8 0.972301 0.616244 0.443735
O O1 0.914063 0.547648 0.494746
O O2 0.706611 0.465149 0.540200
O O3 0.058182 0.548958 0.980694
O O4 0.253211 0.461266 0.932838
O O5 0.393259 0.766679 0.978907
O O6 0.727436 0.668208 0.253125
O O7 0.492975 0.713106 0.741015
O O8 0.220943 0.647850 0.765989
O O9 0.592372 0.145919 0.642363
O O10 0.959753 0.099619 0.712899
O O11 0.095308 0.171630 0.121677
O O12 0.320013 0.378354 0.254841
O O13 0.654731 0.378187 0.239235
O O14 0.601206 0.766175 0.510126
O O15 0.476286 0.873038 0.231953
O O16 0.984294 0.846798 0.709121
#
# Coordination Sequence:
#
# PCOD8046366 Si02
#       8
#     2   2   2   2   2   2   2   2
#     4  12  26  44  72  94 142 190 228 276 332 424
#     4  10  21  42  67 101 145 166 218 293 346 403
#     4  10  23  40  66 102 134 178 221 281 344 401
#     4  12  28  50  66 102 144 184 238 282 330 412
#     4  10  21  42  67 101 145 166 218 293 346 403
#     4  12  26  44  72 105 135 186 229 286 349 406
#     4  12  26  44  72 105 135 186 229 286 349 406
#     4  10  23  40  66 102 134 178 221 281 344 401
#
# _framework density 22.443864999999999
#
# number of rings (size 3 to 8) (size 9 to 14) (size 15 to 20)
#    0.000    1.000    1.250    4.500    5.250    3.000 
#    0.000    0.000    0.000    0.000    0.000    0.000 
#    0.000    0.000    0.000    0.000    0.000    0.000 
#
# Total GULP energy -198487.217839 kJ/mol
# GULP energy per Si atom -12405.451115 kJ/mol
# Density = 2.239278 g / cm^3
# Si number density = 22.443865 Si / 1000 Ang^3
#
#
#
# Elastic Constant Matrix: (Units=GPa)
#
#
# Indices 1 2 3 4 5 6 
#
# 1 94.9721 51.2674 29.4080 0.0000 5.4968 0.0000
# 2 51.2674 94.5744 17.5745 0.0000 -6.5604 0.0000
# 3 29.4080 17.5745 101.6223 0.0000 -1.7439 0.0000
# 4 0.0000 0.0000 0.0000 30.1427 0.0000 -4.4555
# 5 5.4968 -6.5604 -1.7439 0.0000 30.0589 0.0000
# 6 0.0000 0.0000 0.0000 -4.4555 0.0000 23.4281
#
#
#
# Elastic Compliance Matrix: (Units=1/GPa)
#
#
# Indices 1 2 3 4 5 6 
#
# 1 0.016576 -0.008714 -0.003378 0.000000 -0.005129 0.000000
# 2 -0.008714 0.015663 -0.000101 0.000000 0.005006 0.000000
# 3 -0.003378 -0.000101 0.010856 0.000000 0.001225 0.000000
# 4 0.000000 0.000000 0.000000 0.034135 0.000000 0.006492
# 5 -0.005129 0.005006 0.001225 0.000000 0.035370 0.000000
# 6 0.000000 0.000000 0.000000 0.006492 0.000000 0.043918
#
#
# Mechanical properties :
#
#
# Convention : Reuss Voigt Hill
#
# Bulk Modulus (GPa) = 53.44746 54.18541 53.81643
# Shear Modulus (GPa) = 26.71779 29.58721 28.15250
#
# Velocity S-wave (km/s) = 3.45400 3.63475 3.54553
# Velocity P-wave (km/s) = 6.30653 6.46608 6.38681
#
# Compressibility (1/GPa) = 0.01870996
#
# Stress axis : x y z
#
# Youngs Moduli (GPa) = 60.32817 63.84338 92.11129
#
# Poissons Ratio (x) = 0.55631 0.31114
# Poissons Ratio (y) = 0.52568 0.00933
# Poissons Ratio (z) = 0.20378 0.00647
#
# Static dielectric constant tensor:
#      x y z
#    x 4.150850 0.000000 -0.017700 
#    y 0.000000 3.967110 0.000000 
#    z -0.017700 0.000000 4.188870 
# 
# 
# High freq. dielectric constant tensor:
#      x y z
#    x 1.896920 0.000000 -0.001800 
#    y 0.000000 1.879390 0.000000 
#    z -0.001800 0.000000 1.902600 
# 
# From -- ./inp_files/6963.got.cif
#   From: 2010.03.12/outbox.cif.g09.slc.cpg/sg4_4_cif.got.tgz:6963.got - 2010.03.31 09:31:35.
