data_PCOD8046327
_publ_section_title
;
Structure prediction by ZEFSAII (Michael W. Deem and Ramdas Pophale) SiO2 
 PCOD8046327
Probable space group: P 21
;
_chemical_formula_sum "Si O2"
_cell_formula_units_Z 12
_cell_length_a 11.743978
_cell_length_b 9.029015
_cell_length_c 9.028954
_cell_angle_alpha 90.000000
_cell_angle_beta 39.752205
_cell_angle_gamma 90.000000
_cell_volume 612.226694
_symmetry_space_group_name_H-M "P 21"
_symmetry_group_IT_number 4
_symmetry_cell_setting 'monoclinic'
loop_
_space_group_symop_operation_xyz
x,y,z
-x,1/2+y,-z
loop_
_atom_site_type_symbol
_atom_site_label
_atom_site_fract_x
_atom_site_fract_y
_atom_site_fract_z
Si Si1 0.074609 0.502640 0.260613
Si Si2 0.124997 0.590902 0.896977
Si Si3 0.574609 0.223108 0.590169
Si Si4 0.624997 0.134846 0.853028
Si Si5 0.824605 0.777655 0.065165
Si Si6 0.324605 0.948093 0.285625
O O1 0.875003 0.508283 0.520415
O O2 0.099135 0.618332 0.099406
O O3 0.202353 0.544626 0.267831
O O4 0.125003 0.337036 0.150834
O O5 0.297647 0.681122 0.672536
O O6 0.150862 0.414337 0.843678
O O7 0.952345 0.642693 0.979412
O O8 0.375003 0.217464 0.729579
O O9 0.625003 0.388712 0.599160
O O10 0.599135 0.107416 0.702324
O O11 0.452345 0.083055 0.115898
O O12 0.650862 0.311410 0.854598
#
# Coordination Sequence:
#
# PCOD8046327 Si02
#       6
#     2   2   2   2   2   2
#     4  10  21  41  67  92 131 162 215 268 312 380
#     4  10  22  42  66  98 126 174 212 262 332 368
#     4  10  21  41  67  92 131 162 215 268 312 380
#     4  10  22  42  66  98 126 174 212 262 332 368
#     4  10  21  41  67  92 131 162 215 268 312 380
#     4  10  21  41  67  92 131 162 215 268 312 380
#
# _framework density 19.600581999999999
#
# number of rings (size 3 to 8) (size 9 to 14) (size 15 to 20)
#    2.000    0.000    3.333    0.000    0.000    8.000 
#   12.000    0.000    0.000    0.000    0.000    0.000 
#    0.000    0.000    0.000    0.000    0.000    0.000 
#
# Total GULP energy -148715.870187 kJ/mol
# GULP energy per Si atom -12392.989182 kJ/mol
# Density = 1.955597 g / cm^3
# Si number density = 19.600582 Si / 1000 Ang^3
#
#
#
# Elastic Constant Matrix: (Units=GPa)
#
#
# Indices 1 2 3 4 5 6 
#
# 1 119.1753 62.0509 62.3421 0.0000 -37.3452 0.0000
# 2 62.0509 64.6871 62.6087 0.0000 -0.8481 0.0000
# 3 62.3421 62.6087 167.9470 0.0000 -36.7777 0.0000
# 4 0.0000 0.0000 0.0000 36.2933 0.0000 -6.0932
# 5 -37.3452 -0.8481 -36.7777 0.0000 39.8406 0.0000
# 6 0.0000 0.0000 0.0000 -6.0932 0.0000 32.2841
#
#
#
# Elastic Compliance Matrix: (Units=1/GPa)
#
#
# Indices 1 2 3 4 5 6 
#
# 1 0.073719 -0.098715 0.030215 0.000000 0.094893 0.000000
# 2 -0.098715 0.159855 -0.053227 0.000000 -0.138264 0.000000
# 3 0.030215 -0.053227 0.025738 0.000000 0.050949 0.000000
# 4 0.000000 0.000000 0.000000 0.028455 0.000000 0.005371
# 5 0.094893 -0.138264 0.050949 0.000000 0.158138 0.000000
# 6 0.000000 0.000000 0.000000 0.005371 0.000000 0.031989
#
#
# Mechanical properties :
#
#
# Convention : Reuss Voigt Hill
#
# Bulk Modulus (GPa) = 63.05703 80.64588 71.85145
# Shear Modulus (GPa) = 6.88107 32.67077 19.77592
#
# Velocity S-wave (km/s) = 1.87570 4.08711 3.17984
# Velocity P-wave (km/s) = 6.07716 7.96910 7.08655
#
# Compressibility (1/GPa) = 0.01585866
#
# Stress axis : x y z
#
# Youngs Moduli (GPa) = 13.56508 6.25567 38.85377
#
# Poissons Ratio (x) = 0.61753 -1.17398
# Poissons Ratio (y) = 1.33908 2.06805
# Poissons Ratio (z) = -0.40987 0.33297
#
# Static dielectric constant tensor:
#      x y z
#    x 3.374950 0.000000 -0.116050 
#    y 0.000000 3.290980 0.000000 
#    z -0.116050 0.000000 3.451290 
# 
# 
# High freq. dielectric constant tensor:
#      x y z
#    x 1.752370 0.000000 -0.019700 
#    y 0.000000 1.738110 0.000000 
#    z -0.019700 0.000000 1.765330 
# 
# From -- ./inp_files/1430.got.cif
#   From: 2010.03.12/outbox.cif.g09.slc.cpg/sg4_1_cif.got.tgz:1430.got - 2010.03.31 09:31:35.
