data_PCOD8046485
_publ_section_title
;
Structure prediction by ZEFSAII (Michael W. Deem and Ramdas Pophale) SiO2 
 PCOD8046485
Probable space group: P 21
;
_chemical_formula_sum "Si O2"
_cell_formula_units_Z 16
_cell_length_a 30.047090
_cell_length_b 5.000256
_cell_length_c 10.407158
_cell_angle_alpha 90.000000
_cell_angle_beta 151.703915
_cell_angle_gamma 90.000000
_cell_volume 741.192203
_symmetry_space_group_name_H-M "P 21"
_symmetry_group_IT_number 4
_symmetry_cell_setting 'monoclinic'
loop_
_space_group_symop_operation_xyz
x,y,z
-x,1/2+y,-z
loop_
_atom_site_type_symbol
_atom_site_label
_atom_site_fract_x
_atom_site_fract_y
_atom_site_fract_z
Si Si1 0.264573 0.211160 0.517978
Si Si2 0.632852 0.258228 0.602687
Si Si3 0.522055 0.634541 0.972891
Si Si4 0.223009 0.732591 0.255008
Si Si5 0.937650 0.118164 0.340863
Si Si6 0.561040 0.626449 0.630168
Si Si7 0.792369 0.112615 0.188940
Si Si8 0.244747 0.124502 0.754162
O O1 0.262474 0.503577 0.449472
O O2 0.220633 0.207680 0.548031
O O3 0.201441 0.002431 0.277881
O O4 0.370431 0.099830 0.794272
O O5 0.542912 0.096805 0.319416
O O6 0.700413 0.323910 0.655266
O O7 0.598241 0.531060 0.584357
O O8 0.692686 0.089318 0.859228
O O9 0.495173 0.429195 0.015587
O O10 0.126468 0.631862 0.948385
O O11 0.975089 0.817732 0.447656
O O12 0.876417 0.194887 0.309173
O O13 0.509349 0.909698 0.486105
O O14 0.644790 0.663584 0.943727
O O15 0.786446 0.325132 0.289746
O O16 0.813237 0.823824 0.301160
#
# Coordination Sequence:
#
# PCOD8046485 Si02
#       8
#     2   2   2   2   2   2   2   2
#     4  12  23  40  61  88 133 174 214 254 300 380
#     4  10  22  39  59  84 124 159 216 265 309 354
#     4  12  23  36  53  85 125 169 216 259 299 353
#     4  11  24  41  64  94 123 164 203 255 332 373
#     4  11  23  44  75 103 125 150 199 268 328 393
#     4  11  23  37  56  85 118 166 222 276 307 345
#     4  10  23  41  67  94 123 164 206 266 316 371
#     4  11  23  40  61  89 125 174 216 247 309 375
#
# _framework density 21.586842999999998
#
# number of rings (size 3 to 8) (size 9 to 14) (size 15 to 20)
#    0.000    1.000    2.500    4.500    0.000   11.000 
#    0.000    0.000    0.000   15.000    0.000    0.000 
#    0.000    0.000    0.000    0.000    0.000    0.000 
#
# Total GULP energy -198463.483645 kJ/mol
# GULP energy per Si atom -12403.967728 kJ/mol
# Density = 2.153771 g / cm^3
# Si number density = 21.586843 Si / 1000 Ang^3
#
#
#
# Elastic Constant Matrix: (Units=GPa)
#
#
# Indices 1 2 3 4 5 6 
#
# 1 88.9767 7.1972 34.4015 0.0000 -19.8925 0.0000
# 2 7.1972 63.8976 7.2368 0.0000 -6.6541 0.0000
# 3 34.4015 7.2368 74.8231 0.0000 -2.7253 0.0000
# 4 0.0000 0.0000 0.0000 31.8420 0.0000 2.3868
# 5 -19.8925 -6.6541 -2.7253 0.0000 31.9053 0.0000
# 6 0.0000 0.0000 0.0000 2.3868 0.0000 33.5602
#
#
#
# Elastic Compliance Matrix: (Units=1/GPa)
#
#
# Indices 1 2 3 4 5 6 
#
# 1 0.016068 -0.000032 -0.007042 0.000000 0.009410 0.000000
# 2 -0.000032 0.016152 -0.001430 0.000000 0.003226 0.000000
# 3 -0.007042 -0.001430 0.016622 0.000000 -0.003269 0.000000
# 4 0.000000 0.000000 0.000000 0.031573 0.000000 -0.002245
# 5 0.009410 0.003226 -0.003269 0.000000 0.037603 0.000000
# 6 0.000000 0.000000 0.000000 -0.002245 0.000000 0.029957
#
#
# Mechanical properties :
#
#
# Convention : Reuss Voigt Hill
#
# Bulk Modulus (GPa) = 31.41349 36.15204 33.78276
# Shear Modulus (GPa) = 28.47489 31.38563 29.93026
#
# Velocity S-wave (km/s) = 3.63586 3.81717 3.72762
# Velocity P-wave (km/s) = 5.67536 6.01759 5.84898
#
# Compressibility (1/GPa) = 0.03183346
#
# Stress axis : x y z
#
# Youngs Moduli (GPa) = 62.23625 61.91339 60.16266
#
# Poissons Ratio (x) = 0.00201 0.42364
# Poissons Ratio (y) = 0.00202 0.08602
# Poissons Ratio (z) = 0.43824 0.08852
#
# Static dielectric constant tensor:
#      x y z
#    x 3.791190 0.000000 -0.137190 
#    y 0.000000 3.733240 0.000000 
#    z -0.137190 0.000000 3.848790 
# 
# 
# High freq. dielectric constant tensor:
#      x y z
#    x 1.847570 0.000000 -0.011700 
#    y 0.000000 1.852760 0.000000 
#    z -0.011700 0.000000 1.831180 
# 
# From -- ./inp_files/10132.got.cif
#   From: 2010.03.12/outbox.cif.g09.slc.cpg/sg4_6_cif.got.tgz:10132.got - 2010.03.31 09:31:35.
