data_PCOD8046262
_publ_section_title
;
Structure prediction by ZEFSAII (Michael W. Deem and Ramdas Pophale) SiO2 
 PCOD8046262
Probable space group: P 21
;
_chemical_formula_sum "Si O2"
_cell_formula_units_Z 8
_cell_length_a 10.214889
_cell_length_b 4.860753
_cell_length_c 7.960777
_cell_angle_alpha 90.000000
_cell_angle_beta 111.940328
_cell_angle_gamma 90.000000
_cell_volume 366.640970
_symmetry_space_group_name_H-M "P 21"
_symmetry_group_IT_number 4
_symmetry_cell_setting 'monoclinic'
loop_
_space_group_symop_operation_xyz
x,y,z
-x,1/2+y,-z
loop_
_atom_site_type_symbol
_atom_site_label
_atom_site_fract_x
_atom_site_fract_y
_atom_site_fract_z
Si Si1 0.342423 0.794380 0.808110
Si Si2 0.657930 0.790394 0.963669
Si Si3 0.921744 0.598853 0.897260
Si Si4 0.078321 0.862190 0.474362
O O1 0.312755 0.596396 0.953401
O O2 0.231682 0.751410 0.604758
O O3 0.325790 0.103312 0.864608
O O4 0.500716 0.752008 0.811628
O O5 0.768204 0.713551 0.872220
O O6 0.917226 0.484004 0.708453
O O7 0.968331 0.352155 0.043170
O O8 0.974500 0.600202 0.424544
#
# Coordination Sequence:
#
# PCOD8046262 Si02
#       4
#     2   2   2   2
#     4  10  21  40  64  88 119 158 198 243 298 357
#     4  10  21  40  64  88 119 158 198 243 298 357
#     4  12  24  40  63  90 122 158 201 249 297 353
#     4  12  24  40  63  90 122 158 201 249 297 353
#
# _framework density 21.819709
#
# number of rings (size 3 to 8) (size 9 to 14) (size 15 to 20)
#    0.000    1.000    0.000    9.000    0.000    0.000 
#    0.000   12.500    0.000    0.000    0.000    0.000 
#    0.000    0.000    0.000    0.000    0.000    0.000 
#
# Total GULP energy -99227.702584 kJ/mol
# GULP energy per Si atom -12403.462823 kJ/mol
# Density = 2.177005 g / cm^3
# Si number density = 21.819709 Si / 1000 Ang^3
#
#
#
# Elastic Constant Matrix: (Units=GPa)
#
#
# Indices 1 2 3 4 5 6 
#
# 1 140.0726 35.7352 67.6435 0.0000 24.7845 0.0000
# 2 35.7352 101.2537 28.5516 0.0000 15.5258 0.0000
# 3 67.6435 28.5516 110.5736 0.0000 22.3109 0.0000
# 4 0.0000 0.0000 0.0000 34.5837 0.0000 0.0617
# 5 24.7845 15.5258 22.3109 0.0000 31.6527 0.0000
# 6 0.0000 0.0000 0.0000 0.0617 0.0000 36.9348
#
#
#
# Elastic Compliance Matrix: (Units=1/GPa)
#
#
# Indices 1 2 3 4 5 6 
#
# 1 0.010885 -0.001718 -0.005439 0.000000 -0.003846 0.000000
# 2 -0.001718 0.011337 -0.001196 0.000000 -0.003373 0.000000
# 3 -0.005439 -0.001196 0.013642 0.000000 -0.004771 0.000000
# 4 0.000000 0.000000 0.000000 0.028915 0.000000 -0.000048
# 5 -0.003846 -0.003373 -0.004771 0.000000 0.039622 0.000000
# 6 0.000000 0.000000 0.000000 -0.000048 0.000000 0.027075
#
#
# Mechanical properties :
#
#
# Convention : Reuss Voigt Hill
#
# Bulk Modulus (GPa) = 52.19666 68.41784 60.30725
# Shear Modulus (GPa) = 32.34833 35.29888 33.82361
#
# Velocity S-wave (km/s) = 3.85454 4.02649 3.94145
# Velocity P-wave (km/s) = 6.61692 7.28292 6.95789
#
# Compressibility (1/GPa) = 0.01915831
#
# Stress axis : x y z
#
# Youngs Moduli (GPa) = 91.87302 88.20787 73.30074
#
# Poissons Ratio (x) = 0.15154 0.39868
# Poissons Ratio (y) = 0.15784 0.08766
# Poissons Ratio (z) = 0.49969 0.10548
#
# Static dielectric constant tensor:
#      x y z
#    x 4.098780 0.000000 0.363920 
#    y 0.000000 4.326110 0.000000 
#    z 0.363920 0.000000 3.540440 
# 
# 
# High freq. dielectric constant tensor:
#      x y z
#    x 1.864670 0.000000 0.021340 
#    y 0.000000 1.883220 0.000000 
#    z 0.021340 0.000000 1.832000 
# 
# From -- ./inp_files/5060.got.cif
#   From: 2010.03.12/outbox.cif.g09.slc.cpg/sg4_3_cif.got.tgz:5060.got - 2010.03.31 09:31:35.
