data_PCOD8046606
_publ_section_title
;
Structure prediction by ZEFSAII (Michael W. Deem and Ramdas Pophale) SiO2 
 PCOD8046606
Probable space group: P 21
;
_chemical_formula_sum "Si O2"
_cell_formula_units_Z 16
_cell_length_a 14.108953
_cell_length_b 8.544158
_cell_length_c 18.114933
_cell_angle_alpha 90.000000
_cell_angle_beta 21.254316
_cell_angle_gamma 90.000000
_cell_volume 791.623498
_symmetry_space_group_name_H-M "P 21"
_symmetry_group_IT_number 4
_symmetry_cell_setting 'monoclinic'
loop_
_space_group_symop_operation_xyz
x,y,z
-x,1/2+y,-z
loop_
_atom_site_type_symbol
_atom_site_label
_atom_site_fract_x
_atom_site_fract_y
_atom_site_fract_z
Si Si1 0.780873 0.906130 0.952522
Si Si2 0.280058 0.234937 0.864328
Si Si3 0.384629 0.487855 0.299186
Si Si4 0.150614 0.902987 0.234239
Si Si5 0.276891 0.187682 0.705127
Si Si6 0.794635 0.253787 0.955879
Si Si7 0.235333 0.834928 0.712176
Si Si8 0.525906 0.162186 0.913347
O O1 0.092756 0.873076 0.736717
O O2 0.728109 0.084812 0.969649
O O3 0.638199 0.870455 0.135921
O O4 0.680699 0.794450 0.960976
O O5 0.344099 0.275174 0.733192
O O6 0.418630 0.075669 0.788456
O O7 0.961356 0.222617 0.098641
O O8 0.341643 0.581289 0.253904
O O9 0.106719 0.465675 0.539152
O O10 0.521123 0.321925 0.183926
O O11 0.088428 0.863675 0.193775
O O12 0.248474 0.745747 0.203531
O O13 0.372745 0.037402 0.075321
O O14 0.499347 0.238482 0.486514
O O15 0.999596 0.241494 0.873881
O O16 0.285702 0.002098 0.714780
#
# Coordination Sequence:
#
# PCOD8046606 Si02
#       8
#     2   2   2   2   2   2   2   2
#     4   8  19  44  56  86 129 157 202 261 304 356
#     4   9  22  39  57  87 124 168 204 257 306 351
#     4  10  24  40  66  91 125 163 205 259 310 371
#     4  11  24  41  68  95 120 169 198 255 325 360
#     4  11  23  37  63  88 127 170 211 254 304 363
#     4  10  23  40  58  95 129 158 211 259 292 379
#     4   9  23  37  58  90 120 167 210 253 304 361
#     4  10  22  42  66  90 126 154 207 260 301 383
#
# _framework density 20.211628999999999
#
# number of rings (size 3 to 8) (size 9 to 14) (size 15 to 20)
#    0.750    1.500    0.000    0.750    7.000    3.000 
#    4.500    1.250    0.000    0.000    0.000    0.000 
#    0.000    0.000    0.000    0.000    0.000    0.000 
#
# Total GULP energy -198290.015653 kJ/mol
# GULP energy per Si atom -12393.125978 kJ/mol
# Density = 2.016563 g / cm^3
# Si number density = 20.211629 Si / 1000 Ang^3
#
#
#
# Elastic Constant Matrix: (Units=GPa)
#
#
# Indices 1 2 3 4 5 6 
#
# 1 70.6717 25.7191 27.0691 0.0000 5.7404 0.0000
# 2 25.7191 98.6913 48.9055 0.0000 -5.0304 0.0000
# 3 27.0691 48.9055 124.3041 0.0000 9.8597 0.0000
# 4 0.0000 0.0000 0.0000 29.3327 0.0000 -8.3400
# 5 5.7404 -5.0304 9.8597 0.0000 18.9846 0.0000
# 6 0.0000 0.0000 0.0000 -8.3400 0.0000 30.5700
#
#
#
# Elastic Compliance Matrix: (Units=1/GPa)
#
#
# Indices 1 2 3 4 5 6 
#
# 1 0.016585 -0.003717 -0.001745 0.000000 -0.005093 0.000000
# 2 -0.003717 0.014150 -0.005365 0.000000 0.007660 0.000000
# 3 -0.001745 -0.005365 0.011062 0.000000 -0.006639 0.000000
# 4 0.000000 0.000000 0.000000 0.036958 0.000000 0.010083
# 5 -0.005093 0.007660 -0.006639 0.000000 0.059692 0.000000
# 6 0.000000 0.000000 0.000000 0.010083 0.000000 0.035463
#
#
# Mechanical properties :
#
#
# Convention : Reuss Voigt Hill
#
# Bulk Modulus (GPa) = 49.64605 55.22827 52.43716
# Shear Modulus (GPa) = 24.71822 28.57569 26.64696
#
# Velocity S-wave (km/s) = 3.50089 3.76416 3.63491
# Velocity P-wave (km/s) = 6.39985 6.80266 6.60433
#
# Compressibility (1/GPa) = 0.02014259
#
# Stress axis : x y z
#
# Youngs Moduli (GPa) = 60.29643 70.66929 90.39617
#
# Poissons Ratio (x) = 0.26266 0.15777
# Poissons Ratio (y) = 0.22411 0.48502
# Poissons Ratio (z) = 0.10524 0.37917
#
# Static dielectric constant tensor:
#      x y z
#    x 3.534370 0.000000 0.003660 
#    y 0.000000 3.675580 0.000000 
#    z 0.003660 0.000000 3.373160 
# 
# 
# High freq. dielectric constant tensor:
#      x y z
#    x 1.787570 0.000000 -0.000770 
#    y 0.000000 1.791130 0.000000 
#    z -0.000770 0.000000 1.768090 
# 
# From -- ./inp_files/3453.got.cif
#   From: 2010.03.12/outbox.cif.g09.slc.cpg/sg4_2_cif.got.tgz:3453.got - 2010.03.31 09:31:35.
