data_PCOD8046929
_publ_section_title
;
Structure prediction by ZEFSAII (Michael W. Deem and Ramdas Pophale) SiO2 
 PCOD8046929
Probable space group: P 21
;
_chemical_formula_sum "Si O2"
_cell_formula_units_Z 16
_cell_length_a 10.632319
_cell_length_b 10.601411
_cell_length_c 6.627296
_cell_angle_alpha 90.000000
_cell_angle_beta 92.444187
_cell_angle_gamma 90.000000
_cell_volume 746.333187
_symmetry_space_group_name_H-M "P 21"
_symmetry_group_IT_number 4
_symmetry_cell_setting 'monoclinic'
loop_
_space_group_symop_operation_xyz
x,y,z
-x,1/2+y,-z
loop_
_atom_site_type_symbol
_atom_site_label
_atom_site_fract_x
_atom_site_fract_y
_atom_site_fract_z
Si Si1 0.442764 0.136580 0.405126
Si Si2 0.657536 0.087664 0.164048
Si Si3 0.974872 0.396302 0.931786
Si Si4 0.181773 0.021917 0.422942
Si Si5 0.162687 0.804057 0.696526
Si Si6 0.991496 0.186245 0.626063
Si Si7 0.611238 0.912092 0.492608
Si Si8 0.797647 0.010958 0.803679
O O1 0.516649 0.143969 0.194170
O O2 0.298931 0.101180 0.349349
O O3 0.450275 0.272707 0.517526
O O4 0.510813 0.024945 0.541751
O O5 0.753283 0.181758 0.278079
O O6 0.667701 0.949953 0.275973
O O7 0.689266 0.076861 0.931478
O O8 0.910847 0.492700 0.769990
O O9 0.022963 0.271671 0.821366
O O10 0.097342 0.455594 0.040772
O O11 0.868910 0.363720 0.089410
O O12 0.108505 0.096116 0.594335
O O13 0.232143 0.898738 0.545022
O O14 0.030808 0.768056 0.577969
O O15 0.862170 0.111683 0.661693
O O16 0.725288 0.908108 0.662933
#
# Coordination Sequence:
#
# PCOD8046929 Si02
#       8
#     2   2   2   2   2   2   2   2
#     4  10  24  48  69  97 135 188 234 287 345 413
#     4  10  23  44  69  95 133 182 230 286 344 411
#     4  11  26  39  68 105 140 180 232 285 359 425
#     4  11  25  41  67 101 139 179 232 295 341 420
#     4  11  21  44  67  96 141 181 228 288 360 416
#     4  11  23  38  66  99 140 181 220 290 353 417
#     4  10  25  47  70  96 135 180 238 289 344 415
#     4  12  23  43  66 103 131 183 228 284 356 409
#
# _framework density 21.438148000000002
#
# number of rings (size 3 to 8) (size 9 to 14) (size 15 to 20)
#    0.750    0.500    3.750    1.500    3.500    0.000 
#    6.750    0.000    0.000    0.000    0.000    0.000 
#    0.000    0.000    0.000    0.000    0.000    0.000 
#
# Total GULP energy -198287.233358 kJ/mol
# GULP energy per Si atom -12392.952085 kJ/mol
# Density = 2.138935 g / cm^3
# Si number density = 21.438148 Si / 1000 Ang^3
#
#
#
# Elastic Constant Matrix: (Units=GPa)
#
#
# Indices 1 2 3 4 5 6 
#
# 1 94.1511 32.2024 37.7463 0.0000 -15.2588 0.0000
# 2 32.2024 101.7544 14.8932 0.0000 5.3469 0.0000
# 3 37.7463 14.8932 78.9445 0.0000 -3.6015 0.0000
# 4 0.0000 0.0000 0.0000 27.7387 0.0000 -4.4311
# 5 -15.2588 5.3469 -3.6015 0.0000 34.9503 0.0000
# 6 0.0000 0.0000 0.0000 -4.4311 0.0000 33.4699
#
#
#
# Elastic Compliance Matrix: (Units=1/GPa)
#
#
# Indices 1 2 3 4 5 6 
#
# 1 0.015835 -0.004436 -0.006418 0.000000 0.006931 0.000000
# 2 -0.004436 0.011457 -0.000210 0.000000 -0.003711 0.000000
# 3 -0.006418 -0.000210 0.015723 0.000000 -0.001150 0.000000
# 4 0.000000 0.000000 0.000000 0.036830 0.000000 0.004876
# 5 0.006931 -0.003711 -0.001150 0.000000 0.032087 0.000000
# 6 0.000000 0.000000 0.000000 0.004876 0.000000 0.030523
#
#
# Mechanical properties :
#
#
# Convention : Reuss Voigt Hill
#
# Bulk Modulus (GPa) = 47.87632 49.39262 48.63447
# Shear Modulus (GPa) = 29.14686 31.89898 30.52292
#
# Velocity S-wave (km/s) = 3.69125 3.86159 3.77738
# Velocity P-wave (km/s) = 6.36772 6.55531 6.46219
#
# Compressibility (1/GPa) = 0.02088715
#
# Stress axis : x y z
#
# Youngs Moduli (GPa) = 63.15204 87.28154 63.60117
#
# Poissons Ratio (x) = 0.38719 0.40820
# Poissons Ratio (y) = 0.28015 0.01334
# Poissons Ratio (z) = 0.40532 0.01830
#
# Static dielectric constant tensor:
#      x y z
#    x 3.731910 0.000000 -0.234100 
#    y 0.000000 3.933280 0.000000 
#    z -0.234100 0.000000 3.752050 
# 
# 
# High freq. dielectric constant tensor:
#      x y z
#    x 1.832080 0.000000 -0.012590 
#    y 0.000000 1.844770 0.000000 
#    z -0.012590 0.000000 1.832170 
# 
# From -- ./inp_files/2961.got.cif
#   From: 2010.03.12/outbox.cif.g09.slc.cpg/sg4_2_cif.got.tgz:2961.got - 2010.03.31 09:31:35.
