data_PCOD8046035
_publ_section_title
;
Structure prediction by ZEFSAII (Michael W. Deem and Ramdas Pophale) SiO2 
 PCOD8046035
Probable space group: P 21
;
_chemical_formula_sum "Si O2"
_cell_formula_units_Z 16
_cell_length_a 8.605893
_cell_length_b 8.860630
_cell_length_c 15.635040
_cell_angle_alpha 90.000000
_cell_angle_beta 34.347608
_cell_angle_gamma 90.000000
_cell_volume 672.670016
_symmetry_space_group_name_H-M "P 21"
_symmetry_group_IT_number 4
_symmetry_cell_setting 'monoclinic'
loop_
_space_group_symop_operation_xyz
x,y,z
-x,1/2+y,-z
loop_
_atom_site_type_symbol
_atom_site_label
_atom_site_fract_x
_atom_site_fract_y
_atom_site_fract_z
Si Si1 0.843553 0.585210 0.242583
Si Si2 0.571308 0.580721 0.757415
Si Si3 0.562045 0.332966 0.291969
Si Si4 0.549694 0.832965 0.300203
Si Si5 0.231802 0.010007 0.152340
Si Si6 0.688825 0.155925 0.847661
Si Si7 0.834717 0.084369 0.586520
Si Si8 0.405730 0.581561 0.586518
O O1 0.821649 0.445759 0.185989
O O2 0.831734 0.741216 0.193343
O O3 0.565446 0.583763 0.425266
O O4 0.114352 0.568129 0.175292
O O5 0.379620 0.720172 0.814011
O O6 0.411767 0.424715 0.806657
O O7 0.640243 0.597805 0.824702
O O8 0.841245 0.582166 0.574733
O O9 0.285760 0.425962 0.393564
O O10 0.533543 0.239969 0.393565
O O11 0.294958 0.719037 0.409381
O O12 0.476892 0.946893 0.409383
O O13 0.286125 0.832966 0.142583
O O14 0.914267 0.050950 0.287325
O O15 0.387741 0.082966 0.999999
O O16 0.776255 0.114978 0.712672
#
# Coordination Sequence:
#
# PCOD8046035 Si02
#       8
#     2   2   2   2   2   2   2   2
#     4  11  23  42  72 101 143 184 239 291 352 417
#     4  11  23  42  72 101 143 184 239 291 352 417
#     4  10  24  38  65 108 129 176 240 286 348 412
#     4  10  20  40  63  96 131 182 228 294 340 404
#     4  12  28  49  71 104 147 192 234 293 359 422
#     4  12  28  49  71 104 147 192 234 293 359 422
#     4  11  23  42  72 101 143 184 239 291 352 417
#     4  11  23  42  72 101 143 184 239 291 352 417
#
# _framework density 23.785810000000001
#
# number of rings (size 3 to 8) (size 9 to 14) (size 15 to 20)
#    0.000    1.000    2.500    4.500    7.000    0.000 
#    0.000    7.500    0.000    0.000    0.000    0.000 
#    0.000    0.000    0.000    0.000    0.000    0.000 
#
# Total GULP energy -198360.227806 kJ/mol
# GULP energy per Si atom -12397.514238 kJ/mol
# Density = 2.373167 g / cm^3
# Si number density = 23.785810 Si / 1000 Ang^3
#
#
#
# Elastic Constant Matrix: (Units=GPa)
#
#
# Indices 1 2 3 4 5 6 
#
# 1 122.4985 38.0193 21.0794 0.0000 -5.2413 0.0000
# 2 38.0193 140.2375 10.9262 0.0000 -3.1472 0.0000
# 3 21.0794 10.9262 92.5442 0.0000 1.7571 0.0000
# 4 0.0000 0.0000 0.0000 11.9476 0.0000 -3.8203
# 5 -5.2413 -3.1472 1.7571 0.0000 28.9608 0.0000
# 6 0.0000 0.0000 0.0000 -3.8203 0.0000 44.8431
#
#
#
# Elastic Compliance Matrix: (Units=1/GPa)
#
#
# Indices 1 2 3 4 5 6 
#
# 1 0.009275 -0.002335 -0.001866 0.000000 0.001538 0.000000
# 2 -0.002335 0.007805 -0.000398 0.000000 0.000450 0.000000
# 3 -0.001866 -0.000398 0.011298 0.000000 -0.001066 0.000000
# 4 0.000000 0.000000 0.000000 0.086043 0.000000 0.007330
# 5 0.001538 0.000450 -0.001066 0.000000 0.034921 0.000000
# 6 0.000000 0.000000 0.000000 0.007330 0.000000 0.022924
#
#
# Mechanical properties :
#
#
# Convention : Reuss Voigt Hill
#
# Bulk Modulus (GPa) = 52.13849 55.03664 53.58757
# Shear Modulus (GPa) = 26.61589 36.16730 31.39160
#
# Velocity S-wave (km/s) = 3.34875 3.90364 3.63679
# Velocity P-wave (km/s) = 6.07616 6.59595 6.34138
#
# Compressibility (1/GPa) = 0.01917969
#
# Stress axis : x y z
#
# Youngs Moduli (GPa) = 107.81818 128.12631 88.51135
#
# Poissons Ratio (x) = 0.29912 0.16518
# Poissons Ratio (y) = 0.25171 0.03525
# Poissons Ratio (z) = 0.20121 0.05103
#
# Static dielectric constant tensor:
#      x y z
#    x 4.668410 0.000000 -0.108340 
#    y 0.000000 4.764400 0.000000 
#    z -0.108340 0.000000 3.735610 
# 
# 
# High freq. dielectric constant tensor:
#      x y z
#    x 1.972480 0.000000 -0.009000 
#    y 0.000000 1.964840 0.000000 
#    z -0.009000 0.000000 1.894970 
# 
# From -- ./inp_files/14934.got.cif
#   From: 2010.03.12/outbox.cif.g09.slc.cpg/sg4_8_cif.got.tgz:14934.got - 2010.03.31 09:31:35.
