data_PCOD8046338
_publ_section_title
;
Structure prediction by ZEFSAII (Michael W. Deem and Ramdas Pophale) SiO2 
 PCOD8046338
Probable space group: P 21
;
_chemical_formula_sum "Si O2"
_cell_formula_units_Z 16
_cell_length_a 8.821937
_cell_length_b 11.391712
_cell_length_c 8.821954
_cell_angle_alpha 90.000000
_cell_angle_beta 47.750692
_cell_angle_gamma 90.000000
_cell_volume 656.269496
_symmetry_space_group_name_H-M "P 21"
_symmetry_group_IT_number 4
_symmetry_cell_setting 'monoclinic'
loop_
_space_group_symop_operation_xyz
x,y,z
-x,1/2+y,-z
loop_
_atom_site_type_symbol
_atom_site_label
_atom_site_fract_x
_atom_site_fract_y
_atom_site_fract_z
Si Si1 0.213390 0.961710 0.644037
Si Si2 0.144763 0.100473 0.969226
Si Si3 0.969226 0.806607 0.144769
Si Si4 0.644040 0.945370 0.213389
Si Si5 0.834211 0.690158 0.511904
Si Si6 0.101350 0.709305 0.621044
Si Si7 0.621044 0.197773 0.101344
Si Si8 0.511900 0.216921 0.834210
O O1 0.458057 0.953540 0.458055
O O2 0.091263 0.842975 0.687822
O O3 0.158939 0.982370 0.859350
O O4 0.128050 0.062712 0.589163
O O5 0.170789 0.203540 0.829209
O O6 0.341717 0.113986 0.946725
O O7 0.941798 0.119505 0.209909
O O8 0.859351 0.924710 0.158942
O O9 0.946723 0.793094 0.341723
O O10 0.209910 0.787576 0.941805
O O11 0.589167 0.844367 0.128051
O O12 0.687826 0.064105 0.091260
O O13 0.595182 0.724314 0.676933
O O14 0.921057 0.689962 0.622080
O O15 0.323074 0.682765 0.404820
O O16 0.622082 0.217114 0.921050
#
# Coordination Sequence:
#
# PCOD8046338 Si02
#       8
#     2   2   2   2   2   2   2   2
#     4   9  22  43  70 101 142 193 234 290 360 431
#     4  10  22  41  67 101 140 179 236 288 355 421
#     4  10  22  41  67 101 140 179 236 288 355 421
#     4   9  22  43  70 101 142 193 234 290 360 431
#     4  10  21  41  69 102 141 182 237 296 346 419
#     4  11  21  42  71 102 143 184 232 301 352 415
#     4  11  21  42  71 102 143 184 232 301 352 415
#     4  10  21  41  69 102 141 182 237 296 346 419
#
# _framework density 24.380229
#
# number of rings (size 3 to 8) (size 9 to 14) (size 15 to 20)
#    0.000    2.000    2.500    0.000    0.000    9.000 
#    0.000   12.500    0.000    3.000    0.000    0.000 
#    0.000    0.000    0.000    0.000    0.000    0.000 
#
# Total GULP energy -198343.328223 kJ/mol
# GULP energy per Si atom -12396.458014 kJ/mol
# Density = 2.432474 g / cm^3
# Si number density = 24.380229 Si / 1000 Ang^3
#
#
#
# Elastic Constant Matrix: (Units=GPa)
#
#
# Indices 1 2 3 4 5 6 
#
# 1 101.3888 52.8937 47.5542 0.0000 -3.1516 0.0000
# 2 52.8937 106.9261 55.8684 0.0000 -1.7694 0.0000
# 3 47.5542 55.8684 131.8360 0.0000 -14.9839 0.0000
# 4 0.0000 0.0000 0.0000 29.2917 0.0000 3.9619
# 5 -3.1516 -1.7694 -14.9839 0.0000 36.6159 0.0000
# 6 0.0000 0.0000 0.0000 3.9619 0.0000 35.9409
#
#
#
# Elastic Compliance Matrix: (Units=1/GPa)
#
#
# Indices 1 2 3 4 5 6 
#
# 1 0.014015 -0.005502 -0.002744 0.000000 -0.000183 0.000000
# 2 -0.005502 0.014259 -0.004230 0.000000 -0.001516 0.000000
# 3 -0.002744 -0.004230 0.010821 0.000000 0.003988 0.000000
# 4 0.000000 0.000000 0.000000 0.034656 0.000000 -0.003820
# 5 -0.000183 -0.001516 0.003988 0.000000 0.028853 0.000000
# 6 0.000000 0.000000 0.000000 -0.003820 0.000000 0.028245
#
#
# Mechanical properties :
#
#
# Convention : Reuss Voigt Hill
#
# Bulk Modulus (GPa) = 70.71288 72.53152 71.62220
# Shear Modulus (GPa) = 31.14951 32.62535 31.88743
#
# Velocity S-wave (km/s) = 3.57831 3.66210 3.62044
# Velocity P-wave (km/s) = 6.79261 6.90623 6.84965
#
# Compressibility (1/GPa) = 0.01414170
#
# Stress axis : x y z
#
# Youngs Moduli (GPa) = 71.35293 70.13058 92.41251
#
# Poissons Ratio (x) = 0.38585 0.25363
# Poissons Ratio (y) = 0.39257 0.39094
# Poissons Ratio (z) = 0.19583 0.29668
#
# Static dielectric constant tensor:
#      x y z
#    x 4.430850 0.000000 -0.035580 
#    y 0.000000 4.300570 0.000000 
#    z -0.035580 0.000000 4.490560 
# 
# 
# High freq. dielectric constant tensor:
#      x y z
#    x 1.972130 0.000000 -0.009340 
#    y 0.000000 1.954810 0.000000 
#    z -0.009340 0.000000 1.987810 
# 
# From -- ./inp_files/6407.got.cif
#   From: 2010.03.12/outbox.cif.g09.slc.cpg/sg4_4_cif.got.tgz:6407.got - 2010.03.31 09:31:35.
