data_PCOD8046385
_publ_section_title
;
Structure prediction by ZEFSAII (Michael W. Deem and Ramdas Pophale) SiO2 
 PCOD8046385
Probable space group: P 21
;
_chemical_formula_sum "Si O2"
_cell_formula_units_Z 16
_cell_length_a 10.937399
_cell_length_b 8.513998
_cell_length_c 12.263681
_cell_angle_alpha 90.000000
_cell_angle_beta 144.001255
_cell_angle_gamma 90.000000
_cell_volume 671.234139
_symmetry_space_group_name_H-M "P 21"
_symmetry_group_IT_number 4
_symmetry_cell_setting 'monoclinic'
loop_
_space_group_symop_operation_xyz
x,y,z
-x,1/2+y,-z
loop_
_atom_site_type_symbol
_atom_site_label
_atom_site_fract_x
_atom_site_fract_y
_atom_site_fract_z
Si Si1 0.835566 0.467870 0.483829
Si Si2 0.263883 0.344170 0.830948
Si Si3 0.609542 0.716235 0.447045
Si Si4 0.068829 0.007892 0.687270
Si Si5 0.014411 0.329857 0.159008
Si Si6 0.567223 0.810672 0.827136
Si Si7 0.394539 0.489186 0.700709
Si Si8 0.196561 0.551997 0.129520
O O1 0.761532 0.642899 0.462601
O O2 0.868521 0.425908 0.380661
O O3 0.647702 0.356959 0.387310
O O4 0.049667 0.436655 0.701439
O O5 0.212473 0.159942 0.799706
O O6 0.375619 0.401825 0.802725
O O7 0.425902 0.379184 0.044585
O O8 0.753510 0.758863 0.654174
O O9 0.514120 0.870617 0.322625
O O10 0.414797 0.608584 0.341680
O O11 0.096368 0.884440 0.807581
O O12 0.826716 0.057533 0.500238
O O13 0.035636 0.492892 0.105352
O O14 0.887199 0.192667 0.006772
O O15 0.572535 0.622098 0.834015
O O16 0.762365 0.890223 0.907468
#
# Coordination Sequence:
#
# PCOD8046385 Si02
#       8
#     2   2   2   2   2   2   2   2
#     4  10  21  43  64 101 140 169 234 276 345 425
#     4  11  22  36  66  99 137 187 218 282 353 411
#     4  10  23  46  70  98 135 180 225 294 351 411
#     4  10  22  41  69  97 139 187 220 282 354 410
#     4  11  27  48  71 100 137 187 240 289 351 411
#     4  11  25  39  65 101 135 182 228 287 342 413
#     4  10  22  40  65 102 142 175 229 283 350 428
#     4  11  28  47  70  98 137 183 244 291 342 411
#
# _framework density 23.836691999999999
#
# number of rings (size 3 to 8) (size 9 to 14) (size 15 to 20)
#    0.000    1.500    2.500    0.750    5.250    4.000 
#    0.000    0.000    0.000    0.000    0.000    0.000 
#    0.000    0.000    0.000    0.000    0.000    0.000 
#
# Total GULP energy -198285.730866 kJ/mol
# GULP energy per Si atom -12392.858179 kJ/mol
# Density = 2.378244 g / cm^3
# Si number density = 23.836692 Si / 1000 Ang^3
#
#
#
# Elastic Constant Matrix: (Units=GPa)
#
#
# Indices 1 2 3 4 5 6 
#
# 1 57.8275 35.6585 14.2208 0.0000 0.3978 0.0000
# 2 35.6585 123.0902 40.0382 0.0000 1.4844 0.0000
# 3 14.2208 40.0382 82.9744 0.0000 -2.6389 0.0000
# 4 0.0000 0.0000 0.0000 43.7244 0.0000 3.9460
# 5 0.3978 1.4844 -2.6389 0.0000 26.6956 0.0000
# 6 0.0000 0.0000 0.0000 3.9460 0.0000 46.5290
#
#
#
# Elastic Compliance Matrix: (Units=1/GPa)
#
#
# Indices 1 2 3 4 5 6 
#
# 1 0.021098 -0.005853 -0.000794 0.000000 -0.000067 0.000000
# 2 -0.005853 0.011287 -0.004475 0.000000 -0.000983 0.000000
# 3 -0.000794 -0.004475 0.014401 0.000000 0.001684 0.000000
# 4 0.000000 0.000000 0.000000 0.023047 0.000000 -0.001955
# 5 -0.000067 -0.000983 0.001684 0.000000 0.037681 0.000000
# 6 0.000000 0.000000 0.000000 -0.001955 0.000000 0.021658
#
#
# Mechanical properties :
#
#
# Convention : Reuss Voigt Hill
#
# Bulk Modulus (GPa) = 40.74508 49.30304 45.02406
# Shear Modulus (GPa) = 31.32939 34.98811 33.15875
#
# Velocity S-wave (km/s) = 3.62931 3.83538 3.73376
# Velocity P-wave (km/s) = 5.89008 6.35154 6.12516
#
# Compressibility (1/GPa) = 0.02454284
#
# Stress axis : x y z
#
# Youngs Moduli (GPa) = 47.39887 88.59782 69.44130
#
# Poissons Ratio (x) = 0.51855 0.05512
# Poissons Ratio (y) = 0.27742 0.31072
# Poissons Ratio (z) = 0.03763 0.39643
#
# Static dielectric constant tensor:
#      x y z
#    x 3.967560 0.000000 0.004520 
#    y 0.000000 4.292300 0.000000 
#    z 0.004520 0.000000 4.389840 
# 
# 
# High freq. dielectric constant tensor:
#      x y z
#    x 1.922260 0.000000 0.006370 
#    y 0.000000 1.948500 0.000000 
#    z 0.006370 0.000000 1.948440 
# 
# From -- ./inp_files/10843.got.cif
#   From: 2010.03.12/outbox.cif.g09.slc.cpg/sg4_6_cif.got.tgz:10843.got - 2010.03.31 09:31:35.
