data_PCOD8046247
_publ_section_title
;
Structure prediction by ZEFSAII (Michael W. Deem and Ramdas Pophale) SiO2 
 PCOD8046247
Probable space group: P 21
;
_chemical_formula_sum "Si O2"
_cell_formula_units_Z 16
_cell_length_a 9.058550
_cell_length_b 8.593641
_cell_length_c 10.105904
_cell_angle_alpha 90.000000
_cell_angle_beta 90.549711
_cell_angle_gamma 90.000000
_cell_volume 786.667254
_symmetry_space_group_name_H-M "P 21"
_symmetry_group_IT_number 4
_symmetry_cell_setting 'monoclinic'
loop_
_space_group_symop_operation_xyz
x,y,z
-x,1/2+y,-z
loop_
_atom_site_type_symbol
_atom_site_label
_atom_site_fract_x
_atom_site_fract_y
_atom_site_fract_z
Si Si1 0.092700 0.446640 0.111945
Si Si2 0.932958 0.751658 0.136894
Si Si3 0.431663 0.370959 0.134649
Si Si4 0.590394 0.227608 0.372110
Si Si5 0.896559 0.728637 0.424689
Si Si6 0.904040 0.368279 0.353742
Si Si7 0.400609 0.191821 0.872705
Si Si8 0.588370 0.861249 0.400212
O O1 0.262244 0.418185 0.145576
O O2 0.064133 0.630184 0.113972
O O3 0.995232 0.356141 0.218900
O O4 0.048801 0.392391 0.964418
O O5 0.942399 0.814560 0.287506
O O6 0.775003 0.666978 0.114994
O O7 0.469972 0.260013 0.257796
O O8 0.530724 0.523404 0.141898
O O9 0.466503 0.279068 0.000361
O O10 0.745521 0.295011 0.324531
O O11 0.547531 0.312577 0.508250
O O12 0.602200 0.045446 0.396665
O O13 0.889933 0.544568 0.402056
O O14 0.736429 0.790254 0.466840
O O15 0.016859 0.764822 0.535216
O O16 0.440015 0.296032 0.746259
#
# Coordination Sequence:
#
# PCOD8046247 Si02
#       8
#     2   2   2   2   2   2   2   2
#     4  10  22  38  60  87 118 153 194 241 292 353
#     4   9  21  39  58  85 118 153 194 243 291 347
#     4  11  22  39  62  91 123 158 200 247 301 363
#     4  12  24  40  62  88 120 160 201 252 309 364
#     4  10  21  40  60  87 120 154 202 250 300 361
#     4  11  23  39  61  89 121 159 200 250 302 360
#     4  10  22  40  61  88 123 157 200 251 300 362
#     4  11  23  41  62  87 119 158 203 254 307 364
#
# _framework density 20.338968000000001
#
# number of rings (size 3 to 8) (size 9 to 14) (size 15 to 20)
#    0.000    1.500    0.000    6.000    0.000    9.000 
#    0.000    1.250    0.000    0.000    0.000    0.000 
#    0.000    0.000    0.000    0.000    0.000    0.000 
#
# Total GULP energy -198482.414075 kJ/mol
# GULP energy per Si atom -12405.150880 kJ/mol
# Density = 2.029268 g / cm^3
# Si number density = 20.338968 Si / 1000 Ang^3
#
#
#
# Elastic Constant Matrix: (Units=GPa)
#
#
# Indices 1 2 3 4 5 6 
#
# 1 57.6860 5.6125 9.8098 0.0000 -7.8366 0.0000
# 2 5.6125 71.9040 8.3490 0.0000 -4.0614 0.0000
# 3 9.8098 8.3490 86.5012 0.0000 -2.7986 0.0000
# 4 0.0000 0.0000 0.0000 14.9407 0.0000 -26.7601
# 5 -7.8366 -4.0614 -2.7986 0.0000 30.8619 0.0000
# 6 0.0000 0.0000 0.0000 -26.7601 0.0000 -12.5945
#
#
#
# Elastic Compliance Matrix: (Units=1/GPa)
#
#
# Indices 1 2 3 4 5 6 
#
# 1 0.018336 -0.000971 -0.001845 0.000000 0.004361 0.000000
# 2 -0.000971 0.014209 -0.001212 0.000000 0.001514 0.000000
# 3 -0.001845 -0.001212 0.011901 0.000000 0.000451 0.000000
# 4 0.000000 0.000000 0.000000 0.013928 0.000000 -0.029593
# 5 0.004361 0.001514 0.000451 0.000000 0.033750 0.000000
# 6 0.000000 0.000000 0.000000 -0.029593 0.000000 -0.016522
#
#
# Mechanical properties :
#
#
# Convention : Reuss Voigt Hill
#
# Bulk Modulus (GPa) = 27.47928 29.29266 28.38597
# Shear Modulus (GPa) = 52.19870 19.46293 35.83082
#
# Velocity S-wave (km/s) = 5.07150 3.09678 4.20179
# Velocity P-wave (km/s) = 6.91617 5.21730 6.12592
#
# Compressibility (1/GPa) = 0.03639106
#
# Stress axis : x y z
#
# Youngs Moduli (GPa) = 54.53820 70.37556 84.02408
#
# Poissons Ratio (x) = 0.06831 0.15499
# Poissons Ratio (y) = 0.05294 0.10187
# Poissons Ratio (z) = 0.10060 0.08533
#
# Static dielectric constant tensor:
#      x y z
#    x 3.743330 0.000000 -0.010070 
#    y 0.000000 3.611120 0.000000 
#    z -0.010070 0.000000 4.410680 
# 
# 
# High freq. dielectric constant tensor:
#      x y z
#    x 1.798420 0.000000 -0.001710 
#    y 0.000000 1.795070 0.000000 
#    z -0.001710 0.000000 1.810190 
# 
# From -- ./inp_files/5666.got.cif
#   From: 2010.03.12/outbox.cif.g09.slc.cpg/sg4_3_cif.got.tgz:5666.got - 2010.03.31 09:31:35.
