data_PCOD8046015
_publ_section_title
;
Structure prediction by ZEFSAII (Michael W. Deem and Ramdas Pophale) SiO2 
 PCOD8046015
Probable space group: P 21
;
_chemical_formula_sum "Si O2"
_cell_formula_units_Z 16
_cell_length_a 4.925809
_cell_length_b 22.094860
_cell_length_c 5.698007
_cell_angle_alpha 90.000000
_cell_angle_beta 91.234674
_cell_angle_gamma 90.000000
_cell_volume 619.998954
_symmetry_space_group_name_H-M "P 21"
_symmetry_group_IT_number 4
_symmetry_cell_setting 'monoclinic'
loop_
_space_group_symop_operation_xyz
x,y,z
-x,1/2+y,-z
loop_
_atom_site_type_symbol
_atom_site_label
_atom_site_fract_x
_atom_site_fract_y
_atom_site_fract_z
Si Si1 0.000749 0.361360 0.602568
Si Si2 0.295503 0.447691 0.288279
Si Si3 0.999250 0.555816 0.397430
Si Si4 0.900976 0.279714 0.214104
Si Si5 0.704499 0.469485 0.711719
Si Si6 0.597620 0.838805 0.005586
Si Si7 0.900978 0.137462 0.214106
Si Si8 0.597618 0.578371 0.005584
O O1 0.053399 0.406082 0.383948
O O2 0.840311 0.305453 0.477014
O O3 0.817254 0.401609 0.784038
O O4 0.278405 0.338440 0.729671
O O5 0.182745 0.515568 0.215960
O O6 0.500005 0.458588 0.499995
O O7 0.421324 0.409937 0.072721
O O8 0.159686 0.611723 0.522983
O O9 0.946604 0.511095 0.616054
O O10 0.721592 0.578735 0.270327
O O11 0.697716 0.307324 0.013184
O O12 0.866728 0.208588 0.218878
O O13 0.207915 0.298256 0.155806
O O14 0.578672 0.507239 0.927275
O O15 0.697719 0.109852 0.013186
O O16 0.207917 0.118920 0.155806
#
# Coordination Sequence:
#
# PCOD8046015 Si02
#       8
#     2   2   2   2   2   2   2   2
#     4  10  23  40  63  94 127 166 202 257 321 369
#     4  10  20  39  63  97 130 158 202 258 316 381
#     4  10  23  40  63  94 127 166 202 257 321 369
#     4  11  25  43  61  89 125 164 218 263 299 367
#     4  10  20  39  63  97 130 158 202 258 316 381
#     4  11  24  41  66  93 125 166 209 256 318 374
#     4  11  25  43  61  89 125 164 218 263 299 367
#     4  11  24  41  66  93 125 166 209 256 318 374
#
# _framework density 25.806495999999999
#
# number of rings (size 3 to 8) (size 9 to 14) (size 15 to 20)
#    0.000    1.500    2.500    1.500    3.500    3.000 
#    0.000    0.000    0.000    0.000    0.000    0.000 
#    0.000    0.000    0.000    0.000    0.000    0.000 
#
# Total GULP energy -198348.596690 kJ/mol
# GULP energy per Si atom -12396.787293 kJ/mol
# Density = 2.574776 g / cm^3
# Si number density = 25.806496 Si / 1000 Ang^3
#
#
#
# Elastic Constant Matrix: (Units=GPa)
#
#
# Indices 1 2 3 4 5 6 
#
# 1 59.8998 15.5378 -8.2777 0.0000 29.4776 0.0000
# 2 15.5378 197.1589 34.2476 0.0000 20.1475 0.0000
# 3 -8.2777 34.2476 73.3608 0.0000 41.9240 0.0000
# 4 0.0000 0.0000 0.0000 36.1145 0.0000 7.5909
# 5 29.4776 20.1475 41.9240 0.0000 48.5324 0.0000
# 6 0.0000 0.0000 0.0000 7.5909 0.0000 37.6923
#
#
#
# Elastic Compliance Matrix: (Units=1/GPa)
#
#
# Indices 1 2 3 4 5 6 
#
# 1 0.105975 -0.010881 0.101198 0.000000 -0.147269 0.000000
# 2 -0.010881 0.006637 -0.012894 0.000000 0.014992 0.000000
# 3 0.101198 -0.012894 0.124693 0.000000 -0.163827 0.000000
# 4 0.000000 0.000000 0.000000 0.028914 0.000000 -0.005823
# 5 -0.147269 0.014992 -0.163827 0.000000 0.245349 0.000000
# 6 0.000000 0.000000 0.000000 -0.005823 0.000000 0.027703
#
#
# Mechanical properties :
#
#
# Convention : Reuss Voigt Hill
#
# Bulk Modulus (GPa) = 2.55003 45.93721 24.24362
# Shear Modulus (GPa) = 9.70607 43.72865 26.71736
#
# Velocity S-wave (km/s) = 1.94146 4.12087 3.22109
# Velocity P-wave (km/s) = 2.45275 6.36250 4.82169
#
# Compressibility (1/GPa) = 0.39215165
#
# Stress axis : x y z
#
# Youngs Moduli (GPa) = 9.43617 150.66342 8.01971
#
# Poissons Ratio (x) = 1.63940 -0.81158
# Poissons Ratio (y) = 0.10268 0.10340
# Poissons Ratio (z) = -0.95492 1.94262
#
# Static dielectric constant tensor:
#      x y z
#    x 4.706870 0.000000 -0.059410 
#    y 0.000000 4.990920 0.000000 
#    z -0.059410 0.000000 4.583140 
# 
# 
# High freq. dielectric constant tensor:
#      x y z
#    x 2.036160 0.000000 0.005010 
#    y 0.000000 2.028140 0.000000 
#    z 0.005010 0.000000 2.028210 
# 
# From -- ./inp_files/567.got.cif
#   From: 2010.03.12/outbox.cif.g09.slc.cpg/sg4_1_cif.got.tgz:567.got - 2010.03.31 09:31:35.
