data_PCOD8046145
_publ_section_title
;
Structure prediction by ZEFSAII (Michael W. Deem and Ramdas Pophale) SiO2 
 PCOD8046145
Probable space group: P 21
;
_chemical_formula_sum "Si O2"
_cell_formula_units_Z 16
_cell_length_a 14.739669
_cell_length_b 8.714251
_cell_length_c 6.124545
_cell_angle_alpha 90.000000
_cell_angle_beta 109.723038
_cell_angle_gamma 90.000000
_cell_volume 740.518305
_symmetry_space_group_name_H-M "P 21"
_symmetry_group_IT_number 4
_symmetry_cell_setting 'monoclinic'
loop_
_space_group_symop_operation_xyz
x,y,z
-x,1/2+y,-z
loop_
_atom_site_type_symbol
_atom_site_label
_atom_site_fract_x
_atom_site_fract_y
_atom_site_fract_z
Si Si1 0.013362 0.497940 0.327506
Si Si2 0.637714 0.086877 0.034425
Si Si3 0.178116 0.385868 0.750948
Si Si4 0.456485 0.080290 0.200820
Si Si5 0.065638 0.243232 0.042716
Si Si6 0.334191 0.909795 0.799935
Si Si7 0.843627 0.572182 0.502130
Si Si8 0.485630 0.401525 0.361066
O O1 0.110645 0.496510 0.548743
O O2 0.006772 0.347505 0.166946
O O3 0.927407 0.490654 0.431924
O O4 0.007591 0.654006 0.179278
O O5 0.553765 0.083344 0.142706
O O6 0.685922 0.255573 0.073825
O O7 0.718494 0.962677 0.154528
O O8 0.590069 0.036636 0.764814
O O9 0.191624 0.225831 0.641609
O O10 0.134638 0.355304 0.957774
O O11 0.434170 0.235171 0.318111
O O12 0.471098 0.934824 0.369152
O O13 0.359280 0.049123 0.984685
O O14 0.124904 0.112102 0.224261
O O15 0.428677 0.883374 0.737882
O O16 0.244910 0.952663 0.571646
#
# Coordination Sequence:
#
# PCOD8046145 Si02
#       8
#     2   2   2   2   2   2   2   2
#     4  10  22  40  62  88 121 159 202 249 304 362
#     4  10  22  38  58  86 117 153 197 246 298 354
#     4  10  22  39  59  87 121 159 198 245 304 363
#     4  10  21  39  58  85 118 154 198 247 299 354
#     4  10  22  40  62  89 120 160 202 246 305 362
#     4  10  22  38  58  86 117 152 198 247 297 354
#     4  10  22  39  59  86 121 159 198 247 302 361
#     4  10  21  37  60  83 115 156 197 245 299 356
#
# _framework density 21.606487000000001
#
# number of rings (size 3 to 8) (size 9 to 14) (size 15 to 20)
#    0.000    2.000    0.000    2.250    0.000   13.000 
#    0.000    1.250    0.000    0.000    0.000    0.000 
#    0.000    0.000    0.000    0.000    0.000    0.000 
#
# Total GULP energy -198343.603773 kJ/mol
# GULP energy per Si atom -12396.475236 kJ/mol
# Density = 2.155731 g / cm^3
# Si number density = 21.606487 Si / 1000 Ang^3
#
#
#
# Elastic Constant Matrix: (Units=GPa)
#
#
# Indices 1 2 3 4 5 6 
#
# 1 43.2123 25.5584 22.7234 0.0000 21.5149 0.0000
# 2 25.5584 72.2525 16.0908 0.0000 -1.3617 0.0000
# 3 22.7234 16.0908 97.0494 0.0000 0.2923 0.0000
# 4 0.0000 0.0000 0.0000 42.3746 0.0000 1.2211
# 5 21.5149 -1.3617 0.2923 0.0000 23.5997 0.0000
# 6 0.0000 0.0000 0.0000 1.2211 0.0000 33.7913
#
#
#
# Elastic Compliance Matrix: (Units=1/GPa)
#
#
# Indices 1 2 3 4 5 6 
#
# 1 0.093093 -0.030905 -0.016413 0.000000 -0.086449 0.000000
# 2 -0.030905 0.024648 0.003060 0.000000 0.029559 0.000000
# 3 -0.016413 0.003060 0.013594 0.000000 0.014971 0.000000
# 4 0.000000 0.000000 0.000000 0.023624 0.000000 -0.000854
# 5 -0.086449 0.029559 0.014971 0.000000 0.122705 0.000000
# 6 0.000000 0.000000 0.000000 -0.000854 0.000000 0.029624
#
#
# Mechanical properties :
#
#
# Convention : Reuss Voigt Hill
#
# Bulk Modulus (GPa) = 23.35264 37.91771 30.63518
# Shear Modulus (GPa) = 12.19285 29.82923 21.01104
#
# Velocity S-wave (km/s) = 2.37811 3.71963 3.12178
# Velocity P-wave (km/s) = 4.28627 6.00290 5.21570
#
# Compressibility (1/GPa) = 0.04282171
#
# Stress axis : x y z
#
# Youngs Moduli (GPa) = 10.74194 40.57129 73.55953
#
# Poissons Ratio (x) = 1.25384 1.20731
# Poissons Ratio (y) = 0.33198 -0.22512
# Poissons Ratio (z) = 0.17630 -0.12417
#
# Static dielectric constant tensor:
#      x y z
#    x 3.597440 0.000000 0.065370 
#    y 0.000000 4.143650 0.000000 
#    z 0.065370 0.000000 4.095990 
# 
# 
# High freq. dielectric constant tensor:
#      x y z
#    x 1.825360 0.000000 0.007970 
#    y 0.000000 1.857180 0.000000 
#    z 0.007970 0.000000 1.855630 
# 
# From -- ./inp_files/3416.got.cif
#   From: 2010.03.12/outbox.cif.g09.slc.cpg/sg4_2_cif.got.tgz:3416.got - 2010.03.31 09:31:35.
