data_PCOD8046421
_publ_section_title
;
Structure prediction by ZEFSAII (Michael W. Deem and Ramdas Pophale) SiO2 
 PCOD8046421
Probable space group: P 21
;
_chemical_formula_sum "Si O2"
_cell_formula_units_Z 14
_cell_length_a 9.318460
_cell_length_b 9.317652
_cell_length_c 13.230638
_cell_angle_alpha 90.000000
_cell_angle_beta 146.238983
_cell_angle_gamma 90.000000
_cell_volume 638.403617
_symmetry_space_group_name_H-M "P 21"
_symmetry_group_IT_number 4
_symmetry_cell_setting 'monoclinic'
loop_
_space_group_symop_operation_xyz
x,y,z
-x,1/2+y,-z
loop_
_atom_site_type_symbol
_atom_site_label
_atom_site_fract_x
_atom_site_fract_y
_atom_site_fract_z
Si Si1 0.457608 0.028450 0.103371
Si Si2 0.149237 0.178166 0.761553
Si Si3 0.129675 0.807127 0.028778
Si Si4 0.830446 0.547242 0.790258
Si Si5 0.998187 0.980039 0.324993
Si Si6 0.301789 0.492216 0.552635
Si Si7 0.651839 0.684296 0.342323
O O1 0.583228 0.080588 0.283055
O O2 0.257105 0.897568 0.009947
O O3 0.693838 0.980941 0.171184
O O4 0.315658 0.158283 0.961598
O O5 0.948294 0.310396 0.651849
O O6 0.326354 0.184297 0.766023
O O7 0.967629 0.040929 0.647950
O O8 0.051410 0.921760 0.069350
O O9 0.346885 0.689169 0.191493
O O10 0.879593 0.710143 0.859176
O O11 0.525369 0.512207 0.599243
O O12 0.962914 0.552365 0.759605
O O13 0.189227 0.050719 0.518983
O O14 0.233351 0.330833 0.545366
#
# Coordination Sequence:
#
# PCOD8046421 Si02
#       7
#     2   2   2   2   2   2   2
#     4  10  23  42  68  94 135 171 230 278 332 390
#     4  12  22  41  69  98 131 178 227 280 331 399
#     4  10  23  48  65  96 136 181 219 287 337 397
#     4  10  25  43  66  98 136 173 228 272 343 405
#     4  12  24  40  68 105 126 176 237 268 336 412
#     4  10  24  46  63  94 139 177 216 285 336 396
#     4  10  21  44  65  95 139 172 223 288 329 389
#
# _framework density 21.929698999999999
#
# number of rings (size 3 to 8) (size 9 to 14) (size 15 to 20)
#    0.000    1.714    4.286    0.857    6.000    3.429 
#    2.571    0.000    0.000    0.000    0.000    0.000 
#    0.000    0.000    0.000    0.000    0.000    0.000 
#
# Total GULP energy -173440.228424 kJ/mol
# GULP energy per Si atom -12388.587745 kJ/mol
# Density = 2.187979 g / cm^3
# Si number density = 21.929699 Si / 1000 Ang^3
#
#
#
# Elastic Constant Matrix: (Units=GPa)
#
#
# Indices 1 2 3 4 5 6 
#
# 1 86.8073 8.3046 11.5657 0.0000 -8.4358 0.0000
# 2 8.3046 61.8395 26.8302 0.0000 -4.0349 0.0000
# 3 11.5657 26.8302 57.3730 0.0000 -10.0630 0.0000
# 4 0.0000 0.0000 0.0000 40.2356 0.0000 3.3281
# 5 -8.4358 -4.0349 -10.0630 0.0000 27.2164 0.0000
# 6 0.0000 0.0000 0.0000 3.3281 0.0000 27.8278
#
#
#
# Elastic Compliance Matrix: (Units=1/GPa)
#
#
# Indices 1 2 3 4 5 6 
#
# 1 0.012096 -0.000752 -0.001549 0.000000 0.003065 0.000000
# 2 -0.000752 0.020341 -0.009488 0.000000 -0.000726 0.000000
# 3 -0.001549 -0.009488 0.023363 0.000000 0.006752 0.000000
# 4 0.000000 0.000000 0.000000 0.025102 0.000000 -0.003002
# 5 0.003065 -0.000726 0.006752 0.000000 0.040081 0.000000
# 6 0.000000 0.000000 0.000000 -0.003002 0.000000 0.036294
#
#
# Mechanical properties :
#
#
# Convention : Reuss Voigt Hill
#
# Bulk Modulus (GPa) = 31.03508 33.26899 32.15203
# Shear Modulus (GPa) = 26.09640 29.67725 27.88683
#
# Velocity S-wave (km/s) = 3.45338 3.68270 3.56988
# Velocity P-wave (km/s) = 5.48488 5.76946 5.62897
#
# Compressibility (1/GPa) = 0.03222160
#
# Stress axis : x y z
#
# Youngs Moduli (GPa) = 82.67221 49.16145 42.80219
#
# Poissons Ratio (x) = 0.03699 0.06630
# Poissons Ratio (y) = 0.06220 0.40611
# Poissons Ratio (z) = 0.12806 0.46645
#
# Static dielectric constant tensor:
#      x y z
#    x 4.025070 0.000000 0.007790 
#    y 0.000000 3.924540 0.000000 
#    z 0.007790 0.000000 3.735220 
# 
# 
# High freq. dielectric constant tensor:
#      x y z
#    x 1.867220 0.000000 0.002200 
#    y 0.000000 1.855870 0.000000 
#    z 0.002200 0.000000 1.842030 
# 
# From -- ./inp_files/5703.got.cif
#   From: 2010.03.12/outbox.cif.g09.slc.cpg/sg4_3_cif.got.tgz:5703.got - 2010.03.31 09:31:35.
