data_PCOD8046036
_publ_section_title
;
Structure prediction by ZEFSAII (Michael W. Deem and Ramdas Pophale) SiO2 
 PCOD8046036
Probable space group: P 21
;
_chemical_formula_sum "Si O2"
_cell_formula_units_Z 12
_cell_length_a 15.497303
_cell_length_b 4.914606
_cell_length_c 15.838490
_cell_angle_alpha 90.000000
_cell_angle_beta 28.437841
_cell_angle_gamma 90.000000
_cell_volume 574.450511
_symmetry_space_group_name_H-M "P 21"
_symmetry_group_IT_number 4
_symmetry_cell_setting 'monoclinic'
loop_
_space_group_symop_operation_xyz
x,y,z
-x,1/2+y,-z
loop_
_atom_site_type_symbol
_atom_site_label
_atom_site_fract_x
_atom_site_fract_y
_atom_site_fract_z
Si Si1 0.538999 0.459070 0.412469
Si Si2 0.787719 0.793460 0.402051
Si Si3 0.110753 0.792720 0.581376
Si Si4 0.094392 0.231939 0.887787
Si Si5 0.272441 0.394708 0.161447
Si Si6 0.326950 0.892121 0.225283
O O1 0.427389 0.685577 0.561873
O O2 0.422473 0.379191 0.430059
O O3 0.729577 0.589024 0.222500
O O4 0.799923 0.489304 0.426542
O O5 0.886759 0.800608 0.226817
O O6 0.880254 0.988579 0.390541
O O7 0.223705 0.817742 0.398839
O O8 0.899001 0.852268 0.750936
O O9 0.066130 0.513659 0.961972
O O10 0.259331 0.697603 0.208731
O O11 0.274085 0.194163 0.240852
O O12 0.456153 0.358111 0.948370
#
# Coordination Sequence:
#
# PCOD8046036 Si02
#       6
#     2   2   2   2   2   2
#     4  10  20  40  64  81 117 162 206 245 298 375
#     4  11  24  40  60  90 126 155 200 259 309 367
#     4  12  22  39  61  93 129 157 198 258 322 352
#     4  11  22  41  65  89 116 163 216 252 303 373
#     4  10  21  39  63  88 120 164 207 251 283 383
#     4  10  21  39  63  87 120 165 211 237 305 368
#
# _framework density 20.889527999999999
#
# number of rings (size 3 to 8) (size 9 to 14) (size 15 to 20)
#    0.000    1.333    0.000    8.000    0.000    0.000 
#    9.000    0.000    0.000    0.000    0.000    0.000 
#    0.000    0.000    0.000    0.000    0.000    0.000 
#
# Total GULP energy -148829.116677 kJ/mol
# GULP energy per Si atom -12402.426390 kJ/mol
# Density = 2.084198 g / cm^3
# Si number density = 20.889528 Si / 1000 Ang^3
#
#
#
# Elastic Constant Matrix: (Units=GPa)
#
#
# Indices 1 2 3 4 5 6 
#
# 1 83.7304 5.2186 30.8337 0.0000 -18.4404 0.0000
# 2 5.2186 66.9105 -0.7323 0.0000 4.3829 0.0000
# 3 30.8337 -0.7323 76.4893 0.0000 -7.8058 0.0000
# 4 0.0000 0.0000 0.0000 34.6849 0.0000 1.8855
# 5 -18.4404 4.3829 -7.8058 0.0000 24.7582 0.0000
# 6 0.0000 0.0000 0.0000 1.8855 0.0000 38.9895
#
#
#
# Elastic Compliance Matrix: (Units=1/GPa)
#
#
# Indices 1 2 3 4 5 6 
#
# 1 0.016527 -0.002065 -0.005568 0.000000 0.010920 0.000000
# 2 -0.002065 0.015380 0.000563 0.000000 -0.004083 0.000000
# 3 -0.005568 0.000563 0.015385 0.000000 0.000604 0.000000
# 4 0.000000 0.000000 0.000000 0.028907 0.000000 -0.001398
# 5 0.010920 -0.004083 0.000604 0.000000 0.049437 0.000000
# 6 0.000000 0.000000 0.000000 -0.001398 0.000000 0.025716
#
#
# Mechanical properties :
#
#
# Convention : Reuss Voigt Hill
#
# Bulk Modulus (GPa) = 30.16354 33.08557 31.62456
# Shear Modulus (GPa) = 28.32176 32.47387 30.39782
#
# Velocity S-wave (km/s) = 3.68610 3.94706 3.81881
# Velocity P-wave (km/s) = 5.70853 6.05352 5.88355
#
# Compressibility (1/GPa) = 0.03315261
#
# Stress axis : x y z
#
# Youngs Moduli (GPa) = 60.50684 65.01925 64.99785
#
# Poissons Ratio (x) = 0.13428 0.36188
# Poissons Ratio (y) = 0.12496 -0.03660
# Poissons Ratio (z) = 0.33688 -0.03661
#
# Static dielectric constant tensor:
#      x y z
#    x 3.518200 0.000000 -0.170470 
#    y 0.000000 4.122760 0.000000 
#    z -0.170470 0.000000 3.814990 
# 
# 
# High freq. dielectric constant tensor:
#      x y z
#    x 1.799560 0.000000 -0.015150 
#    y 0.000000 1.846530 0.000000 
#    z -0.015150 0.000000 1.815700 
# 
# From -- ./inp_files/14033.got.cif
#   From: 2010.03.12/outbox.cif.g09.slc.cpg/sg4_8_cif.got.tgz:14033.got - 2010.03.31 09:31:35.
