data_PCOD8046833
_publ_section_title
;
Structure prediction by ZEFSAII (Michael W. Deem and Ramdas Pophale) SiO2 
 PCOD8046833
Probable space group: P 21
;
_chemical_formula_sum "Si O2"
_cell_formula_units_Z 16
_cell_length_a 9.699738
_cell_length_b 10.135148
_cell_length_c 9.699739
_cell_angle_alpha 90.000000
_cell_angle_beta 52.340242
_cell_angle_gamma 90.000000
_cell_volume 754.892177
_symmetry_space_group_name_H-M "P 21"
_symmetry_group_IT_number 4
_symmetry_cell_setting 'monoclinic'
loop_
_space_group_symop_operation_xyz
x,y,z
-x,1/2+y,-z
loop_
_atom_site_type_symbol
_atom_site_label
_atom_site_fract_x
_atom_site_fract_y
_atom_site_fract_z
Si Si1 0.654460 0.430330 0.516428
Si Si2 0.893650 0.667357 0.757358
Si Si3 0.767582 0.178572 0.907313
Si Si4 0.592687 0.678572 0.732418
Si Si5 0.983573 0.930330 0.845540
Si Si6 0.354115 0.415997 0.492320
Si Si7 0.257358 0.667357 0.393650
Si Si8 0.007681 0.915997 0.145885
O O1 0.572910 0.554641 0.643442
O O2 0.845196 0.466778 0.345196
O O3 0.533383 0.390836 0.462478
O O4 0.662879 0.308278 0.616016
O O5 0.717676 0.640885 0.781981
O O6 0.883984 0.808278 0.837122
O O7 0.053707 0.657995 0.553708
O O8 0.910652 0.556448 0.863863
O O9 0.718020 0.140885 0.782324
O O10 0.896186 0.302712 0.826615
O O11 0.596235 0.216785 0.096234
O O12 0.856559 0.054641 0.927089
O O13 0.673385 0.802712 0.603814
O O14 0.037523 0.890837 0.966616
O O15 0.363863 0.556448 0.410652
O O16 0.196536 0.411674 0.696537
#
# Coordination Sequence:
#
# PCOD8046833 Si02
#       8
#     2   2   2   2   2   2   2   2
#     4  11  23  41  65  92 124 160 202 254 310 366
#     4  10  23  42  63  89 121 159 203 254 311 364
#     4  12  25  40  61  91 125 163 207 250 299 364
#     4  12  25  40  61  91 125 163 207 250 299 364
#     4  11  23  41  65  92 124 160 202 254 310 366
#     4  11  23  41  65  92 124 160 202 254 310 366
#     4  10  23  42  63  89 121 159 203 254 311 364
#     4  11  23  41  65  92 124 160 202 254 310 366
#
# _framework density 21.195079
#
# number of rings (size 3 to 8) (size 9 to 14) (size 15 to 20)
#    0.000    1.000    0.000    6.750    0.000   12.000 
#    0.000    0.000    0.000    0.000    0.000    0.000 
#    0.000    0.000    0.000    0.000    0.000    0.000 
#
# Total GULP energy -198566.313265 kJ/mol
# GULP energy per Si atom -12410.394579 kJ/mol
# Density = 2.114684 g / cm^3
# Si number density = 21.195079 Si / 1000 Ang^3
#
#
#
# Elastic Constant Matrix: (Units=GPa)
#
#
# Indices 1 2 3 4 5 6 
#
# 1 98.6158 18.5718 20.2104 0.0000 2.5627 0.0000
# 2 18.5718 102.8506 29.7451 0.0000 -9.6770 0.0000
# 3 20.2104 29.7451 76.4801 0.0000 16.6072 0.0000
# 4 0.0000 0.0000 0.0000 29.6384 0.0000 4.5426
# 5 2.5627 -9.6770 16.6072 0.0000 25.5598 0.0000
# 6 0.0000 0.0000 0.0000 4.5426 0.0000 34.8833
#
#
#
# Elastic Compliance Matrix: (Units=1/GPa)
#
#
# Indices 1 2 3 4 5 6 
#
# 1 0.010867 -0.001282 -0.002365 0.000000 -0.000038 0.000000
# 2 -0.001282 0.012742 -0.006628 0.000000 0.009259 0.000000
# 3 -0.002365 -0.006628 0.019526 0.000000 -0.014959 0.000000
# 4 0.000000 0.000000 0.000000 0.034427 0.000000 -0.004483
# 5 -0.000038 0.009259 -0.014959 0.000000 0.052352 0.000000
# 6 0.000000 0.000000 0.000000 -0.004483 0.000000 0.029251
#
#
# Mechanical properties :
#
#
# Convention : Reuss Voigt Hill
#
# Bulk Modulus (GPa) = 44.27332 46.11124 45.19228
# Shear Modulus (GPa) = 26.70316 31.97760 29.34038
#
# Velocity S-wave (km/s) = 3.55332 3.88845 3.72466
# Velocity P-wave (km/s) = 6.14562 6.47788 6.31393
#
# Compressibility (1/GPa) = 0.02258697
#
# Stress axis : x y z
#
# Youngs Moduli (GPa) = 92.01789 78.47930 51.21364
#
# Poissons Ratio (x) = 0.10061 0.12111
# Poissons Ratio (y) = 0.11797 0.33942
# Poissons Ratio (z) = 0.21761 0.52012
#
# Static dielectric constant tensor:
#      x y z
#    x 3.720340 0.000000 0.009720 
#    y 0.000000 3.888510 0.000000 
#    z 0.009720 0.000000 3.709120 
# 
# 
# High freq. dielectric constant tensor:
#      x y z
#    x 1.839200 0.000000 0.005160 
#    y 0.000000 1.844570 0.000000 
#    z 0.005160 0.000000 1.833250 
# 
# From -- ./inp_files/5779.got.cif
#   From: 2010.03.12/outbox.cif.g09.slc.cpg/sg4_3_cif.got.tgz:5779.got - 2010.03.31 09:31:35.
