data_PCOD8046980
_publ_section_title
;
Structure prediction by ZEFSAII (Michael W. Deem and Ramdas Pophale) SiO2 
 PCOD8046980
Probable space group: P 21
;
_chemical_formula_sum "Si O2"
_cell_formula_units_Z 14
_cell_length_a 10.900258
_cell_length_b 9.522291
_cell_length_c 8.562848
_cell_angle_alpha 90.000000
_cell_angle_beta 42.142274
_cell_angle_gamma 90.000000
_cell_volume 596.351171
_symmetry_space_group_name_H-M "P 21"
_symmetry_group_IT_number 4
_symmetry_cell_setting 'monoclinic'
loop_
_space_group_symop_operation_xyz
x,y,z
-x,1/2+y,-z
loop_
_atom_site_type_symbol
_atom_site_label
_atom_site_fract_x
_atom_site_fract_y
_atom_site_fract_z
Si Si1 0.238691 0.748260 0.488765
Si Si2 0.150235 0.618914 0.077769
Si Si3 0.402773 0.538007 0.571855
Si Si4 0.321569 0.857303 0.096064
Si Si5 0.769229 0.554683 0.382889
Si Si6 0.687888 0.833771 0.597449
Si Si7 0.977059 0.021555 0.466984
O O1 0.355141 0.674765 0.514073
O O2 0.353553 0.761402 0.219744
O O3 0.061818 0.654268 0.609575
O O4 0.180190 0.902968 0.595553
O O5 0.225548 0.773146 0.044913
O O6 0.093703 0.541682 0.290638
O O7 0.964249 0.623675 0.146255
O O8 0.308029 0.540094 0.831525
O O9 0.623179 0.536397 0.381917
O O10 0.332931 0.395918 0.557245
O O11 0.194412 0.991405 0.257402
O O12 0.522666 0.902429 0.852510
O O13 0.684172 0.664208 0.591361
O O14 0.876432 0.881889 0.497869
#
# Coordination Sequence:
#
# PCOD8046980 Si02
#       7
#     2   2   2   2   2   2   2
#     4  10  25  44  70 103 139 181 242 283 354 423
#     4  11  24  42  73 102 143 179 232 297 351 421
#     4  11  26  46  65 103 145 185 237 283 358 433
#     4  11  22  46  73 101 142 179 244 299 344 419
#     4  12  23  43  69 102 141 186 229 288 356 416
#     4  11  25  43  75 101 140 189 234 294 354 418
#     4  10  23  46  69 106 134 185 238 292 349 420
#
# _framework density 23.476099999999999
#
# number of rings (size 3 to 8) (size 9 to 14) (size 15 to 20)
#    0.000    1.143    4.286    0.857    2.000    4.571 
#    0.000    2.857    0.000    0.000    0.000    0.000 
#    0.000    0.000    0.000    0.000    0.000    0.000 
#
# Total GULP energy -173524.518557 kJ/mol
# GULP energy per Si atom -12394.608468 kJ/mol
# Density = 2.342267 g / cm^3
# Si number density = 23.476100 Si / 1000 Ang^3
#
#
#
# Elastic Constant Matrix: (Units=GPa)
#
#
# Indices 1 2 3 4 5 6 
#
# 1 90.0559 25.1608 15.2152 0.0000 -8.7777 0.0000
# 2 25.1608 119.6798 19.5924 0.0000 5.7534 0.0000
# 3 15.2152 19.5924 79.5005 0.0000 -1.2136 0.0000
# 4 0.0000 0.0000 0.0000 25.6539 0.0000 4.2800
# 5 -8.7777 5.7534 -1.2136 0.0000 33.0363 0.0000
# 6 0.0000 0.0000 0.0000 4.2800 0.0000 26.8311
#
#
#
# Elastic Compliance Matrix: (Units=1/GPa)
#
#
# Indices 1 2 3 4 5 6 
#
# 1 0.012455 -0.002516 -0.001707 0.000000 0.003685 0.000000
# 2 -0.002516 0.009300 -0.001846 0.000000 -0.002356 0.000000
# 3 -0.001707 -0.001846 0.013366 0.000000 0.000359 0.000000
# 4 0.000000 0.000000 0.000000 0.040046 0.000000 -0.006388
# 5 0.003685 -0.002356 0.000359 0.000000 0.031672 0.000000
# 6 0.000000 0.000000 0.000000 -0.006388 0.000000 0.038289
#
#
# Mechanical properties :
#
#
# Convention : Reuss Voigt Hill
#
# Bulk Modulus (GPa) = 43.51394 45.46367 44.48880
# Shear Modulus (GPa) = 30.31620 32.38877 31.35249
#
# Velocity S-wave (km/s) = 3.59745 3.71839 3.65842
# Velocity P-wave (km/s) = 5.98592 6.15169 6.06937
#
# Compressibility (1/GPa) = 0.02298114
#
# Stress axis : x y z
#
# Youngs Moduli (GPa) = 80.29042 107.52555 74.81778
#
# Poissons Ratio (x) = 0.27054 0.12774
# Poissons Ratio (y) = 0.20202 0.13814
# Poissons Ratio (z) = 0.13708 0.19853
#
# Static dielectric constant tensor:
#      x y z
#    x 4.553530 0.000000 -0.074490 
#    y 0.000000 4.164660 0.000000 
#    z -0.074490 0.000000 3.982570 
# 
# 
# High freq. dielectric constant tensor:
#      x y z
#    x 1.944320 0.000000 -0.005150 
#    y 0.000000 1.928370 0.000000 
#    z -0.005150 0.000000 1.904640 
# 
# From -- ./inp_files/7916.got.cif
#   From: 2010.03.12/outbox.cif.g09.slc.cpg/sg4_4_cif.got.tgz:7916.got - 2010.03.31 09:31:35.
