data_PCOD8046442
_publ_section_title
;
Structure prediction by ZEFSAII (Michael W. Deem and Ramdas Pophale) SiO2 
 PCOD8046442
Probable space group: P 21
;
_chemical_formula_sum "Si O2"
_cell_formula_units_Z 16
_cell_length_a 9.269351
_cell_length_b 8.755105
_cell_length_c 18.408362
_cell_angle_alpha 90.000000
_cell_angle_beta 149.420922
_cell_angle_gamma 90.000000
_cell_volume 759.994912
_symmetry_space_group_name_H-M "P 21"
_symmetry_group_IT_number 4
_symmetry_cell_setting 'monoclinic'
loop_
_space_group_symop_operation_xyz
x,y,z
-x,1/2+y,-z
loop_
_atom_site_type_symbol
_atom_site_label
_atom_site_fract_x
_atom_site_fract_y
_atom_site_fract_z
Si Si1 0.238287 0.269650 0.959919
Si Si2 0.370361 0.077715 0.230974
Si Si3 0.346113 0.597257 0.496342
Si Si4 0.781095 0.773852 0.213880
Si Si5 0.702960 0.738994 0.523452
Si Si6 0.302118 0.602292 0.770402
Si Si7 0.719156 0.087806 0.946935
Si Si8 0.345175 0.717845 0.232529
O O1 0.172107 0.321543 0.849311
O O2 0.964546 0.182112 0.870904
O O3 0.491237 0.146664 0.073265
O O4 0.316708 0.414179 0.043731
O O5 0.534325 0.139413 0.372595
O O6 0.534745 0.144227 0.233072
O O7 0.368664 0.895467 0.222468
O O8 0.047541 0.140850 0.094107
O O9 0.565004 0.656802 0.531998
O O10 0.343655 0.417011 0.486657
O O11 0.032769 0.665495 0.350952
O O12 0.476292 0.692637 0.086735
O O13 0.786362 0.925774 0.264669
O O14 0.571571 0.673831 0.391985
O O15 0.033459 0.709367 0.662154
O O16 0.603030 0.110056 0.814526
#
# Coordination Sequence:
#
# PCOD8046442 Si02
#       8
#     2   2   2   2   2   2   2   2
#     4  11  24  44  67 100 135 172 227 284 332 406
#     4  10  24  43  67  98 135 171 224 276 335 401
#     4  11  25  47  66 101 135 179 224 278 336 405
#     4  12  25  45  69  98 136 180 225 279 342 402
#     4  11  25  44  70  96 137 176 226 278 337 399
#     4  12  25  43  66 101 134 176 225 281 336 402
#     4  11  23  44  71  97 131 181 222 280 342 393
#     4  10  21  46  68  93 135 175 219 280 332 398
#
# _framework density 21.052772000000001
#
# number of rings (size 3 to 8) (size 9 to 14) (size 15 to 20)
#    0.000    1.000    3.750    2.250    7.000    0.000 
#    4.500    0.000    0.000    0.000    0.000    0.000 
#    0.000    0.000    0.000    0.000    0.000    0.000 
#
# Total GULP energy -198471.246369 kJ/mol
# GULP energy per Si atom -12404.452898 kJ/mol
# Density = 2.100485 g / cm^3
# Si number density = 21.052772 Si / 1000 Ang^3
#
#
#
# Elastic Constant Matrix: (Units=GPa)
#
#
# Indices 1 2 3 4 5 6 
#
# 1 119.6973 33.3498 54.8636 0.0000 -3.7244 0.0000
# 2 33.3498 61.8436 34.6861 0.0000 -4.9801 0.0000
# 3 54.8636 34.6861 125.1968 0.0000 -3.7548 0.0000
# 4 0.0000 0.0000 0.0000 16.7124 0.0000 -5.3928
# 5 -3.7244 -4.9801 -3.7548 0.0000 40.2371 0.0000
# 6 0.0000 0.0000 0.0000 -5.3928 0.0000 34.9943
#
#
#
# Elastic Compliance Matrix: (Units=1/GPa)
#
#
# Indices 1 2 3 4 5 6 
#
# 1 0.011194 -0.003874 -0.003826 0.000000 0.000200 0.000000
# 2 -0.003874 0.020629 -0.003963 0.000000 0.001825 0.000000
# 3 -0.003826 -0.003963 0.010767 0.000000 0.000160 0.000000
# 4 0.000000 0.000000 0.000000 0.062967 0.000000 0.009703
# 5 0.000200 0.001825 0.000160 0.000000 0.025112 0.000000
# 6 0.000000 0.000000 0.000000 0.009703 0.000000 0.030071
#
#
# Mechanical properties :
#
#
# Convention : Reuss Voigt Hill
#
# Bulk Modulus (GPa) = 51.91283 61.39298 56.65291
# Shear Modulus (GPa) = 26.24863 30.64464 28.44663
#
# Velocity S-wave (km/s) = 3.53484 3.81939 3.67986
# Velocity P-wave (km/s) = 6.43211 6.97675 6.70996
#
# Compressibility (1/GPa) = 0.01926306
#
# Stress axis : x y z
#
# Youngs Moduli (GPa) = 89.33586 48.47639 92.87930
#
# Poissons Ratio (x) = 0.18782 0.35535
# Poissons Ratio (y) = 0.34613 0.36805
# Poissons Ratio (z) = 0.34179 0.19209
#
# Static dielectric constant tensor:
#      x y z
#    x 3.947090 0.000000 0.035530 
#    y 0.000000 3.601540 0.000000 
#    z 0.035530 0.000000 3.956820 
# 
# 
# High freq. dielectric constant tensor:
#      x y z
#    x 1.841490 0.000000 0.004070 
#    y 0.000000 1.813260 0.000000 
#    z 0.004070 0.000000 1.835860 
# 
# From -- ./inp_files/5433.got.cif
#   From: 2010.03.12/outbox.cif.g09.slc.cpg/sg4_3_cif.got.tgz:5433.got - 2010.03.31 09:31:35.
