data_PCOD8046052
_publ_section_title
;
Structure prediction by ZEFSAII (Michael W. Deem and Ramdas Pophale) SiO2 
 PCOD8046052
Probable space group: P 21
;
_chemical_formula_sum "Si O2"
_cell_formula_units_Z 16
_cell_length_a 9.836695
_cell_length_b 11.029376
_cell_length_c 10.104736
_cell_angle_alpha 90.000000
_cell_angle_beta 41.858570
_cell_angle_gamma 90.000000
_cell_volume 731.547372
_symmetry_space_group_name_H-M "P 21"
_symmetry_group_IT_number 4
_symmetry_cell_setting 'monoclinic'
loop_
_space_group_symop_operation_xyz
x,y,z
-x,1/2+y,-z
loop_
_atom_site_type_symbol
_atom_site_label
_atom_site_fract_x
_atom_site_fract_y
_atom_site_fract_z
Si Si1 0.274694 0.460410 0.468152
Si Si2 0.930710 0.270535 0.758058
Si Si3 0.219919 0.268704 0.123094
Si Si4 0.413991 0.101189 0.191994
Si Si5 0.195368 0.699945 0.649988
Si Si6 0.634785 0.288896 0.203235
Si Si7 0.655391 0.337527 0.713932
Si Si8 0.814821 0.027127 0.754357
O O1 0.262873 0.558782 0.594724
O O2 0.506088 0.413533 0.284118
O O3 0.191253 0.530413 0.400059
O O4 0.139511 0.342449 0.596381
O O5 0.758093 0.304928 0.778031
O O6 0.972100 0.126699 0.701534
O O7 0.839738 0.299269 0.968455
O O8 0.256382 0.183417 0.224091
O O9 0.119957 0.393624 0.247892
O O10 0.050244 0.205557 0.153129
O O11 0.419587 0.296630 0.892538
O O12 0.502604 0.176214 0.249308
O O13 0.309405 0.981752 0.329832
O O14 0.587428 0.056701 0.966393
O O15 0.308787 0.766373 0.686335
O O16 0.247134 0.768411 0.477723
#
# Coordination Sequence:
#
# PCOD8046052 Si02
#       8
#     2   2   2   2   2   2   2   2
#     4  12  24  43  72  96 139 177 228 282 336 404
#     4  11  23  45  70 102 132 177 225 277 341 400
#     4  11  21  42  69  97 133 173 223 283 330 402
#     4  10  20  41  73  91 134 178 215 279 342 388
#     4  12  28  42  65 104 135 174 231 273 341 407
#     4  11  26  47  62  99 141 175 220 277 343 403
#     4  11  22  40  72  99 129 171 228 278 332 397
#     4  10  20  40  69 104 127 165 236 279 323 407
#
# _framework density 21.871447
#
# number of rings (size 3 to 8) (size 9 to 14) (size 15 to 20)
#    0.000    1.000    5.000    2.250    1.750    4.000 
#    4.500    0.000    0.000    0.000    0.000    0.000 
#    0.000    0.000    0.000    0.000    0.000    0.000 
#
# Total GULP energy -198442.131618 kJ/mol
# GULP energy per Si atom -12402.633226 kJ/mol
# Density = 2.182167 g / cm^3
# Si number density = 21.871447 Si / 1000 Ang^3
#
#
#
# Elastic Constant Matrix: (Units=GPa)
#
#
# Indices 1 2 3 4 5 6 
#
# 1 65.4840 31.6320 23.0515 0.0000 -1.2094 0.0000
# 2 31.6320 130.0835 35.9354 0.0000 -5.5587 0.0000
# 3 23.0515 35.9354 59.3979 0.0000 4.7441 0.0000
# 4 0.0000 0.0000 0.0000 30.9734 0.0000 -4.4600
# 5 -1.2094 -5.5587 4.7441 0.0000 21.6135 0.0000
# 6 0.0000 0.0000 0.0000 -4.4600 0.0000 26.5655
#
#
#
# Elastic Compliance Matrix: (Units=1/GPa)
#
#
# Indices 1 2 3 4 5 6 
#
# 1 0.018686 -0.002932 -0.005599 0.000000 0.001521 0.000000
# 2 -0.002932 0.009984 -0.005185 0.000000 0.003542 0.000000
# 3 -0.005599 -0.005185 0.022675 0.000000 -0.006624 0.000000
# 4 0.000000 0.000000 0.000000 0.033086 0.000000 0.005555
# 5 0.001521 0.003542 -0.006624 0.000000 0.048717 0.000000
# 6 0.000000 0.000000 0.000000 0.005555 0.000000 0.038575
#
#
# Mechanical properties :
#
#
# Convention : Reuss Voigt Hill
#
# Bulk Modulus (GPa) = 41.82071 48.46700 45.14386
# Shear Modulus (GPa) = 24.13966 26.78693 25.46330
#
# Velocity S-wave (km/s) = 3.32581 3.50343 3.41578
# Velocity P-wave (km/s) = 5.82329 6.21075 6.02014
#
# Compressibility (1/GPa) = 0.02391160
#
# Stress axis : x y z
#
# Youngs Moduli (GPa) = 53.51475 100.15875 44.10173
#
# Poissons Ratio (x) = 0.29367 0.24695
# Poissons Ratio (y) = 0.15691 0.22868
# Poissons Ratio (z) = 0.29966 0.51936
#
# Static dielectric constant tensor:
#      x y z
#    x 3.585480 0.000000 -0.151510 
#    y 0.000000 4.744600 0.000000 
#    z -0.151510 0.000000 3.910110 
# 
# 
# High freq. dielectric constant tensor:
#      x y z
#    x 1.828290 0.000000 -0.014700 
#    y 0.000000 1.882230 0.000000 
#    z -0.014700 0.000000 1.862240 
# 
# From -- ./inp_files/6408.got.cif
#   From: 2010.03.12/outbox.cif.g09.slc.cpg/sg4_4_cif.got.tgz:6408.got - 2010.03.31 09:31:35.
