data_PCOD8046976
_publ_section_title
;
Structure prediction by ZEFSAII (Michael W. Deem and Ramdas Pophale) SiO2 
 PCOD8046976
Probable space group: P 21
;
_chemical_formula_sum "Si O2"
_cell_formula_units_Z 16
_cell_length_a 9.121806
_cell_length_b 8.921642
_cell_length_c 11.779437
_cell_angle_alpha 90.000000
_cell_angle_beta 141.663266
_cell_angle_gamma 90.000000
_cell_volume 594.619804
_symmetry_space_group_name_H-M "P 21"
_symmetry_group_IT_number 4
_symmetry_cell_setting 'monoclinic'
loop_
_space_group_symop_operation_xyz
x,y,z
-x,1/2+y,-z
loop_
_atom_site_type_symbol
_atom_site_label
_atom_site_fract_x
_atom_site_fract_y
_atom_site_fract_z
Si Si1 0.252495 0.037920 0.535829
Si Si2 0.034838 0.940259 0.187850
Si Si3 0.055254 0.060955 0.965802
Si Si4 0.859084 0.966033 0.449682
Si Si5 0.310579 0.270592 0.863753
Si Si6 0.397936 0.713674 0.374243
Si Si7 0.787735 0.430149 0.155059
Si Si8 0.500481 0.714870 0.685635
O O1 0.077972 0.064715 0.533736
O O2 0.446321 0.170852 0.641960
O O3 0.094143 0.052248 0.325716
O O4 0.379730 0.876197 0.630670
O O5 0.294530 0.880656 0.302264
O O6 0.854928 0.818849 0.131382
O O7 0.935088 0.011297 0.012011
O O8 0.240871 0.197153 0.101177
O O9 0.169100 0.931034 0.955581
O O10 0.837203 0.114042 0.757934
O O11 0.971287 0.884848 0.629917
O O12 0.658158 0.082843 0.359047
O O13 0.772055 0.844659 0.305028
O O14 0.301938 0.091909 0.854676
O O15 0.581499 0.312126 0.056954
O O16 0.542103 0.688995 0.577306
#
# Coordination Sequence:
#
# PCOD8046976 Si02
#       8
#     2   2   2   2   2   2   2   2
#     4  10  24  43  72  98 137 190 227 289 353 423
#     4  10  23  46  69 102 139 181 234 295 350 424
#     4  12  24  42  73 100 136 183 229 294 356 418
#     4  11  23  44  73 102 143 187 239 290 358 426
#     4  11  26  49  73 105 152 187 250 298 362 441
#     4  11  23  44  69 101 139 179 237 278 358 425
#     4  12  26  45  75 110 141 201 236 302 370 427
#     4  11  23  47  66 100 143 182 232 290 355 420
#
# _framework density 26.907951000000001
#
# number of rings (size 3 to 8) (size 9 to 14) (size 15 to 20)
#    0.000    1.000    5.000    1.500    5.250    2.000 
#    2.250    0.000    0.000    0.000    0.000    0.000 
#    0.000    0.000    0.000    0.000    0.000    0.000 
#
# Total GULP energy -198276.188985 kJ/mol
# GULP energy per Si atom -12392.261812 kJ/mol
# Density = 2.684671 g / cm^3
# Si number density = 26.907951 Si / 1000 Ang^3
#
#
#
# Elastic Constant Matrix: (Units=GPa)
#
#
# Indices 1 2 3 4 5 6 
#
# 1 71.6479 -14.5661 -6.8394 0.0000 -13.4078 0.0000
# 2 -14.5661 27.7307 -9.6494 0.0000 -10.8662 0.0000
# 3 -6.8394 -9.6494 95.1862 0.0000 -21.4958 0.0000
# 4 0.0000 0.0000 0.0000 29.7610 0.0000 -2.9412
# 5 -13.4078 -10.8662 -21.4958 0.0000 44.5456 0.0000
# 6 0.0000 0.0000 0.0000 -2.9412 0.0000 28.9897
#
#
#
# Elastic Compliance Matrix: (Units=1/GPa)
#
#
# Indices 1 2 3 4 5 6 
#
# 1 0.021094 0.018943 0.006636 0.000000 0.014172 0.000000
# 2 0.018943 0.061525 0.013776 0.000000 0.027357 0.000000
# 3 0.006636 0.013776 0.015251 0.000000 0.012718 0.000000
# 4 0.000000 0.000000 0.000000 0.033941 0.000000 0.003444
# 5 0.014172 0.027357 0.012718 0.000000 0.039525 0.000000
# 6 0.000000 0.000000 0.000000 0.003444 0.000000 0.034844
#
#
# Mechanical properties :
#
#
# Convention : Reuss Voigt Hill
#
# Bulk Modulus (GPa) = 5.66314 14.71722 10.19018
# Shear Modulus (GPa) = 26.83411 35.70058 31.26735
#
# Velocity S-wave (km/s) = 3.16136 3.64643 3.41253
# Velocity P-wave (km/s) = 3.92872 4.81767 4.39572
#
# Compressibility (1/GPa) = 0.17658034
#
# Stress axis : x y z
#
# Youngs Moduli (GPa) = 47.40723 16.25360 65.56902
#
# Poissons Ratio (x) = -0.30789 -0.43515
# Poissons Ratio (y) = -0.89802 -0.90329
# Poissons Ratio (z) = -0.31462 -0.22391
#
# Static dielectric constant tensor:
#      x y z
#    x 5.055450 0.000000 -0.109550 
#    y 0.000000 4.515540 0.000000 
#    z -0.109550 0.000000 5.135550 
# 
# 
# High freq. dielectric constant tensor:
#      x y z
#    x 2.093720 0.000000 -0.008310 
#    y 0.000000 2.058690 0.000000 
#    z -0.008310 0.000000 2.096090 
# 
# From -- ./inp_files/11395.got.cif
#   From: 2010.03.12/outbox.cif.g09.slc.cpg/sg4_6_cif.got.tgz:11395.got - 2010.03.31 09:31:35.
