data_PCOD8046990
_publ_section_title
;
Structure prediction by ZEFSAII (Michael W. Deem and Ramdas Pophale) SiO2 
 PCOD8046990
Probable space group: P 21
;
_chemical_formula_sum "Si O2"
_cell_formula_units_Z 14
_cell_length_a 9.471272
_cell_length_b 13.471461
_cell_length_c 8.913883
_cell_angle_alpha 90.000000
_cell_angle_beta 149.050655
_cell_angle_gamma 90.000000
_cell_volume 584.910770
_symmetry_space_group_name_H-M "P 21"
_symmetry_group_IT_number 4
_symmetry_cell_setting 'monoclinic'
loop_
_space_group_symop_operation_xyz
x,y,z
-x,1/2+y,-z
loop_
_atom_site_type_symbol
_atom_site_label
_atom_site_fract_x
_atom_site_fract_y
_atom_site_fract_z
Si Si1 0.713094 0.040590 0.737743
Si Si2 0.896992 0.763792 0.160484
Si Si3 0.773301 0.783464 0.367216
Si Si4 0.230946 0.666388 0.916131
Si Si5 0.400937 0.889694 0.645993
Si Si6 0.249239 0.065149 0.086906
Si Si7 0.439157 0.490851 0.914807
O O1 0.518230 0.085593 0.430921
O O2 0.545824 0.946554 0.643599
O O3 0.763635 0.119535 0.914531
O O4 0.007871 0.999444 0.944003
O O5 0.928094 0.738166 0.363893
O O6 0.107617 0.853076 0.315108
O O7 0.582155 0.794992 0.851372
O O8 0.933868 0.665819 0.096069
O O9 0.753741 0.903781 0.332207
O O10 0.958613 0.735809 0.667295
O O11 0.469852 0.744696 0.111662
O O12 0.246608 0.580149 0.802108
O O13 0.375895 0.954851 0.775005
O O14 0.343988 0.025399 0.012265
#
# Coordination Sequence:
#
# PCOD8046990 Si02
#       7
#     2   2   2   2   2   2   2
#     4  11  26  46  69 102 145 193 225 285 363 429
#     4  11  22  42  74 102 134 182 238 291 347 420
#     4  11  23  42  74 110 134 180 243 295 349 412
#     4  11  24  46  73 101 147 187 235 285 356 428
#     4  10  23  46  71  99 137 188 236 279 356 432
#     4  12  25  45  72 106 143 182 238 293 355 409
#     4  10  25  45  77 108 140 184 239 308 346 410
#
# _framework density 23.935275000000001
#
# number of rings (size 3 to 8) (size 9 to 14) (size 15 to 20)
#    0.000    1.143    1.429    4.286    2.000   10.286 
#   10.286    0.000    0.000    0.000    0.000    0.000 
#    0.000    0.000    0.000    0.000    0.000    0.000 
#
# Total GULP energy -173527.530960 kJ/mol
# GULP energy per Si atom -12394.823640 kJ/mol
# Density = 2.388080 g / cm^3
# Si number density = 23.935275 Si / 1000 Ang^3
#
#
#
# Elastic Constant Matrix: (Units=GPa)
#
#
# Indices 1 2 3 4 5 6 
#
# 1 127.8424 49.1696 32.1720 0.0000 1.3493 0.0000
# 2 49.1696 91.0314 54.4873 0.0000 5.6482 0.0000
# 3 32.1720 54.4873 114.4003 0.0000 8.0930 0.0000
# 4 0.0000 0.0000 0.0000 40.4714 0.0000 5.7186
# 5 1.3493 5.6482 8.0930 0.0000 25.3600 0.0000
# 6 0.0000 0.0000 0.0000 5.7186 0.0000 21.3756
#
#
#
# Elastic Compliance Matrix: (Units=1/GPa)
#
#
# Indices 1 2 3 4 5 6 
#
# 1 0.009896 -0.005167 -0.000375 0.000000 0.000744 0.000000
# 2 -0.005167 0.018094 -0.007059 0.000000 -0.001502 0.000000
# 3 -0.000375 -0.007059 0.012375 0.000000 -0.002357 0.000000
# 4 0.000000 0.000000 0.000000 0.025680 0.000000 -0.006870
# 5 0.000744 -0.001502 -0.002357 0.000000 0.040480 0.000000
# 6 0.000000 0.000000 0.000000 -0.006870 0.000000 0.048620
#
#
# Mechanical properties :
#
#
# Convention : Reuss Voigt Hill
#
# Bulk Modulus (GPa) = 65.94206 67.21468 66.57837
# Shear Modulus (GPa) = 26.96862 30.60440 28.78651
#
# Velocity S-wave (km/s) = 3.36032 3.57968 3.47173
# Velocity P-wave (km/s) = 6.53190 6.72519 6.62925
#
# Compressibility (1/GPa) = 0.01516483
#
# Stress axis : x y z
#
# Youngs Moduli (GPa) = 101.05228 55.26557 80.80606
#
# Poissons Ratio (x) = 0.28556 0.03027
# Poissons Ratio (y) = 0.52215 0.57039
# Poissons Ratio (z) = 0.03785 0.39011
#
# Static dielectric constant tensor:
#      x y z
#    x 4.347810 0.000000 -0.040750 
#    y 0.000000 4.269320 0.000000 
#    z -0.040750 0.000000 4.370950 
# 
# 
# High freq. dielectric constant tensor:
#      x y z
#    x 1.952360 0.000000 0.007390 
#    y 0.000000 1.944480 0.000000 
#    z 0.007390 0.000000 1.952440 
# 
# From -- ./inp_files/6514.got.cif
#   From: 2010.03.12/outbox.cif.g09.slc.cpg/sg4_4_cif.got.tgz:6514.got - 2010.03.31 09:31:35.
