data_PCOD8046322
_publ_section_title
;
Structure prediction by ZEFSAII (Michael W. Deem and Ramdas Pophale) SiO2 
 PCOD8046322
Probable space group: P 21
;
_chemical_formula_sum "Si O2"
_cell_formula_units_Z 16
_cell_length_a 8.905873
_cell_length_b 12.295989
_cell_length_c 6.768953
_cell_angle_alpha 90.000000
_cell_angle_beta 108.144346
_cell_angle_gamma 90.000000
_cell_volume 704.386074
_symmetry_space_group_name_H-M "P 21"
_symmetry_group_IT_number 4
_symmetry_cell_setting 'monoclinic'
loop_
_space_group_symop_operation_xyz
x,y,z
-x,1/2+y,-z
loop_
_atom_site_type_symbol
_atom_site_label
_atom_site_fract_x
_atom_site_fract_y
_atom_site_fract_z
Si Si1 0.242320 0.876950 0.193594
Si Si2 0.617718 0.758678 0.897955
Si Si3 0.685816 0.196942 0.044095
Si Si4 0.201571 0.533061 0.241855
Si Si5 0.746410 0.598519 0.638863
Si Si6 0.094995 0.382418 0.859700
Si Si7 0.515946 0.434055 0.412706
Si Si8 0.076117 0.585576 0.590196
O O1 0.278533 0.822680 0.997856
O O2 0.394733 0.853256 0.397009
O O3 0.217033 0.008434 0.173158
O O4 0.078592 0.826808 0.216096
O O5 0.673796 0.703325 0.716253
O O6 0.768388 0.790601 0.094902
O O7 0.517569 0.867875 0.802653
O O8 0.498666 0.682158 0.972587
O O9 0.725465 0.124564 0.870579
O O10 0.792233 0.168062 0.275378
O O11 0.108296 0.445145 0.074364
O O12 0.345664 0.475960 0.420501
O O13 0.083967 0.584143 0.355735
O O14 0.626980 0.541849 0.431529
O O15 0.906201 0.630525 0.590276
O O16 0.111818 0.464270 0.683616
#
# Coordination Sequence:
#
# PCOD8046322 Si02
#       8
#     2   2   2   2   2   2   2   2
#     4   9  21  39  61  88 132 159 213 256 315 373
#     4  11  22  40  66  93 130 165 214 265 313 377
#     4  11  24  36  65  95 128 164 210 261 321 372
#     4  10  22  41  66  92 127 166 212 258 319 374
#     4   9  21  39  64  90 126 166 211 257 316 375
#     4   9  21  42  63  92 125 170 211 259 312 378
#     4   9  22  38  65  91 126 164 206 265 311 376
#     4  10  21  41  66  91 130 168 207 263 313 379
#
# _framework density 22.714817
#
# number of rings (size 3 to 8) (size 9 to 14) (size 15 to 20)
#    0.750    1.500    0.000    1.500    5.250    3.000 
#    0.000    8.750    0.000    0.000    0.000    0.000 
#    0.000    0.000    0.000    0.000    0.000    0.000 
#
# Total GULP energy -198266.815645 kJ/mol
# GULP energy per Si atom -12391.675978 kJ/mol
# Density = 2.266312 g / cm^3
# Si number density = 22.714817 Si / 1000 Ang^3
#
#
#
# Elastic Constant Matrix: (Units=GPa)
#
#
# Indices 1 2 3 4 5 6 
#
# 1 131.7582 25.9385 30.3780 0.0000 -16.2028 0.0000
# 2 25.9385 44.8158 13.8477 0.0000 -7.3118 0.0000
# 3 30.3780 13.8477 68.7665 0.0000 -19.1886 0.0000
# 4 0.0000 0.0000 0.0000 27.5626 0.0000 5.2576
# 5 -16.2028 -7.3118 -19.1886 0.0000 39.8944 0.0000
# 6 0.0000 0.0000 0.0000 5.2576 0.0000 37.9406
#
#
#
# Elastic Compliance Matrix: (Units=1/GPa)
#
#
# Indices 1 2 3 4 5 6 
#
# 1 0.009267 -0.004235 -0.002781 0.000000 0.001650 0.000000
# 2 -0.004235 0.025926 -0.002892 0.000000 0.001640 0.000000
# 3 -0.002781 -0.002892 0.018353 0.000000 0.007168 0.000000
# 4 0.000000 0.000000 0.000000 0.037266 0.000000 -0.005164
# 5 0.001650 0.001640 0.007168 0.000000 0.029485 0.000000
# 6 0.000000 0.000000 0.000000 -0.005164 0.000000 0.027073
#
#
# Mechanical properties :
#
#
# Convention : Reuss Voigt Hill
#
# Bulk Modulus (GPa) = 29.64681 42.85212 36.24946
# Shear Modulus (GPa) = 28.02224 32.75794 30.39009
#
# Velocity S-wave (km/s) = 3.51615 3.80167 3.66170
# Velocity P-wave (km/s) = 5.43733 6.17871 5.81984
#
# Compressibility (1/GPa) = 0.03373044
#
# Stress axis : x y z
#
# Youngs Moduli (GPa) = 107.90410 38.57101 54.48739
#
# Poissons Ratio (x) = 0.16336 0.15151
# Poissons Ratio (y) = 0.45702 0.15758
# Poissons Ratio (z) = 0.30004 0.11155
#
# Static dielectric constant tensor:
#      x y z
#    x 4.244980 0.000000 0.190340 
#    y 0.000000 3.913730 0.000000 
#    z 0.190340 0.000000 3.644220 
# 
# 
# High freq. dielectric constant tensor:
#      x y z
#    x 1.911930 0.000000 0.011840 
#    y 0.000000 1.882350 0.000000 
#    z 0.011840 0.000000 1.861710 
# 
# From -- ./inp_files/1756.got.cif
#   From: 2010.03.12/outbox.cif.g09.slc.cpg/sg4_1_cif.got.tgz:1756.got - 2010.03.31 09:31:35.
