data_PCOD8046635
_publ_section_title
;
Structure prediction by ZEFSAII (Michael W. Deem and Ramdas Pophale) SiO2 
 PCOD8046635
Probable space group: P 21
;
_chemical_formula_sum "Si O2"
_cell_formula_units_Z 16
_cell_length_a 9.290373
_cell_length_b 11.599652
_cell_length_c 9.394750
_cell_angle_alpha 90.000000
_cell_angle_beta 132.209508
_cell_angle_gamma 90.000000
_cell_volume 749.897054
_symmetry_space_group_name_H-M "P 21"
_symmetry_group_IT_number 4
_symmetry_cell_setting 'monoclinic'
loop_
_space_group_symop_operation_xyz
x,y,z
-x,1/2+y,-z
loop_
_atom_site_type_symbol
_atom_site_label
_atom_site_fract_x
_atom_site_fract_y
_atom_site_fract_z
Si Si1 0.726847 0.594690 0.641282
Si Si2 0.665683 0.160156 0.749784
Si Si3 0.199060 0.302994 0.129043
Si Si4 0.365297 0.482950 0.053105
Si Si5 0.995397 0.436612 0.641787
Si Si6 0.788800 0.406687 0.910707
Si Si7 0.799194 0.493687 0.234339
Si Si8 0.989324 0.192748 0.756271
O O1 0.533995 0.597678 0.420412
O O2 0.755455 0.730780 0.698743
O O3 0.892386 0.545413 0.648074
O O4 0.705900 0.515174 0.767708
O O5 0.659401 0.295887 0.781551
O O6 0.805868 0.131693 0.709684
O O7 0.732073 0.095846 0.938817
O O8 0.372028 0.381481 0.178992
O O9 0.154375 0.203902 0.985138
O O10 0.013130 0.386150 0.020435
O O11 0.581776 0.510097 0.146642
O O12 0.227458 0.447352 0.827399
O O13 0.938784 0.427384 0.438310
O O14 0.917826 0.316381 0.653011
O O15 0.781889 0.426844 0.074671
O O16 0.911492 0.615513 0.298346
#
# Coordination Sequence:
#
# PCOD8046635 Si02
#       8
#     2   2   2   2   2   2   2   2
#     4  12  22  43  75 104 133 186 246 285 348 426
#     4  11  24  41  75 102 136 186 241 287 350 418
#     4  10  22  42  75  92 135 186 236 293 342 413
#     4  11  24  44  69 102 147 182 231 291 359 412
#     4  11  24  46  72 103 145 185 236 292 356 418
#     4  11  24  46  69 102 139 180 239 294 347 422
#     4  12  26  45  68 106 144 183 229 293 364 419
#     4  10  22  45  67  99 137 182 238 291 342 414
#
# _framework density 21.336261
#
# number of rings (size 3 to 8) (size 9 to 14) (size 15 to 20)
#    0.000    1.000    6.250    2.250    3.500    5.000 
#    2.250    0.000    0.000    0.000    0.000    0.000 
#    0.000    0.000    0.000    0.000    0.000    0.000 
#
# Total GULP energy -198292.209814 kJ/mol
# GULP energy per Si atom -12393.263113 kJ/mol
# Density = 2.128770 g / cm^3
# Si number density = 21.336261 Si / 1000 Ang^3
#
#
#
# Elastic Constant Matrix: (Units=GPa)
#
#
# Indices 1 2 3 4 5 6 
#
# 1 98.4069 42.1001 39.7259 0.0000 -2.2093 0.0000
# 2 42.1001 78.9639 34.8335 0.0000 5.7832 0.0000
# 3 39.7259 34.8335 110.3406 0.0000 -8.8443 0.0000
# 4 0.0000 0.0000 0.0000 36.1558 0.0000 -8.1579
# 5 -2.2093 5.7832 -8.8443 0.0000 28.6605 0.0000
# 6 0.0000 0.0000 0.0000 -8.1579 0.0000 31.8608
#
#
#
# Elastic Compliance Matrix: (Units=1/GPa)
#
#
# Indices 1 2 3 4 5 6 
#
# 1 0.014091 -0.006310 -0.002965 0.000000 0.001445 0.000000
# 2 -0.006310 0.018131 -0.003880 0.000000 -0.005342 0.000000
# 3 -0.002965 -0.003880 0.011689 0.000000 0.004161 0.000000
# 4 0.000000 0.000000 0.000000 0.029354 0.000000 0.007516
# 5 0.001445 -0.005342 0.004161 0.000000 0.037365 0.000000
# 6 0.000000 0.000000 0.000000 0.007516 0.000000 0.033311
#
#
# Mechanical properties :
#
#
# Convention : Reuss Voigt Hill
#
# Bulk Modulus (GPa) = 56.81949 57.89225 57.35587
# Shear Modulus (GPa) = 28.38981 30.73888 29.56434
#
# Velocity S-wave (km/s) = 3.65168 3.79976 3.72645
# Velocity P-wave (km/s) = 6.66843 6.81491 6.74207
#
# Compressibility (1/GPa) = 0.01759960
#
# Stress axis : x y z
#
# Youngs Moduli (GPa) = 70.96680 55.15290 85.55108
#
# Poissons Ratio (x) = 0.34804 0.25368
# Poissons Ratio (y) = 0.44783 0.33195
# Poissons Ratio (z) = 0.21044 0.21400
#
# Static dielectric constant tensor:
#      x y z
#    x 3.812120 0.000000 -0.310830 
#    y 0.000000 3.846380 0.000000 
#    z -0.310830 0.000000 4.075170 
# 
# 
# High freq. dielectric constant tensor:
#      x y z
#    x 1.821360 0.000000 -0.006420 
#    y 0.000000 1.843880 0.000000 
#    z -0.006420 0.000000 1.839860 
# 
# From -- ./inp_files/6047.got.cif
#   From: 2010.03.12/outbox.cif.g09.slc.cpg/sg4_4_cif.got.tgz:6047.got - 2010.03.31 09:31:35.
