data_PCOD8046983
_publ_section_title
;
Structure prediction by ZEFSAII (Michael W. Deem and Ramdas Pophale) SiO2 
 PCOD8046983
Probable space group: P 21
;
_chemical_formula_sum "Si O2"
_cell_formula_units_Z 16
_cell_length_a 8.889125
_cell_length_b 17.426646
_cell_length_c 5.112032
_cell_angle_alpha 90.000000
_cell_angle_beta 122.236754
_cell_angle_gamma 90.000000
_cell_volume 669.823434
_symmetry_space_group_name_H-M "P 21"
_symmetry_group_IT_number 4
_symmetry_cell_setting 'monoclinic'
loop_
_space_group_symop_operation_xyz
x,y,z
-x,1/2+y,-z
loop_
_atom_site_type_symbol
_atom_site_label
_atom_site_fract_x
_atom_site_fract_y
_atom_site_fract_z
Si Si1 0.655502 0.984970 0.128722
Si Si2 0.727450 0.747774 0.548978
Si Si3 0.446785 0.397640 0.465919
Si Si4 0.004910 0.523078 0.852844
Si Si5 0.675779 0.592259 0.259433
Si Si6 0.045399 0.785981 0.555153
Si Si7 0.951395 0.656670 0.144707
Si Si8 0.846757 0.374455 0.851456
O O1 0.612444 0.919558 0.878504
O O2 0.507782 0.051072 0.974034
O O3 0.658528 0.949470 0.421614
O O4 0.851332 0.017941 0.247271
O O5 0.587847 0.806724 0.539913
O O6 0.626284 0.670931 0.366039
O O7 0.831135 0.790684 0.404864
O O8 0.886000 0.726219 0.898079
O O9 0.654138 0.412105 0.695969
O O10 0.810421 0.539860 0.551869
O O11 0.989185 0.444288 0.008524
O O12 0.066795 0.593359 0.096849
O O13 0.775194 0.613946 0.084549
O O14 0.121083 0.841700 0.406767
O O15 0.072123 0.696320 0.486488
O O16 0.140471 0.809862 0.912870
#
# Coordination Sequence:
#
# PCOD8046983 Si02
#       8
#     2   2   2   2   2   2   2   2
#     4  12  27  47  73 105 146 183 245 290 358 422
#     4  10  23  46  70 100 143 189 233 300 354 426
#     4  12  27  46  68 108 145 188 237 298 353 420
#     4  11  25  44  73 105 139 197 230 306 353 431
#     4  10  24  46  71 103 145 185 239 292 362 425
#     4  11  23  44  69 102 133 189 233 293 347 432
#     4  10  23  46  74 100 147 183 244 288 367 421
#     4  12  24  43  72 105 146 182 247 291 356 423
#
# _framework density 23.886892
#
# number of rings (size 3 to 8) (size 9 to 14) (size 15 to 20)
#    0.000    1.000    2.500    3.000    8.750    1.000 
#    0.000    0.000    0.000    0.000    0.000    0.000 
#    0.000    0.000    0.000    0.000    0.000    0.000 
#
# Total GULP energy -198342.209425 kJ/mol
# GULP energy per Si atom -12396.388089 kJ/mol
# Density = 2.383252 g / cm^3
# Si number density = 23.886892 Si / 1000 Ang^3
#
#
#
# Elastic Constant Matrix: (Units=GPa)
#
#
# Indices 1 2 3 4 5 6 
#
# 1 106.7254 49.3237 9.8697 0.0000 -11.5266 0.0000
# 2 49.3237 84.7616 2.9424 0.0000 -5.4893 0.0000
# 3 9.8697 2.9424 40.5374 0.0000 -17.2693 0.0000
# 4 0.0000 0.0000 0.0000 29.3859 0.0000 -1.6363
# 5 -11.5266 -5.4893 -17.2693 0.0000 35.4051 0.0000
# 6 0.0000 0.0000 0.0000 -1.6363 0.0000 51.9551
#
#
#
# Elastic Compliance Matrix: (Units=1/GPa)
#
#
# Indices 1 2 3 4 5 6 
#
# 1 0.013242 -0.007496 -0.001690 0.000000 0.002325 0.000000
# 2 -0.007496 0.016161 0.000858 0.000000 0.000484 0.000000
# 3 -0.001690 0.000858 0.031355 0.000000 0.014877 0.000000
# 4 0.000000 0.000000 0.000000 0.034090 0.000000 0.001074
# 5 0.002325 0.000484 0.014877 0.000000 0.036333 0.000000
# 6 0.000000 0.000000 0.000000 0.001074 0.000000 0.019281
#
#
# Mechanical properties :
#
#
# Convention : Reuss Voigt Hill
#
# Bulk Modulus (GPa) = 22.67408 39.58845 31.13126
# Shear Modulus (GPa) = 27.49995 34.67511 31.08753
#
# Velocity S-wave (km/s) = 3.39670 3.81417 3.61147
# Velocity P-wave (km/s) = 4.98962 6.00054 5.51828
#
# Compressibility (1/GPa) = 0.04410322
#
# Stress axis : x y z
#
# Youngs Moduli (GPa) = 75.51966 61.87552 31.89248
#
# Poissons Ratio (x) = 0.46383 0.05388
# Poissons Ratio (y) = 0.56611 -0.02737
# Poissons Ratio (z) = 0.12759 -0.05310
#
# Static dielectric constant tensor:
#      x y z
#    x 4.390320 0.000000 -0.321180 
#    y 0.000000 4.471220 0.000000 
#    z -0.321180 0.000000 4.017240 
# 
# 
# High freq. dielectric constant tensor:
#      x y z
#    x 1.948790 0.000000 -0.025910 
#    y 0.000000 1.961150 0.000000 
#    z -0.025910 0.000000 1.927730 
# 
# From -- ./inp_files/2125.got.cif
#   From: 2010.03.12/outbox.cif.g09.slc.cpg/sg4_2_cif.got.tgz:2125.got - 2010.03.31 09:31:35.
