data_PCOD8046099
_publ_section_title
;
Structure prediction by ZEFSAII (Michael W. Deem and Ramdas Pophale) SiO2 
 PCOD8046099
Probable space group: P 21
;
_chemical_formula_sum "Si O2"
_cell_formula_units_Z 16
_cell_length_a 9.016048
_cell_length_b 12.890812
_cell_length_c 8.281798
_cell_angle_alpha 90.000000
_cell_angle_beta 47.418071
_cell_angle_gamma 90.000000
_cell_volume 708.732157
_symmetry_space_group_name_H-M "P 21"
_symmetry_group_IT_number 4
_symmetry_cell_setting 'monoclinic'
loop_
_space_group_symop_operation_xyz
x,y,z
-x,1/2+y,-z
loop_
_atom_site_type_symbol
_atom_site_label
_atom_site_fract_x
_atom_site_fract_y
_atom_site_fract_z
Si Si1 0.388497 0.949540 0.350286
Si Si2 0.120971 0.089489 0.730996
Si Si3 0.472050 0.886494 0.928101
Si Si4 0.228577 0.248986 0.136425
Si Si5 0.179584 0.428692 0.919835
Si Si6 0.446182 0.092237 0.768977
Si Si7 0.094347 0.788287 0.050250
Si Si8 0.206202 0.737109 0.608484
O O1 0.598580 0.969276 0.293308
O O2 0.283039 0.849920 0.504146
O O3 0.247361 0.049628 0.483367
O O4 0.427289 0.938152 0.133291
O O5 0.258994 0.085593 0.787058
O O6 0.042209 0.204907 0.753494
O O7 0.928427 0.015869 0.895225
O O8 0.668822 0.812064 0.791370
O O9 0.513653 0.976451 0.768074
O O10 0.284509 0.815375 0.018601
O O11 0.999361 0.213075 0.341315
O O12 0.217491 0.323763 0.990450
O O13 0.372833 0.153288 0.982678
O O14 0.038343 0.393383 0.874600
O O15 0.636202 0.147748 0.547839
O O16 0.166133 0.736311 0.829420
#
# Coordination Sequence:
#
# PCOD8046099 Si02
#       8
#     2   2   2   2   2   2   2   2
#     4  11  23  44  71  98 140 188 232 290 372 420
#     4  12  23  43  75 108 134 195 244 288 353 429
#     4  11  25  47  71 107 151 182 234 309 362 423
#     4  10  22  46  69  95 147 182 223 303 357 418
#     4  10  20  43  71  94 142 180 231 300 338 424
#     4  12  23  45  74 105 138 191 246 288 357 429
#     4  11  23  45  74 105 144 181 246 302 344 425
#     4  11  21  47  73  94 136 195 236 288 357 426
#
# _framework density 22.575523
#
# number of rings (size 3 to 8) (size 9 to 14) (size 15 to 20)
#    0.000    1.000    8.750    0.000    1.750    2.000 
#    4.500    1.250    0.000    0.000    0.000    0.000 
#    0.000    0.000    0.000    0.000    0.000    0.000 
#
# Total GULP energy -198408.029597 kJ/mol
# GULP energy per Si atom -12400.501850 kJ/mol
# Density = 2.252414 g / cm^3
# Si number density = 22.575523 Si / 1000 Ang^3
#
#
#
# Elastic Constant Matrix: (Units=GPa)
#
#
# Indices 1 2 3 4 5 6 
#
# 1 122.4831 34.7854 34.9422 0.0000 -24.4402 0.0000
# 2 34.7854 71.9036 34.0776 0.0000 -10.6067 0.0000
# 3 34.9422 34.0776 94.7756 0.0000 -29.5939 0.0000
# 4 0.0000 0.0000 0.0000 38.9741 0.0000 -6.7625
# 5 -24.4402 -10.6067 -29.5939 0.0000 33.0215 0.0000
# 6 0.0000 0.0000 0.0000 -6.7625 0.0000 34.8360
#
#
#
# Elastic Compliance Matrix: (Units=1/GPa)
#
#
# Indices 1 2 3 4 5 6 
#
# 1 0.010683 -0.003983 -0.000607 0.000000 0.006083 0.000000
# 2 -0.003983 0.018249 -0.005809 0.000000 -0.002292 0.000000
# 3 -0.000607 -0.005809 0.016859 0.000000 0.012794 0.000000
# 4 0.000000 0.000000 0.000000 0.026552 0.000000 0.005154
# 5 0.006083 -0.002292 0.012794 0.000000 0.045515 0.000000
# 6 0.000000 0.000000 0.000000 0.005154 0.000000 0.029707
#
#
# Mechanical properties :
#
#
# Convention : Reuss Voigt Hill
#
# Bulk Modulus (GPa) = 40.01174 55.19695 47.60435
# Shear Modulus (GPa) = 28.29764 33.72346 31.01055
#
# Velocity S-wave (km/s) = 3.54427 3.86917 3.71028
# Velocity P-wave (km/s) = 5.87462 6.66811 6.28390
#
# Compressibility (1/GPa) = 0.02499267
#
# Stress axis : x y z
#
# Youngs Moduli (GPa) = 93.61061 54.79641 59.31724
#
# Poissons Ratio (x) = 0.21826 0.03599
# Poissons Ratio (y) = 0.37285 0.34458
# Poissons Ratio (z) = 0.05680 0.31831
#
# Static dielectric constant tensor:
#      x y z
#    x 4.434820 0.000000 -0.477890 
#    y 0.000000 4.166960 0.000000 
#    z -0.477890 0.000000 4.079060 
# 
# 
# High freq. dielectric constant tensor:
#      x y z
#    x 1.892850 0.000000 -0.027020 
#    y 0.000000 1.894860 0.000000 
#    z -0.027020 0.000000 1.874580 
# 
# From -- ./inp_files/6401.got.cif
#   From: 2010.03.12/outbox.cif.g09.slc.cpg/sg4_4_cif.got.tgz:6401.got - 2010.03.31 09:31:35.
