data_PCOD8046610
_publ_section_title
;
Structure prediction by ZEFSAII (Michael W. Deem and Ramdas Pophale) SiO2 
 PCOD8046610
Probable space group: P 21
;
_chemical_formula_sum "Si O2"
_cell_formula_units_Z 14
_cell_length_a 16.169436
_cell_length_b 5.318367
_cell_length_c 7.527052
_cell_angle_alpha 90.000000
_cell_angle_beta 75.779557
_cell_angle_gamma 90.000000
_cell_volume 627.454421
_symmetry_space_group_name_H-M "P 21"
_symmetry_group_IT_number 4
_symmetry_cell_setting 'monoclinic'
loop_
_space_group_symop_operation_xyz
x,y,z
-x,1/2+y,-z
loop_
_atom_site_type_symbol
_atom_site_label
_atom_site_fract_x
_atom_site_fract_y
_atom_site_fract_z
Si Si1 0.623409 0.665090 0.320533
Si Si2 0.531320 0.475901 0.698864
Si Si3 0.194140 0.161381 0.872650
Si Si4 0.411457 0.798147 0.963332
Si Si5 0.770559 0.144283 0.952889
Si Si6 0.927385 0.730649 0.368133
Si Si7 0.109252 0.731827 0.409810
O O1 0.601653 0.501421 0.507615
O O2 0.554471 0.886320 0.356570
O O3 0.722619 0.739709 0.290805
O O4 0.617410 0.546540 0.125647
O O5 0.499665 0.723965 0.819326
O O6 0.571290 0.308468 0.834640
O O7 0.186839 0.375728 0.026434
O O8 0.106734 0.186274 0.810982
O O9 0.200938 0.874994 0.935657
O O10 0.332040 0.605099 0.987426
O O11 0.801566 0.210167 0.739500
O O12 0.888662 0.506381 0.505631
O O13 0.029942 0.714118 0.314094
O O14 0.896768 0.005680 0.446623
#
# Coordination Sequence:
#
# PCOD8046610 Si02
#       7
#     2   2   2   2   2   2   2
#     4  11  24  40  62  91 126 164 219 265 320 381
#     4  12  22  42  62  86 124 172 210 268 324 374
#     4  11  24  42  64  94 130 163 211 266 314 379
#     4  11  24  40  62  91 126 164 219 265 320 381
#     4  11  24  42  64  94 130 163 211 266 314 379
#     4  10  22  42  66  95 129 165 209 256 313 387
#     4  10  22  42  66  95 129 165 209 256 313 387
#
# _framework density 22.312377999999999
#
# number of rings (size 3 to 8) (size 9 to 14) (size 15 to 20)
#    0.000    1.143    4.286    1.714    2.000    1.143 
#    5.143    0.000    0.000    0.000    0.000    0.000 
#    0.000    0.000    0.000    0.000    0.000    0.000 
#
# Total GULP energy -173482.215047 kJ/mol
# GULP energy per Si atom -12391.586789 kJ/mol
# Density = 2.226159 g / cm^3
# Si number density = 22.312378 Si / 1000 Ang^3
#
#
#
# Elastic Constant Matrix: (Units=GPa)
#
#
# Indices 1 2 3 4 5 6 
#
# 1 44.9310 3.9408 6.0489 0.0000 11.3574 0.0000
# 2 3.9408 73.9357 -0.4475 0.0000 9.0353 0.0000
# 3 6.0489 -0.4475 76.3484 0.0000 2.4336 0.0000
# 4 0.0000 0.0000 0.0000 30.1655 0.0000 -0.7066
# 5 11.3574 9.0353 2.4336 0.0000 40.7114 0.0000
# 6 0.0000 0.0000 0.0000 -0.7066 0.0000 26.8615
#
#
#
# Elastic Compliance Matrix: (Units=1/GPa)
#
#
# Indices 1 2 3 4 5 6 
#
# 1 0.024182 -0.000501 -0.001711 0.000000 -0.006533 0.000000
# 2 -0.000501 0.013915 0.000216 0.000000 -0.002961 0.000000
# 3 -0.001711 0.000216 0.013246 0.000000 -0.000362 0.000000
# 4 0.000000 0.000000 0.000000 0.033171 0.000000 0.000873
# 5 -0.006533 -0.002961 -0.000362 0.000000 0.027064 0.000000
# 6 0.000000 0.000000 0.000000 0.000873 0.000000 0.037251
#
#
# Mechanical properties :
#
#
# Convention : Reuss Voigt Hill
#
# Bulk Modulus (GPa) = 21.11866 23.81106 22.46486
# Shear Modulus (GPa) = 29.65509 31.92588 30.79048
#
# Velocity S-wave (km/s) = 3.64962 3.78677 3.71883
# Velocity P-wave (km/s) = 5.21969 5.46026 5.34133
#
# Compressibility (1/GPa) = 0.04735150
#
# Stress axis : x y z
#
# Youngs Moduli (GPa) = 41.35327 71.86403 75.49337
#
# Poissons Ratio (x) = 0.03600 0.12914
# Poissons Ratio (y) = 0.02071 -0.01628
# Poissons Ratio (z) = 0.07074 -0.01550
#
# Static dielectric constant tensor:
#      x y z
#    x 4.280500 0.000000 -0.000780 
#    y 0.000000 3.961730 0.000000 
#    z -0.000780 0.000000 3.927120 
# 
# 
# High freq. dielectric constant tensor:
#      x y z
#    x 1.881760 0.000000 -0.000710 
#    y 0.000000 1.878900 0.000000 
#    z -0.000710 0.000000 1.867440 
# 
# From -- ./inp_files/3881.got.cif
#   From: 2010.03.12/outbox.cif.g09.slc.cpg/sg4_2_cif.got.tgz:3881.got - 2010.03.31 09:31:35.
