data_PCOD8046851
_publ_section_title
;
Structure prediction by ZEFSAII (Michael W. Deem and Ramdas Pophale) SiO2 
 PCOD8046851
Probable space group: P 21
;
_chemical_formula_sum "Si O2"
_cell_formula_units_Z 16
_cell_length_a 8.803344
_cell_length_b 8.300124
_cell_length_c 16.828551
_cell_angle_alpha 90.000000
_cell_angle_beta 35.282992
_cell_angle_gamma 90.000000
_cell_volume 710.260543
_symmetry_space_group_name_H-M "P 21"
_symmetry_group_IT_number 4
_symmetry_cell_setting 'monoclinic'
loop_
_space_group_symop_operation_xyz
x,y,z
-x,1/2+y,-z
loop_
_atom_site_type_symbol
_atom_site_label
_atom_site_fract_x
_atom_site_fract_y
_atom_site_fract_z
Si Si1 0.915133 0.464110 0.075134
Si Si2 0.965372 0.841805 0.381592
Si Si3 0.516565 0.532113 0.819100
Si Si4 0.206779 0.533935 0.689137
Si Si5 0.699731 0.734478 0.889006
Si Si6 0.794887 0.112029 0.838060
Si Si7 0.503129 0.242088 0.328035
Si Si8 0.047726 0.280587 0.874793
O O1 0.738371 0.368846 0.214430
O O2 0.817254 0.651356 0.122259
O O3 0.232153 0.448739 0.956205
O O4 0.861184 0.394745 0.009294
O O5 0.785979 0.819158 0.536591
O O6 0.011499 0.675219 0.313514
O O7 0.799225 0.967478 0.397683
O O8 0.249401 0.903181 0.287255
O O9 0.590062 0.662314 0.853877
O O10 0.498950 0.617626 0.742134
O O11 0.445153 0.653414 0.608563
O O12 0.236577 0.389304 0.740645
O O13 0.941230 0.631933 0.818204
O O14 0.766741 0.920593 0.845483
O O15 0.480788 0.710035 0.051360
O O16 0.890315 0.160813 0.884768
#
# Coordination Sequence:
#
# PCOD8046851 Si02
#       8
#     2   2   2   2   2   2   2   2
#     4  12  22  40  71 101 138 171 235 284 347 400
#     4  10  27  46  66  98 142 184 229 283 350 424
#     4  11  24  48  65 102 140 177 238 288 348 414
#     4  10  23  42  68  98 138 176 231 283 342 414
#     4  11  22  40  71 101 133 179 232 295 333 410
#     4  11  22  40  66  97 137 179 235 278 351 401
#     4  12  25  46  70 101 139 186 228 287 355 416
#     4  11  21  40  63 106 129 180 224 296 332 405
#
# _framework density 22.526945000000001
#
# number of rings (size 3 to 8) (size 9 to 14) (size 15 to 20)
#    0.000    1.000    3.750    3.000    1.750    4.000 
#    6.750    2.500    0.000    0.000    0.000    0.000 
#    0.000    0.000    0.000    0.000    0.000    0.000 
#
# Total GULP energy -198212.356757 kJ/mol
# GULP energy per Si atom -12388.272297 kJ/mol
# Density = 2.247567 g / cm^3
# Si number density = 22.526945 Si / 1000 Ang^3
#
#
#
# Elastic Constant Matrix: (Units=GPa)
#
#
# Indices 1 2 3 4 5 6 
#
# 1 63.2669 34.8764 31.6219 0.0000 -7.7065 0.0000
# 2 34.8764 124.0056 45.9870 0.0000 -5.3808 0.0000
# 3 31.6219 45.9870 134.5317 0.0000 -8.2289 0.0000
# 4 0.0000 0.0000 0.0000 18.9081 0.0000 -3.9819
# 5 -7.7065 -5.3808 -8.2289 0.0000 17.3570 0.0000
# 6 0.0000 0.0000 0.0000 -3.9819 0.0000 28.2183
#
#
#
# Elastic Compliance Matrix: (Units=1/GPa)
#
#
# Indices 1 2 3 4 5 6 
#
# 1 0.020461 -0.004397 -0.002919 0.000000 0.006338 0.000000
# 2 -0.004397 0.010213 -0.002455 0.000000 0.000050 0.000000
# 3 -0.002919 -0.002455 0.009096 0.000000 0.002256 0.000000
# 4 0.000000 0.000000 0.000000 0.054507 0.000000 0.007692
# 5 0.006338 0.000050 0.002256 0.000000 0.061513 0.000000
# 6 0.000000 0.000000 0.000000 0.007692 0.000000 0.036523
#
#
# Mechanical properties :
#
#
# Convention : Reuss Voigt Hill
#
# Bulk Modulus (GPa) = 49.43251 60.75273 55.09262
# Shear Modulus (GPa) = 22.87306 26.85125 24.86216
#
# Velocity S-wave (km/s) = 3.18994 3.45622 3.32575
# Velocity P-wave (km/s) = 5.96313 6.55399 6.26553
#
# Compressibility (1/GPa) = 0.02022960
#
# Stress axis : x y z
#
# Youngs Moduli (GPa) = 48.87389 97.91141 109.93558
#
# Poissons Ratio (x) = 0.43054 0.32086
# Poissons Ratio (y) = 0.21491 0.26985
# Poissons Ratio (z) = 0.14264 0.24033
#
# Static dielectric constant tensor:
#      x y z
#    x 4.174090 0.000000 -0.058860 
#    y 0.000000 4.356020 0.000000 
#    z -0.058860 0.000000 3.821090 
# 
# 
# High freq. dielectric constant tensor:
#      x y z
#    x 1.885500 0.000000 0.004510 
#    y 0.000000 1.901720 0.000000 
#    z 0.004510 0.000000 1.868530 
# 
# From -- ./inp_files/14937.got.cif
#   From: 2010.03.12/outbox.cif.g09.slc.cpg/sg4_8_cif.got.tgz:14937.got - 2010.03.31 09:31:35.
