data_PCOD8046608
_publ_section_title
;
Structure prediction by ZEFSAII (Michael W. Deem and Ramdas Pophale) SiO2 
 PCOD8046608
Probable space group: P 21
;
_chemical_formula_sum "Si O2"
_cell_formula_units_Z 16
_cell_length_a 10.873207
_cell_length_b 13.423606
_cell_length_c 6.434042
_cell_angle_alpha 90.000000
_cell_angle_beta 52.001446
_cell_angle_gamma 90.000000
_cell_volume 740.033622
_symmetry_space_group_name_H-M "P 21"
_symmetry_group_IT_number 4
_symmetry_cell_setting 'monoclinic'
loop_
_space_group_symop_operation_xyz
x,y,z
-x,1/2+y,-z
loop_
_atom_site_type_symbol
_atom_site_label
_atom_site_fract_x
_atom_site_fract_y
_atom_site_fract_z
Si Si1 0.905151 0.563280 0.154791
Si Si2 0.412784 0.225669 0.023839
Si Si3 0.367311 0.848428 0.932059
Si Si4 0.902825 0.870366 0.125539
Si Si5 0.063560 0.725314 0.235266
Si Si6 0.622036 0.517099 0.762795
Si Si7 0.447434 0.380385 0.651457
Si Si8 0.088793 0.210577 0.206895
O O1 0.760597 0.550753 0.463249
O O2 0.042297 0.627337 0.117989
O O3 0.853171 0.619181 0.997117
O O4 0.982871 0.463308 0.994502
O O5 0.466632 0.271260 0.742833
O O6 0.483244 0.290744 0.134881
O O7 0.227433 0.238477 0.220604
O O8 0.450435 0.109182 0.029833
O O9 0.418055 0.893833 0.659249
O O10 0.234039 0.768904 0.025051
O O11 0.309499 0.936082 0.145772
O O12 0.720793 0.895551 0.281729
O O13 0.933692 0.808892 0.305651
O O14 0.964638 0.803859 0.871833
O O15 0.052525 0.689811 0.487514
O O16 0.478143 0.468203 0.786158
#
# Coordination Sequence:
#
# PCOD8046608 Si02
#       8
#     2   2   2   2   2   2   2   2
#     4  11  24  40  68  99 125 174 219 270 335 387
#     4  10  23  41  66  93 130 170 221 265 325 393
#     4  11  25  43  67  98 132 173 218 274 322 397
#     4  10  23  42  64  93 132 168 219 271 324 392
#     4  11  23  41  65  96 130 165 218 271 327 389
#     4  11  24  42  67  98 127 174 223 265 333 396
#     4  10  24  43  67  96 131 177 215 271 331 386
#     4  10  22  42  66  91 125 173 211 271 329 384
#
# _framework density 21.620639000000001
#
# number of rings (size 3 to 8) (size 9 to 14) (size 15 to 20)
#    0.000    1.500    1.250    2.250    8.750    4.000 
#    2.250    0.000    0.000    0.000    0.000    0.000 
#    0.000    0.000    0.000    0.000    0.000    0.000 
#
# Total GULP energy -198306.208270 kJ/mol
# GULP energy per Si atom -12394.138017 kJ/mol
# Density = 2.157143 g / cm^3
# Si number density = 21.620639 Si / 1000 Ang^3
#
#
#
# Elastic Constant Matrix: (Units=GPa)
#
#
# Indices 1 2 3 4 5 6 
#
# 1 80.6318 26.3687 24.6070 0.0000 5.7851 0.0000
# 2 26.3687 108.5499 30.1202 0.0000 6.2047 0.0000
# 3 24.6070 30.1202 100.4449 0.0000 8.4650 0.0000
# 4 0.0000 0.0000 0.0000 34.6538 0.0000 1.5526
# 5 5.7851 6.2047 8.4650 0.0000 20.9581 0.0000
# 6 0.0000 0.0000 0.0000 1.5526 0.0000 37.5458
#
#
#
# Elastic Compliance Matrix: (Units=1/GPa)
#
#
# Indices 1 2 3 4 5 6 
#
# 1 0.014179 -0.002627 -0.002507 0.000000 -0.002123 0.000000
# 2 -0.002627 0.010603 -0.002415 0.000000 -0.001439 0.000000
# 3 -0.002507 -0.002415 0.011569 0.000000 -0.003266 0.000000
# 4 0.000000 0.000000 0.000000 0.028910 0.000000 -0.001196
# 5 -0.002123 -0.001439 -0.003266 0.000000 0.050045 0.000000
# 6 0.000000 0.000000 0.000000 -0.001196 0.000000 0.026684
#
#
# Mechanical properties :
#
#
# Convention : Reuss Voigt Hill
#
# Bulk Modulus (GPa) = 47.05137 50.20207 48.62672
# Shear Modulus (GPa) = 30.45597 32.53358 31.49478
#
# Velocity S-wave (km/s) = 3.75727 3.88331 3.82081
# Velocity P-wave (km/s) = 6.37435 6.58610 6.48109
#
# Compressibility (1/GPa) = 0.02125337
#
# Stress axis : x y z
#
# Youngs Moduli (GPa) = 70.52884 94.31483 86.43728
#
# Poissons Ratio (x) = 0.24779 0.21667
# Poissons Ratio (y) = 0.18530 0.20871
# Poissons Ratio (z) = 0.17679 0.22773
#
# Static dielectric constant tensor:
#      x y z
#    x 3.994640 0.000000 0.275850 
#    y 0.000000 3.988710 0.000000 
#    z 0.275850 0.000000 3.794660 
# 
# 
# High freq. dielectric constant tensor:
#      x y z
#    x 1.856860 0.000000 0.019500 
#    y 0.000000 1.850160 0.000000 
#    z 0.019500 0.000000 1.840280 
# 
# From -- ./inp_files/1347.got.cif
#   From: 2010.03.12/outbox.cif.g09.slc.cpg/sg4_1_cif.got.tgz:1347.got - 2010.03.31 09:31:35.
