data_PCOD8046782
_publ_section_title
;
Structure prediction by ZEFSAII (Michael W. Deem and Ramdas Pophale) SiO2 
 PCOD8046782
Probable space group: P 21
;
_chemical_formula_sum "Si O2"
_cell_formula_units_Z 14
_cell_length_a 10.694114
_cell_length_b 5.469890
_cell_length_c 17.991987
_cell_angle_alpha 90.000000
_cell_angle_beta 33.696317
_cell_angle_gamma 90.000000
_cell_volume 583.891156
_symmetry_space_group_name_H-M "P 21"
_symmetry_group_IT_number 4
_symmetry_cell_setting 'monoclinic'
loop_
_space_group_symop_operation_xyz
x,y,z
-x,1/2+y,-z
loop_
_atom_site_type_symbol
_atom_site_label
_atom_site_fract_x
_atom_site_fract_y
_atom_site_fract_z
Si Si1 0.068024 0.915320 0.358916
Si Si2 0.567276 0.962014 0.636103
Si Si3 0.499562 0.652515 0.178580
Si Si4 0.763897 0.953370 0.948721
Si Si5 0.499992 0.970874 0.419276
Si Si6 0.662216 0.772608 0.850110
Si Si7 0.124519 0.210848 0.692874
O O1 0.044957 0.776233 0.290510
O O2 0.265905 0.795781 0.311273
O O3 0.832938 0.915627 0.518406
O O4 0.149317 0.191262 0.303330
O O5 0.446389 0.987109 0.776252
O O6 0.527962 0.215627 0.611655
O O7 0.470191 0.716594 0.645417
O O8 0.464425 0.507400 0.119555
O O9 0.722629 0.818467 0.048630
O O10 0.983232 0.129532 0.837157
O O11 0.803089 0.787681 0.856598
O O12 0.523843 0.067257 0.047220
O O13 0.293885 0.000601 0.578719
O O14 0.727609 0.945132 0.355478
#
# Coordination Sequence:
#
# PCOD8046782 Si02
#       7
#     2   2   2   2   2   2   2
#     4  10  23  36  69 104 139 183 234 295 366 428
#     4  11  27  45  68 104 152 193 237 287 366 440
#     4  11  25  40  65 104 148 191 225 291 368 456
#     4  11  21  38  67 102 142 184 233 298 364 430
#     4  11  26  47  73 106 138 190 249 310 351 419
#     4  11  20  38  60 106 140 174 233 288 370 433
#     4  11  22  46  74 106 135 183 247 315 361 402
#
# _framework density 23.977073000000001
#
# number of rings (size 3 to 8) (size 9 to 14) (size 15 to 20)
#    0.000    1.143    2.857    3.429    8.000    1.143 
#    0.000    0.000    3.143    0.000    0.000    0.000 
#    0.000    0.000    0.000    0.000    0.000    0.000 
#
# Total GULP energy -173439.041397 kJ/mol
# GULP energy per Si atom -12388.502957 kJ/mol
# Density = 2.392250 g / cm^3
# Si number density = 23.977073 Si / 1000 Ang^3
#
#
#
# Elastic Constant Matrix: (Units=GPa)
#
#
# Indices 1 2 3 4 5 6 
#
# 1 57.0180 26.2371 31.7714 0.0000 4.3372 0.0000
# 2 26.2371 107.7688 31.6441 0.0000 7.2839 0.0000
# 3 31.7714 31.6441 111.4631 0.0000 12.7736 0.0000
# 4 0.0000 0.0000 0.0000 39.4099 0.0000 10.0830
# 5 4.3372 7.2839 12.7736 0.0000 29.7203 0.0000
# 6 0.0000 0.0000 0.0000 10.0830 0.0000 36.5765
#
#
#
# Elastic Compliance Matrix: (Units=1/GPa)
#
#
# Indices 1 2 3 4 5 6 
#
# 1 0.022242 -0.003875 -0.005234 0.000000 -0.000046 0.000000
# 2 -0.003875 0.010847 -0.001825 0.000000 -0.001309 0.000000
# 3 -0.005234 -0.001825 0.011405 0.000000 -0.003691 0.000000
# 4 0.000000 0.000000 0.000000 0.027300 0.000000 -0.007526
# 5 -0.000046 -0.001309 -0.003691 0.000000 0.035561 0.000000
# 6 0.000000 0.000000 0.000000 -0.007526 0.000000 0.029415
#
#
# Mechanical properties :
#
#
# Convention : Reuss Voigt Hill
#
# Bulk Modulus (GPa) = 44.19937 50.61725 47.40831
# Shear Modulus (GPa) = 30.08828 33.58115 31.83472
#
# Velocity S-wave (km/s) = 3.54627 3.74646 3.64774
# Velocity P-wave (km/s) = 5.93650 6.31436 6.12834
#
# Compressibility (1/GPa) = 0.02262476
#
# Stress axis : x y z
#
# Youngs Moduli (GPa) = 44.96091 92.19343 87.68378
#
# Poissons Ratio (x) = 0.35723 0.45897
# Poissons Ratio (y) = 0.17421 0.16002
# Poissons Ratio (z) = 0.23534 0.16825
#
# Static dielectric constant tensor:
#      x y z
#    x 3.977570 0.000000 -0.079450 
#    y 0.000000 4.455920 0.000000 
#    z -0.079450 0.000000 4.300180 
# 
# 
# High freq. dielectric constant tensor:
#      x y z
#    x 1.917820 0.000000 -0.001370 
#    y 0.000000 1.956750 0.000000 
#    z -0.001370 0.000000 1.951100 
# 
# From -- ./inp_files/12727.got.cif
#   From: 2010.03.12/outbox.cif.g09.slc.cpg/sg4_7_cif.got.tgz:12727.got - 2010.03.31 09:31:35.
