data_PCOD8046216
_publ_section_title
;
Structure prediction by ZEFSAII (Michael W. Deem and Ramdas Pophale) SiO2 
 PCOD8046216
Probable space group: P 21
;
_chemical_formula_sum "Si O2"
_cell_formula_units_Z 16
_cell_length_a 15.883662
_cell_length_b 5.043241
_cell_length_c 27.876781
_cell_angle_alpha 90.000000
_cell_angle_beta 160.220638
_cell_angle_gamma 90.000000
_cell_volume 755.669760
_symmetry_space_group_name_H-M "P 21"
_symmetry_group_IT_number 4
_symmetry_cell_setting 'monoclinic'
loop_
_space_group_symop_operation_xyz
x,y,z
-x,1/2+y,-z
loop_
_atom_site_type_symbol
_atom_site_label
_atom_site_fract_x
_atom_site_fract_y
_atom_site_fract_z
Si Si1 0.961386 0.795660 0.265456
Si Si2 0.887945 0.220875 0.381812
Si Si3 0.496742 0.717384 0.531412
Si Si4 0.667230 0.720905 0.309636
Si Si5 0.016537 0.279436 0.144853
Si Si6 0.790998 0.781016 0.067971
Si Si7 0.777944 0.295556 0.218288
Si Si8 0.912075 0.278618 0.981081
O O1 0.932627 0.747092 0.193794
O O2 0.796405 0.591742 0.207576
O O3 0.251688 0.755537 0.432579
O O4 0.880677 0.094374 0.233590
O O5 0.697988 0.436824 0.301244
O O6 0.936608 0.266384 0.351774
O O7 0.160212 0.241687 0.550915
O O8 0.756705 0.938966 0.319359
O O9 0.492511 0.426690 0.506043
O O10 0.720662 0.744168 0.688529
O O11 0.384978 0.760559 0.173780
O O12 0.906907 0.572052 0.093183
O O13 0.821144 0.072442 0.062287
O O14 0.044817 0.231769 0.103363
O O15 0.503461 0.722561 0.921267
O O16 0.983573 0.567465 0.000469
#
# Coordination Sequence:
#
# PCOD8046216 Si02
#       8
#     2   2   2   2   2   2   2   2
#     4  12  24  39  61  90 127 163 201 267 308 360
#     4  10  21  39  65  89 120 164 207 255 307 379
#     4  12  23  44  65  88 123 163 221 259 295 371
#     4  10  21  41  64  88 121 164 209 252 311 372
#     4  12  24  43  70  91 120 177 213 255 316 373
#     4  12  23  42  65  90 128 163 217 249 312 383
#     4  12  24  38  60  96 128 159 202 259 322 364
#     4  12  26  42  64  96 133 161 208 266 319 372
#
# _framework density 21.173272000000001
#
# number of rings (size 3 to 8) (size 9 to 14) (size 15 to 20)
#    0.000    0.500    2.500    6.750    0.000    2.000 
#    0.000    0.000    0.000    0.000    0.000    0.000 
#    0.000    0.000    0.000    0.000    0.000    0.000 
#
# Total GULP energy -198539.596587 kJ/mol
# GULP energy per Si atom -12408.724787 kJ/mol
# Density = 2.112508 g / cm^3
# Si number density = 21.173272 Si / 1000 Ang^3
#
#
#
# Elastic Constant Matrix: (Units=GPa)
#
#
# Indices 1 2 3 4 5 6 
#
# 1 91.8681 15.0433 45.4067 0.0000 -12.2834 0.0000
# 2 15.0433 80.7954 21.6447 0.0000 -7.5019 0.0000
# 3 45.4067 21.6447 102.0593 -0.0001 1.6254 0.0001
# 4 0.0000 0.0000 -0.0001 28.1026 -0.0001 7.2847
# 5 -12.2834 -7.5019 1.6254 -0.0001 19.2264 0.0000
# 6 0.0000 0.0000 0.0001 7.2847 0.0000 41.3861
#
#
#
# Elastic Compliance Matrix: (Units=1/GPa)
#
#
# Indices 1 2 3 4 5 6 
#
# 1 0.015910 -0.000021 -0.007245 0.000000 0.010769 0.000000
# 2 -0.000021 0.013699 -0.002985 0.000000 0.005584 0.000000
# 3 -0.007245 -0.002985 0.013765 0.000000 -0.006957 0.000000
# 4 0.000000 0.000000 0.000000 0.037285 0.000000 -0.006563
# 5 0.010769 0.005584 -0.006957 0.000000 0.061659 0.000000
# 6 0.000000 0.000000 0.000000 -0.006563 0.000000 0.025318
#
#
# Mechanical properties :
#
#
# Convention : Reuss Voigt Hill
#
# Bulk Modulus (GPa) = 43.72271 48.76802 46.24537
# Shear Modulus (GPa) = 25.54124 30.58489 28.06306
#
# Velocity S-wave (km/s) = 3.47695 3.80479 3.64455
# Velocity P-wave (km/s) = 6.06743 6.51035 6.29279
#
# Compressibility (1/GPa) = 0.02287141
#
# Stress axis : x y z
#
# Youngs Moduli (GPa) = 62.85548 72.99815 72.64570
#
# Poissons Ratio (x) = 0.00156 0.52633
# Poissons Ratio (y) = 0.00134 0.21683
# Poissons Ratio (z) = 0.45540 0.21788
#
# Static dielectric constant tensor:
#      x y z
#    x 3.722070 0.000000 -0.127370 
#    y 0.000000 4.006830 0.000000 
#    z -0.127370 0.000000 3.996780 
# 
# 
# High freq. dielectric constant tensor:
#      x y z
#    x 1.827210 0.000000 -0.004200 
#    y 0.000000 1.848370 0.000000 
#    z -0.004200 0.000000 1.841350 
# 
# From -- ./inp_files/11673.got.cif
#   From: 2010.03.12/outbox.cif.g09.slc.cpg/sg4_6_cif.got.tgz:11673.got - 2010.03.31 09:31:35.
