data_PCOD8046674
_publ_section_title
;
Structure prediction by ZEFSAII (Michael W. Deem and Ramdas Pophale) SiO2 
 PCOD8046674
Probable space group: P 21
;
_chemical_formula_sum "Si O2"
_cell_formula_units_Z 16
_cell_length_a 5.522292
_cell_length_b 7.960817
_cell_length_c 18.572877
_cell_angle_alpha 90.000000
_cell_angle_beta 61.605622
_cell_angle_gamma 90.000000
_cell_volume 718.271164
_symmetry_space_group_name_H-M "P 21"
_symmetry_group_IT_number 4
_symmetry_cell_setting 'monoclinic'
loop_
_space_group_symop_operation_xyz
x,y,z
-x,1/2+y,-z
loop_
_atom_site_type_symbol
_atom_site_label
_atom_site_fract_x
_atom_site_fract_y
_atom_site_fract_z
Si Si1 0.898805 0.493040 0.206182
Si Si2 0.141698 0.002960 0.550747
Si Si3 0.739249 0.686791 0.838797
Si Si4 0.265936 0.809881 0.184196
Si Si5 0.295224 0.661014 0.480613
Si Si6 0.307493 0.179652 0.985237
Si Si7 0.781597 0.356295 0.077017
Si Si8 0.358992 0.648042 0.315028
O O1 0.921881 0.475625 0.116838
O O2 0.582471 0.498609 0.276673
O O3 0.043170 0.326801 0.219222
O O4 0.030034 0.671883 0.208398
O O5 0.181517 0.804317 0.548730
O O6 0.449467 0.078530 0.512755
O O7 0.969323 0.041365 0.500575
O O8 0.949270 0.064402 0.644639
O O9 0.843909 0.502117 0.801069
O O10 0.440559 0.738502 0.849408
O O11 0.668578 0.700957 0.933314
O O12 0.483007 0.795038 0.088982
O O13 0.400747 0.779486 0.244021
O O14 0.400084 0.734441 0.388004
O O15 0.359439 0.984071 0.959381
O O16 0.001702 0.239530 0.005313
#
# Coordination Sequence:
#
# PCOD8046674 Si02
#       8
#     2   2   2   2   2   2   2   2
#     4  11  23  45  63  93 136 180 227 293 355 418
#     4  10  22  44  74 113 143 184 231 281 349 432
#     4  11  25  40  65  94 131 180 245 290 356 421
#     4  12  24  43  68  95 136 184 233 301 349 419
#     4  10  22  43  77 106 146 183 229 282 347 432
#     4  11  23  36  64  92 129 178 239 296 353 412
#     4  11  23  40  61  94 126 176 234 295 357 417
#     4  10  24  43  72  99 143 185 224 284 366 409
#
# _framework density 22.27571
#
# number of rings (size 3 to 8) (size 9 to 14) (size 15 to 20)
#    0.750    0.500    2.500    3.000    5.250    2.000 
#    0.000    6.250    0.000    0.000    0.000    0.000 
#    0.000    0.000    0.000    0.000    0.000    0.000 
#
# Total GULP energy -198219.184620 kJ/mol
# GULP energy per Si atom -12388.699039 kJ/mol
# Density = 2.222501 g / cm^3
# Si number density = 22.275710 Si / 1000 Ang^3
#
#
#
# Elastic Constant Matrix: (Units=GPa)
#
#
# Indices 1 2 3 4 5 6 
#
# 1 103.8449 37.9137 7.9796 0.0000 -25.5422 0.0000
# 2 37.9137 144.5265 18.5898 0.0000 -21.7462 0.0000
# 3 7.9796 18.5898 46.6607 0.0000 -7.3538 0.0000
# 4 0.0000 0.0000 0.0000 24.5588 0.0000 -4.3206
# 5 -25.5422 -21.7462 -7.3538 0.0000 29.6486 0.0000
# 6 0.0000 0.0000 0.0000 -4.3206 0.0000 35.4806
#
#
#
# Elastic Compliance Matrix: (Units=1/GPa)
#
#
# Indices 1 2 3 4 5 6 
#
# 1 0.012662 -0.001898 0.000094 0.000000 0.009539 0.000000
# 2 -0.001898 0.008304 -0.002374 0.000000 0.003867 0.000000
# 3 0.000094 -0.002374 0.022999 0.000000 0.004044 0.000000
# 4 0.000000 0.000000 0.000000 0.041610 0.000000 0.005067
# 5 0.009539 0.003867 0.004044 0.000000 0.045785 0.000000
# 6 0.000000 0.000000 0.000000 0.005067 0.000000 0.028801
#
#
# Mechanical properties :
#
#
# Convention : Reuss Voigt Hill
#
# Bulk Modulus (GPa) = 28.08375 47.11090 37.59733
# Shear Modulus (GPa) = 27.71803 33.30754 30.51279
#
# Velocity S-wave (km/s) = 3.53131 3.87103 3.70507
# Velocity P-wave (km/s) = 5.40940 6.41675 5.93449
#
# Compressibility (1/GPa) = 0.03560778
#
# Stress axis : x y z
#
# Youngs Moduli (GPa) = 78.97701 120.41870 43.48102
#
# Poissons Ratio (x) = 0.22861 -0.00410
# Poissons Ratio (y) = 0.14993 0.10324
# Poissons Ratio (z) = -0.00745 0.28593
#
# Static dielectric constant tensor:
#      x y z
#    x 4.173680 0.000000 -0.140890 
#    y 0.000000 3.903230 0.000000 
#    z -0.140890 0.000000 3.770800 
# 
# 
# High freq. dielectric constant tensor:
#      x y z
#    x 1.886680 0.000000 -0.008250 
#    y 0.000000 1.864530 0.000000 
#    z -0.008250 0.000000 1.854510 
# 
# From -- ./inp_files/15513.got.cif
#   From: 2010.03.12/outbox.cif.g09.slc.cpg/sg4_8_cif.got.tgz:15513.got - 2010.03.31 09:31:35.
