data_PCOD8046663
_publ_section_title
;
Structure prediction by ZEFSAII (Michael W. Deem and Ramdas Pophale) SiO2 
 PCOD8046663
Probable space group: P 21
;
_chemical_formula_sum "Si O2"
_cell_formula_units_Z 16
_cell_length_a 30.830385
_cell_length_b 5.276456
_cell_length_c 24.065384
_cell_angle_alpha 90.000000
_cell_angle_beta 169.637335
_cell_angle_gamma 90.000000
_cell_volume 704.194424
_symmetry_space_group_name_H-M "P 21"
_symmetry_group_IT_number 4
_symmetry_cell_setting 'monoclinic'
loop_
_space_group_symop_operation_xyz
x,y,z
-x,1/2+y,-z
loop_
_atom_site_type_symbol
_atom_site_label
_atom_site_fract_x
_atom_site_fract_y
_atom_site_fract_z
Si Si1 0.022711 0.126690 0.779505
Si Si2 0.336187 0.015168 0.700086
Si Si3 0.362634 0.608573 0.341705
Si Si4 0.985676 0.274263 0.332366
Si Si5 0.108204 0.252043 0.304398
Si Si6 0.464453 0.718812 0.589939
Si Si7 0.528984 0.698618 0.335008
Si Si8 0.095441 0.471103 0.589882
O O1 0.764514 0.233981 0.434509
O O2 0.087344 0.931392 0.813145
O O3 0.259817 0.306027 0.078824
O O4 0.001630 0.024305 0.816268
O O5 0.217727 0.165603 0.500687
O O6 0.621232 0.024959 0.055166
O O7 0.230290 0.115864 0.626343
O O8 0.491479 0.335530 0.504683
O O9 0.312449 0.696860 0.341716
O O10 0.105152 0.573821 0.986838
O O11 0.015868 0.437701 0.426108
O O12 0.736176 0.115271 0.023222
O O13 0.318440 0.276469 0.525850
O O14 0.454702 0.445702 0.606211
O O15 0.358887 0.950236 0.493549
O O16 0.962425 0.717136 0.447811
#
# Coordination Sequence:
#
# PCOD8046663 Si02
#       8
#     2   2   2   2   2   2   2   2
#     4  10  22  43  70 100 134 186 245 284 341 432
#     4  11  25  45  77  98 144 186 249 285 357 432
#     4  12  25  42  73 101 141 182 243 294 348 420
#     4  10  25  44  70 102 138 188 236 288 355 428
#     4  11  26  43  70 106 136 193 234 301 357 422
#     4  11  23  44  66 102 140 185 229 293 350 420
#     4  11  25  43  69  99 146 180 231 292 364 421
#     4  12  31  48  73 110 151 184 235 305 366 421
#
# _framework density 22.720998000000002
#
# number of rings (size 3 to 8) (size 9 to 14) (size 15 to 20)
#    0.000    1.000    2.500    2.250   12.250    2.000 
#    0.000    0.000    0.000    0.000    0.000    0.000 
#    0.000    0.000    0.000    0.000    0.000    0.000 
#
# Total GULP energy -198231.478253 kJ/mol
# GULP energy per Si atom -12389.467391 kJ/mol
# Density = 2.266928 g / cm^3
# Si number density = 22.720998 Si / 1000 Ang^3
#
#
#
# Elastic Constant Matrix: (Units=GPa)
#
#
# Indices 1 2 3 4 5 6 
#
# 1 150.4939 43.0481 89.3354 0.0000 10.9299 0.0000
# 2 43.0481 111.1627 61.5965 0.0000 5.0061 0.0000
# 3 89.3354 61.5965 300.6122 0.0000 0.0791 0.0000
# 4 0.0000 0.0000 0.0000 18.2579 0.0000 -7.8452
# 5 10.9299 5.0061 0.0791 0.0000 31.5455 0.0000
# 6 0.0000 0.0000 0.0000 -7.8452 0.0000 20.3094
#
#
#
# Elastic Compliance Matrix: (Units=1/GPa)
#
#
# Indices 1 2 3 4 5 6 
#
# 1 0.008714 -0.002052 -0.002169 0.000000 -0.002688 0.000000
# 2 -0.002052 0.010713 -0.001585 0.000000 -0.000985 0.000000
# 3 -0.002169 -0.001585 0.004296 0.000000 0.000992 0.000000
# 4 0.000000 0.000000 0.000000 0.065671 0.000000 0.025368
# 5 -0.002688 -0.000985 0.000992 0.000000 0.032786 0.000000
# 6 0.000000 0.000000 0.000000 0.025368 0.000000 0.059037
#
#
# Mechanical properties :
#
#
# Convention : Reuss Voigt Hill
#
# Bulk Modulus (GPa) = 82.56452 105.58097 94.07275
# Shear Modulus (GPa) = 25.39807 38.57515 31.98661
#
# Velocity S-wave (km/s) = 3.34701 4.12488 3.75614
# Velocity P-wave (km/s) = 7.16617 8.32199 7.76561
#
# Compressibility (1/GPa) = 0.01211174
#
# Stress axis : x y z
#
# Youngs Moduli (GPa) = 114.75460 93.34334 232.80089
#
# Poissons Ratio (x) = 0.19154 0.50483
# Poissons Ratio (y) = 0.23547 0.36901
# Poissons Ratio (z) = 0.24885 0.14796
#
# Static dielectric constant tensor:
#      x y z
#    x 4.313730 0.000000 0.233130 
#    y 0.000000 3.526830 0.000000 
#    z 0.233130 0.000000 4.291670 
# 
# 
# High freq. dielectric constant tensor:
#      x y z
#    x 1.908730 0.000000 0.002790 
#    y 0.000000 1.891130 0.000000 
#    z 0.002790 0.000000 1.896880 
# 
# From -- ./inp_files/16251.got.cif
#   From: 2010.03.12/outbox.cif.g09.slc.cpg/sg4_9_cif.got.tgz:16251.got - 2010.03.31 09:31:35.
