data_PCOD8046450
_publ_section_title
;
Structure prediction by ZEFSAII (Michael W. Deem and Ramdas Pophale) SiO2 
 PCOD8046450
Probable space group: P 21
;
_chemical_formula_sum "Si O2"
_cell_formula_units_Z 16
_cell_length_a 12.108974
_cell_length_b 8.966080
_cell_length_c 10.066223
_cell_angle_alpha 90.000000
_cell_angle_beta 143.063308
_cell_angle_gamma 90.000000
_cell_volume 656.752888
_symmetry_space_group_name_H-M "P 21"
_symmetry_group_IT_number 4
_symmetry_cell_setting 'monoclinic'
loop_
_space_group_symop_operation_xyz
x,y,z
-x,1/2+y,-z
loop_
_atom_site_type_symbol
_atom_site_label
_atom_site_fract_x
_atom_site_fract_y
_atom_site_fract_z
Si Si1 0.919441 0.425040 0.555310
Si Si2 0.612615 0.895852 0.355263
Si Si3 0.711702 0.331962 0.810510
Si Si4 0.590545 0.527346 0.084561
Si Si5 0.322954 0.335351 0.960161
Si Si6 0.800360 0.664206 0.905967
Si Si7 0.797654 0.184103 0.623406
Si Si8 0.079314 0.207987 0.268012
O O1 0.804334 0.487130 0.319438
O O2 0.810162 0.279826 0.500948
O O3 0.930214 0.539302 0.689750
O O4 0.126127 0.384299 0.708960
O O5 0.486453 0.784708 0.322922
O O6 0.803099 0.805998 0.513397
O O7 0.655702 0.051832 0.467684
O O8 0.499497 0.923076 0.113234
O O9 0.693301 0.510331 0.806290
O O10 0.723597 0.286651 0.670147
O O11 0.872244 0.266115 0.056610
O O12 0.588391 0.700251 0.041324
O O13 0.461753 0.479186 0.087725
O O14 0.295613 0.284696 0.087878
O O15 0.817458 0.728881 0.774157
O O16 0.002937 0.620500 0.150918
#
# Coordination Sequence:
#
# PCOD8046450 Si02
#       8
#     2   2   2   2   2   2   2   2
#     4  11  26  46  74 100 140 192 243 295 359 423
#     4  12  26  42  69 104 147 191 239 298 353 423
#     4  11  23  42  74 106 143 185 234 295 373 428
#     4  12  27  48  70 105 146 194 251 291 345 425
#     4  11  27  49  73 103 144 192 241 305 355 422
#     4  10  21  47  71 103 144 183 229 300 369 425
#     4  10  23  43  71 107 140 184 234 304 363 432
#     4  11  25  45  72 110 142 181 243 294 365 440
#
# _framework density 24.362283999999999
#
# number of rings (size 3 to 8) (size 9 to 14) (size 15 to 20)
#    0.000    1.000    3.750    1.500    1.750    7.000 
#    0.000    0.000    0.000    0.000    0.000    0.000 
#    0.000    0.000    0.000    0.000    0.000    0.000 
#
# Total GULP energy -198351.901784 kJ/mol
# GULP energy per Si atom -12396.993861 kJ/mol
# Density = 2.430683 g / cm^3
# Si number density = 24.362284 Si / 1000 Ang^3
#
#
#
# Elastic Constant Matrix: (Units=GPa)
#
#
# Indices 1 2 3 4 5 6 
#
# 1 96.9086 46.0655 32.6308 0.0000 14.1861 0.0000
# 2 46.0655 96.0082 33.6124 0.0000 10.7079 0.0000
# 3 32.6308 33.6124 98.5672 0.0000 8.8663 0.0000
# 4 0.0000 0.0000 0.0000 23.8634 0.0000 3.4233
# 5 14.1861 10.7079 8.8663 0.0000 30.2329 0.0000
# 6 0.0000 0.0000 0.0000 3.4233 0.0000 44.6102
#
#
#
# Elastic Compliance Matrix: (Units=1/GPa)
#
#
# Indices 1 2 3 4 5 6 
#
# 1 0.014409 -0.005587 -0.002501 0.000000 -0.004049 0.000000
# 2 -0.005587 0.014281 -0.002877 0.000000 -0.001593 0.000000
# 3 -0.002501 -0.002877 0.012076 0.000000 -0.001349 0.000000
# 4 0.000000 0.000000 0.000000 0.042372 0.000000 -0.003252
# 5 -0.004049 -0.001593 -0.001349 0.000000 0.035936 0.000000
# 6 0.000000 0.000000 0.000000 -0.003252 0.000000 0.022666
#
#
# Mechanical properties :
#
#
# Convention : Reuss Voigt Hill
#
# Bulk Modulus (GPa) = 53.08744 57.34459 55.21601
# Shear Modulus (GPa) = 29.42056 31.68630 30.55343
#
# Velocity S-wave (km/s) = 3.47886 3.61034 3.54521
# Velocity P-wave (km/s) = 6.16237 6.40068 6.28266
#
# Compressibility (1/GPa) = 0.01883685
#
# Stress axis : x y z
#
# Youngs Moduli (GPa) = 69.39892 70.02175 82.81008
#
# Poissons Ratio (x) = 0.39118 0.20710
# Poissons Ratio (y) = 0.38770 0.23827
# Poissons Ratio (z) = 0.17356 0.20147
#
# Static dielectric constant tensor:
#      x y z
#    x 4.487080 0.000000 0.165620 
#    y 0.000000 4.332310 0.000000 
#    z 0.165620 0.000000 4.432710 
# 
# 
# High freq. dielectric constant tensor:
#      x y z
#    x 1.965320 0.000000 0.013600 
#    y 0.000000 1.963470 0.000000 
#    z 0.013600 0.000000 1.979310 
# 
# From -- ./inp_files/8099.got.cif
#   From: 2010.03.12/outbox.cif.g09.slc.cpg/sg4_5_cif.got.tgz:8099.got - 2010.03.31 09:31:35.
