data_PCOD8046590
_publ_section_title
;
Structure prediction by ZEFSAII (Michael W. Deem and Ramdas Pophale) SiO2 
 PCOD8046590
Probable space group: P 21
;
_chemical_formula_sum "Si O2"
_cell_formula_units_Z 12
_cell_length_a 7.708680
_cell_length_b 12.315775
_cell_length_c 5.355862
_cell_angle_alpha 90.000000
_cell_angle_beta 84.184756
_cell_angle_gamma 90.000000
_cell_volume 505.860070
_symmetry_space_group_name_H-M "P 21"
_symmetry_group_IT_number 4
_symmetry_cell_setting 'monoclinic'
loop_
_space_group_symop_operation_xyz
x,y,z
-x,1/2+y,-z
loop_
_atom_site_type_symbol
_atom_site_label
_atom_site_fract_x
_atom_site_fract_y
_atom_site_fract_z
Si Si1 0.293493 0.279010 0.907368
Si Si2 0.517492 0.407290 0.534245
Si Si3 0.488194 0.106842 0.171988
Si Si4 0.257245 0.488610 0.205709
Si Si5 0.226418 0.757432 0.725816
Si Si6 0.044115 0.696782 0.257460
O O1 0.472011 0.310305 0.735771
O O2 0.162076 0.213930 0.745818
O O3 0.347229 0.198212 0.123479
O O4 0.205702 0.389209 0.029341
O O5 0.603680 0.511038 0.658312
O O6 0.326290 0.437683 0.453413
O O7 0.657494 0.367091 0.310157
O O8 0.643176 0.155872 0.319429
O O9 0.576257 0.056921 0.913002
O O10 0.090692 0.568172 0.259229
O O11 0.094147 0.753375 0.511744
O O12 0.133180 0.756589 0.007394
#
# Coordination Sequence:
#
# PCOD8046590 Si02
#       6
#     2   2   2   2   2   2
#     4  11  25  43  70 102 143 182 231 294 354 409
#     4  11  22  42  74  98 131 191 246 280 337 424
#     4  10  22  41  69 100 133 183 240 288 333 419
#     4  10  22  43  67  99 139 185 235 286 346 415
#     4  11  23  44  68  97 138 182 230 285 344 412
#     4  11  26  45  66 104 146 177 222 297 360 405
#
# _framework density 23.721973999999999
#
# number of rings (size 3 to 8) (size 9 to 14) (size 15 to 20)
#    0.000    1.333    3.333    2.000    4.667    1.333 
#    0.000    0.000    0.000    0.000    0.000    0.000 
#    0.000    0.000    0.000    0.000    0.000    0.000 
#
# Total GULP energy -148784.676876 kJ/mol
# GULP energy per Si atom -12398.723073 kJ/mol
# Density = 2.366798 g / cm^3
# Si number density = 23.721974 Si / 1000 Ang^3
#
#
#
# Elastic Constant Matrix: (Units=GPa)
#
#
# Indices 1 2 3 4 5 6 
#
# 1 67.9024 31.2937 13.2768 0.0000 29.3488 0.0000
# 2 31.2937 106.0558 19.3246 0.0000 7.6862 0.0000
# 3 13.2768 19.3246 94.0662 0.0000 20.5566 0.0000
# 4 0.0000 0.0000 0.0000 36.7148 0.0000 10.6856
# 5 29.3488 7.6862 20.5566 0.0000 33.5563 0.0000
# 6 0.0000 0.0000 0.0000 10.6856 0.0000 36.9093
#
#
#
# Elastic Compliance Matrix: (Units=1/GPa)
#
#
# Indices 1 2 3 4 5 6 
#
# 1 0.028083 -0.007020 0.002880 0.000000 -0.024718 0.000000
# 2 -0.007020 0.011590 -0.002484 0.000000 0.005007 0.000000
# 3 0.002880 -0.002484 0.012886 0.000000 -0.009844 0.000000
# 4 0.000000 0.000000 0.000000 0.029743 0.000000 -0.008611
# 5 -0.024718 0.005007 -0.009844 0.000000 0.056303 0.000000
# 6 0.000000 0.000000 0.000000 -0.008611 0.000000 0.029586
#
#
# Mechanical properties :
#
#
# Convention : Reuss Voigt Hill
#
# Bulk Modulus (GPa) = 25.43835 43.97940 34.70888
# Shear Modulus (GPa) = 25.70132 35.04470 30.37301
#
# Velocity S-wave (km/s) = 3.29514 3.84775 3.58211
# Velocity P-wave (km/s) = 5.02235 6.19031 5.63667
#
# Compressibility (1/GPa) = 0.03931072
#
# Stress axis : x y z
#
# Youngs Moduli (GPa) = 35.60922 86.28040 77.60424
#
# Poissons Ratio (x) = 0.60566 -0.22351
# Poissons Ratio (y) = 0.24997 0.19280
# Poissons Ratio (z) = -0.10256 0.21435
#
# Static dielectric constant tensor:
#      x y z
#    x 3.815810 0.000000 0.108020 
#    y 0.000000 4.459860 0.000000 
#    z 0.108020 0.000000 4.171220 
# 
# 
# High freq. dielectric constant tensor:
#      x y z
#    x 1.901750 0.000000 0.014100 
#    y 0.000000 1.950000 0.000000 
#    z 0.014100 0.000000 1.945710 
# 
# From -- ./inp_files/1095.got.cif
#   From: 2010.03.12/outbox.cif.g09.slc.cpg/sg4_1_cif.got.tgz:1095.got - 2010.03.31 09:31:35.
