data_PCOD8046509
_publ_section_title
;
Structure prediction by ZEFSAII (Michael W. Deem and Ramdas Pophale) SiO2 
 PCOD8046509
Probable space group: P 21
;
_chemical_formula_sum "Si O2"
_cell_formula_units_Z 14
_cell_length_a 9.212208
_cell_length_b 8.420977
_cell_length_c 12.519402
_cell_angle_alpha 90.000000
_cell_angle_beta 136.525876
_cell_angle_gamma 90.000000
_cell_volume 668.213471
_symmetry_space_group_name_H-M "P 21"
_symmetry_group_IT_number 4
_symmetry_cell_setting 'monoclinic'
loop_
_space_group_symop_operation_xyz
x,y,z
-x,1/2+y,-z
loop_
_atom_site_type_symbol
_atom_site_label
_atom_site_fract_x
_atom_site_fract_y
_atom_site_fract_z
Si Si1 0.990344 0.379260 0.253638
Si Si2 0.248539 0.938986 0.324690
Si Si3 0.378927 0.215769 0.548732
Si Si4 0.538968 0.165036 0.860588
Si Si5 0.459243 0.861941 0.950362
Si Si6 0.889686 0.723121 0.124564
Si Si7 0.009832 0.171691 0.063657
O O1 0.782060 0.298471 0.197119
O O2 0.945652 0.565018 0.218665
O O3 0.186757 0.339356 0.434294
O O4 0.043450 0.316927 0.163332
O O5 0.408783 0.801299 0.376439
O O6 0.033736 0.859627 0.257357
O O7 0.347907 0.054160 0.466087
O O8 0.181290 0.036553 0.183098
O O9 0.388790 0.165547 0.677686
O O10 0.466369 0.042049 0.913643
O O11 0.519966 0.338585 0.908527
O O12 0.770876 0.110852 0.948179
O O13 0.640438 0.758496 0.991157
O O14 0.957729 0.725791 0.038449
#
# Coordination Sequence:
#
# PCOD8046509 Si02
#       7
#     2   2   2   2   2   2   2
#     4  10  24  43  62  98 139 173 217 274 332 410
#     4  11  23  41  66 101 131 171 218 280 331 395
#     4  11  25  43  66  98 144 172 214 273 346 396
#     4  11  23  45  66  95 135 171 227 274 330 394
#     4  11  24  43  67  97 127 179 225 278 321 395
#     4  12  21  40  71  98 127 175 231 273 327 385
#     4  10  22  39  70  97 125 173 230 280 317 379
#
# _framework density 20.951388000000001
#
# number of rings (size 3 to 8) (size 9 to 14) (size 15 to 20)
#    0.000    1.143    4.286    1.714    2.000    1.143 
#    2.571    2.857    0.000    0.000    0.000    0.000 
#    0.000    0.000    0.000    0.000    0.000    0.000 
#
# Total GULP energy -173488.759679 kJ/mol
# GULP energy per Si atom -12392.054263 kJ/mol
# Density = 2.090370 g / cm^3
# Si number density = 20.951388 Si / 1000 Ang^3
#
#
#
# Elastic Constant Matrix: (Units=GPa)
#
#
# Indices 1 2 3 4 5 6 
#
# 1 123.4568 36.7382 55.9218 0.0000 8.5724 0.0000
# 2 36.7382 106.3668 51.6154 0.0000 -3.3280 0.0000
# 3 55.9218 51.6154 134.6708 0.0000 -4.1510 0.0000
# 4 0.0000 0.0000 0.0000 33.1575 0.0000 7.8078
# 5 8.5724 -3.3280 -4.1510 0.0000 34.4949 0.0000
# 6 0.0000 0.0000 0.0000 7.8078 0.0000 32.3316
#
#
#
# Elastic Compliance Matrix: (Units=1/GPa)
#
#
# Indices 1 2 3 4 5 6 
#
# 1 0.010609 -0.001941 -0.003763 0.000000 -0.003277 0.000000
# 2 -0.001941 0.011916 -0.003725 0.000000 0.001184 0.000000
# 3 -0.003763 -0.003725 0.010472 0.000000 0.001836 0.000000
# 4 0.000000 0.000000 0.000000 0.031978 0.000000 -0.007722
# 5 -0.003277 0.001184 0.001836 0.000000 0.030139 0.000000
# 6 0.000000 0.000000 0.000000 -0.007722 0.000000 0.032794
#
#
# Mechanical properties :
#
#
# Convention : Reuss Voigt Hill
#
# Bulk Modulus (GPa) = 70.71556 72.56059 71.63808
# Shear Modulus (GPa) = 33.00779 34.67806 33.84292
#
# Velocity S-wave (km/s) = 3.97350 4.07279 4.02345
# Velocity P-wave (km/s) = 7.40790 7.53822 7.47335
#
# Compressibility (1/GPa) = 0.01414116
#
# Stress axis : x y z
#
# Youngs Moduli (GPa) = 94.25531 83.91843 95.49212
#
# Poissons Ratio (x) = 0.16290 0.35930
# Poissons Ratio (y) = 0.18296 0.35567
# Poissons Ratio (z) = 0.35464 0.31257
#
# Static dielectric constant tensor:
#      x y z
#    x 3.837290 0.000000 0.256240 
#    y 0.000000 3.889400 0.000000 
#    z 0.256240 0.000000 3.891740 
# 
# 
# High freq. dielectric constant tensor:
#      x y z
#    x 1.820670 0.000000 0.020240 
#    y 0.000000 1.823570 0.000000 
#    z 0.020240 0.000000 1.816000 
# 
# From -- ./inp_files/5351.got.cif
#   From: 2010.03.12/outbox.cif.g09.slc.cpg/sg4_3_cif.got.tgz:5351.got - 2010.03.31 09:31:35.
