data_PCOD8046971
_publ_section_title
;
Structure prediction by ZEFSAII (Michael W. Deem and Ramdas Pophale) SiO2 
 PCOD8046971
Probable space group: P 21
;
_chemical_formula_sum "Si O2"
_cell_formula_units_Z 14
_cell_length_a 5.371261
_cell_length_b 8.735205
_cell_length_c 16.128772
_cell_angle_alpha 90.000000
_cell_angle_beta 43.886526
_cell_angle_gamma 90.000000
_cell_volume 524.601451
_symmetry_space_group_name_H-M "P 21"
_symmetry_group_IT_number 4
_symmetry_cell_setting 'monoclinic'
loop_
_space_group_symop_operation_xyz
x,y,z
-x,1/2+y,-z
loop_
_atom_site_type_symbol
_atom_site_label
_atom_site_fract_x
_atom_site_fract_y
_atom_site_fract_z
Si Si1 0.626986 0.075110 0.416422
Si Si2 0.092102 0.826476 0.550143
Si Si3 0.155572 0.552179 0.806976
Si Si4 0.646488 0.292889 0.960363
Si Si5 0.170218 0.830918 0.350071
Si Si6 0.649535 0.642926 0.132366
Si Si7 0.518462 0.301255 0.167537
O O1 0.606343 0.204477 0.492233
O O2 0.780088 0.148075 0.293825
O O3 0.231299 0.000428 0.512856
O O4 0.900092 0.935916 0.365257
O O5 0.981580 0.780623 0.482777
O O6 0.777767 0.803195 0.690733
O O7 0.463590 0.423963 0.723522
O O8 0.210120 0.662026 0.874173
O O9 0.766175 0.466959 0.906716
O O10 0.429837 0.210517 0.939990
O O11 0.008369 0.214056 0.905537
O O12 0.377308 0.282823 0.105716
O O13 0.284681 0.679498 0.271641
O O14 0.728121 0.462157 0.114230
#
# Coordination Sequence:
#
# PCOD8046971 Si02
#       7
#     2   2   2   2   2   2   2
#     4  11  24  45  72 101 146 197 246 312 379 469
#     4  11  28  40  71 108 144 193 250 311 387 455
#     4  10  23  46  72 102 143 202 249 307 391 450
#     4  11  26  52  74 108 155 206 249 320 392 459
#     4  10  23  46  67  99 146 191 239 314 384 454
#     4  11  27  48  78 109 151 200 260 319 387 453
#     4  12  27  45  74 115 147 193 263 323 370 472
#
# _framework density 26.686927000000001
#
# number of rings (size 3 to 8) (size 9 to 14) (size 15 to 20)
#    0.000    1.143    2.857    0.857    6.000    6.857 
#    0.000    0.000    0.000    0.000    0.000    0.000 
#    0.000    0.000    0.000    0.000    0.000    0.000 
#
# Total GULP energy -173516.702560 kJ/mol
# GULP energy per Si atom -12394.050183 kJ/mol
# Density = 2.662619 g / cm^3
# Si number density = 26.686927 Si / 1000 Ang^3
#
#
#
# Elastic Constant Matrix: (Units=GPa)
#
#
# Indices 1 2 3 4 5 6 
#
# 1 45.7914 -0.1730 14.2931 0.0000 4.3682 0.0000
# 2 -0.1730 104.3694 20.9967 0.0000 4.7372 0.0000
# 3 14.2931 20.9967 157.3315 0.0000 11.0009 0.0000
# 4 0.0000 0.0000 0.0000 40.3272 0.0000 10.9676
# 5 4.3682 4.7372 11.0009 0.0000 27.9215 0.0000
# 6 0.0000 0.0000 0.0000 10.9676 0.0000 29.9107
#
#
#
# Elastic Compliance Matrix: (Units=1/GPa)
#
#
# Indices 1 2 3 4 5 6 
#
# 1 0.022720 0.000558 -0.001937 0.000000 -0.002886 0.000000
# 2 0.000558 0.009898 -0.001283 0.000000 -0.001261 0.000000
# 3 -0.001937 -0.001283 0.006856 0.000000 -0.002180 0.000000
# 4 0.000000 0.000000 0.000000 0.027544 0.000000 -0.010100
# 5 -0.002886 -0.001261 -0.002180 0.000000 0.037339 0.000000
# 6 0.000000 0.000000 0.000000 -0.010100 0.000000 0.037136
#
#
# Mechanical properties :
#
#
# Convention : Reuss Voigt Hill
#
# Bulk Modulus (GPa) = 29.28284 41.96954 35.62619
# Shear Modulus (GPa) = 31.60558 37.79026 34.69792
#
# Velocity S-wave (km/s) = 3.44511 3.76714 3.60972
# Velocity P-wave (km/s) = 5.17896 5.88919 5.54546
#
# Compressibility (1/GPa) = 0.03414969
#
# Stress axis : x y z
#
# Youngs Moduli (GPa) = 44.01383 101.03344 145.86415
#
# Poissons Ratio (x) = -0.05641 0.28251
# Poissons Ratio (y) = -0.02457 0.18721
# Poissons Ratio (z) = 0.08524 0.12967
#
# Static dielectric constant tensor:
#      x y z
#    x 4.629390 0.000000 0.250650 
#    y 0.000000 5.123560 0.000000 
#    z 0.250650 0.000000 5.406390 
# 
# 
# High freq. dielectric constant tensor:
#      x y z
#    x 2.062780 0.000000 0.006820 
#    y 0.000000 2.076240 0.000000 
#    z 0.006820 0.000000 2.097410 
# 
# From -- ./inp_files/2429.got.cif
#   From: 2010.03.12/outbox.cif.g09.slc.cpg/sg4_2_cif.got.tgz:2429.got - 2010.03.31 09:31:35.
