data_PCOD8046466
_publ_section_title
;
Structure prediction by ZEFSAII (Michael W. Deem and Ramdas Pophale) SiO2 
 PCOD8046466
Probable space group: P 21
;
_chemical_formula_sum "Si O2"
_cell_formula_units_Z 12
_cell_length_a 12.205470
_cell_length_b 5.134666
_cell_length_c 9.079856
_cell_angle_alpha 90.000000
_cell_angle_beta 90.680169
_cell_angle_gamma 90.000000
_cell_volume 569.003667
_symmetry_space_group_name_H-M "P 21"
_symmetry_group_IT_number 4
_symmetry_cell_setting 'monoclinic'
loop_
_space_group_symop_operation_xyz
x,y,z
-x,1/2+y,-z
loop_
_atom_site_type_symbol
_atom_site_label
_atom_site_fract_x
_atom_site_fract_y
_atom_site_fract_z
Si Si1 0.107925 0.410050 0.811578
Si Si2 0.689779 0.099879 0.320516
Si Si3 0.566171 0.982925 0.037335
Si Si4 0.206223 0.431003 0.116574
Si Si5 0.225250 0.097814 0.583514
Si Si6 0.862780 0.446416 0.723302
O O1 0.195883 0.631443 0.768758
O O2 0.988229 0.502421 0.764187
O O3 0.145654 0.146067 0.724566
O O4 0.115273 0.381703 0.988212
O O5 0.589456 0.035175 0.210285
O O6 0.677778 0.384375 0.391279
O O7 0.706674 0.868112 0.442295
O O8 0.480895 0.192801 0.975322
O O9 0.676399 0.004725 0.945717
O O10 0.168695 0.655722 0.228461
O O11 0.215761 0.157137 0.200874
O O12 0.150044 0.992656 0.450787
#
# Coordination Sequence:
#
# PCOD8046466 Si02
#       6
#     2   2   2   2   2   2
#     4   9  24  36  64  86 131 171 214 233 298 377
#     4   9  21  37  61  91 117 156 220 247 296 359
#     4  11  22  41  71  90 113 157 219 268 313 384
#     4  11  25  40  59  96 126 158 206 273 324 351
#     4  10  22  37  61  87 133 169 211 235 297 379
#     4  12  24  37  62  92 138 163 202 254 314 368
#
# _framework density 21.089493000000001
#
# number of rings (size 3 to 8) (size 9 to 14) (size 15 to 20)
#    1.000    0.667    0.000    4.000    9.333    0.000 
#    0.000    0.000    0.000   20.000    0.000    0.000 
#    0.000    0.000    0.000    0.000    0.000    0.000 
#
# Total GULP energy -148690.716047 kJ/mol
# GULP energy per Si atom -12390.893004 kJ/mol
# Density = 2.104149 g / cm^3
# Si number density = 21.089493 Si / 1000 Ang^3
#
#
#
# Elastic Constant Matrix: (Units=GPa)
#
#
# Indices 1 2 3 4 5 6 
#
# 1 70.3954 9.9063 22.9339 0.0000 21.3634 0.0000
# 2 9.9063 126.7245 41.9625 0.0000 7.3839 0.0000
# 3 22.9339 41.9625 92.6745 0.0000 17.0958 0.0000
# 4 0.0000 0.0000 0.0000 39.0398 0.0000 2.4282
# 5 21.3634 7.3839 17.0958 0.0000 21.2040 0.0000
# 6 0.0000 0.0000 0.0000 2.4282 0.0000 29.7512
#
#
#
# Elastic Compliance Matrix: (Units=1/GPa)
#
#
# Indices 1 2 3 4 5 6 
#
# 1 0.020636 0.000027 -0.001506 0.000000 -0.019587 0.000000
# 2 0.000027 0.009284 -0.004239 0.000000 0.000158 0.000000
# 3 -0.001506 -0.004239 0.014720 0.000000 -0.008875 0.000000
# 4 0.000000 0.000000 0.000000 0.025746 0.000000 -0.002101
# 5 -0.019587 0.000158 -0.008875 0.000000 0.073995 0.000000
# 6 0.000000 0.000000 0.000000 -0.002101 0.000000 0.033784
#
#
# Mechanical properties :
#
#
# Convention : Reuss Voigt Hill
#
# Bulk Modulus (GPa) = 30.11773 48.82218 39.46995
# Shear Modulus (GPa) = 24.91671 32.33179 28.62425
#
# Velocity S-wave (km/s) = 3.44099 3.91970 3.68812
# Velocity P-wave (km/s) = 5.48627 6.60951 6.07391
#
# Compressibility (1/GPa) = 0.03320303
#
# Stress axis : x y z
#
# Youngs Moduli (GPa) = 48.45799 107.71662 67.93603
#
# Poissons Ratio (x) = -0.00287 0.10229
# Poissons Ratio (y) = -0.00129 0.28801
# Poissons Ratio (z) = 0.07296 0.45665
#
# Static dielectric constant tensor:
#      x y z
#    x 3.479470 0.000000 0.202850 
#    y 0.000000 3.800360 0.000000 
#    z 0.202850 0.000000 3.787490 
# 
# 
# High freq. dielectric constant tensor:
#      x y z
#    x 1.801610 0.000000 0.024490 
#    y 0.000000 1.837820 0.000000 
#    z 0.024490 0.000000 1.817080 
# 
# From -- ./inp_files/7266.got.cif
#   From: 2010.03.12/outbox.cif.g09.slc.cpg/sg4_4_cif.got.tgz:7266.got - 2010.03.31 09:31:35.
