data_PCOD8046211
_publ_section_title
;
Structure prediction by ZEFSAII (Michael W. Deem and Ramdas Pophale) SiO2 
 PCOD8046211
Probable space group: P 21
;
_chemical_formula_sum "Si O2"
_cell_formula_units_Z 16
_cell_length_a 6.377775
_cell_length_b 10.361887
_cell_length_c 11.885659
_cell_angle_alpha 90.000000
_cell_angle_beta 118.351260
_cell_angle_gamma 90.000000
_cell_volume 691.257837
_symmetry_space_group_name_H-M "P 21"
_symmetry_group_IT_number 4
_symmetry_cell_setting 'monoclinic'
loop_
_space_group_symop_operation_xyz
x,y,z
-x,1/2+y,-z
loop_
_atom_site_type_symbol
_atom_site_label
_atom_site_fract_x
_atom_site_fract_y
_atom_site_fract_z
Si Si1 0.620291 0.294490 0.089569
Si Si2 0.405628 0.433536 0.236209
Si Si3 0.835274 0.832546 0.149413
Si Si4 0.911714 0.260885 0.576540
Si Si5 0.427868 0.177322 0.374597
Si Si6 0.928407 0.446518 0.005827
Si Si7 0.804791 0.544851 0.485680
Si Si8 0.547788 0.050885 0.187809
O O1 0.569436 0.407549 0.167761
O O2 0.702202 0.167543 0.175623
O O3 0.373625 0.254638 0.965017
O O4 0.825908 0.329342 0.054527
O O5 0.328841 0.298437 0.276528
O O6 0.552086 0.526028 0.356778
O O7 0.160911 0.502529 0.130728
O O8 0.997585 0.746206 0.272296
O O9 0.003281 0.899298 0.100824
O O10 0.699708 0.926388 0.201159
O O11 0.632475 0.230248 0.508850
O O12 0.940233 0.406456 0.531605
O O13 0.040123 0.151545 0.537107
O O14 0.232353 0.105188 0.400003
O O15 0.530031 0.068462 0.316798
O O16 0.717366 0.549677 0.935950
#
# Coordination Sequence:
#
# PCOD8046211 Si02
#       8
#     2   2   2   2   2   2   2   2
#     4   9  21  39  59  88 124 162 208 265 327 393
#     4   9  22  41  62  96 127 166 219 266 324 392
#     4  10  22  37  60  95 122 160 216 264 326 389
#     4  11  25  43  66  95 133 174 215 274 329 383
#     4  10  23  41  64  92 129 173 219 264 325 397
#     4  10  21  39  64  89 126 166 208 272 333 382
#     4  11  25  44  68  98 132 175 223 268 329 397
#     4  10  21  40  63  89 123 164 218 269 321 393
#
# _framework density 23.146208999999999
#
# number of rings (size 3 to 8) (size 9 to 14) (size 15 to 20)
#    0.000    2.000    0.000    1.500    0.000   18.000 
#    0.000    2.500    0.000    0.000    0.000    0.000 
#    0.000    0.000    0.000    0.000    0.000    0.000 
#
# Total GULP energy -198302.704902 kJ/mol
# GULP energy per Si atom -12393.919056 kJ/mol
# Density = 2.309353 g / cm^3
# Si number density = 23.146209 Si / 1000 Ang^3
#
#
#
# Elastic Constant Matrix: (Units=GPa)
#
#
# Indices 1 2 3 4 5 6 
#
# 1 66.9298 27.7496 26.0672 0.0000 -6.0211 0.0000
# 2 27.7496 75.8296 10.8840 0.0000 -6.0799 0.0000
# 3 26.0672 10.8840 113.6275 0.0000 0.1907 0.0000
# 4 0.0000 0.0000 0.0000 26.5025 0.0000 -4.7408
# 5 -6.0211 -6.0799 0.1907 0.0000 36.2808 0.0000
# 6 0.0000 0.0000 0.0000 -4.7408 0.0000 21.7463
#
#
#
# Elastic Compliance Matrix: (Units=1/GPa)
#
#
# Indices 1 2 3 4 5 6 
#
# 1 0.019240 -0.006321 -0.003812 0.000000 0.002154 0.000000
# 2 -0.006321 0.015634 -0.000050 0.000000 0.001571 0.000000
# 3 -0.003812 -0.000050 0.009681 0.000000 -0.000692 0.000000
# 4 0.000000 0.000000 0.000000 0.039263 0.000000 0.008560
# 5 0.002154 0.001571 -0.000692 0.000000 0.028187 0.000000
# 6 0.000000 0.000000 0.000000 0.008560 0.000000 0.047851
#
#
# Mechanical properties :
#
#
# Convention : Reuss Voigt Hill
#
# Bulk Modulus (GPa) = 41.34123 42.86538 42.10331
# Shear Modulus (GPa) = 26.55539 29.68499 28.12019
#
# Velocity S-wave (km/s) = 3.39084 3.58508 3.48931
# Velocity P-wave (km/s) = 5.76455 5.97467 5.87055
#
# Compressibility (1/GPa) = 0.02418893
#
# Stress axis : x y z
#
# Youngs Moduli (GPa) = 51.97453 63.96403 103.29342
#
# Poissons Ratio (x) = 0.40432 0.39376
# Poissons Ratio (y) = 0.32853 0.00517
# Poissons Ratio (z) = 0.19813 0.00320
#
# Static dielectric constant tensor:
#      x y z
#    x 4.008620 0.000000 0.050090 
#    y 0.000000 3.916210 0.000000 
#    z 0.050090 0.000000 4.498670 
# 
# 
# High freq. dielectric constant tensor:
#      x y z
#    x 1.908680 0.000000 0.000200 
#    y 0.000000 1.892660 0.000000 
#    z 0.000200 0.000000 1.935710 
# 
# From -- ./inp_files/3031.got.cif
#   From: 2010.03.12/outbox.cif.g09.slc.cpg/sg4_2_cif.got.tgz:3031.got - 2010.03.31 09:31:35.
