data_PCOD8046934
_publ_section_title
;
Structure prediction by ZEFSAII (Michael W. Deem and Ramdas Pophale) SiO2 
 PCOD8046934
Probable space group: P 21
;
_chemical_formula_sum "Si O2"
_cell_formula_units_Z 14
_cell_length_a 20.830679
_cell_length_b 5.111109
_cell_length_c 14.063306
_cell_angle_alpha 90.000000
_cell_angle_beta 22.121289
_cell_angle_gamma 90.000000
_cell_volume 563.832344
_symmetry_space_group_name_H-M "P 21"
_symmetry_group_IT_number 4
_symmetry_cell_setting 'monoclinic'
loop_
_space_group_symop_operation_xyz
x,y,z
-x,1/2+y,-z
loop_
_atom_site_type_symbol
_atom_site_label
_atom_site_fract_x
_atom_site_fract_y
_atom_site_fract_z
Si Si1 0.875684 0.062730 0.867719
Si Si2 0.115774 0.461080 0.609791
Si Si3 0.088943 0.330950 0.989970
Si Si4 0.085030 0.196260 0.342858
Si Si5 0.620256 0.037011 0.062282
Si Si6 0.244051 0.132015 0.597721
Si Si7 0.397241 0.743114 0.114025
O O1 0.032681 0.267253 0.645233
O O2 0.830646 0.024805 0.040816
O O3 0.940737 0.782390 0.733190
O O4 0.713833 0.163807 0.027527
O O5 0.246302 0.307158 0.500009
O O6 0.225533 0.686976 0.409054
O O7 0.961622 0.564307 0.887412
O O8 0.913490 0.434106 0.184895
O O9 0.228734 0.299900 0.715921
O O10 0.964662 0.398700 0.568649
O O11 0.283399 0.262797 0.096336
O O12 0.423284 0.977420 0.355315
O O13 0.644866 0.234778 0.940369
O O14 0.457813 0.029382 0.061102
#
# Coordination Sequence:
#
# PCOD8046934 Si02
#       7
#     2   2   2   2   2   2   2
#     4   9  25  41  65 101 132 182 233 284 359 418
#     4  11  23  44  69  97 133 183 232 289 352 435
#     4  11  23  43  73  92 135 189 238 292 357 424
#     4  10  23  44  69  99 145 191 225 283 359 429
#     4  10  24  45  66 103 145 174 238 294 358 419
#     4  11  22  47  66 102 133 181 243 292 355 418
#     4  12  26  44  70 108 141 184 233 296 356 429
#
# _framework density 24.830074
#
# number of rings (size 3 to 8) (size 9 to 14) (size 15 to 20)
#    0.857    0.571    2.857    1.714    6.000    1.143 
#    7.714    0.000    0.000    0.000    0.000    0.000 
#    0.000    0.000    0.000    0.000    0.000    0.000 
#
# Total GULP energy -173517.538045 kJ/mol
# GULP energy per Si atom -12394.109860 kJ/mol
# Density = 2.477356 g / cm^3
# Si number density = 24.830074 Si / 1000 Ang^3
#
#
#
# Elastic Constant Matrix: (Units=GPa)
#
#
# Indices 1 2 3 4 5 6 
#
# 1 163.1553 11.6706 50.2634 0.0000 -9.2720 0.0000
# 2 11.6706 25.3399 -3.0709 0.0000 -4.9705 0.0000
# 3 50.2634 -3.0709 121.0185 0.0000 -3.4126 0.0000
# 4 0.0000 0.0000 0.0000 33.3647 0.0000 1.7818
# 5 -9.2720 -4.9705 -3.4126 0.0000 36.3592 0.0000
# 6 0.0000 0.0000 0.0000 1.7818 0.0000 27.4719
#
#
#
# Elastic Compliance Matrix: (Units=1/GPa)
#
#
# Indices 1 2 3 4 5 6 
#
# 1 0.007415 -0.003578 -0.003139 0.000000 0.001107 0.000000
# 2 -0.003578 0.042449 0.002708 0.000000 0.005145 0.000000
# 3 -0.003139 0.002708 0.009649 0.000000 0.000475 0.000000
# 4 0.000000 0.000000 0.000000 0.030076 0.000000 -0.001951
# 5 0.001107 0.005145 0.000475 0.000000 0.028534 0.000000
# 6 0.000000 0.000000 0.000000 -0.001951 0.000000 0.036527
#
#
# Mechanical properties :
#
#
# Convention : Reuss Voigt Hill
#
# Bulk Modulus (GPa) = 19.41950 47.47109 33.44529
# Shear Modulus (GPa) = 27.80346 36.14919 31.97633
#
# Velocity S-wave (km/s) = 3.34990 3.81972 3.59249
# Velocity P-wave (km/s) = 4.77497 6.21398 5.54138
#
# Compressibility (1/GPa) = 0.05149464
#
# Stress axis : x y z
#
# Youngs Moduli (GPa) = 134.85886 23.55775 103.63529
#
# Poissons Ratio (x) = 0.08430 0.32535
# Poissons Ratio (y) = 0.48258 -0.28069
# Poissons Ratio (z) = 0.42337 -0.06381
#
# Static dielectric constant tensor:
#      x y z
#    x 4.832090 0.000000 -0.041130 
#    y 0.000000 4.117310 0.000000 
#    z -0.041130 0.000000 4.185400 
# 
# 
# High freq. dielectric constant tensor:
#      x y z
#    x 2.015310 0.000000 -0.003720 
#    y 0.000000 1.971210 0.000000 
#    z -0.003720 0.000000 1.964540 
# 
# From -- ./inp_files/13826.got.cif
#   From: 2010.03.12/outbox.cif.g09.slc.cpg/sg4_7_cif.got.tgz:13826.got - 2010.03.31 09:31:35.
