data_PCOD8046761
_publ_section_title
;
Structure prediction by ZEFSAII (Michael W. Deem and Ramdas Pophale) SiO2 
 PCOD8046761
Probable space group: P 21
;
_chemical_formula_sum "Si O2"
_cell_formula_units_Z 16
_cell_length_a 10.676641
_cell_length_b 9.643443
_cell_length_c 8.401488
_cell_angle_alpha 90.000000
_cell_angle_beta 47.692627
_cell_angle_gamma 90.000000
_cell_volume 639.716085
_symmetry_space_group_name_H-M "P 21"
_symmetry_group_IT_number 4
_symmetry_cell_setting 'monoclinic'
loop_
_space_group_symop_operation_xyz
x,y,z
-x,1/2+y,-z
loop_
_atom_site_type_symbol
_atom_site_label
_atom_site_fract_x
_atom_site_fract_y
_atom_site_fract_z
Si Si1 0.990013 0.771030 0.652110
Si Si2 0.158012 0.996134 0.293892
Si Si3 0.541232 0.012586 0.031785
Si Si4 0.763474 0.425703 0.113720
Si Si5 0.214105 0.665289 0.717335
Si Si6 0.765069 0.912282 0.109198
Si Si7 0.539162 0.790436 0.807374
Si Si8 0.390087 0.169948 0.565919
O O1 0.037314 0.895137 0.494683
O O2 0.149647 0.686797 0.591357
O O3 0.882120 0.659191 0.640770
O O4 0.885678 0.832606 0.886995
O O5 0.348813 0.958635 0.179681
O O6 0.126587 0.976189 0.130901
O O7 0.615681 0.992259 0.142960
O O8 0.548465 0.179339 0.992667
O O9 0.641136 0.909851 0.820597
O O10 0.854269 0.298543 0.125119
O O11 0.585580 0.371022 0.201401
O O12 0.728412 0.545873 0.271895
O O13 0.134392 0.528181 0.871642
O O14 0.416389 0.646298 0.545235
O O15 0.670260 0.811374 0.306642
O O16 0.643413 0.689684 0.596661
#
# Coordination Sequence:
#
# PCOD8046761 Si02
#       8
#     2   2   2   2   2   2   2   2
#     4  12  29  49  72 106 152 198 236 299 382 451
#     4  11  27  51  69 106 149 198 243 303 369 440
#     4  11  23  48  71 110 143 186 248 305 355 430
#     4  10  22  46  73 104 148 181 253 302 359 428
#     4  11  25  46  73 109 143 195 234 308 369 437
#     4  12  25  48  75 111 141 188 257 296 367 441
#     4  10  23  38  71 109 142 185 226 315 363 412
#     4  11  22  46  74 109 142 185 253 306 360 421
#
# _framework density 25.011094
#
# number of rings (size 3 to 8) (size 9 to 14) (size 15 to 20)
#    0.000    1.000    3.750    3.000    7.000    0.000 
#   15.750    0.000    0.000    0.000    0.000    0.000 
#    0.000    0.000    0.000    0.000    0.000    0.000 
#
# Total GULP energy -198326.288260 kJ/mol
# GULP energy per Si atom -12395.393016 kJ/mol
# Density = 2.495417 g / cm^3
# Si number density = 25.011094 Si / 1000 Ang^3
#
#
#
# Elastic Constant Matrix: (Units=GPa)
#
#
# Indices 1 2 3 4 5 6 
#
# 1 56.9066 28.7201 19.6480 0.0000 15.5011 0.0000
# 2 28.7201 140.3603 40.8352 0.0000 24.7887 0.0000
# 3 19.6480 40.8352 89.2178 0.0000 17.2845 0.0000
# 4 0.0000 0.0000 0.0000 58.4285 0.0000 16.5543
# 5 15.5011 24.7887 17.2845 0.0000 29.3812 0.0000
# 6 0.0000 0.0000 0.0000 16.5543 0.0000 34.2507
#
#
#
# Elastic Compliance Matrix: (Units=1/GPa)
#
#
# Indices 1 2 3 4 5 6 
#
# 1 0.021742 -0.002385 -0.002104 0.000000 -0.008221 0.000000
# 2 -0.002385 0.009293 -0.002768 0.000000 -0.004953 0.000000
# 3 -0.002104 -0.002768 0.013850 0.000000 -0.004702 0.000000
# 4 0.000000 0.000000 0.000000 0.019830 0.000000 -0.009585
# 5 -0.008221 -0.004953 -0.004702 0.000000 0.045318 0.000000
# 6 0.000000 0.000000 0.000000 -0.009585 0.000000 0.033829
#
#
# Mechanical properties :
#
#
# Convention : Reuss Voigt Hill
#
# Bulk Modulus (GPa) = 32.92684 51.65458 42.29071
# Shear Modulus (GPa) = 29.67359 37.56417 33.61888
#
# Velocity S-wave (km/s) = 3.44818 3.87964 3.67025
# Velocity P-wave (km/s) = 5.38950 6.38485 5.90817
#
# Compressibility (1/GPa) = 0.03037036
#
# Stress axis : x y z
#
# Youngs Moduli (GPa) = 45.99382 107.61094 72.20258
#
# Poissons Ratio (x) = 0.25663 0.15191
# Poissons Ratio (y) = 0.10969 0.19989
# Poissons Ratio (z) = 0.09677 0.29792
#
# Static dielectric constant tensor:
#      x y z
#    x 4.603860 0.000000 0.372660 
#    y 0.000000 4.983650 0.000000 
#    z 0.372660 0.000000 4.399470 
# 
# 
# High freq. dielectric constant tensor:
#      x y z
#    x 1.995440 0.000000 0.018210 
#    y 0.000000 2.025880 0.000000 
#    z 0.018210 0.000000 1.972220 
# 
# From -- ./inp_files/7997.got.cif
#   From: 2010.03.12/outbox.cif.g09.slc.cpg/sg4_4_cif.got.tgz:7997.got - 2010.03.31 09:31:35.
