data_PCOD8046522
_publ_section_title
;
Structure prediction by ZEFSAII (Michael W. Deem and Ramdas Pophale) SiO2 
 PCOD8046522
Probable space group: P 21
;
_chemical_formula_sum "Si O2"
_cell_formula_units_Z 16
_cell_length_a 17.900618
_cell_length_b 6.567711
_cell_length_c 6.579550
_cell_angle_alpha 90.000000
_cell_angle_beta 68.965298
_cell_angle_gamma 90.000000
_cell_volume 721.986250
_symmetry_space_group_name_H-M "P 21"
_symmetry_group_IT_number 4
_symmetry_cell_setting 'monoclinic'
loop_
_space_group_symop_operation_xyz
x,y,z
-x,1/2+y,-z
loop_
_atom_site_type_symbol
_atom_site_label
_atom_site_fract_x
_atom_site_fract_y
_atom_site_fract_z
Si Si1 0.919201 0.945110 0.443535
Si Si2 0.345195 0.822724 0.736385
Si Si3 0.917535 0.545304 0.217707
Si Si4 0.550616 0.324866 0.745068
Si Si5 0.211362 0.743012 0.542508
Si Si6 0.949994 0.746400 0.800501
Si Si7 0.663569 0.072978 0.871565
Si Si8 0.615196 0.657443 0.993298
O O1 0.946472 0.742235 0.306946
O O2 0.896286 0.881614 0.698640
O O3 0.845695 0.045104 0.390650
O O4 0.994767 0.094819 0.386118
O O5 0.422034 0.846063 0.515473
O O6 0.265757 0.770827 0.687430
O O7 0.340540 0.029076 0.874552
O O8 0.355929 0.635005 0.878608
O O9 0.842912 0.445631 0.411847
O O10 0.991907 0.392043 0.124406
O O11 0.894810 0.616666 0.009662
O O12 0.587370 0.118869 0.803452
O O13 0.455603 0.297096 0.843041
O O14 0.583111 0.518031 0.841448
O O15 0.263252 0.711012 0.287294
O O16 0.677878 0.828036 0.847317
#
# Coordination Sequence:
#
# PCOD8046522 Si02
#       8
#     2   2   2   2   2   2   2   2
#     4  11  23  40  68  96 133 173 213 274 329 386
#     4  10  25  42  64  96 134 168 226 270 320 404
#     4  11  23  41  69  97 134 168 216 274 327 387
#     4  10  22  40  63  99 131 165 221 276 335 381
#     4  10  26  44  61  97 136 182 213 263 330 402
#     4  11  22  40  65 103 130 164 220 275 326 379
#     4  10  23  45  64  92 135 172 219 271 325 397
#     4  11  22  38  68  96 129 176 214 285 328 384
#
# _framework density 22.161086999999998
#
# number of rings (size 3 to 8) (size 9 to 14) (size 15 to 20)
#    0.000    1.500    3.750    0.000    1.750    9.000 
#    0.000    0.000    0.000    0.000    0.000    0.000 
#    0.000    0.000    0.000    0.000    0.000    0.000 
#
# Total GULP energy -198290.878518 kJ/mol
# GULP energy per Si atom -12393.179907 kJ/mol
# Density = 2.211065 g / cm^3
# Si number density = 22.161087 Si / 1000 Ang^3
#
#
#
# Elastic Constant Matrix: (Units=GPa)
#
#
# Indices 1 2 3 4 5 6 
#
# 1 72.7581 37.1770 31.7723 0.0000 1.9541 0.0000
# 2 37.1770 141.0328 56.1991 0.0000 11.6203 0.0000
# 3 31.7723 56.1991 122.6438 0.0000 12.7358 0.0000
# 4 0.0000 0.0000 0.0000 34.3417 0.0000 4.1774
# 5 1.9541 11.6203 12.7358 0.0000 26.0312 0.0000
# 6 0.0000 0.0000 0.0000 4.1774 0.0000 14.2410
#
#
#
# Elastic Compliance Matrix: (Units=1/GPa)
#
#
# Indices 1 2 3 4 5 6 
#
# 1 0.016712 -0.003364 -0.002964 0.000000 0.001697 0.000000
# 2 -0.003364 0.009455 -0.003212 0.000000 -0.002397 0.000000
# 3 -0.002964 -0.003212 0.010769 0.000000 -0.003612 0.000000
# 4 0.000000 0.000000 0.000000 0.030197 0.000000 -0.008858
# 5 0.001697 -0.002397 -0.003612 0.000000 0.041125 0.000000
# 6 0.000000 0.000000 0.000000 -0.008858 0.000000 0.072818
#
#
# Mechanical properties :
#
#
# Convention : Reuss Voigt Hill
#
# Bulk Modulus (GPa) = 56.00787 65.19237 60.60012
# Shear Modulus (GPa) = 24.25921 29.00853 26.63387
#
# Velocity S-wave (km/s) = 3.31218 3.62191 3.47050
# Velocity P-wave (km/s) = 6.32102 6.85364 6.59271
#
# Compressibility (1/GPa) = 0.01785463
#
# Stress axis : x y z
#
# Youngs Moduli (GPa) = 59.83761 105.76697 92.86272
#
# Poissons Ratio (x) = 0.35580 0.27526
# Poissons Ratio (y) = 0.20130 0.29828
# Poissons Ratio (z) = 0.17737 0.33973
#
# Static dielectric constant tensor:
#      x y z
#    x 3.743830 0.000000 0.022750 
#    y 0.000000 4.182490 0.000000 
#    z 0.022750 0.000000 4.062630 
# 
# 
# High freq. dielectric constant tensor:
#      x y z
#    x 1.847140 0.000000 0.006110 
#    y 0.000000 1.885490 0.000000 
#    z 0.006110 0.000000 1.873890 
# 
# From -- ./inp_files/4244.got.cif
#   From: 2010.03.12/outbox.cif.g09.slc.cpg/sg4_3_cif.got.tgz:4244.got - 2010.03.31 09:31:35.
