data_PCOD8046878
_publ_section_title
;
Structure prediction by ZEFSAII (Michael W. Deem and Ramdas Pophale) SiO2 
 PCOD8046878
Probable space group: P 21
;
_chemical_formula_sum "Si O2"
_cell_formula_units_Z 14
_cell_length_a 7.190902
_cell_length_b 14.632019
_cell_length_c 6.148940
_cell_angle_alpha 90.000000
_cell_angle_beta 79.501011
_cell_angle_gamma 90.000000
_cell_volume 636.143984
_symmetry_space_group_name_H-M "P 21"
_symmetry_group_IT_number 4
_symmetry_cell_setting 'monoclinic'
loop_
_space_group_symop_operation_xyz
x,y,z
-x,1/2+y,-z
loop_
_atom_site_type_symbol
_atom_site_label
_atom_site_fract_x
_atom_site_fract_y
_atom_site_fract_z
Si Si1 0.323031 0.650200 0.683838
Si Si2 0.524617 0.038836 0.723754
Si Si3 0.548489 0.719978 0.017344
Si Si4 0.796820 0.288451 0.644350
Si Si5 0.855641 0.013536 0.967460
Si Si6 0.921876 0.821419 0.061808
Si Si7 0.814421 0.422184 0.285925
O O1 0.432153 0.570197 0.531987
O O2 0.205889 0.710299 0.538315
O O3 0.480086 0.709304 0.781313
O O4 0.173998 0.605758 0.887352
O O5 0.431615 0.120976 0.878415
O O6 0.708695 0.003913 0.804803
O O7 0.393070 0.949538 0.748022
O O8 0.394899 0.781906 0.175366
O O9 0.756882 0.762966 0.985528
O O10 0.804641 0.390368 0.539558
O O11 0.989430 0.274205 0.742696
O O12 0.054704 0.011250 0.792310
O O13 0.841618 0.923938 0.126862
O O14 0.101648 0.833575 0.860183
#
# Coordination Sequence:
#
# PCOD8046878 Si02
#       7
#     2   2   2   2   2   2   2
#     4  10  23  45  69  91 134 176 221 269 323 395
#     4  10  23  43  66  96 127 174 221 265 329 391
#     4  10  24  45  66  93 133 178 213 273 327 387
#     4  11  24  41  67 101 129 175 220 271 323 392
#     4   9  24  42  65  98 133 172 215 276 325 383
#     4  10  25  42  66  99 134 170 217 274 329 383
#     4  10  25  38  67 100 128 169 219 272 328 385
#
# _framework density 22.007595999999999
#
# number of rings (size 3 to 8) (size 9 to 14) (size 15 to 20)
#    0.857    1.143    0.000    0.857    8.000    8.000 
#    0.000    2.857    0.000    0.000    0.000    0.000 
#    0.000    0.000    0.000    0.000    0.000    0.000 
#
# Total GULP energy -173481.161224 kJ/mol
# GULP energy per Si atom -12391.511516 kJ/mol
# Density = 2.195751 g / cm^3
# Si number density = 22.007596 Si / 1000 Ang^3
#
#
#
# Elastic Constant Matrix: (Units=GPa)
#
#
# Indices 1 2 3 4 5 6 
#
# 1 121.0001 45.2537 76.0408 0.0000 28.8665 0.0000
# 2 45.2537 59.2341 41.7374 0.0000 9.6553 0.0000
# 3 76.0408 41.7374 115.6464 0.0000 18.5835 0.0000
# 4 0.0000 0.0000 0.0000 42.1650 0.0000 0.2134
# 5 28.8665 9.6553 18.5835 0.0000 33.8912 0.0000
# 6 0.0000 0.0000 0.0000 0.2134 0.0000 47.2652
#
#
#
# Elastic Compliance Matrix: (Units=1/GPa)
#
#
# Indices 1 2 3 4 5 6 
#
# 1 0.017845 -0.006596 -0.007910 0.000000 -0.008983 0.000000
# 2 -0.006596 0.025222 -0.004950 0.000000 0.001147 0.000000
# 3 -0.007910 -0.004950 0.015709 0.000000 -0.000467 0.000000
# 4 0.000000 0.000000 0.000000 0.023717 0.000000 -0.000107
# 5 -0.008983 0.001147 -0.000467 0.000000 0.037087 0.000000
# 6 0.000000 0.000000 0.000000 -0.000107 0.000000 0.021158
#
#
# Mechanical properties :
#
#
# Convention : Reuss Voigt Hill
#
# Bulk Modulus (GPa) = 50.33842 69.10493 59.72167
# Shear Modulus (GPa) = 26.84260 33.52088 30.18174
#
# Velocity S-wave (km/s) = 3.49621 3.90699 3.70729
# Velocity P-wave (km/s) = 6.26265 7.19871 6.74693
#
# Compressibility (1/GPa) = 0.01986554
#
# Stress axis : x y z
#
# Youngs Moduli (GPa) = 56.03799 39.64752 63.65606
#
# Poissons Ratio (x) = 0.26150 0.50350
# Poissons Ratio (y) = 0.36961 0.31511
# Poissons Ratio (z) = 0.44324 0.19626
#
# Static dielectric constant tensor:
#      x y z
#    x 3.808360 0.000000 0.071190 
#    y 0.000000 3.891880 0.000000 
#    z 0.071190 0.000000 4.019820 
# 
# 
# High freq. dielectric constant tensor:
#      x y z
#    x 1.862430 0.000000 0.009960 
#    y 0.000000 1.861710 0.000000 
#    z 0.009960 0.000000 1.859630 
# 
# From -- ./inp_files/477.got.cif
#   From: 2010.03.12/outbox.cif.g09.slc.cpg/sg4_1_cif.got.tgz:477.got - 2010.03.31 09:31:35.
