data_PCOD8046205
_publ_section_title
;
Structure prediction by ZEFSAII (Michael W. Deem and Ramdas Pophale) SiO2 
 PCOD8046205
Probable space group: P 21
;
_chemical_formula_sum "Si O2"
_cell_formula_units_Z 16
_cell_length_a 16.063786
_cell_length_b 9.599783
_cell_length_c 8.004555
_cell_angle_alpha 90.000000
_cell_angle_beta 141.306920
_cell_angle_gamma 90.000000
_cell_volume 771.666486
_symmetry_space_group_name_H-M "P 21"
_symmetry_group_IT_number 4
_symmetry_cell_setting 'monoclinic'
loop_
_space_group_symop_operation_xyz
x,y,z
-x,1/2+y,-z
loop_
_atom_site_type_symbol
_atom_site_label
_atom_site_fract_x
_atom_site_fract_y
_atom_site_fract_z
Si Si1 0.130811 0.738610 0.866943
Si Si2 0.869785 0.511570 0.937191
Si Si3 0.631948 0.675121 0.390801
Si Si4 0.504985 0.918533 0.345455
Si Si5 0.592160 0.142382 0.733268
Si Si6 0.990741 0.488943 0.782656
Si Si7 0.084744 0.236222 0.746239
Si Si8 0.270436 0.079671 0.803026
O O1 0.056875 0.640863 0.885165
O O2 0.031093 0.772488 0.562994
O O3 0.253140 0.653365 0.978032
O O4 0.180531 0.878344 0.037151
O O5 0.749035 0.607758 0.684459
O O6 0.958673 0.454678 0.924593
O O7 0.956244 0.607464 0.198089
O O8 0.613048 0.842289 0.391948
O O9 0.495199 0.597961 0.240236
O O10 0.656209 0.657943 0.233267
O O11 0.457675 0.797558 0.400276
O O12 0.576692 0.042805 0.551620
O O13 0.374669 0.972191 0.043986
O O14 0.855422 0.490878 0.460113
O O15 0.095934 0.375567 0.876326
O O16 0.221748 0.194937 0.863596
#
# Coordination Sequence:
#
# PCOD8046205 Si02
#       8
#     2   2   2   2   2   2   2   2
#     4  11  22  39  60  99 126 171 215 266 326 397
#     4  11  22  44  65  88 134 168 219 271 327 391
#     4   9  23  41  67  95 125 181 217 266 337 385
#     4  10  22  42  64  97 127 177 221 270 333 387
#     4  10  21  39  63  93 132 166 229 263 329 391
#     4  10  23  39  66  96 123 170 220 267 329 389
#     4  11  22  39  70  92 129 176 211 270 337 388
#     4  10  21  45  65  94 138 169 220 275 328 396
#
# _framework density 20.734345000000001
#
# number of rings (size 3 to 8) (size 9 to 14) (size 15 to 20)
#    0.750    1.000    0.000    5.250    1.750    0.000 
#    9.000    1.250    0.000    0.000    0.000    0.000 
#    0.000    0.000    0.000    0.000    0.000    0.000 
#
# Total GULP energy -198245.969992 kJ/mol
# GULP energy per Si atom -12390.373124 kJ/mol
# Density = 2.068715 g / cm^3
# Si number density = 20.734345 Si / 1000 Ang^3
#
#
#
# Elastic Constant Matrix: (Units=GPa)
#
#
# Indices 1 2 3 4 5 6 
#
# 1 136.8683 61.5557 42.2301 0.0000 -11.2197 0.0000
# 2 61.5557 134.0895 49.1258 0.0000 -6.7909 0.0000
# 3 42.2301 49.1258 48.6402 0.0000 3.8685 0.0000
# 4 0.0000 0.0000 0.0000 26.9223 0.0000 2.4996
# 5 -11.2197 -6.7909 3.8685 0.0000 26.4607 0.0000
# 6 0.0000 0.0000 0.0000 2.4996 0.0000 44.8870
#
#
#
# Elastic Compliance Matrix: (Units=1/GPa)
#
#
# Indices 1 2 3 4 5 6 
#
# 1 0.011113 -0.001795 -0.008269 0.000000 0.005460 0.000000
# 2 -0.001795 0.012775 -0.011680 0.000000 0.004225 0.000000
# 3 -0.008269 -0.011680 0.040523 0.000000 -0.012428 0.000000
# 4 0.000000 0.000000 0.000000 0.037337 0.000000 -0.002079
# 5 0.005460 0.004225 -0.012428 0.000000 0.043008 0.000000
# 6 0.000000 0.000000 0.000000 -0.002079 0.000000 0.022394
#
#
# Mechanical properties :
#
#
# Convention : Reuss Voigt Hill
#
# Bulk Modulus (GPa) = 47.79566 69.49125 58.64346
# Shear Modulus (GPa) = 22.97661 30.76644 26.87152
#
# Velocity S-wave (km/s) = 3.33249 3.85624 3.60389
# Velocity P-wave (km/s) = 6.15701 7.30858 6.75737
#
# Compressibility (1/GPa) = 0.02092240
#
# Stress axis : x y z
#
# Youngs Moduli (GPa) = 89.98648 78.27855 24.67721
#
# Poissons Ratio (x) = 0.14054 0.20406
# Poissons Ratio (y) = 0.16156 0.28822
# Poissons Ratio (z) = 0.74412 0.91427
#
# Static dielectric constant tensor:
#      x y z
#    x 3.897210 0.000000 0.032640 
#    y 0.000000 3.727550 0.000000 
#    z 0.032640 0.000000 3.553190 
# 
# 
# High freq. dielectric constant tensor:
#      x y z
#    x 1.814440 0.000000 0.003810 
#    y 0.000000 1.812660 0.000000 
#    z 0.003810 0.000000 1.794630 
# 
# From -- ./inp_files/9573.got.cif
#   From: 2010.03.12/outbox.cif.g09.slc.cpg/sg4_5_cif.got.tgz:9573.got - 2010.03.31 09:31:35.
