data_PCOD8046273
_publ_section_title
;
Structure prediction by ZEFSAII (Michael W. Deem and Ramdas Pophale) SiO2 
 PCOD8046273
Probable space group: P 21
;
_chemical_formula_sum "Si O2"
_cell_formula_units_Z 16
_cell_length_a 9.137850
_cell_length_b 11.311306
_cell_length_c 9.897933
_cell_angle_alpha 90.000000
_cell_angle_beta 138.001478
_cell_angle_gamma 90.000000
_cell_volume 684.541431
_symmetry_space_group_name_H-M "P 21"
_symmetry_group_IT_number 4
_symmetry_cell_setting 'monoclinic'
loop_
_space_group_symop_operation_xyz
x,y,z
-x,1/2+y,-z
loop_
_atom_site_type_symbol
_atom_site_label
_atom_site_fract_x
_atom_site_fract_y
_atom_site_fract_z
Si Si1 0.652051 0.159530 0.218532
Si Si2 0.057460 0.071045 0.328581
Si Si3 0.260625 0.745683 0.275938
Si Si4 0.197408 0.553064 0.427134
Si Si5 0.216965 0.204789 0.785364
Si Si6 0.372427 0.877889 0.627369
Si Si7 0.139561 0.378927 0.971226
Si Si8 0.290505 0.288075 0.534828
O O1 0.615683 0.088612 0.334838
O O2 0.687536 0.297628 0.283156
O O3 0.855364 0.104554 0.282711
O O4 0.443506 0.141378 0.979778
O O5 0.179356 0.189721 0.362034
O O6 0.234005 0.998638 0.541431
O O7 0.973604 0.005253 0.136676
O O8 0.248364 0.607070 0.312372
O O9 0.301941 0.814970 0.442683
O O10 0.446972 0.775053 0.295436
O O11 0.028720 0.795632 0.058681
O O12 0.197418 0.412044 0.417155
O O13 0.969723 0.606106 0.326892
O O14 0.177091 0.317295 0.852438
O O15 0.219552 0.259626 0.638346
O O16 0.633148 0.900045 0.796305
#
# Coordination Sequence:
#
# PCOD8046273 Si02
#       8
#     2   2   2   2   2   2   2   2
#     4  10  21  40  65  95 125 167 212 267 326 385
#     4  11  23  35  62  96 125 162 211 268 315 382
#     4   9  22  43  67  91 126 171 214 261 318 387
#     4  10  22  44  65  90 133 170 211 267 324 387
#     4  10  22  42  66  96 129 165 215 271 328 386
#     4   9  21  43  68  86 128 174 212 264 327 383
#     4   9  20  43  67  89 125 174 213 261 325 386
#     4  12  25  40  66  99 131 169 216 267 327 384
#
# _framework density 23.373313
#
# number of rings (size 3 to 8) (size 9 to 14) (size 15 to 20)
#    0.000    2.000    1.250    1.500    7.000    0.000 
#    6.750    0.000    0.000    0.000    0.000    0.000 
#    0.000    0.000    0.000    0.000    0.000    0.000 
#
# Total GULP energy -198338.043372 kJ/mol
# GULP energy per Si atom -12396.127711 kJ/mol
# Density = 2.332011 g / cm^3
# Si number density = 23.373313 Si / 1000 Ang^3
#
#
#
# Elastic Constant Matrix: (Units=GPa)
#
#
# Indices 1 2 3 4 5 6 
#
# 1 72.6477 20.0558 5.8312 0.0000 31.0694 0.0000
# 2 20.0558 153.3346 41.7479 0.0000 21.2619 0.0000
# 3 5.8312 41.7479 115.0606 0.0000 28.0456 0.0000
# 4 0.0000 0.0000 0.0000 29.0838 0.0000 13.9916
# 5 31.0694 21.2619 28.0456 0.0000 32.1642 0.0000
# 6 0.0000 0.0000 0.0000 13.9916 0.0000 20.0898
#
#
#
# Elastic Compliance Matrix: (Units=1/GPa)
#
#
# Indices 1 2 3 4 5 6 
#
# 1 0.026693 -0.000994 0.006518 0.000000 -0.030811 0.000000
# 2 -0.000994 0.007537 -0.002164 0.000000 -0.002136 0.000000
# 3 0.006518 -0.002164 0.013120 0.000000 -0.016306 0.000000
# 4 0.000000 0.000000 0.000000 0.051708 0.000000 -0.036013
# 5 -0.030811 -0.002136 -0.016306 0.000000 0.076482 0.000000
# 6 0.000000 0.000000 0.000000 -0.036013 0.000000 0.074858
#
#
# Mechanical properties :
#
#
# Convention : Reuss Voigt Hill
#
# Bulk Modulus (GPa) = 18.49412 52.92363 35.70887
# Shear Modulus (GPa) = 19.10573 34.49476 26.80024
#
# Velocity S-wave (km/s) = 2.86215 3.84581 3.38985
# Velocity P-wave (km/s) = 4.34191 6.51247 5.53464
#
# Compressibility (1/GPa) = 0.05407124
#
# Stress axis : x y z
#
# Youngs Moduli (GPa) = 37.46278 132.68044 76.21771
#
# Poissons Ratio (x) = 0.13183 -0.49677
# Poissons Ratio (y) = 0.03722 0.16491
# Poissons Ratio (z) = -0.24417 0.28708
#
# Static dielectric constant tensor:
#      x y z
#    x 3.978210 0.000000 0.364210 
#    y 0.000000 4.483340 0.000000 
#    z 0.364210 0.000000 4.619040 
# 
# 
# High freq. dielectric constant tensor:
#      x y z
#    x 1.905210 0.000000 0.019220 
#    y 0.000000 1.928320 0.000000 
#    z 0.019220 0.000000 1.927630 
# 
# From -- ./inp_files/11306.got.cif
#   From: 2010.03.12/outbox.cif.g09.slc.cpg/sg4_6_cif.got.tgz:11306.got - 2010.03.31 09:31:35.
