data_PCOD8046144
_publ_section_title
;
Structure prediction by ZEFSAII (Michael W. Deem and Ramdas Pophale) SiO2 
 PCOD8046144
Probable space group: P 21
;
_chemical_formula_sum "Si O2"
_cell_formula_units_Z 16
_cell_length_a 14.472133
_cell_length_b 6.954768
_cell_length_c 23.139529
_cell_angle_alpha 90.000000
_cell_angle_beta 162.369285
_cell_angle_gamma 90.000000
_cell_volume 705.409812
_symmetry_space_group_name_H-M "P 21"
_symmetry_group_IT_number 4
_symmetry_cell_setting 'monoclinic'
loop_
_space_group_symop_operation_xyz
x,y,z
-x,1/2+y,-z
loop_
_atom_site_type_symbol
_atom_site_label
_atom_site_fract_x
_atom_site_fract_y
_atom_site_fract_z
Si Si1 0.659356 0.795200 0.804012
Si Si2 0.356406 0.083460 0.543667
Si Si3 0.342942 0.959694 0.968269
Si Si4 0.146286 0.352888 0.819869
Si Si5 0.296907 0.987575 0.683312
Si Si6 0.843807 0.112591 0.070789
Si Si7 0.752149 0.440800 0.782249
Si Si8 0.856089 0.162143 0.338256
O O1 0.399403 0.828602 0.696932
O O2 0.615365 0.585149 0.749054
O O3 0.616617 0.955356 0.728579
O O4 0.983619 0.820026 0.028356
O O5 0.512442 0.281834 0.614684
O O6 0.098470 0.153334 0.432772
O O7 0.174539 0.953871 0.388410
O O8 0.563983 0.880747 0.049764
O O9 0.553892 0.042842 0.144632
O O10 0.130258 0.796655 0.871085
O O11 0.113317 0.121383 0.805865
O O12 0.227913 0.429841 0.931791
O O13 0.222329 0.884646 0.699274
O O14 0.997975 0.093802 0.483395
O O15 0.567449 0.138089 0.859814
O O16 0.142144 0.069591 0.209756
#
# Coordination Sequence:
#
# PCOD8046144 Si02
#       8
#     2   2   2   2   2   2   2   2
#     4  10  22  41  66  93 131 185 222 283 340 400
#     4  10  24  43  64  99 134 181 237 269 344 409
#     4  11  22  42  69  97 136 182 224 285 359 408
#     4  11  23  44  68  96 140 179 231 287 348 414
#     4  10  21  37  60 102 134 167 226 279 346 398
#     4  11  24  41  67 101 132 180 233 281 341 412
#     4  11  23  43  69  96 140 182 231 278 336 414
#     4  10  21  37  63 100 137 170 218 288 338 409
#
# _framework density 22.681850000000001
#
# number of rings (size 3 to 8) (size 9 to 14) (size 15 to 20)
#    0.000    1.500    3.750    0.750    1.750    3.000 
#    2.250    0.000    0.000    0.000    0.000    0.000 
#    0.000    0.000    0.000    0.000    0.000    0.000 
#
# Total GULP energy -198274.130039 kJ/mol
# GULP energy per Si atom -12392.133127 kJ/mol
# Density = 2.263022 g / cm^3
# Si number density = 22.681850 Si / 1000 Ang^3
#
#
#
# Elastic Constant Matrix: (Units=GPa)
#
#
# Indices 1 2 3 4 5 6 
#
# 1 66.2592 38.7519 27.3624 0.0000 -10.8143 0.0000
# 2 38.7519 125.9172 42.1218 0.0000 9.5597 0.0000
# 3 27.3624 42.1218 76.7089 0.0000 0.6474 0.0000
# 4 0.0000 0.0000 0.0000 34.3192 0.0000 -3.4483
# 5 -10.8143 9.5597 0.6474 0.0000 19.4698 0.0000
# 6 0.0000 0.0000 0.0000 -3.4483 0.0000 46.7841
#
#
#
# Elastic Compliance Matrix: (Units=1/GPa)
#
#
# Indices 1 2 3 4 5 6 
#
# 1 0.023971 -0.007050 -0.004822 0.000000 0.016936 0.000000
# 2 -0.007050 0.012232 -0.004120 0.000000 -0.009785 0.000000
# 3 -0.004822 -0.004120 0.017029 0.000000 -0.001222 0.000000
# 4 0.000000 0.000000 0.000000 0.029356 0.000000 0.002164
# 5 0.016936 -0.009785 -0.001222 0.000000 0.065614 0.000000
# 6 0.000000 0.000000 0.000000 0.002164 0.000000 0.021534
#
#
# Mechanical properties :
#
#
# Convention : Reuss Voigt Hill
#
# Bulk Modulus (GPa) = 47.06198 53.92862 50.49530
# Shear Modulus (GPa) = 23.94609 30.82458 27.38533
#
# Velocity S-wave (km/s) = 3.25274 3.69046 3.47849
# Velocity P-wave (km/s) = 5.90769 6.47974 6.20032
#
# Compressibility (1/GPa) = 0.02124858
#
# Stress axis : x y z
#
# Youngs Moduli (GPa) = 41.71707 81.75035 58.72377
#
# Poissons Ratio (x) = 0.57633 0.28318
# Poissons Ratio (y) = 0.29410 0.24192
# Poissons Ratio (z) = 0.20117 0.33678
#
# Static dielectric constant tensor:
#      x y z
#    x 4.000720 0.000000 -0.196140 
#    y 0.000000 4.088670 0.000000 
#    z -0.196140 0.000000 4.198380 
# 
# 
# High freq. dielectric constant tensor:
#      x y z
#    x 1.886320 0.000000 -0.012200 
#    y 0.000000 1.894040 0.000000 
#    z -0.012200 0.000000 1.887700 
# 
# From -- ./inp_files/14532.got.cif
#   From: 2010.03.12/outbox.cif.g09.slc.cpg/sg4_8_cif.got.tgz:14532.got - 2010.03.31 09:31:35.
