data_PCOD8046255
_publ_section_title
;
Structure prediction by ZEFSAII (Michael W. Deem and Ramdas Pophale) SiO2 
 PCOD8046255
Probable space group: P 21
;
_chemical_formula_sum "Si O2"
_cell_formula_units_Z 16
_cell_length_a 12.717774
_cell_length_b 5.087733
_cell_length_c 13.159784
_cell_angle_alpha 90.000000
_cell_angle_beta 76.935788
_cell_angle_gamma 90.000000
_cell_volume 829.460012
_symmetry_space_group_name_H-M "P 21"
_symmetry_group_IT_number 4
_symmetry_cell_setting 'monoclinic'
loop_
_space_group_symop_operation_xyz
x,y,z
-x,1/2+y,-z
loop_
_atom_site_type_symbol
_atom_site_label
_atom_site_fract_x
_atom_site_fract_y
_atom_site_fract_z
Si Si1 0.171566 0.462970 0.766853
Si Si2 0.073947 0.961385 0.701236
Si Si3 0.075167 0.377883 0.993568
Si Si4 0.635195 0.924463 0.423760
Si Si5 0.933869 0.342798 0.511880
Si Si6 0.166439 0.408122 0.196180
Si Si7 0.614060 0.423682 0.559141
Si Si8 0.242449 0.906482 0.283246
O O1 0.128043 0.760785 0.768378
O O2 0.167922 0.394417 0.886834
O O3 0.289826 0.430741 0.692768
O O4 0.089926 0.263274 0.728767
O O5 0.127981 0.908839 0.579657
O O6 0.946346 0.912129 0.718685
O O7 0.140043 0.417745 0.083003
O O8 0.982709 0.595924 0.998180
O O9 0.658894 0.168592 0.491848
O O10 0.514766 0.927342 0.407134
O O11 0.659150 0.670450 0.486574
O O12 0.860303 0.406569 0.622211
O O13 0.036885 0.535436 0.496865
O O14 0.242527 0.650335 0.212032
O O15 0.235575 0.152363 0.209168
O O16 0.652298 0.423156 0.667907
#
# Coordination Sequence:
#
# PCOD8046255 Si02
#       8
#     2   2   2   2   2   2   2   2
#     4  12  22  37  60  81 111 145 190 244 282 321
#     4  12  22  35  53  81 114 151 184 224 278 338
#     4  12  23  38  57  80 112 154 197 235 278 325
#     4  10  21  40  63  88 112 144 191 241 282 334
#     4  12  21  30  46  73 107 142 173 208 257 333
#     4  12  23  37  53  78 115 154 189 224 273 338
#     4  10  22  40  62  87 115 147 188 232 287 345
#     4  12  22  37  54  78 116 153 182 224 285 338
#
# _framework density 19.289659
#
# number of rings (size 3 to 8) (size 9 to 14) (size 15 to 20)
#    0.000    0.500    5.000    5.250    0.000    0.000 
#    0.000    0.000    0.000    1.500    0.000    0.000 
#    0.000    0.000    0.000    0.000    0.000    0.000 
#
# Total GULP energy -198422.667291 kJ/mol
# GULP energy per Si atom -12401.416706 kJ/mol
# Density = 1.924575 g / cm^3
# Si number density = 19.289659 Si / 1000 Ang^3
#
#
#
# Elastic Constant Matrix: (Units=GPa)
#
#
# Indices 1 2 3 4 5 6 
#
# 1 67.7642 28.9021 32.8458 0.0000 12.4226 0.0000
# 2 28.9021 123.7566 32.3308 0.0000 8.7501 0.0000
# 3 32.8458 32.3308 129.1869 0.0000 17.0820 0.0000
# 4 0.0000 0.0000 0.0000 28.3157 0.0000 6.3978
# 5 12.4226 8.7501 17.0820 0.0000 34.3745 0.0000
# 6 0.0000 0.0000 0.0000 6.3978 0.0000 13.3668
#
#
#
# Elastic Compliance Matrix: (Units=1/GPa)
#
#
# Indices 1 2 3 4 5 6 
#
# 1 0.018499 -0.003145 -0.003359 0.000000 -0.004216 0.000000
# 2 -0.003145 0.009227 -0.001444 0.000000 -0.000495 0.000000
# 3 -0.003359 -0.001444 0.009362 0.000000 -0.003071 0.000000
# 4 0.000000 0.000000 0.000000 0.039599 0.000000 -0.018953
# 5 -0.004216 -0.000495 -0.003071 0.000000 0.032267 0.000000
# 6 0.000000 0.000000 0.000000 -0.018953 0.000000 0.083884
#
#
# Mechanical properties :
#
#
# Convention : Reuss Voigt Hill
#
# Bulk Modulus (GPa) = 47.18621 56.54056 51.86339
# Shear Modulus (GPa) = 23.16981 30.31999 26.74490
#
# Velocity S-wave (km/s) = 3.46952 3.96893 3.72760
# Velocity P-wave (km/s) = 6.36908 7.09776 6.74327
#
# Compressibility (1/GPa) = 0.02119263
#
# Stress axis : x y z
#
# Youngs Moduli (GPa) = 54.05620 108.37677 106.81192
#
# Poissons Ratio (x) = 0.34081 0.35878
# Poissons Ratio (y) = 0.16999 0.15426
# Poissons Ratio (z) = 0.18157 0.15652
#
# Static dielectric constant tensor:
#      x y z
#    x 3.246960 0.000000 0.065790 
#    y 0.000000 3.820810 0.000000 
#    z 0.065790 0.000000 3.608640 
# 
# 
# High freq. dielectric constant tensor:
#      x y z
#    x 1.715590 0.000000 0.012690 
#    y 0.000000 1.776300 0.000000 
#    z 0.012690 0.000000 1.748710 
# 
# From -- ./inp_files/11704.got.cif
#   From: 2010.03.12/outbox.cif.g09.slc.cpg/sg4_6_cif.got.tgz:11704.got - 2010.03.31 09:31:35.
