data_PCOD8046531
_publ_section_title
;
Structure prediction by ZEFSAII (Michael W. Deem and Ramdas Pophale) SiO2 
 PCOD8046531
Probable space group: P 21
;
_chemical_formula_sum "Si O2"
_cell_formula_units_Z 16
_cell_length_a 9.074768
_cell_length_b 7.736968
_cell_length_c 17.459615
_cell_angle_alpha 90.000000
_cell_angle_beta 33.117997
_cell_angle_gamma 90.000000
_cell_volume 669.767267
_symmetry_space_group_name_H-M "P 21"
_symmetry_group_IT_number 4
_symmetry_cell_setting 'monoclinic'
loop_
_space_group_symop_operation_xyz
x,y,z
-x,1/2+y,-z
loop_
_atom_site_type_symbol
_atom_site_label
_atom_site_fract_x
_atom_site_fract_y
_atom_site_fract_z
Si Si1 0.332938 0.253620 0.929079
Si Si2 0.777383 0.376912 0.211545
Si Si3 0.369239 0.177666 0.484515
Si Si4 0.256988 0.043525 0.237246
Si Si5 0.551654 0.884424 0.789459
Si Si6 0.324791 0.273461 0.760690
Si Si7 0.813909 0.942563 0.325775
Si Si8 0.874729 0.454599 0.533716
O O1 0.553958 0.383363 0.866688
O O2 0.245420 0.315323 0.882015
O O3 0.454129 0.058598 0.875609
O O4 0.068027 0.284581 0.095652
O O5 0.603808 0.305958 0.356411
O O6 0.668679 0.322704 0.175601
O O7 0.766087 0.583214 0.223303
O O8 0.170523 0.267167 0.631294
O O9 0.515171 0.022073 0.466057
O O10 0.199560 0.122531 0.484099
O O11 0.418841 0.225143 0.164619
O O12 0.117077 0.008535 0.380700
O O13 0.043741 0.065057 0.260696
O O14 0.830040 0.903008 0.621855
O O15 0.157529 0.402984 0.777890
O O16 0.651806 0.303969 0.613182
#
# Coordination Sequence:
#
# PCOD8046531 Si02
#       8
#     2   2   2   2   2   2   2   2
#     4  10  25  46  69 102 134 182 242 285 335 415
#     4  11  23  43  70 100 133 187 236 281 339 414
#     4  11  23  40  66  97 138 182 219 288 350 429
#     4  11  24  42  68 100 135 180 229 296 346 400
#     4  11  24  37  70 103 133 173 226 304 337 398
#     4   9  23  42  69  99 141 179 219 294 353 424
#     4  11  24  40  65 101 145 173 229 280 374 422
#     4  10  22  40  65 102 131 168 236 288 350 404
#
# _framework density 23.888894000000001
#
# number of rings (size 3 to 8) (size 9 to 14) (size 15 to 20)
#    0.000    1.500    1.250    2.250   14.000    0.000 
#    2.250    1.250    0.000    0.000    0.000    0.000 
#    0.000    0.000    0.000    0.000    0.000    0.000 
#
# Total GULP energy -198328.631442 kJ/mol
# GULP energy per Si atom -12395.539465 kJ/mol
# Density = 2.383452 g / cm^3
# Si number density = 23.888894 Si / 1000 Ang^3
#
#
#
# Elastic Constant Matrix: (Units=GPa)
#
#
# Indices 1 2 3 4 5 6 
#
# 1 103.1651 18.2602 -1.9046 0.0000 -11.8517 0.0000
# 2 18.2602 101.1776 14.9616 0.0000 -8.3121 0.0000
# 3 -1.9046 14.9616 58.3358 0.0000 -19.2082 0.0000
# 4 0.0000 0.0000 0.0000 29.1691 0.0000 -3.4505
# 5 -11.8517 -8.3121 -19.2082 0.0000 23.8993 0.0000
# 6 0.0000 0.0000 0.0000 -3.4505 0.0000 29.2273
#
#
#
# Elastic Compliance Matrix: (Units=1/GPa)
#
#
# Indices 1 2 3 4 5 6 
#
# 1 0.010931 -0.001848 0.003269 0.000000 0.007406 0.000000
# 2 -0.001848 0.010655 -0.002549 0.000000 0.000741 0.000000
# 3 0.003269 -0.002549 0.024674 0.000000 0.020566 0.000000
# 4 0.000000 0.000000 0.000000 0.034768 0.000000 0.004105
# 5 0.007406 0.000741 0.020566 0.000000 0.062301 0.000000
# 6 0.000000 0.000000 0.000000 0.004105 0.000000 0.034699
#
#
# Mechanical properties :
#
#
# Convention : Reuss Voigt Hill
#
# Bulk Modulus (GPa) = 22.72460 36.14588 29.43524
# Shear Modulus (GPa) = 25.64714 31.88323 28.76519
#
# Velocity S-wave (km/s) = 3.28014 3.65725 3.47381
# Velocity P-wave (km/s) = 4.88662 5.74435 5.33276
#
# Compressibility (1/GPa) = 0.04400518
#
# Stress axis : x y z
#
# Youngs Moduli (GPa) = 91.47931 93.85342 40.52792
#
# Poissons Ratio (x) = 0.17343 -0.13250
# Poissons Ratio (y) = 0.16905 0.10331
# Poissons Ratio (z) = -0.29908 0.23925
#
# Static dielectric constant tensor:
#      x y z
#    x 4.278360 0.000000 -0.184820 
#    y 0.000000 4.532940 0.000000 
#    z -0.184820 0.000000 3.991550 
# 
# 
# High freq. dielectric constant tensor:
#      x y z
#    x 1.941160 0.000000 -0.012720 
#    y 0.000000 1.956580 0.000000 
#    z -0.012720 0.000000 1.922720 
# 
# From -- ./inp_files/7772.got.cif
#   From: 2010.03.12/outbox.cif.g09.slc.cpg/sg4_4_cif.got.tgz:7772.got - 2010.03.31 09:31:35.
