data_PCOD8046665
_publ_section_title
;
Structure prediction by ZEFSAII (Michael W. Deem and Ramdas Pophale) SiO2 
 PCOD8046665
Probable space group: P 21
;
_chemical_formula_sum "Si O2"
_cell_formula_units_Z 16
_cell_length_a 13.558131
_cell_length_b 9.275034
_cell_length_c 10.499206
_cell_angle_alpha 90.000000
_cell_angle_beta 149.307481
_cell_angle_gamma 90.000000
_cell_volume 673.920291
_symmetry_space_group_name_H-M "P 21"
_symmetry_group_IT_number 4
_symmetry_cell_setting 'monoclinic'
loop_
_space_group_symop_operation_xyz
x,y,z
-x,1/2+y,-z
loop_
_atom_site_type_symbol
_atom_site_label
_atom_site_fract_x
_atom_site_fract_y
_atom_site_fract_z
Si Si1 0.176050 0.412840 0.566689
Si Si2 0.790928 0.026503 0.868239
Si Si3 0.389905 0.136319 0.869045
Si Si4 0.754719 0.405473 0.093232
Si Si5 0.019656 0.224992 0.936672
Si Si6 0.661586 0.173678 0.378880
Si Si7 0.721035 0.077679 0.081445
Si Si8 0.587476 0.566821 0.693332
O O1 0.237852 0.246592 0.640843
O O2 0.320819 0.501622 0.636787
O O3 0.967940 0.425739 0.272969
O O4 0.154630 0.481199 0.684320
O O5 0.792868 0.037819 0.021822
O O6 0.562545 0.017699 0.581679
O O7 0.895532 0.162536 0.917290
O O8 0.907111 0.885422 0.951227
O O9 0.494259 0.051530 0.867110
O O10 0.282264 0.022567 0.838229
O O11 0.549411 0.232170 0.128922
O O12 0.741508 0.246609 0.134632
O O13 0.620493 0.428271 0.820531
O O14 0.876367 0.233088 0.652580
O O15 0.209468 0.127113 0.130446
O O16 0.519034 0.191200 0.341221
#
# Coordination Sequence:
#
# PCOD8046665 Si02
#       8
#     2   2   2   2   2   2   2   2
#     4  11  22  43  70 106 141 182 239 288 359 431
#     4  11  29  47  72 110 140 193 245 302 365 426
#     4  10  22  43  70 102 143 190 230 296 362 430
#     4  11  23  43  71  99 140 189 230 294 362 427
#     4  11  25  50  73 102 146 191 249 304 355 436
#     4   9  21  42  71 102 138 187 233 291 363 422
#     4  11  25  42  65 105 142 178 236 287 359 432
#     4  10  23  44  74  96 138 188 236 300 359 424
#
# _framework density 23.741679999999999
#
# number of rings (size 3 to 8) (size 9 to 14) (size 15 to 20)
#    0.000    1.500    1.250    3.000    7.000    3.000 
#    4.500    1.250    0.000    0.000    0.000    0.000 
#    0.000    0.000    0.000    0.000    0.000    0.000 
#
# Total GULP energy -198216.966109 kJ/mol
# GULP energy per Si atom -12388.560382 kJ/mol
# Density = 2.368764 g / cm^3
# Si number density = 23.741680 Si / 1000 Ang^3
#
#
#
# Elastic Constant Matrix: (Units=GPa)
#
#
# Indices 1 2 3 4 5 6 
#
# 1 91.9967 3.0336 35.6904 0.0000 0.7497 0.0000
# 2 3.0336 75.0805 11.4756 0.0000 2.4959 0.0000
# 3 35.6904 11.4756 115.0083 0.0000 24.4387 0.0000
# 4 0.0000 0.0000 0.0000 29.7267 0.0000 5.3369
# 5 0.7497 2.4959 24.4387 0.0000 26.3050 0.0000
# 6 0.0000 0.0000 0.0000 5.3369 0.0000 32.8671
#
#
#
# Elastic Compliance Matrix: (Units=1/GPa)
#
#
# Indices 1 2 3 4 5 6 
#
# 1 0.012706 0.000087 -0.004826 0.000000 0.004113 0.000000
# 2 0.000087 0.013526 -0.001375 0.000000 -0.000008 0.000000
# 3 -0.004826 -0.001375 0.012800 0.000000 -0.011624 0.000000
# 4 0.000000 0.000000 0.000000 0.034650 0.000000 -0.005626
# 5 0.004113 -0.000008 -0.011624 0.000000 0.048698 0.000000
# 6 0.000000 0.000000 0.000000 -0.005626 0.000000 0.031339
#
#
# Mechanical properties :
#
#
# Convention : Reuss Voigt Hill
#
# Bulk Modulus (GPa) = 37.30636 42.49828 39.90232
# Shear Modulus (GPa) = 28.59107 33.23882 30.91494
#
# Velocity S-wave (km/s) = 3.47400 3.74574 3.61243
# Velocity P-wave (km/s) = 5.64262 6.05364 5.85174
#
# Compressibility (1/GPa) = 0.02680508
#
# Stress axis : x y z
#
# Youngs Moduli (GPa) = 78.70500 73.93199 78.12678
#
# Poissons Ratio (x) = -0.00647 0.37701
# Poissons Ratio (y) = -0.00689 0.10742
# Poissons Ratio (z) = 0.37980 0.10165
#
# Static dielectric constant tensor:
#      x y z
#    x 4.253770 0.000000 0.202150 
#    y 0.000000 3.982800 0.000000 
#    z 0.202150 0.000000 4.495850 
# 
# 
# High freq. dielectric constant tensor:
#      x y z
#    x 1.945400 0.000000 0.017350 
#    y 0.000000 1.920490 0.000000 
#    z 0.017350 0.000000 1.947010 
# 
# From -- ./inp_files/12595.got.cif
#   From: 2010.03.12/outbox.cif.g09.slc.cpg/sg4_7_cif.got.tgz:12595.got - 2010.03.31 09:31:35.
