data_PCOD8046792
_publ_section_title
;
Structure prediction by ZEFSAII (Michael W. Deem and Ramdas Pophale) SiO2 
 PCOD8046792
Probable space group: P 21
;
_chemical_formula_sum "Si O2"
_cell_formula_units_Z 14
_cell_length_a 13.450931
_cell_length_b 7.957743
_cell_length_c 7.694310
_cell_angle_alpha 90.000000
_cell_angle_beta 56.733117
_cell_angle_gamma 90.000000
_cell_volume 688.625202
_symmetry_space_group_name_H-M "P 21"
_symmetry_group_IT_number 4
_symmetry_cell_setting 'monoclinic'
loop_
_space_group_symop_operation_xyz
x,y,z
-x,1/2+y,-z
loop_
_atom_site_type_symbol
_atom_site_label
_atom_site_fract_x
_atom_site_fract_y
_atom_site_fract_z
Si Si1 0.407882 0.760210 0.035402
Si Si2 0.734099 0.213269 0.165360
Si Si3 0.877524 0.844769 0.597042
Si Si4 0.209318 0.968985 0.640633
Si Si5 0.256337 0.623351 0.476612
Si Si6 0.660850 0.623599 0.781715
Si Si7 0.028258 0.606992 0.231697
O O1 0.364701 0.644141 0.236531
O O2 0.368799 0.953180 0.087441
O O3 0.353676 0.682991 0.910150
O O4 0.549844 0.750006 0.889611
O O5 0.735048 0.409656 0.228154
O O6 0.696856 0.096095 0.367909
O O7 0.870269 0.178174 0.987519
O O8 0.773959 0.716485 0.759410
O O9 0.989200 0.744262 0.411695
O O10 0.827452 0.970641 0.497789
O O11 0.921431 0.942468 0.722814
O O12 0.185028 0.801273 0.545163
O O13 0.305513 0.085979 0.451316
O O14 0.084220 0.063565 0.782416
#
# Coordination Sequence:
#
# PCOD8046792 Si02
#       7
#     2   2   2   2   2   2   2
#     4  11  21  45  67  91 127 171 206 270 319 374
#     4  10  23  39  66  92 130 165 211 259 327 371
#     4  11  22  39  64  99 124 174 209 264 316 376
#     4   8  21  42  56  97 126 159 214 263 301 389
#     4   9  20  40  61  92 132 154 216 257 304 388
#     4  10  23  42  70  90 128 165 217 262 323 376
#     4  11  22  37  66  91 133 170 211 261 318 378
#
# _framework density 20.330362999999998
#
# number of rings (size 3 to 8) (size 9 to 14) (size 15 to 20)
#    0.857    1.143    1.429    1.714    6.000    0.000 
#    7.714    0.000    0.000    0.000    0.000    0.000 
#    0.000    0.000    0.000    0.000    0.000    0.000 
#
# Total GULP energy -173489.568013 kJ/mol
# GULP energy per Si atom -12392.112001 kJ/mol
# Density = 2.028409 g / cm^3
# Si number density = 20.330363 Si / 1000 Ang^3
#
#
#
# Elastic Constant Matrix: (Units=GPa)
#
#
# Indices 1 2 3 4 5 6 
#
# 1 61.8831 8.9051 55.2170 0.0000 2.5397 0.0000
# 2 8.9051 69.5596 29.8598 0.0000 -11.3230 0.0000
# 3 55.2170 29.8598 115.7608 0.0000 0.5091 0.0000
# 4 0.0000 0.0000 0.0000 27.0380 0.0000 -4.7869
# 5 2.5397 -11.3230 0.5091 0.0000 23.3415 0.0000
# 6 0.0000 0.0000 0.0000 -4.7869 0.0000 38.1149
#
#
#
# Elastic Compliance Matrix: (Units=1/GPa)
#
#
# Indices 1 2 3 4 5 6 
#
# 1 0.028568 0.002139 -0.014171 0.000000 -0.001762 0.000000
# 2 0.002139 0.017942 -0.005686 0.000000 0.008595 0.000000
# 3 -0.014171 -0.005686 0.016872 0.000000 -0.001585 0.000000
# 4 0.000000 0.000000 0.000000 0.037826 0.000000 0.004751
# 5 -0.001762 0.008595 -0.001585 0.000000 0.047238 0.000000
# 6 0.000000 0.000000 0.000000 0.004751 0.000000 0.026833
#
#
# Mechanical properties :
#
#
# Convention : Reuss Voigt Hill
#
# Bulk Modulus (GPa) = 35.78309 48.35192 42.06751
# Shear Modulus (GPa) = 22.72406 27.91365 25.31886
#
# Velocity S-wave (km/s) = 3.34689 3.70943 3.53281
# Velocity P-wave (km/s) = 5.70741 6.49470 6.11375
#
# Compressibility (1/GPa) = 0.02794616
#
# Stress axis : x y z
#
# Youngs Moduli (GPa) = 35.00374 55.73395 59.27119
#
# Poissons Ratio (x) = -0.11922 0.83993
# Poissons Ratio (y) = -0.07487 0.33703
# Poissons Ratio (z) = 0.49603 0.31692
#
# Static dielectric constant tensor:
#      x y z
#    x 3.349360 0.000000 -0.091610 
#    y 0.000000 3.711200 0.000000 
#    z -0.091610 0.000000 3.708310 
# 
# 
# High freq. dielectric constant tensor:
#      x y z
#    x 1.767990 0.000000 -0.009760 
#    y 0.000000 1.793970 0.000000 
#    z -0.009760 0.000000 1.796530 
# 
# From -- ./inp_files/7802.got.cif
#   From: 2010.03.12/outbox.cif.g09.slc.cpg/sg4_4_cif.got.tgz:7802.got - 2010.03.31 09:31:35.
