data_PCOD8046741
_publ_section_title
;
Structure prediction by ZEFSAII (Michael W. Deem and Ramdas Pophale) SiO2 
 PCOD8046741
Probable space group: P 21
;
_chemical_formula_sum "Si O2"
_cell_formula_units_Z 12
_cell_length_a 14.736014
_cell_length_b 5.453984
_cell_length_c 7.495069
_cell_angle_alpha 90.000000
_cell_angle_beta 62.792618
_cell_angle_gamma 90.000000
_cell_volume 535.729892
_symmetry_space_group_name_H-M "P 21"
_symmetry_group_IT_number 4
_symmetry_cell_setting 'monoclinic'
loop_
_space_group_symop_operation_xyz
x,y,z
-x,1/2+y,-z
loop_
_atom_site_type_symbol
_atom_site_label
_atom_site_fract_x
_atom_site_fract_y
_atom_site_fract_z
Si Si1 0.382024 0.855990 0.006166
Si Si2 0.450948 0.670256 0.311298
Si Si3 0.361231 0.468987 0.729563
Si Si4 0.205711 0.127930 0.004562
Si Si5 0.059289 0.856137 0.908733
Si Si6 0.990438 0.766463 0.614093
O O1 0.392178 0.810128 0.206888
O O2 0.292375 0.055883 0.069771
O O3 0.346012 0.629290 0.920272
O O4 0.491476 0.941285 0.831444
O O5 0.365626 0.602056 0.534344
O O6 0.531927 0.830237 0.346252
O O7 0.261407 0.297862 0.807947
O O8 0.117752 0.274511 0.186863
O O9 0.161457 0.893241 0.934416
O O10 0.080076 0.810751 0.679383
O O11 0.998615 0.115818 0.968471
O O12 0.006535 0.491589 0.525526
#
# Coordination Sequence:
#
# PCOD8046741 Si02
#       6
#     2   2   2   2   2   2
#     4  11  23  42  70  98 144 175 238 289 341 430
#     4  11  22  43  69  97 135 195 220 283 362 400
#     4  11  23  42  70  97 142 178 241 282 346 431
#     4  10  26  45  67 102 132 185 235 295 345 427
#     4  10  22  45  75  95 139 185 225 286 367 425
#     4  11  24  47  75 103 142 184 233 297 369 429
#
# _framework density 22.399346999999999
#
# number of rings (size 3 to 8) (size 9 to 14) (size 15 to 20)
#    0.000    1.333    3.333    2.000    7.000    0.000 
#    6.000    0.000    0.000    0.000    0.000    0.000 
#    0.000    0.000    0.000    0.000    0.000    0.000 
#
# Total GULP energy -148728.509875 kJ/mol
# GULP energy per Si atom -12394.042490 kJ/mol
# Density = 2.234837 g / cm^3
# Si number density = 22.399347 Si / 1000 Ang^3
#
#
#
# Elastic Constant Matrix: (Units=GPa)
#
#
# Indices 1 2 3 4 5 6 
#
# 1 74.7714 6.0650 42.4930 0.0000 -0.2312 0.0000
# 2 6.0650 93.6877 27.9007 0.0000 -0.1143 0.0000
# 3 42.4930 27.9007 115.3183 0.0000 10.4234 0.0000
# 4 0.0000 0.0000 0.0000 39.8523 0.0000 12.9550
# 5 -0.2312 -0.1143 10.4234 0.0000 35.2799 0.0000
# 6 0.0000 0.0000 0.0000 12.9550 0.0000 33.3133
#
#
#
# Elastic Compliance Matrix: (Units=1/GPa)
#
#
# Indices 1 2 3 4 5 6 
#
# 1 0.017125 0.000894 -0.006716 0.000000 0.002099 0.000000
# 2 0.000894 0.011576 -0.003220 0.000000 0.000995 0.000000
# 3 -0.006716 -0.003220 0.012258 0.000000 -0.003676 0.000000
# 4 0.000000 0.000000 0.000000 0.028724 0.000000 -0.011170
# 5 0.002099 0.000995 -0.003676 0.000000 0.029448 0.000000
# 6 0.000000 0.000000 0.000000 -0.011170 0.000000 0.034362
#
#
# Mechanical properties :
#
#
# Convention : Reuss Voigt Hill
#
# Bulk Modulus (GPa) = 43.71748 48.52165 46.11956
# Shear Modulus (GPa) = 31.40660 35.51036 33.45848
#
# Velocity S-wave (km/s) = 3.74855 3.98594 3.86907
# Velocity P-wave (km/s) = 6.18831 6.54925 6.37134
#
# Compressibility (1/GPa) = 0.02287415
#
# Stress axis : x y z
#
# Youngs Moduli (GPa) = 58.39402 86.38508 81.57997
#
# Poissons Ratio (x) = -0.07724 0.54792
# Poissons Ratio (y) = -0.05221 0.26270
# Poissons Ratio (z) = 0.39220 0.27817
#
# Static dielectric constant tensor:
#      x y z
#    x 4.300520 0.000000 0.172770 
#    y 0.000000 4.182690 0.000000 
#    z 0.172770 0.000000 3.959550 
# 
# 
# High freq. dielectric constant tensor:
#      x y z
#    x 1.885090 0.000000 0.011980 
#    y 0.000000 1.892720 0.000000 
#    z 0.011980 0.000000 1.871220 
# 
# From -- ./inp_files/8557.got.cif
#   From: 2010.03.12/outbox.cif.g09.slc.cpg/sg4_5_cif.got.tgz:8557.got - 2010.03.31 09:31:35.
