data_PCOD8046165
_publ_section_title
;
Structure prediction by ZEFSAII (Michael W. Deem and Ramdas Pophale) SiO2 
 PCOD8046165
Probable space group: P 21
;
_chemical_formula_sum "Si O2"
_cell_formula_units_Z 16
_cell_length_a 7.164854
_cell_length_b 8.509725
_cell_length_c 12.357630
_cell_angle_alpha 90.000000
_cell_angle_beta 91.493522
_cell_angle_gamma 90.000000
_cell_volume 753.200317
_symmetry_space_group_name_H-M "P 21"
_symmetry_group_IT_number 4
_symmetry_cell_setting 'monoclinic'
loop_
_space_group_symop_operation_xyz
x,y,z
-x,1/2+y,-z
loop_
_atom_site_type_symbol
_atom_site_label
_atom_site_fract_x
_atom_site_fract_y
_atom_site_fract_z
Si Si1 0.974592 0.127880 0.354733
Si Si2 0.846034 0.873788 0.510227
Si Si3 0.005584 0.497165 0.951631
Si Si4 0.301572 0.209245 0.693144
Si Si5 0.269576 0.176114 0.189083
Si Si6 0.336407 0.527736 0.802779
Si Si7 0.651868 0.005603 0.709581
Si Si8 0.951098 0.169978 0.839577
O O1 0.994682 0.293364 0.414444
O O2 0.162948 0.095266 0.288694
O O3 0.965657 0.987873 0.438515
O O4 0.786239 0.133926 0.281242
O O5 0.737635 0.746372 0.434299
O O6 0.703993 0.967088 0.585939
O O7 0.867429 0.640467 0.913726
O O8 0.925103 0.329028 0.910353
O O9 0.216127 0.511425 0.909950
O O10 0.017677 0.519167 0.081081
O O11 0.389967 0.363004 0.749148
O O12 0.114918 0.172301 0.755270
O O13 0.437117 0.059685 0.704840
O O14 0.307544 0.358619 0.211657
O O15 0.469948 0.106033 0.165277
O O16 0.768601 0.148595 0.762852
#
# Coordination Sequence:
#
# PCOD8046165 Si02
#       8
#     2   2   2   2   2   2   2   2
#     4   9  20  36  55  84 118 157 204 253 307 364
#     4  10  21  38  60  86 120 163 205 255 313 362
#     4  10  22  40  66  92 123 163 203 252 309 369
#     4  10  23  41  60  88 123 162 207 256 308 366
#     4  10  21  38  60  89 121 159 203 251 306 367
#     4   9  20  39  60  85 119 159 202 250 306 365
#     4  11  24  39  61  91 123 162 209 258 310 368
#     4  11  23  43  66  93 127 163 207 257 309 369
#
# _framework density 21.242688000000001
#
# number of rings (size 3 to 8) (size 9 to 14) (size 15 to 20)
#    0.000    2.000    0.000    3.000    0.000   11.000 
#    0.000    2.500    0.000    0.000    0.000    0.000 
#    0.000    0.000    0.000    0.000    0.000    0.000 
#
# Total GULP energy -198337.134386 kJ/mol
# GULP energy per Si atom -12396.070899 kJ/mol
# Density = 2.119434 g / cm^3
# Si number density = 21.242688 Si / 1000 Ang^3
#
#
#
# Elastic Constant Matrix: (Units=GPa)
#
#
# Indices 1 2 3 4 5 6 
#
# 1 82.2461 23.7515 10.7453 0.0000 -6.9987 0.0000
# 2 23.7515 53.3868 12.1107 0.0000 -5.5793 0.0000
# 3 10.7453 12.1107 85.9453 0.0000 4.4715 0.0000
# 4 0.0000 0.0000 0.0000 39.1173 0.0000 3.0238
# 5 -6.9987 -5.5793 4.4715 0.0000 11.2112 0.0000
# 6 0.0000 0.0000 0.0000 3.0238 0.0000 44.5632
#
#
#
# Elastic Compliance Matrix: (Units=1/GPa)
#
#
# Indices 1 2 3 4 5 6 
#
# 1 0.014493 -0.005405 -0.001410 0.000000 0.006920 0.000000
# 2 -0.005405 0.022776 -0.003010 0.000000 0.009161 0.000000
# 3 -0.001410 -0.003010 0.012621 0.000000 -0.007413 0.000000
# 4 0.000000 0.000000 0.000000 0.025699 0.000000 -0.001744
# 5 0.006920 0.009161 -0.007413 0.000000 0.101032 0.000000
# 6 0.000000 0.000000 0.000000 -0.001744 0.000000 0.022558
#
#
# Mechanical properties :
#
#
# Convention : Reuss Voigt Hill
#
# Bulk Modulus (GPa) = 33.06934 34.97701 34.02318
# Shear Modulus (GPa) = 21.84270 30.64305 26.24288
#
# Velocity S-wave (km/s) = 3.21011 3.80218 3.51862
# Velocity P-wave (km/s) = 5.41672 5.98135 5.70603
#
# Compressibility (1/GPa) = 0.03023949
#
# Stress axis : x y z
#
# Youngs Moduli (GPa) = 69.00115 43.90591 79.22990
#
# Poissons Ratio (x) = 0.23729 0.11175
# Poissons Ratio (y) = 0.37292 0.23851
# Poissons Ratio (z) = 0.09732 0.13217
#
# Static dielectric constant tensor:
#      x y z
#    x 3.640890 0.000000 0.062830 
#    y 0.000000 4.041500 0.000000 
#    z 0.062830 0.000000 3.980090 
# 
# 
# High freq. dielectric constant tensor:
#      x y z
#    x 1.824590 0.000000 0.001650 
#    y 0.000000 1.833380 0.000000 
#    z 0.001650 0.000000 1.838660 
# 
# From -- ./inp_files/2580.got.cif
#   From: 2010.03.12/outbox.cif.g09.slc.cpg/sg4_2_cif.got.tgz:2580.got - 2010.03.31 09:31:35.
