data_PCOD8046318
_publ_section_title
;
Structure prediction by ZEFSAII (Michael W. Deem and Ramdas Pophale) SiO2 
 PCOD8046318
Probable space group: P 21
;
_chemical_formula_sum "Si O2"
_cell_formula_units_Z 16
_cell_length_a 11.262012
_cell_length_b 9.006263
_cell_length_c 13.864522
_cell_angle_alpha 90.000000
_cell_angle_beta 147.930004
_cell_angle_gamma 90.000000
_cell_volume 746.660439
_symmetry_space_group_name_H-M "P 21"
_symmetry_group_IT_number 4
_symmetry_cell_setting 'monoclinic'
loop_
_space_group_symop_operation_xyz
x,y,z
-x,1/2+y,-z
loop_
_atom_site_type_symbol
_atom_site_label
_atom_site_fract_x
_atom_site_fract_y
_atom_site_fract_z
Si Si1 0.783182 0.647760 0.409271
Si Si2 0.423695 0.453593 0.681999
Si Si3 0.656907 0.568562 0.528390
Si Si4 0.312886 0.642988 0.779257
Si Si5 0.700078 0.897844 0.606292
Si Si6 0.909834 0.000467 0.051732
Si Si7 0.907886 0.332324 0.995543
Si Si8 0.511966 0.961246 0.923148
O O1 0.690398 0.814426 0.344193
O O2 0.698676 0.554793 0.443410
O O3 0.694070 0.564191 0.253177
O O4 0.048063 0.656789 0.592393
O O5 0.400189 0.595889 0.734005
O O6 0.307438 0.490545 0.498874
O O7 0.683165 0.426199 0.840004
O O8 0.595426 0.737069 0.512510
O O9 0.442121 0.471157 0.406533
O O10 0.871946 0.511165 0.732585
O O11 0.419428 0.798861 0.882157
O O12 0.384562 0.522548 0.907302
O O13 0.956362 0.880382 0.815269
O O14 0.858689 0.156714 0.963321
O O15 0.700150 0.954280 0.971040
O O16 0.948325 0.871317 0.000051
#
# Coordination Sequence:
#
# PCOD8046318 Si02
#       8
#     2   2   2   2   2   2   2   2
#     4  11  23  46  72  93 133 181 227 291 337 396
#     4  11  24  44  66  96 136 176 227 281 337 403
#     4  10  21  41  65  96 132 170 218 271 340 402
#     4  12  28  45  70 100 134 183 235 280 338 403
#     4  10  23  38  65  96 132 172 214 273 333 410
#     4  11  23  43  69 100 136 176 219 282 339 408
#     4  11  24  41  69  98 139 175 218 276 351 403
#     4  12  26  46  72  99 140 179 232 284 339 405
#
# _framework density 21.428751999999999
#
# number of rings (size 3 to 8) (size 9 to 14) (size 15 to 20)
#    0.000    1.000    3.750    2.250    3.500    2.000 
#    0.000    0.000    0.000    0.000    0.000    0.000 
#    0.000    0.000    0.000    0.000    0.000    0.000 
#
# Total GULP energy -198504.512535 kJ/mol
# GULP energy per Si atom -12406.532033 kJ/mol
# Density = 2.137998 g / cm^3
# Si number density = 21.428752 Si / 1000 Ang^3
#
#
#
# Elastic Constant Matrix: (Units=GPa)
#
#
# Indices 1 2 3 4 5 6 
#
# 1 93.8347 22.7988 32.7402 0.0000 13.9538 0.0000
# 2 22.7988 43.1101 18.6526 0.0000 18.3928 0.0000
# 3 32.7402 18.6526 82.2773 0.0000 4.9937 0.0000
# 4 0.0000 0.0000 0.0000 31.3903 0.0000 -4.6468
# 5 13.9538 18.3928 4.9937 0.0000 24.3448 0.0000
# 6 0.0000 0.0000 0.0000 -4.6468 0.0000 36.0189
#
#
#
# Elastic Compliance Matrix: (Units=1/GPa)
#
#
# Indices 1 2 3 4 5 6 
#
# 1 0.013678 -0.003503 -0.004388 0.000000 -0.004293 0.000000
# 2 -0.003503 0.038649 -0.005789 0.000000 -0.026004 0.000000
# 3 -0.004388 -0.005789 0.014981 0.000000 0.003816 0.000000
# 4 0.000000 0.000000 0.000000 0.032477 0.000000 0.004190
# 5 -0.004293 -0.026004 0.003816 0.000000 0.062400 0.000000
# 6 0.000000 0.000000 0.000000 0.004190 0.000000 0.028304
#
#
# Mechanical properties :
#
#
# Convention : Reuss Voigt Hill
#
# Bulk Modulus (GPa) = 25.03396 40.84502 32.93949
# Shear Modulus (GPa) = 21.62955 28.01951 24.82453
#
# Velocity S-wave (km/s) = 3.18051 3.61995 3.40732
# Velocity P-wave (km/s) = 5.01949 6.04767 5.55741
#
# Compressibility (1/GPa) = 0.03994574
#
# Stress axis : x y z
#
# Youngs Moduli (GPa) = 73.11219 25.87415 66.75150
#
# Poissons Ratio (x) = 0.09065 0.29290
# Poissons Ratio (y) = 0.25614 0.38645
# Poissons Ratio (z) = 0.32081 0.14980
#
# Static dielectric constant tensor:
#      x y z
#    x 3.897360 0.000000 -0.118940 
#    y 0.000000 3.776310 0.000000 
#    z -0.118940 0.000000 4.111310 
# 
# 
# High freq. dielectric constant tensor:
#      x y z
#    x 1.839930 0.000000 -0.004210 
#    y 0.000000 1.830450 0.000000 
#    z -0.004210 0.000000 1.864740 
# 
# From -- ./inp_files/12540.got.cif
#   From: 2010.03.12/outbox.cif.g09.slc.cpg/sg4_7_cif.got.tgz:12540.got - 2010.03.31 09:31:35.
