data_PCOD8046517
_publ_section_title
;
Structure prediction by ZEFSAII (Michael W. Deem and Ramdas Pophale) SiO2 
 PCOD8046517
Probable space group: P 21
;
_chemical_formula_sum "Si O2"
_cell_formula_units_Z 14
_cell_length_a 7.478421
_cell_length_b 11.115243
_cell_length_c 8.507862
_cell_angle_alpha 90.000000
_cell_angle_beta 69.149891
_cell_angle_gamma 90.000000
_cell_volume 660.899573
_symmetry_space_group_name_H-M "P 21"
_symmetry_group_IT_number 4
_symmetry_cell_setting 'monoclinic'
loop_
_space_group_symop_operation_xyz
x,y,z
-x,1/2+y,-z
loop_
_atom_site_type_symbol
_atom_site_label
_atom_site_fract_x
_atom_site_fract_y
_atom_site_fract_z
Si Si1 0.593171 0.639100 0.421644
Si Si2 0.737497 0.417852 0.230750
Si Si3 0.014345 0.265898 0.729530
Si Si4 0.259096 0.675160 0.922731
Si Si5 0.751387 0.311064 0.547429
Si Si6 0.620829 0.541569 0.753705
Si Si7 0.954755 0.519812 0.876200
O O1 0.572924 0.514443 0.329088
O O2 0.399364 0.710532 0.456040
O O3 0.627331 0.621103 0.595351
O O4 0.781789 0.706692 0.302209
O O5 0.650717 0.300651 0.170706
O O6 0.831742 0.379752 0.368395
O O7 0.893978 0.480397 0.070961
O O8 0.936277 0.253887 0.575287
O O9 0.044163 0.405528 0.760735
O O10 0.852065 0.201095 0.882840
O O11 0.421659 0.574761 0.902958
O O12 0.113723 0.623387 0.837172
O O13 0.641464 0.400923 0.703077
O O14 0.783190 0.576547 0.828357
#
# Coordination Sequence:
#
# PCOD8046517 Si02
#       7
#     2   2   2   2   2   2   2
#     4  11  21  41  62  91 123 165 196 256 304 358
#     4  10  22  40  62  92 124 154 206 250 296 366
#     4  10  23  38  64  90 123 160 208 246 309 360
#     4  11  21  41  62  91 123 165 196 256 304 358
#     4  10  22  42  62  89 126 158 207 257 296 367
#     4  10  23  38  64  90 123 160 208 246 309 360
#     4  10  22  42  62  89 126 158 207 257 296 367
#
# _framework density 21.183249
#
# number of rings (size 3 to 8) (size 9 to 14) (size 15 to 20)
#    0.000    1.714    2.857    0.857    4.000    0.000 
#    0.000    2.857    0.000    0.000    0.000    0.000 
#    0.000    0.000    0.000    0.000    0.000    0.000 
#
# Total GULP energy -173549.035332 kJ/mol
# GULP energy per Si atom -12396.359667 kJ/mol
# Density = 2.113504 g / cm^3
# Si number density = 21.183249 Si / 1000 Ang^3
#
#
#
# Elastic Constant Matrix: (Units=GPa)
#
#
# Indices 1 2 3 4 5 6 
#
# 1 89.2559 41.9425 21.0479 0.0000 17.0316 0.0000
# 2 41.9425 85.6586 22.7697 0.0000 7.4355 0.0000
# 3 21.0479 22.7697 77.5934 0.0000 11.2691 0.0000
# 4 0.0000 0.0000 0.0000 32.4594 0.0000 2.3000
# 5 17.0316 7.4355 11.2691 0.0000 28.6543 0.0000
# 6 0.0000 0.0000 0.0000 2.3000 0.0000 18.9319
#
#
#
# Elastic Compliance Matrix: (Units=1/GPa)
#
#
# Indices 1 2 3 4 5 6 
#
# 1 0.016160 -0.006937 -0.001288 0.000000 -0.007299 0.000000
# 2 -0.006937 0.015742 -0.002909 0.000000 0.001183 0.000000
# 3 -0.001288 -0.002909 0.014710 0.000000 -0.004265 0.000000
# 4 0.000000 0.000000 0.000000 0.031075 0.000000 -0.003775
# 5 -0.007299 0.001183 -0.004265 0.000000 0.040607 0.000000
# 6 0.000000 0.000000 0.000000 -0.003775 0.000000 0.053279
#
#
# Mechanical properties :
#
#
# Convention : Reuss Voigt Hill
#
# Bulk Modulus (GPa) = 41.07888 47.11422 44.09655
# Shear Modulus (GPa) = 24.75787 27.12567 25.94177
#
# Velocity S-wave (km/s) = 3.42240 3.58232 3.50328
# Velocity P-wave (km/s) = 5.92042 6.27696 6.10130
#
# Compressibility (1/GPa) = 0.02434341
#
# Stress axis : x y z
#
# Youngs Moduli (GPa) = 61.88201 63.52632 67.98000
#
# Poissons Ratio (x) = 0.44066 0.08755
# Poissons Ratio (y) = 0.42926 0.19778
# Poissons Ratio (z) = 0.07970 0.18482
#
# Static dielectric constant tensor:
#      x y z
#    x 3.571440 0.000000 0.092110 
#    y 0.000000 4.017200 0.000000 
#    z 0.092110 0.000000 3.980890 
# 
# 
# High freq. dielectric constant tensor:
#      x y z
#    x 1.802430 0.000000 0.008060 
#    y 0.000000 1.839090 0.000000 
#    z 0.008060 0.000000 1.840070 
# 
# From -- ./inp_files/1120.got.cif
#   From: 2010.03.12/outbox.cif.g09.slc.cpg/sg4_1_cif.got.tgz:1120.got - 2010.03.31 09:31:35.
