data_PCOD8046238
_publ_section_title
;
Structure prediction by ZEFSAII (Michael W. Deem and Ramdas Pophale) SiO2 
 PCOD8046238
Probable space group: P 21
;
_chemical_formula_sum "Si O2"
_cell_formula_units_Z 14
_cell_length_a 14.440936
_cell_length_b 7.453447
_cell_length_c 14.440788
_cell_angle_alpha 90.000000
_cell_angle_beta 21.285145
_cell_angle_gamma 90.000000
_cell_volume 564.237031
_symmetry_space_group_name_H-M "P 21"
_symmetry_group_IT_number 4
_symmetry_cell_setting 'monoclinic'
loop_
_space_group_symop_operation_xyz
x,y,z
-x,1/2+y,-z
loop_
_atom_site_type_symbol
_atom_site_label
_atom_site_fract_x
_atom_site_fract_y
_atom_site_fract_z
Si Si1 0.879988 0.601250 0.995548
Si Si2 0.125857 0.259700 0.567103
Si Si3 0.495535 0.312848 0.380015
Si Si4 0.524659 0.666243 0.083741
Si Si5 0.583765 0.247656 0.024665
Si Si6 0.067088 0.654255 0.625847
Si Si7 0.729576 0.957053 0.229495
O O1 0.663876 0.457070 0.163970
O O2 0.761994 0.792818 0.129671
O O3 0.080380 0.636153 0.725468
O O4 0.007562 0.516253 0.967495
O O5 0.225471 0.277866 0.580398
O O6 0.342000 0.158441 0.303735
O O7 0.073465 0.456967 0.573454
O O8 0.848850 0.163232 0.818921
O O9 0.467448 0.397823 0.507625
O O10 0.629781 0.121322 0.261908
O O11 0.564282 0.456955 0.064263
O O12 0.318904 0.750702 0.348826
O O13 0.425162 0.706910 0.074819
O O14 0.803718 0.755485 0.841974
#
# Coordination Sequence:
#
# PCOD8046238 Si02
#       7
#     2   2   2   2   2   2   2
#     4  12  24  44  70 103 143 185 241 300 362 426
#     4  10  21  39  70  97 131 185 226 279 355 427
#     4  12  24  44  70 103 143 185 241 300 362 426
#     4  10  21  40  68  96 131 177 225 280 354 423
#     4  10  21  40  68  96 131 177 225 280 354 423
#     4  10  21  39  70  97 131 185 226 279 355 427
#     4  12  26  42  72 104 138 192 242 302 362 432
#
# _framework density 24.812269000000001
#
# number of rings (size 3 to 8) (size 9 to 14) (size 15 to 20)
#    0.000    1.143    4.286    3.429    0.000    0.000 
#    2.571    0.000   12.571    0.000    0.000    0.000 
#    0.000    0.000    0.000    0.000    0.000    0.000 
#
# Total GULP energy -173540.558957 kJ/mol
# GULP energy per Si atom -12395.754211 kJ/mol
# Density = 2.475579 g / cm^3
# Si number density = 24.812269 Si / 1000 Ang^3
#
#
#
# Elastic Constant Matrix: (Units=GPa)
#
#
# Indices 1 2 3 4 5 6 
#
# 1 137.3898 26.9280 68.6924 0.0000 -10.0016 0.0000
# 2 26.9280 99.1095 37.9294 0.0000 -1.9574 0.0000
# 3 68.6924 37.9294 209.0120 0.0000 -2.9841 0.0000
# 4 0.0000 0.0000 0.0000 18.1810 0.0000 0.7355
# 5 -10.0016 -1.9574 -2.9841 0.0000 60.6293 0.0000
# 6 0.0000 0.0000 0.0000 0.7355 0.0000 22.2364
#
#
#
# Elastic Compliance Matrix: (Units=1/GPa)
#
#
# Indices 1 2 3 4 5 6 
#
# 1 0.008987 -0.001389 -0.002683 0.000000 0.001306 0.000000
# 2 -0.001389 0.011062 -0.001550 0.000000 0.000052 0.000000
# 3 -0.002683 -0.001550 0.005945 0.000000 -0.000200 0.000000
# 4 0.000000 0.000000 0.000000 0.055076 0.000000 -0.001822
# 5 0.001306 0.000052 -0.000200 0.000000 0.016701 0.000000
# 6 0.000000 0.000000 0.000000 -0.001822 0.000000 0.045032
#
#
# Mechanical properties :
#
#
# Convention : Reuss Voigt Hill
#
# Bulk Modulus (GPa) = 67.80138 79.17898 73.49018
# Shear Modulus (GPa) = 31.45387 41.00676 36.23032
#
# Velocity S-wave (km/s) = 3.56430 4.06973 3.82537
# Velocity P-wave (km/s) = 6.65763 7.35283 7.01385
#
# Compressibility (1/GPa) = 0.01474896
#
# Stress axis : x y z
#
# Youngs Moduli (GPa) = 111.26759 90.40337 168.21984
#
# Poissons Ratio (x) = 0.12560 0.45133
# Poissons Ratio (y) = 0.15458 0.26074
# Poissons Ratio (z) = 0.29853 0.14013
#
# Static dielectric constant tensor:
#      x y z
#    x 4.191790 0.000000 -0.169980 
#    y 0.000000 4.111800 0.000000 
#    z -0.169980 0.000000 5.124980 
# 
# 
# High freq. dielectric constant tensor:
#      x y z
#    x 1.982450 0.000000 -0.004620 
#    y 0.000000 1.954290 0.000000 
#    z -0.004620 0.000000 2.007780 
# 
# From -- ./inp_files/14148.got.cif
#   From: 2010.03.12/outbox.cif.g09.slc.cpg/sg4_8_cif.got.tgz:14148.got - 2010.03.31 09:31:35.
