data_PCOD8046188
_publ_section_title
;
Structure prediction by ZEFSAII (Michael W. Deem and Ramdas Pophale) SiO2 
 PCOD8046188
Probable space group: P 21
;
_chemical_formula_sum "Si O2"
_cell_formula_units_Z 8
_cell_length_a 10.356225
_cell_length_b 4.921303
_cell_length_c 8.410058
_cell_angle_alpha 90.000000
_cell_angle_beta 54.664733
_cell_angle_gamma 90.000000
_cell_volume 349.666928
_symmetry_space_group_name_H-M "P 21"
_symmetry_group_IT_number 4
_symmetry_cell_setting 'monoclinic'
loop_
_space_group_symop_operation_xyz
x,y,z
-x,1/2+y,-z
loop_
_atom_site_type_symbol
_atom_site_label
_atom_site_fract_x
_atom_site_fract_y
_atom_site_fract_z
Si Si1 0.067717 0.061470 0.030971
Si Si2 0.606641 0.377498 0.741227
Si Si3 0.047878 0.808577 0.560356
Si Si4 0.401704 0.881505 0.881601
O O1 0.033537 0.195340 0.224672
O O2 0.044564 0.299659 0.917131
O O3 0.246388 0.950113 0.890472
O O4 0.773917 0.414387 0.532648
O O5 0.471571 0.589557 0.783857
O O6 0.541979 0.085734 0.739002
O O7 0.642946 0.406854 0.901926
O O8 0.054629 0.566189 0.425483
#
# Coordination Sequence:
#
# PCOD8046188 Si02
#       4
#     2   2   2   2
#     4  12  26  44  67 102 144 183 217 278 354 414
#     4  10  21  38  68 100 127 167 230 289 318 386
#     4  12  24  42  71 105 134 174 240 284 325 400
#     4  10  21  40  64  99 133 172 219 277 343 388
#
# _framework density 22.878914999999999
#
# number of rings (size 3 to 8) (size 9 to 14) (size 15 to 20)
#    0.000    1.000    2.500    4.500    7.000    0.000 
#    0.000    5.000    0.000    0.000    0.000    0.000 
#    0.000    0.000    0.000    0.000    0.000    0.000 
#
# Total GULP energy -99229.365716 kJ/mol
# GULP energy per Si atom -12403.670715 kJ/mol
# Density = 2.282684 g / cm^3
# Si number density = 22.878915 Si / 1000 Ang^3
#
#
#
# Elastic Constant Matrix: (Units=GPa)
#
#
# Indices 1 2 3 4 5 6 
#
# 1 99.3722 26.7052 25.3271 0.0000 -18.3924 0.0000
# 2 26.7052 106.9485 6.6428 0.0000 -5.6533 0.0000
# 3 25.3271 6.6428 61.6094 0.0000 -25.5137 0.0000
# 4 0.0000 0.0000 0.0000 32.5036 0.0000 -4.3035
# 5 -18.3924 -5.6533 -25.5137 0.0000 26.8891 0.0000
# 6 0.0000 0.0000 0.0000 -4.3035 0.0000 44.2178
#
#
#
# Elastic Compliance Matrix: (Units=1/GPa)
#
#
# Indices 1 2 3 4 5 6 
#
# 1 0.012451 -0.002658 -0.002531 0.000000 0.005556 0.000000
# 2 -0.002658 0.010027 0.000217 0.000000 0.000496 0.000000
# 3 -0.002531 0.000217 0.027263 0.000000 0.024183 0.000000
# 4 0.000000 0.000000 0.000000 0.031167 0.000000 0.003033
# 5 0.005556 0.000496 0.024183 0.000000 0.064041 0.000000
# 6 0.000000 0.000000 0.000000 0.003033 0.000000 0.022911
#
#
# Mechanical properties :
#
#
# Convention : Reuss Voigt Hill
#
# Bulk Modulus (GPa) = 25.12783 42.80894 33.96839
# Shear Modulus (GPa) = 26.16854 34.67242 30.42048
#
# Velocity S-wave (km/s) = 3.38566 3.89713 3.65036
# Velocity P-wave (km/s) = 5.12741 6.24515 5.71368
#
# Compressibility (1/GPa) = 0.03979651
#
# Stress axis : x y z
#
# Youngs Moduli (GPa) = 80.31511 99.73311 36.67968
#
# Poissons Ratio (x) = 0.26510 0.09283
# Poissons Ratio (y) = 0.21349 -0.00796
# Poissons Ratio (z) = 0.20327 -0.02163
#
# Static dielectric constant tensor:
#      x y z
#    x 4.121380 0.000000 -0.097710 
#    y 0.000000 4.461010 0.000000 
#    z -0.097710 0.000000 3.686680 
# 
# 
# High freq. dielectric constant tensor:
#      x y z
#    x 1.899020 0.000000 -0.023310 
#    y 0.000000 1.926060 0.000000 
#    z -0.023310 0.000000 1.877020 
# 
# From -- ./inp_files/5039.got.cif
#   From: 2010.03.12/outbox.cif.g09.slc.cpg/sg4_3_cif.got.tgz:5039.got - 2010.03.31 09:31:35.
