data_PCOD8046819
_publ_section_title
;
Structure prediction by ZEFSAII (Michael W. Deem and Ramdas Pophale) SiO2 
 PCOD8046819
Probable space group: P 21
;
_chemical_formula_sum "Si O2"
_cell_formula_units_Z 16
_cell_length_a 7.691521
_cell_length_b 12.867299
_cell_length_c 8.565208
_cell_angle_alpha 90.000000
_cell_angle_beta 52.961135
_cell_angle_gamma 90.000000
_cell_volume 676.649875
_symmetry_space_group_name_H-M "P 21"
_symmetry_group_IT_number 4
_symmetry_cell_setting 'monoclinic'
loop_
_space_group_symop_operation_xyz
x,y,z
-x,1/2+y,-z
loop_
_atom_site_type_symbol
_atom_site_label
_atom_site_fract_x
_atom_site_fract_y
_atom_site_fract_z
Si Si1 0.329639 0.457020 0.483360
Si Si2 0.472713 0.175711 0.642297
Si Si3 0.094198 0.740479 0.746448
Si Si4 0.686853 0.354649 0.125958
Si Si5 0.316894 0.765964 0.192399
Si Si6 0.046615 0.914224 0.543713
Si Si7 0.978980 0.024211 0.100707
Si Si8 0.963072 0.611275 0.255397
O O1 0.482439 0.554778 0.380153
O O2 0.496251 0.362524 0.359813
O O3 0.214390 0.454157 0.716715
O O4 0.156079 0.457623 0.440050
O O5 0.657316 0.234755 0.447144
O O6 0.482856 0.219267 0.815325
O O7 0.232427 0.187467 0.697049
O O8 0.114813 0.786203 0.910749
O O9 0.968347 0.821594 0.703303
O O10 0.985219 0.626732 0.809358
O O11 0.589404 0.299582 0.025656
O O12 0.791766 0.465206 0.021705
O O13 0.224080 0.868832 0.328115
O O14 0.125050 0.680226 0.273390
O O15 0.135846 0.014158 0.591672
O O16 0.912711 0.060676 0.962040
#
# Coordination Sequence:
#
# PCOD8046819 Si02
#       8
#     2   2   2   2   2   2   2   2
#     4  11  23  42  67  99 142 186 234 302 352 420
#     4  10  23  43  69 103 142 181 246 293 348 436
#     4  10  23  41  68 105 139 186 245 289 355 434
#     4  12  23  44  69 104 147 184 244 295 356 434
#     4  11  25  44  71 110 146 187 245 297 359 434
#     4  11  23  43  69 104 147 188 233 303 365 417
#     4  11  23  43  72  98 143 190 236 298 358 425
#     4  12  23  46  77 101 144 198 235 301 365 418
#
# _framework density 23.645904999999999
#
# number of rings (size 3 to 8) (size 9 to 14) (size 15 to 20)
#    0.000    1.000    6.250    0.000    1.750    1.000 
#    0.000    7.500    2.750    0.000    0.000    0.000 
#    0.000    0.000    0.000    0.000    0.000    0.000 
#
# Total GULP energy -198295.075570 kJ/mol
# GULP energy per Si atom -12393.442223 kJ/mol
# Density = 2.359209 g / cm^3
# Si number density = 23.645905 Si / 1000 Ang^3
#
#
#
# Elastic Constant Matrix: (Units=GPa)
#
#
# Indices 1 2 3 4 5 6 
#
# 1 78.8541 36.9200 11.2405 0.0000 8.9274 0.0000
# 2 36.9200 66.0370 32.1079 0.0000 6.2630 0.0000
# 3 11.2405 32.1079 107.7911 0.0000 7.0836 0.0000
# 4 0.0000 0.0000 0.0000 44.0696 0.0000 9.7880
# 5 8.9274 6.2630 7.0836 0.0000 34.1294 0.0000
# 6 0.0000 0.0000 0.0000 9.7880 0.0000 37.1995
#
#
#
# Elastic Compliance Matrix: (Units=1/GPa)
#
#
# Indices 1 2 3 4 5 6 
#
# 1 0.017623 -0.010254 0.001415 0.000000 -0.003022 0.000000
# 2 -0.010254 0.023836 -0.006002 0.000000 -0.000446 0.000000
# 3 0.001415 -0.006002 0.011020 0.000000 -0.001556 0.000000
# 4 0.000000 0.000000 0.000000 0.024100 0.000000 -0.006341
# 5 -0.003022 -0.000446 -0.001556 0.000000 0.030495 0.000000
# 6 0.000000 0.000000 0.000000 -0.006341 0.000000 0.028551
#
#
# Mechanical properties :
#
#
# Convention : Reuss Voigt Hill
#
# Bulk Modulus (GPa) = 43.86354 45.91322 44.88838
# Shear Modulus (GPa) = 28.91757 34.57396 31.74577
#
# Velocity S-wave (km/s) = 3.50085 3.82796 3.66805
# Velocity P-wave (km/s) = 5.91031 6.24475 6.07983
#
# Compressibility (1/GPa) = 0.02279798
#
# Stress axis : x y z
#
# Youngs Moduli (GPa) = 56.74352 41.95275 90.74777
#
# Poissons Ratio (x) = 0.43020 -0.12844
# Poissons Ratio (y) = 0.58187 0.54462
# Poissons Ratio (z) = -0.08031 0.25178
#
# Static dielectric constant tensor:
#      x y z
#    x 3.992630 0.000000 0.291180 
#    y 0.000000 4.425500 0.000000 
#    z 0.291180 0.000000 4.342470 
# 
# 
# High freq. dielectric constant tensor:
#      x y z
#    x 1.914740 0.000000 0.021080 
#    y 0.000000 1.949040 0.000000 
#    z 0.021080 0.000000 1.934440 
# 
# From -- ./inp_files/6384.got.cif
#   From: 2010.03.12/outbox.cif.g09.slc.cpg/sg4_4_cif.got.tgz:6384.got - 2010.03.31 09:31:35.
