data_PCOD8046370
_publ_section_title
;
Structure prediction by ZEFSAII (Michael W. Deem and Ramdas Pophale) SiO2 
 PCOD8046370
Probable space group: P 21
;
_chemical_formula_sum "Si O2"
_cell_formula_units_Z 16
_cell_length_a 14.390443
_cell_length_b 9.604933
_cell_length_c 14.387414
_cell_angle_alpha 90.000000
_cell_angle_beta 20.840428
_cell_angle_gamma 90.000000
_cell_volume 707.483444
_symmetry_space_group_name_H-M "P 21"
_symmetry_group_IT_number 4
_symmetry_cell_setting 'monoclinic'
loop_
_space_group_symop_operation_xyz
x,y,z
-x,1/2+y,-z
loop_
_atom_site_type_symbol
_atom_site_label
_atom_site_fract_x
_atom_site_fract_y
_atom_site_fract_z
Si Si1 0.376828 0.721960 0.876004
Si Si2 0.550800 0.976092 0.053453
Si Si3 0.013840 0.869213 0.516438
Si Si4 0.901472 0.155834 0.397564
Si Si5 0.730336 0.174509 0.230362
Si Si6 0.739368 0.851206 0.239147
Si Si7 0.634289 0.761953 0.138270
Si Si8 0.912804 0.847542 0.412626
O O1 0.421251 0.619620 0.919778
O O2 0.325587 0.647528 0.826184
O O3 0.636992 0.812573 0.624466
O O4 0.126191 0.812979 0.135766
O O5 0.588733 0.855299 0.091675
O O6 0.269217 0.966310 0.267751
O O7 0.764657 0.966069 0.772054
O O8 0.965019 0.782352 0.466375
O O9 0.057347 0.766953 0.560955
O O10 0.622810 0.168845 0.606607
O O11 0.924232 0.009318 0.425799
O O12 0.113389 0.166989 0.116960
O O13 0.493754 0.266701 0.492862
O O14 0.754015 0.017473 0.254007
O O15 0.992545 0.266852 0.994141
O O16 0.682979 0.855185 0.182534
#
# Coordination Sequence:
#
# PCOD8046370 Si02
#       8
#     2   2   2   2   2   2   2   2
#     4  12  26  44  67  97 136 180 216 279 348 409
#     4  10  21  42  68  88 127 166 222 262 315 407
#     4  10  23  41  64  96 124 177 216 274 323 390
#     4  10  23  39  64  95 132 167 224 276 330 410
#     4  12  28  47  73 107 144 184 247 290 373 423
#     4  12  26  47  74 106 140 187 239 305 349 445
#     4  10  21  43  68  91 122 175 219 267 341 395
#     4  12  26  41  64 100 137 174 223 281 341 403
#
# _framework density 22.615372000000001
#
# number of rings (size 3 to 8) (size 9 to 14) (size 15 to 20)
#    0.000    1.000    1.250    4.500    3.500    6.000 
#    0.000    0.000    0.000    0.000    0.000    0.000 
#    0.000    0.000    0.000    0.000    0.000    0.000 
#
# Total GULP energy -198345.121409 kJ/mol
# GULP energy per Si atom -12396.570088 kJ/mol
# Density = 2.256390 g / cm^3
# Si number density = 22.615372 Si / 1000 Ang^3
#
#
#
# Elastic Constant Matrix: (Units=GPa)
#
#
# Indices 1 2 3 4 5 6 
#
# 1 80.0298 11.5717 37.3675 0.0000 0.0112 0.0000
# 2 11.5717 120.3850 59.7547 0.0000 -9.1694 0.0000
# 3 37.3675 59.7547 203.8341 0.0000 -27.6003 0.0000
# 4 0.0000 0.0000 0.0000 14.4827 0.0000 3.6350
# 5 0.0112 -9.1694 -27.6003 0.0000 23.6539 0.0000
# 6 0.0000 0.0000 0.0000 3.6350 0.0000 29.1223
#
#
#
# Elastic Compliance Matrix: (Units=1/GPa)
#
#
# Indices 1 2 3 4 5 6 
#
# 1 0.013912 -0.000121 -0.002996 0.000000 -0.003549 0.000000
# 2 -0.000121 0.009728 -0.002754 0.000000 0.000557 0.000000
# 3 -0.002996 -0.002754 0.007266 0.000000 0.007412 0.000000
# 4 0.000000 0.000000 0.000000 0.071281 0.000000 -0.008897
# 5 -0.003549 0.000557 0.007412 0.000000 0.051143 0.000000
# 6 0.000000 0.000000 0.000000 -0.008897 0.000000 0.035448
#
#
# Mechanical properties :
#
#
# Convention : Reuss Voigt Hill
#
# Bulk Modulus (GPa) = 52.17789 69.07077 60.62433
# Shear Modulus (GPa) = 24.16543 33.15545 28.66044
#
# Velocity S-wave (km/s) = 3.27240 3.83307 3.56378
# Velocity P-wave (km/s) = 6.11556 7.08503 6.61807
#
# Compressibility (1/GPa) = 0.01916521
#
# Stress axis : x y z
#
# Youngs Moduli (GPa) = 71.88058 102.79827 137.62469
#
# Poissons Ratio (x) = 0.01241 0.41226
# Poissons Ratio (y) = 0.00867 0.37904
# Poissons Ratio (z) = 0.21532 0.28312
#
# Static dielectric constant tensor:
#      x y z
#    x 3.961260 0.000000 -0.135490 
#    y 0.000000 4.000330 0.000000 
#    z -0.135490 0.000000 4.677480 
# 
# 
# High freq. dielectric constant tensor:
#      x y z
#    x 1.894720 0.000000 -0.003430 
#    y 0.000000 1.884370 0.000000 
#    z -0.003430 0.000000 1.912740 
# 
# From -- ./inp_files/3667.got.cif
#   From: 2010.03.12/outbox.cif.g09.slc.cpg/sg4_2_cif.got.tgz:3667.got - 2010.03.31 09:31:35.
