data_PCOD8046548
_publ_section_title
;
Structure prediction by ZEFSAII (Michael W. Deem and Ramdas Pophale) SiO2 
 PCOD8046548
Probable space group: P 21
;
_chemical_formula_sum "Si O2"
_cell_formula_units_Z 16
_cell_length_a 17.996161
_cell_length_b 9.312469
_cell_length_c 9.244782
_cell_angle_alpha 90.000000
_cell_angle_beta 28.796175
_cell_angle_gamma 90.000000
_cell_volume 746.300406
_symmetry_space_group_name_H-M "P 21"
_symmetry_group_IT_number 4
_symmetry_cell_setting 'monoclinic'
loop_
_space_group_symop_operation_xyz
x,y,z
-x,1/2+y,-z
loop_
_atom_site_type_symbol
_atom_site_label
_atom_site_fract_x
_atom_site_fract_y
_atom_site_fract_z
Si Si1 0.576148 0.666180 0.709384
Si Si2 0.745305 0.215731 0.307966
Si Si3 0.759849 0.211490 0.611394
Si Si4 0.552007 0.956643 0.609428
Si Si5 0.729644 0.533798 0.717190
Si Si6 0.153782 0.499008 0.301313
Si Si7 0.989945 0.223741 0.661915
Si Si8 0.506216 0.932315 0.359448
O O1 0.623808 0.825242 0.578605
O O2 0.696163 0.586043 0.609822
O O3 0.557025 0.584417 0.589535
O O4 0.419716 0.677183 0.066362
O O5 0.806260 0.204977 0.366269
O O6 0.593875 0.313667 0.552029
O O7 0.696961 0.058842 0.334123
O O8 0.891955 0.270528 0.968636
O O9 0.797243 0.371983 0.604957
O O10 0.851254 0.085894 0.538668
O O11 0.482374 0.912695 0.572135
O O12 0.421259 0.038527 0.924581
O O13 0.852493 0.644058 0.569867
O O14 0.118872 0.620202 0.243880
O O15 0.026899 0.373079 0.517624
O O16 0.315799 0.421062 0.991726
#
# Coordination Sequence:
#
# PCOD8046548 Si02
#       8
#     2   2   2   2   2   2   2   2
#     4  10  22  40  69 103 131 176 233 281 345 395
#     4  12  24  43  66 102 134 171 229 284 329 406
#     4  10  23  43  71  96 135 176 235 281 328 405
#     4  11  23  40  72  98 136 171 234 284 334 394
#     4  11  23  44  68  99 139 184 219 281 349 405
#     4  11  26  48  69  97 139 185 225 278 351 409
#     4  12  28  45  67 100 142 179 223 275 356 415
#     4  11  23  45  70 103 130 178 234 292 324 403
#
# _framework density 21.439088999999999
#
# number of rings (size 3 to 8) (size 9 to 14) (size 15 to 20)
#    0.000    1.000    3.750    2.250    7.000    1.000 
#    0.000    0.000    0.000    0.000    0.000    0.000 
#    0.000    0.000    0.000    0.000    0.000    0.000 
#
# Total GULP energy -198399.376496 kJ/mol
# GULP energy per Si atom -12399.961031 kJ/mol
# Density = 2.139029 g / cm^3
# Si number density = 21.439089 Si / 1000 Ang^3
#
#
#
# Elastic Constant Matrix: (Units=GPa)
#
#
# Indices 1 2 3 4 5 6 
#
# 1 89.3900 22.7634 33.1777 0.0000 21.8582 0.0000
# 2 22.7634 112.3332 50.2106 0.0000 -2.6898 0.0000
# 3 33.1777 50.2106 78.0194 0.0000 13.4493 0.0000
# 4 0.0000 0.0000 0.0000 24.0955 0.0000 0.0336
# 5 21.8582 -2.6898 13.4493 0.0000 28.8090 0.0000
# 6 0.0000 0.0000 0.0000 0.0336 0.0000 39.4471
#
#
#
# Elastic Compliance Matrix: (Units=1/GPa)
#
#
# Indices 1 2 3 4 5 6 
#
# 1 0.015497 -0.001716 -0.003731 0.000000 -0.010176 0.000000
# 2 -0.001716 0.013495 -0.009132 0.000000 0.006825 0.000000
# 3 -0.003731 -0.009132 0.021685 0.000000 -0.008145 0.000000
# 4 0.000000 0.000000 0.000000 0.041502 0.000000 -0.000035
# 5 -0.010176 0.006825 -0.008145 0.000000 0.046872 0.000000
# 6 0.000000 0.000000 0.000000 -0.000035 0.000000 0.025350
#
#
# Mechanical properties :
#
#
# Convention : Reuss Voigt Hill
#
# Bulk Modulus (GPa) = 46.47126 54.67178 50.57152
# Shear Modulus (GPa) = 24.90873 30.04306 27.47590
#
# Velocity S-wave (km/s) = 3.41227 3.74748 3.58380
# Velocity P-wave (km/s) = 6.10310 6.65441 6.38471
#
# Compressibility (1/GPa) = 0.02151867
#
# Stress axis : x y z
#
# Youngs Moduli (GPa) = 64.52726 74.10191 46.11485
#
# Poissons Ratio (x) = 0.12717 0.17208
# Poissons Ratio (y) = 0.11074 0.42110
# Poissons Ratio (z) = 0.24078 0.67667
#
# Static dielectric constant tensor:
#      x y z
#    x 3.822840 0.000000 0.107270 
#    y 0.000000 4.062490 0.000000 
#    z 0.107270 0.000000 3.564580 
# 
# 
# High freq. dielectric constant tensor:
#      x y z
#    x 1.844310 0.000000 0.013810 
#    y 0.000000 1.856810 0.000000 
#    z 0.013810 0.000000 1.822960 
# 
# From -- ./inp_files/5395.got.cif
#   From: 2010.03.12/outbox.cif.g09.slc.cpg/sg4_3_cif.got.tgz:5395.got - 2010.03.31 09:31:35.
