data_PCOD8046381
_publ_section_title
;
Structure prediction by ZEFSAII (Michael W. Deem and Ramdas Pophale) SiO2 
 PCOD8046381
Probable space group: P 21
;
_chemical_formula_sum "Si O2"
_cell_formula_units_Z 16
_cell_length_a 11.386490
_cell_length_b 8.906902
_cell_length_c 13.848022
_cell_angle_alpha 90.000000
_cell_angle_beta 145.536431
_cell_angle_gamma 90.000000
_cell_volume 794.749478
_symmetry_space_group_name_H-M "P 21"
_symmetry_group_IT_number 4
_symmetry_cell_setting 'monoclinic'
loop_
_space_group_symop_operation_xyz
x,y,z
-x,1/2+y,-z
loop_
_atom_site_type_symbol
_atom_site_label
_atom_site_fract_x
_atom_site_fract_y
_atom_site_fract_z
Si Si1 0.526080 0.973070 0.151481
Si Si2 0.569325 0.445744 0.566520
Si Si3 0.098471 0.803485 0.842065
Si Si4 0.724952 0.736282 0.956079
Si Si5 0.889106 0.253143 0.676713
Si Si6 0.207633 0.476124 0.854760
Si Si7 0.256142 0.461930 0.511250
Si Si8 0.742391 0.759547 0.741857
O O1 0.617504 0.957049 0.107431
O O2 0.701778 0.923851 0.348253
O O3 0.474810 0.144809 0.143826
O O4 0.315524 0.879090 0.015763
O O5 0.760214 0.336656 0.673376
O O6 0.458311 0.399690 0.591896
O O7 0.638961 0.619169 0.614132
O O8 0.393527 0.411047 0.365899
O O9 0.148797 0.646493 0.826963
O O10 0.960185 0.889253 0.668304
O O11 0.972834 0.784066 0.856699
O O12 0.752962 0.727278 0.861397
O O13 0.704251 0.906264 0.984202
O O14 0.932119 0.660441 0.144154
O O15 0.000906 0.380087 0.685462
O O16 0.754457 0.141708 0.519309
#
# Coordination Sequence:
#
# PCOD8046381 Si02
#       8
#     2   2   2   2   2   2   2   2
#     4  12  23  43  69  91 129 180 222 265 329 384
#     4  11  20  39  61  95 132 161 217 263 327 401
#     4  11  24  43  62 101 135 157 229 275 314 400
#     4  10  22  42  66  90 131 176 210 265 344 370
#     4  10  21  43  62  90 136 160 213 274 322 387
#     4  10  24  42  66  93 129 174 222 276 313 389
#     4  11  24  41  66  97 127 177 208 269 338 382
#     4  11  22  39  66  97 131 175 205 277 339 389
#
# _framework density 20.13213
#
# number of rings (size 3 to 8) (size 9 to 14) (size 15 to 20)
#    0.750    0.500    5.000    0.750    1.750    2.000 
#    4.500    1.250    0.000    0.000    0.000    0.000 
#    0.000    0.000    0.000    0.000    0.000    0.000 
#
# Total GULP energy -198267.994878 kJ/mol
# GULP energy per Si atom -12391.749680 kJ/mol
# Density = 2.008631 g / cm^3
# Si number density = 20.132130 Si / 1000 Ang^3
#
#
#
# Elastic Constant Matrix: (Units=GPa)
#
#
# Indices 1 2 3 4 5 6 
#
# 1 115.6084 41.6090 46.1922 0.0000 6.5702 0.0000
# 2 41.6090 101.7519 45.1238 0.0000 -0.0237 0.0000
# 3 46.1922 45.1238 102.6726 0.0000 -5.2802 0.0000
# 4 0.0000 0.0000 0.0000 29.8531 0.0000 5.3502
# 5 6.5702 -0.0237 -5.2802 0.0000 21.8259 0.0000
# 6 0.0000 0.0000 0.0000 5.3502 0.0000 24.1318
#
#
#
# Elastic Compliance Matrix: (Units=1/GPa)
#
#
# Indices 1 2 3 4 5 6 
#
# 1 0.011622 -0.002896 -0.004188 0.000000 -0.004515 0.000000
# 2 -0.002896 0.012965 -0.004404 0.000000 -0.000180 0.000000
# 3 -0.004188 -0.004404 0.013796 0.000000 0.004593 0.000000
# 4 0.000000 0.000000 0.000000 0.034883 0.000000 -0.007734
# 5 -0.004515 -0.000180 0.004593 0.000000 0.048287 0.000000
# 6 0.000000 0.000000 0.000000 -0.007734 0.000000 0.043154
#
#
# Mechanical properties :
#
#
# Convention : Reuss Voigt Hill
#
# Bulk Modulus (GPa) = 64.91050 65.09809 65.00429
# Shear Modulus (GPa) = 25.93078 27.63603 26.78340
#
# Velocity S-wave (km/s) = 3.59281 3.70906 3.65140
# Velocity P-wave (km/s) = 7.03728 7.12379 7.08067
#
# Compressibility (1/GPa) = 0.01540583
#
# Stress axis : x y z
#
# Youngs Moduli (GPa) = 86.04125 77.12842 72.48572
#
# Poissons Ratio (x) = 0.22340 0.30358
# Poissons Ratio (y) = 0.24921 0.31925
# Poissons Ratio (z) = 0.36035 0.33970
#
# Static dielectric constant tensor:
#      x y z
#    x 3.572550 0.000000 0.201040 
#    y 0.000000 3.707480 0.000000 
#    z 0.201040 0.000000 3.581750 
# 
# 
# High freq. dielectric constant tensor:
#      x y z
#    x 1.780440 0.000000 0.019190 
#    y 0.000000 1.785000 0.000000 
#    z 0.019190 0.000000 1.778810 
# 
# From -- ./inp_files/13970.got.cif
#   From: 2010.03.12/outbox.cif.g09.slc.cpg/sg4_7_cif.got.tgz:13970.got - 2010.03.31 09:31:35.
