data_PCOD8046675
_publ_section_title
;
Structure prediction by ZEFSAII (Michael W. Deem and Ramdas Pophale) SiO2 
 PCOD8046675
Probable space group: P 21
;
_chemical_formula_sum "Si O2"
_cell_formula_units_Z 14
_cell_length_a 19.178351
_cell_length_b 5.068140
_cell_length_c 8.892582
_cell_angle_alpha 90.000000
_cell_angle_beta 140.768602
_cell_angle_gamma 90.000000
_cell_volume 546.659127
_symmetry_space_group_name_H-M "P 21"
_symmetry_group_IT_number 4
_symmetry_cell_setting 'monoclinic'
loop_
_space_group_symop_operation_xyz
x,y,z
-x,1/2+y,-z
loop_
_atom_site_type_symbol
_atom_site_label
_atom_site_fract_x
_atom_site_fract_y
_atom_site_fract_z
Si Si1 0.656167 0.097380 0.932053
Si Si2 0.724280 0.580775 0.893677
Si Si3 0.065453 0.914406 0.572714
Si Si4 0.786528 0.057281 0.433076
Si Si5 0.557258 0.873471 0.039215
Si Si6 0.038861 0.144042 0.231323
Si Si7 0.168445 0.885741 0.211072
O O1 0.633612 0.368370 0.803980
O O2 0.553023 0.997211 0.861268
O O3 0.683338 0.876199 0.852926
O O4 0.760696 0.168343 0.219818
O O5 0.837380 0.540869 0.169844
O O6 0.743391 0.532320 0.747731
O O7 0.081017 0.906155 0.414222
O O8 0.967368 0.132923 0.416422
O O9 0.903722 0.913969 0.618764
O O10 0.686620 0.846385 0.298454
O O11 0.770440 0.260657 0.543705
O O12 0.494763 0.082651 0.042689
O O13 0.078757 0.092615 0.127342
O O14 0.905731 0.176296 0.008090
#
# Coordination Sequence:
#
# PCOD8046675 Si02
#       7
#     2   2   2   2   2   2   2
#     4  10  24  43  71  97 136 165 228 287 340 403
#     4  12  24  42  62  98 135 186 222 278 335 406
#     4  12  25  38  61  87 127 179 240 284 320 384
#     4  10  25  42  67 100 135 178 224 298 336 410
#     4  10  22  43  79 108 121 165 231 296 354 407
#     4  12  25  40  61  92 142 188 237 273 332 406
#     4  12  27  38  65  94 148 193 230 274 345 412
#
# _framework density 25.610109000000001
#
# number of rings (size 3 to 8) (size 9 to 14) (size 15 to 20)
#    0.857    0.000    4.286    2.571    8.000    0.000 
#    0.000    0.000    0.000    3.429    0.000    0.000 
#    0.000    0.000    0.000    0.000    0.000    0.000 
#
# Total GULP energy -173533.022142 kJ/mol
# GULP energy per Si atom -12395.215867 kJ/mol
# Density = 2.555182 g / cm^3
# Si number density = 25.610109 Si / 1000 Ang^3
#
#
#
# Elastic Constant Matrix: (Units=GPa)
#
#
# Indices 1 2 3 4 5 6 
#
# 1 91.4438 8.9347 12.4386 0.0000 -30.8608 0.0000
# 2 8.9347 89.5783 12.1876 0.0000 -15.3454 0.0000
# 3 12.4386 12.1876 28.9225 0.0000 -15.5345 0.0000
# 4 0.0000 0.0000 0.0000 26.0506 0.0000 -7.9834
# 5 -30.8608 -15.3454 -15.5345 0.0000 42.3274 0.0000
# 6 0.0000 0.0000 0.0000 -7.9834 0.0000 47.3596
#
#
#
# Elastic Compliance Matrix: (Units=1/GPa)
#
#
# Indices 1 2 3 4 5 6 
#
# 1 0.014533 0.000454 -0.000824 0.000000 0.010458 0.000000
# 2 0.000454 0.012185 -0.003462 0.000000 0.003478 0.000000
# 3 -0.000824 -0.003462 0.044081 0.000000 0.014322 0.000000
# 4 0.000000 0.000000 0.000000 0.040478 0.000000 0.006823
# 5 0.010458 0.003478 0.014322 0.000000 0.037767 0.000000
# 6 0.000000 0.000000 0.000000 0.006823 0.000000 0.022265
#
#
# Mechanical properties :
#
#
# Convention : Reuss Voigt Hill
#
# Bulk Modulus (GPa) = 15.83920 30.78516 23.31218
# Shear Modulus (GPa) = 24.99775 34.90643 29.95209
#
# Velocity S-wave (km/s) = 3.12763 3.69588 3.42357
# Velocity P-wave (km/s) = 4.38645 5.50086 4.97496
#
# Compressibility (1/GPa) = 0.06313450
#
# Stress axis : x y z
#
# Youngs Moduli (GPa) = 68.80962 82.06855 22.68565
#
# Poissons Ratio (x) = -0.03727 0.01870
# Poissons Ratio (y) = -0.03125 0.07853
# Poissons Ratio (z) = 0.05673 0.28410
#
# Static dielectric constant tensor:
#      x y z
#    x 4.857490 0.000000 -0.259390 
#    y 0.000000 4.451780 0.000000 
#    z -0.259390 0.000000 4.162920 
# 
# 
# High freq. dielectric constant tensor:
#      x y z
#    x 2.034920 0.000000 -0.020510 
#    y 0.000000 2.026430 0.000000 
#    z -0.020510 0.000000 1.984300 
# 
# From -- ./inp_files/9509.got.cif
#   From: 2010.03.12/outbox.cif.g09.slc.cpg/sg4_5_cif.got.tgz:9509.got - 2010.03.31 09:31:35.
