data_PCOD8046042
_publ_section_title
;
Structure prediction by ZEFSAII (Michael W. Deem and Ramdas Pophale) SiO2 
 PCOD8046042
Probable space group: P 21
;
_chemical_formula_sum "Si O2"
_cell_formula_units_Z 16
_cell_length_a 11.923320
_cell_length_b 5.201273
_cell_length_c 11.604309
_cell_angle_alpha 90.000000
_cell_angle_beta 65.082796
_cell_angle_gamma 90.000000
_cell_volume 652.670435
_symmetry_space_group_name_H-M "P 21"
_symmetry_group_IT_number 4
_symmetry_cell_setting 'monoclinic'
loop_
_space_group_symop_operation_xyz
x,y,z
-x,1/2+y,-z
loop_
_atom_site_type_symbol
_atom_site_label
_atom_site_fract_x
_atom_site_fract_y
_atom_site_fract_z
Si Si1 0.126893 0.913650 0.026808
Si Si2 0.114256 0.188283 0.821797
Si Si3 0.949602 0.809297 0.771198
Si Si4 0.360530 0.663097 0.996338
Si Si5 0.197818 0.512037 0.603713
Si Si6 0.512656 0.665468 0.154403
Si Si7 0.922339 0.767601 0.543134
Si Si8 0.452539 0.706004 0.453592
O O1 0.210483 0.688668 0.048240
O O2 0.180533 0.980318 0.875547
O O3 0.980113 0.867284 0.064093
O O4 0.136695 0.172440 0.097897
O O5 0.223499 0.335736 0.706768
O O6 0.010134 0.079227 0.778909
O O7 0.864598 0.830182 0.694230
O O8 0.065909 0.634606 0.683709
O O9 0.397819 0.398660 0.919551
O O10 0.418757 0.897495 0.898559
O O11 0.395003 0.676424 0.117458
O O12 0.187332 0.320330 0.499356
O O13 0.304343 0.718125 0.535480
O O14 0.478630 0.690647 0.304726
O O15 0.963503 0.470220 0.517881
O O16 0.495345 0.455279 0.505738
#
# Coordination Sequence:
#
# PCOD8046042 Si02
#       8
#     2   2   2   2   2   2   2   2
#     4  11  24  39  68 105 137 188 229 288 362 430
#     4  11  22  41  63 101 143 178 234 282 351 441
#     4  10  22  41  64 101 140 179 234 281 352 435
#     4  10  24  47  79 103 142 191 233 312 365 411
#     4  10  25  44  68  95 143 188 229 297 358 414
#     4  10  24  51  72 108 141 181 255 299 359 431
#     4  10  20  40  65  96 134 182 228 277 349 424
#     4  12  29  49  73 109 140 193 250 300 360 436
#
# _framework density 24.514669999999999
#
# number of rings (size 3 to 8) (size 9 to 14) (size 15 to 20)
#    0.000    1.500    2.500    0.750    5.250    2.000 
#   11.250    0.000    0.000    0.000    0.000    0.000 
#    0.000    0.000    0.000    0.000    0.000    0.000 
#
# Total GULP energy -198229.025148 kJ/mol
# GULP energy per Si atom -12389.314072 kJ/mol
# Density = 2.445887 g / cm^3
# Si number density = 24.514670 Si / 1000 Ang^3
#
#
#
# Elastic Constant Matrix: (Units=GPa)
#
#
# Indices 1 2 3 4 5 6 
#
# 1 76.6906 -0.0682 39.0467 0.0000 5.9475 0.0000
# 2 -0.0682 88.6706 23.1267 0.0000 0.8291 0.0000
# 3 39.0467 23.1267 119.4556 0.0000 32.1405 0.0000
# 4 0.0000 0.0000 0.0000 34.7237 0.0000 6.2886
# 5 5.9475 0.8291 32.1405 0.0000 33.4928 0.0000
# 6 0.0000 0.0000 0.0000 6.2886 0.0000 25.4606
#
#
#
# Elastic Compliance Matrix: (Units=1/GPa)
#
#
# Indices 1 2 3 4 5 6 
#
# 1 0.016078 0.001669 -0.006470 0.000000 0.003312 0.000000
# 2 0.001669 0.012218 -0.003707 0.000000 0.002958 0.000000
# 3 -0.006470 -0.003707 0.014653 0.000000 -0.012821 0.000000
# 4 0.000000 0.000000 0.000000 0.030147 0.000000 -0.007446
# 5 0.003312 0.002958 -0.012821 0.000000 0.041499 0.000000
# 6 0.000000 0.000000 0.000000 -0.007446 0.000000 0.041116
#
#
# Mechanical properties :
#
#
# Convention : Reuss Voigt Hill
#
# Bulk Modulus (GPa) = 38.55958 45.44749 42.00353
# Shear Modulus (GPa) = 27.56769 33.58285 30.57527
#
# Velocity S-wave (km/s) = 3.35705 3.70524 3.53544
# Velocity P-wave (km/s) = 5.54885 6.07324 5.81696
#
# Compressibility (1/GPa) = 0.02593389
#
# Stress axis : x y z
#
# Youngs Moduli (GPa) = 62.19664 81.84551 68.24391
#
# Poissons Ratio (x) = -0.13658 0.44152
# Poissons Ratio (y) = -0.10379 0.25297
# Poissons Ratio (z) = 0.40239 0.30339
#
# Static dielectric constant tensor:
#      x y z
#    x 4.462490 0.000000 0.519500 
#    y 0.000000 4.698710 0.000000 
#    z 0.519500 0.000000 4.876700 
# 
# 
# High freq. dielectric constant tensor:
#      x y z
#    x 1.960320 0.000000 0.029640 
#    y 0.000000 1.985370 0.000000 
#    z 0.029640 0.000000 1.980660 
# 
# From -- ./inp_files/11750.got.cif
#   From: 2010.03.12/outbox.cif.g09.slc.cpg/sg4_6_cif.got.tgz:11750.got - 2010.03.31 09:31:35.
