data_PCOD8046096
_publ_section_title
;
Structure prediction by ZEFSAII (Michael W. Deem and Ramdas Pophale) SiO2 
 PCOD8046096
Probable space group: P 21
;
_chemical_formula_sum "Si O2"
_cell_formula_units_Z 14
_cell_length_a 11.698361
_cell_length_b 8.030169
_cell_length_c 13.869566
_cell_angle_alpha 90.000000
_cell_angle_beta 149.635765
_cell_angle_gamma 90.000000
_cell_volume 658.612050
_symmetry_space_group_name_H-M "P 21"
_symmetry_group_IT_number 4
_symmetry_cell_setting 'monoclinic'
loop_
_space_group_symop_operation_xyz
x,y,z
-x,1/2+y,-z
loop_
_atom_site_type_symbol
_atom_site_label
_atom_site_fract_x
_atom_site_fract_y
_atom_site_fract_z
Si Si1 0.403540 0.384270 0.169134
Si Si2 0.098008 0.168355 0.299622
Si Si3 0.456768 0.754730 0.286966
Si Si4 0.088117 0.868068 0.165215
Si Si5 0.857296 0.329392 0.586156
Si Si6 0.637833 0.366243 0.979344
Si Si7 0.332477 0.231476 0.918952
O O1 0.425219 0.571928 0.220648
O O2 0.625346 0.281406 0.363032
O O3 0.378410 0.372574 0.034574
O O4 0.171485 0.314461 0.047243
O O5 0.329756 0.271621 0.485668
O O6 0.891378 0.295678 0.154650
O O7 0.099832 0.068223 0.198260
O O8 0.090872 0.028920 0.379389
O O9 0.236687 0.815213 0.183812
O O10 0.483521 0.871992 0.213177
O O11 0.166948 0.769910 0.319656
O O12 0.072604 0.242253 0.692513
O O13 0.631046 0.552662 0.009663
O O14 0.499421 0.250380 0.951431
#
# Coordination Sequence:
#
# PCOD8046096 Si02
#       7
#     2   2   2   2   2   2   2
#     4  10  20  43  67  94 132 172 216 268 322 385
#     4   9  21  43  62  94 130 167 214 270 319 387
#     4  11  22  41  67  97 127 176 216 268 328 384
#     4   9  20  39  64  96 129 172 213 263 324 383
#     4   8  19  41  64  92 129 168 215 265 324 378
#     4  12  24  43  67  95 134 171 223 268 331 385
#     4  11  24  42  67  96 131 174 217 276 320 390
#
# _framework density 21.256824999999999
#
# number of rings (size 3 to 8) (size 9 to 14) (size 15 to 20)
#    0.857    1.143    1.429    1.714    0.000    5.714 
#    7.714    0.000    0.000    0.000    0.000    0.000 
#    0.000    0.000    0.000    0.000    0.000    0.000 
#
# Total GULP energy -173470.737322 kJ/mol
# GULP energy per Si atom -12390.766952 kJ/mol
# Density = 2.120844 g / cm^3
# Si number density = 21.256825 Si / 1000 Ang^3
#
#
#
# Elastic Constant Matrix: (Units=GPa)
#
#
# Indices 1 2 3 4 5 6 
#
# 1 106.8891 28.8900 55.3044 0.0000 19.4990 0.0000
# 2 28.8900 44.9777 37.2746 0.0000 14.6751 0.0000
# 3 55.3044 37.2746 166.7538 0.0000 10.4446 0.0000
# 4 0.0000 0.0000 0.0000 24.0493 0.0000 4.3688
# 5 19.4990 14.6751 10.4446 0.0000 18.5617 0.0000
# 6 0.0000 0.0000 0.0000 4.3688 0.0000 31.7113
#
#
#
# Elastic Compliance Matrix: (Units=1/GPa)
#
#
# Indices 1 2 3 4 5 6 
#
# 1 0.013676 -0.002662 -0.003288 0.000000 -0.010411 0.000000
# 2 -0.002662 0.036053 -0.005769 0.000000 -0.022461 0.000000
# 3 -0.003288 -0.005769 0.008163 0.000000 0.003423 0.000000
# 4 0.000000 0.000000 0.000000 0.042649 0.000000 -0.005876
# 5 -0.010411 -0.022461 0.003423 0.000000 0.080644 0.000000
# 6 0.000000 0.000000 0.000000 -0.005876 0.000000 0.032344
#
#
# Mechanical properties :
#
#
# Convention : Reuss Voigt Hill
#
# Bulk Modulus (GPa) = 29.02597 62.39541 45.71069
# Shear Modulus (GPa) = 20.12474 28.00789 24.06632
#
# Velocity S-wave (km/s) = 3.08026 3.63381 3.36842
# Velocity P-wave (km/s) = 5.13178 6.85733 6.05632
#
# Compressibility (1/GPa) = 0.03445190
#
# Stress axis : x y z
#
# Youngs Moduli (GPa) = 73.12267 27.73720 122.50838
#
# Poissons Ratio (x) = 0.07383 0.40286
# Poissons Ratio (y) = 0.19465 0.70677
# Poissons Ratio (z) = 0.24046 0.16002
#
# Static dielectric constant tensor:
#      x y z
#    x 3.684450 0.000000 -0.027620 
#    y 0.000000 3.563760 0.000000 
#    z -0.027620 0.000000 4.214910 
# 
# 
# High freq. dielectric constant tensor:
#      x y z
#    x 1.813980 0.000000 0.008950 
#    y 0.000000 1.812770 0.000000 
#    z 0.008950 0.000000 1.848330 
# 
# From -- ./inp_files/13956.got.cif
#   From: 2010.03.12/outbox.cif.g09.slc.cpg/sg4_7_cif.got.tgz:13956.got - 2010.03.31 09:31:35.
