data_PCOD8046778
_publ_section_title
;
Structure prediction by ZEFSAII (Michael W. Deem and Ramdas Pophale) SiO2 
 PCOD8046778
Probable space group: P 21
;
_chemical_formula_sum "Si O2"
_cell_formula_units_Z 14
_cell_length_a 10.684385
_cell_length_b 8.924445
_cell_length_c 10.576599
_cell_angle_alpha 90.000000
_cell_angle_beta 143.045710
_cell_angle_gamma 90.000000
_cell_volume 606.288931
_symmetry_space_group_name_H-M "P 21"
_symmetry_group_IT_number 4
_symmetry_cell_setting 'monoclinic'
loop_
_space_group_symop_operation_xyz
x,y,z
-x,1/2+y,-z
loop_
_atom_site_type_symbol
_atom_site_label
_atom_site_fract_x
_atom_site_fract_y
_atom_site_fract_z
Si Si1 0.663654 0.764010 0.402120
Si Si2 0.107366 0.726335 0.876643
Si Si3 0.439853 0.941862 0.038028
Si Si4 0.265482 0.179021 0.077315
Si Si5 0.805571 0.215949 0.763615
Si Si6 0.542771 0.481010 0.569331
Si Si7 0.582668 0.987449 0.876389
O O1 0.526827 0.871736 0.376242
O O2 0.555608 0.600742 0.319798
O O3 0.884577 0.740562 0.637403
O O4 0.646818 0.848963 0.252873
O O5 0.238454 0.846343 0.906311
O O6 0.112483 0.759269 0.030245
O O7 0.195198 0.562776 0.913255
O O8 0.457218 0.958611 0.903015
O O9 0.396436 0.101158 0.069957
O O10 0.367300 0.343043 0.166689
O O11 0.306434 0.106414 0.247890
O O12 0.014672 0.180552 0.850362
O O13 0.686347 0.362006 0.604368
O O14 0.657680 0.066629 0.652212
#
# Coordination Sequence:
#
# PCOD8046778 Si02
#       7
#     2   2   2   2   2   2   2
#     4  10  23  46  69 100 139 181 226 286 349 407
#     4  11  24  44  70  97 141 181 230 281 351 406
#     4  10  22  49  68  98 140 181 228 297 335 409
#     4  11  25  42  69 105 134 179 234 280 352 416
#     4  12  27  44  71 100 141 184 226 292 344 418
#     4  11  27  43  67  99 145 180 228 286 351 408
#     4  11  24  42  74  99 138 180 234 288 348 406
#
# _framework density 23.091298999999999
#
# number of rings (size 3 to 8) (size 9 to 14) (size 15 to 20)
#    0.000    1.143    4.286    2.571    6.000    2.286 
#    0.000    4.286    0.000    0.000    0.000    0.000 
#    0.000    0.000    0.000    0.000    0.000    0.000 
#
# Total GULP energy -173470.734624 kJ/mol
# GULP energy per Si atom -12390.766759 kJ/mol
# Density = 2.303874 g / cm^3
# Si number density = 23.091299 Si / 1000 Ang^3
#
#
#
# Elastic Constant Matrix: (Units=GPa)
#
#
# Indices 1 2 3 4 5 6 
#
# 1 54.7396 20.3314 27.1171 0.0000 5.1751 0.0000
# 2 20.3314 154.8299 60.0248 0.0000 13.2223 0.0000
# 3 27.1171 60.0248 168.9135 0.0000 23.1050 0.0000
# 4 0.0000 0.0000 0.0000 23.1285 0.0000 -4.6657
# 5 5.1751 13.2223 23.1050 0.0000 16.4886 0.0000
# 6 0.0000 0.0000 0.0000 -4.6657 0.0000 31.3075
#
#
#
# Elastic Compliance Matrix: (Units=1/GPa)
#
#
# Indices 1 2 3 4 5 6 
#
# 1 0.020225 -0.001559 -0.002469 0.000000 -0.001638 0.000000
# 2 -0.001559 0.007718 -0.002119 0.000000 -0.002731 0.000000
# 3 -0.002469 -0.002119 0.008327 0.000000 -0.009195 0.000000
# 4 0.000000 0.000000 0.000000 0.044577 0.000000 0.006643
# 5 -0.001638 -0.002731 -0.009195 0.000000 0.076236 0.000000
# 6 0.000000 0.000000 0.000000 0.006643 0.000000 0.032931
#
#
# Mechanical properties :
#
#
# Convention : Reuss Voigt Hill
#
# Bulk Modulus (GPa) = 41.70615 65.93664 53.82140
# Shear Modulus (GPa) = 23.77550 32.25223 28.01387
#
# Velocity S-wave (km/s) = 3.21227 3.74134 3.48685
# Velocity P-wave (km/s) = 5.64436 6.87606 6.29043
#
# Compressibility (1/GPa) = 0.02397728
#
# Stress axis : x y z
#
# Youngs Moduli (GPa) = 49.44326 129.56628 120.08821
#
# Poissons Ratio (x) = 0.20197 0.29649
# Poissons Ratio (y) = 0.07707 0.25445
# Poissons Ratio (z) = 0.12207 0.27454
#
# Static dielectric constant tensor:
#      x y z
#    x 4.045250 0.000000 0.173960 
#    y 0.000000 4.908860 0.000000 
#    z 0.173960 0.000000 4.222290 
# 
# 
# High freq. dielectric constant tensor:
#      x y z
#    x 1.893460 0.000000 0.008790 
#    y 0.000000 1.939240 0.000000 
#    z 0.008790 0.000000 1.907940 
# 
# From -- ./inp_files/11924.got.cif
#   From: 2010.03.12/outbox.cif.g09.slc.cpg/sg4_6_cif.got.tgz:11924.got - 2010.03.31 09:31:35.
