data_PCOD8046529
_publ_section_title
;
Structure prediction by ZEFSAII (Michael W. Deem and Ramdas Pophale) SiO2 
 PCOD8046529
Probable space group: P 21
;
_chemical_formula_sum "Si O2"
_cell_formula_units_Z 12
_cell_length_a 8.983727
_cell_length_b 5.000588
_cell_length_c 13.200786
_cell_angle_alpha 90.000000
_cell_angle_beta 126.789696
_cell_angle_gamma 90.000000
_cell_volume 474.922420
_symmetry_space_group_name_H-M "P 21"
_symmetry_group_IT_number 4
_symmetry_cell_setting 'monoclinic'
loop_
_space_group_symop_operation_xyz
x,y,z
-x,1/2+y,-z
loop_
_atom_site_type_symbol
_atom_site_label
_atom_site_fract_x
_atom_site_fract_y
_atom_site_fract_z
Si Si1 0.153250 0.979270 0.250014
Si Si2 0.759862 0.141840 0.369106
Si Si3 0.097391 0.972662 0.866886
Si Si4 0.828487 0.637633 0.523372
Si Si5 0.451844 0.013913 0.916716
Si Si6 0.609996 0.420773 0.844430
O O1 0.242139 0.074146 0.392414
O O2 0.324354 0.927910 0.244203
O O3 0.047310 0.701338 0.217438
O O4 0.011798 0.202140 0.151558
O O5 0.760389 0.929125 0.461571
O O6 0.577993 0.104628 0.222502
O O7 0.948030 0.106267 0.381890
O O8 0.740188 0.434539 0.407524
O O9 0.230485 0.938975 0.820693
O O10 0.225922 0.031086 0.017396
O O11 0.550582 0.117802 0.853863
O O12 0.440246 0.271159 0.988168
#
# Coordination Sequence:
#
# PCOD8046529 Si02
#       6
#     2   2   2   2   2   2
#     4  12  25  42  66  94 138 175 215 271 337 400
#     4  10  23  42  67  90 124 166 225 274 318 395
#     4  11  24  43  64  95 137 178 212 263 336 404
#     4  10  23  44  64  91 123 172 217 271 335 384
#     4  10  22  40  64  94 131 173 224 269 318 395
#     4  11  25  41  67 102 131 170 221 278 332 392
#
# _framework density 25.267285000000001
#
# number of rings (size 3 to 8) (size 9 to 14) (size 15 to 20)
#    0.000    1.333    0.000    5.000    0.000   14.667 
#    0.000    0.000    0.000    0.000    0.000    0.000 
#    0.000    0.000    0.000    0.000    0.000    0.000 
#
# Total GULP energy -148784.238713 kJ/mol
# GULP energy per Si atom -12398.686559 kJ/mol
# Density = 2.520978 g / cm^3
# Si number density = 25.267285 Si / 1000 Ang^3
#
#
#
# Elastic Constant Matrix: (Units=GPa)
#
#
# Indices 1 2 3 4 5 6 
#
# 1 113.5708 7.7944 1.5732 0.0000 -10.9178 0.0000
# 2 7.7944 87.4607 -1.1132 0.0000 6.7126 0.0000
# 3 1.5732 -1.1132 79.6135 0.0000 0.1167 0.0000
# 4 0.0000 0.0000 0.0000 40.1301 0.0000 6.9159
# 5 -10.9178 6.7126 0.1167 0.0000 39.7352 0.0000
# 6 0.0000 0.0000 0.0000 6.9159 0.0000 31.7763
#
#
#
# Elastic Compliance Matrix: (Units=1/GPa)
#
#
# Indices 1 2 3 4 5 6 
#
# 1 0.009136 -0.001023 -0.000199 0.000000 0.002684 0.000000
# 2 -0.001023 0.011701 0.000187 0.000000 -0.002258 0.000000
# 3 -0.000199 0.000187 0.012567 0.000000 -0.000123 0.000000
# 4 0.000000 0.000000 0.000000 0.025890 0.000000 -0.005635
# 5 0.002684 -0.002258 -0.000123 0.000000 0.026286 0.000000
# 6 0.000000 0.000000 0.000000 -0.005635 0.000000 0.032696
#
#
# Mechanical properties :
#
#
# Convention : Reuss Voigt Hill
#
# Bulk Modulus (GPa) = 31.91290 33.01708 32.46499
# Shear Modulus (GPa) = 38.22927 40.48771 39.35849
#
# Velocity S-wave (km/s) = 3.89394 4.00731 3.95103
# Velocity P-wave (km/s) = 5.73364 5.87426 5.80437
#
# Compressibility (1/GPa) = 0.03133530
#
# Stress axis : x y z
#
# Youngs Moduli (GPa) = 109.45709 85.46610 79.57093
#
# Poissons Ratio (x) = 0.08740 0.01582
# Poissons Ratio (y) = 0.11194 -0.01489
# Poissons Ratio (z) = 0.02176 -0.01599
#
# Static dielectric constant tensor:
#      x y z
#    x 4.686870 0.000000 0.015700 
#    y 0.000000 4.918710 0.000000 
#    z 0.015700 0.000000 4.348380 
# 
# 
# High freq. dielectric constant tensor:
#      x y z
#    x 2.001480 0.000000 -0.002970 
#    y 0.000000 2.027610 0.000000 
#    z -0.002970 0.000000 2.006340 
# 
# From -- ./inp_files/13609.got.cif
#   From: 2010.03.12/outbox.cif.g09.slc.cpg/sg4_7_cif.got.tgz:13609.got - 2010.03.31 09:31:35.
