data_PCOD8046541
_publ_section_title
;
Structure prediction by ZEFSAII (Michael W. Deem and Ramdas Pophale) SiO2 
 PCOD8046541
Probable space group: P 21
;
_chemical_formula_sum "Si O2"
_cell_formula_units_Z 16
_cell_length_a 18.097552
_cell_length_b 5.124984
_cell_length_c 9.022112
_cell_angle_alpha 90.000000
_cell_angle_beta 118.378747
_cell_angle_gamma 90.000000
_cell_volume 736.235626
_symmetry_space_group_name_H-M "P 21"
_symmetry_group_IT_number 4
_symmetry_cell_setting 'monoclinic'
loop_
_space_group_symop_operation_xyz
x,y,z
-x,1/2+y,-z
loop_
_atom_site_type_symbol
_atom_site_label
_atom_site_fract_x
_atom_site_fract_y
_atom_site_fract_z
Si Si1 0.561891 0.030260 0.709151
Si Si2 0.200289 0.081704 0.679907
Si Si3 0.964188 0.252645 0.885353
Si Si4 0.386339 0.031376 0.408312
Si Si5 0.714956 0.087113 0.294918
Si Si6 0.786660 0.371542 0.613830
Si Si7 0.975676 0.661644 0.390720
Si Si8 0.548969 0.944724 0.024428
O O1 0.594777 0.316489 0.698846
O O2 0.589856 0.975681 0.902674
O O3 0.460019 0.004150 0.601992
O O4 0.608661 0.820647 0.652189
O O5 0.243217 0.354090 0.756115
O O6 0.177067 0.062468 0.481264
O O7 0.118885 0.052609 0.705272
O O8 0.265094 0.849078 0.780174
O O9 0.863302 0.302343 0.797657
O O10 0.988631 0.198831 0.738912
O O11 0.013920 0.503743 0.993093
O O12 0.292231 0.004421 0.380333
O O13 0.751018 0.111357 0.497144
O O14 0.615890 0.035592 0.211778
O O15 0.028546 0.437731 0.525924
O O16 0.471320 0.142603 0.966469
#
# Coordination Sequence:
#
# PCOD8046541 Si02
#       8
#     2   2   2   2   2   2   2   2
#     4  10  23  41  60 100 128 170 225 253 345 392
#     4  10  22  40  68  99 122 173 234 281 323 424
#     4  12  28  46  69 107 145 179 235 302 368 422
#     4  10  22  40  68  86 133 180 209 271 316 426
#     4  10  23  39  66 100 130 166 230 277 331 408
#     4  10  24  44  71  95 133 177 238 264 354 409
#     4  12  22  45  77  99 135 185 232 294 356 434
#     4  12  24  41  67  96 134 170 217 294 337 393
#
# _framework density 21.732175000000002
#
# number of rings (size 3 to 8) (size 9 to 14) (size 15 to 20)
#    0.750    0.500    1.250    4.500    5.250    1.000 
#    6.750    0.000    0.000    0.000    0.000    0.000 
#    0.000    0.000    0.000    0.000    0.000    0.000 
#
# Total GULP energy -198330.882319 kJ/mol
# GULP energy per Si atom -12395.680145 kJ/mol
# Density = 2.168271 g / cm^3
# Si number density = 21.732175 Si / 1000 Ang^3
#
#
#
# Elastic Constant Matrix: (Units=GPa)
#
#
# Indices 1 2 3 4 5 6 
#
# 1 107.3435 4.4483 27.8361 0.0000 14.5146 0.0000
# 2 4.4483 94.2800 16.1070 0.0000 2.7672 0.0000
# 3 27.8361 16.1070 78.4071 0.0000 9.2198 0.0000
# 4 0.0000 0.0000 0.0000 26.9278 0.0000 2.4742
# 5 14.5146 2.7672 9.2198 0.0000 36.1708 0.0000
# 6 0.0000 0.0000 0.0000 2.4742 0.0000 31.2413
#
#
#
# Elastic Compliance Matrix: (Units=1/GPa)
#
#
# Indices 1 2 3 4 5 6 
#
# 1 0.010657 0.000182 -0.003419 0.000000 -0.003419 0.000000
# 2 0.000182 0.010998 -0.002285 0.000000 -0.000332 0.000000
# 3 -0.003419 -0.002285 0.014696 0.000000 -0.002199 0.000000
# 4 0.000000 0.000000 0.000000 0.037409 0.000000 -0.002963
# 5 -0.003419 -0.000332 -0.002199 0.000000 0.029605 0.000000
# 6 0.000000 0.000000 0.000000 -0.002963 0.000000 0.032244
#
#
# Mechanical properties :
#
#
# Convention : Reuss Voigt Hill
#
# Bulk Modulus (GPa) = 39.51458 41.86815 40.69137
# Shear Modulus (GPa) = 32.23989 34.31059 33.27524
#
# Velocity S-wave (km/s) = 3.85581 3.97771 3.91724
# Velocity P-wave (km/s) = 6.16807 6.35638 6.26293
#
# Compressibility (1/GPa) = 0.02530712
#
# Stress axis : x y z
#
# Youngs Moduli (GPa) = 93.83307 90.92387 68.04743
#
# Poissons Ratio (x) = -0.01651 0.23264
# Poissons Ratio (y) = -0.01704 0.15547
# Poissons Ratio (z) = 0.32080 0.20774
#
# Static dielectric constant tensor:
#      x y z
#    x 3.745360 0.000000 0.163740 
#    y 0.000000 4.031780 0.000000 
#    z 0.163740 0.000000 3.813840 
# 
# 
# High freq. dielectric constant tensor:
#      x y z
#    x 1.851040 0.000000 0.009790 
#    y 0.000000 1.870770 0.000000 
#    z 0.009790 0.000000 1.829300 
# 
# From -- ./inp_files/9402.got.cif
#   From: 2010.03.12/outbox.cif.g09.slc.cpg/sg4_5_cif.got.tgz:9402.got - 2010.03.31 09:31:35.
