data_PCOD8046689
_publ_section_title
;
Structure prediction by ZEFSAII (Michael W. Deem and Ramdas Pophale) SiO2 
 PCOD8046689
Probable space group: P 21
;
_chemical_formula_sum "Si O2"
_cell_formula_units_Z 16
_cell_length_a 11.385887
_cell_length_b 9.054821
_cell_length_c 9.055985
_cell_angle_alpha 90.000000
_cell_angle_beta 51.376777
_cell_angle_gamma 90.000000
_cell_volume 729.427635
_symmetry_space_group_name_H-M "P 21"
_symmetry_group_IT_number 4
_symmetry_cell_setting 'monoclinic'
loop_
_space_group_symop_operation_xyz
x,y,z
-x,1/2+y,-z
loop_
_atom_site_type_symbol
_atom_site_label
_atom_site_fract_x
_atom_site_fract_y
_atom_site_fract_z
Si Si1 0.295366 0.424200 0.615278
Si Si2 0.370693 0.680474 0.042279
Si Si3 0.193747 0.652472 0.896451
Si Si4 0.163971 0.600059 0.462057
Si Si5 0.079021 0.934251 0.505561
Si Si6 0.403451 0.938641 0.213976
Si Si7 0.633472 0.389537 0.416122
Si Si8 0.872056 0.625525 0.252539
O O1 0.254376 0.485777 0.812360
O O2 0.246254 0.556700 0.547154
O O3 0.473301 0.393352 0.459050
O O4 0.199405 0.281372 0.646909
O O5 0.289152 0.596512 0.237561
O O6 0.454559 0.822630 0.047414
O O7 0.247705 0.714821 0.012577
O O8 0.495885 0.582306 0.865761
O O9 0.265602 0.754183 0.714402
O O10 0.011174 0.652436 0.030917
O O11 0.081800 0.759275 0.541126
O O12 0.047669 0.470475 0.513568
O O13 0.233766 0.982519 0.305479
O O14 0.055248 0.034481 0.669319
O O15 0.395424 0.870541 0.385622
O O16 0.730674 0.534831 0.297175
#
# Coordination Sequence:
#
# PCOD8046689 Si02
#       8
#     2   2   2   2   2   2   2   2
#     4  12  25  42  72 102 138 190 227 285 364 407
#     4  11  24  43  68  98 139 171 231 287 337 410
#     4  12  24  46  65 102 138 180 233 291 342 420
#     4  11  24  43  71  98 140 182 230 287 342 414
#     4  10  22  44  66  99 134 181 234 280 342 411
#     4  10  24  45  67 100 134 179 222 291 336 415
#     4  11  25  47  70  99 143 181 234 282 357 423
#     4  11  24  44  71  98 138 182 233 289 344 418
#
# _framework density 21.935006000000001
#
# number of rings (size 3 to 8) (size 9 to 14) (size 15 to 20)
#    0.000    1.000    2.500    4.500    5.250    1.000 
#    0.000    0.000    0.000    0.000    0.000    0.000 
#    0.000    0.000    0.000    0.000    0.000    0.000 
#
# Total GULP energy -198332.223257 kJ/mol
# GULP energy per Si atom -12395.763954 kJ/mol
# Density = 2.188508 g / cm^3
# Si number density = 21.935006 Si / 1000 Ang^3
#
#
#
# Elastic Constant Matrix: (Units=GPa)
#
#
# Indices 1 2 3 4 5 6 
#
# 1 77.3737 28.7461 31.7687 0.0000 -10.0286 0.0000
# 2 28.7461 100.8691 48.1207 0.0000 -5.2697 0.0000
# 3 31.7687 48.1207 96.0676 0.0000 -14.6222 0.0000
# 4 0.0000 0.0000 0.0000 44.7436 0.0000 -6.6592
# 5 -10.0286 -5.2697 -14.6222 0.0000 34.4229 0.0000
# 6 0.0000 0.0000 0.0000 -6.6592 0.0000 36.7720
#
#
#
# Elastic Compliance Matrix: (Units=1/GPa)
#
#
# Indices 1 2 3 4 5 6 
#
# 1 0.015682 -0.002694 -0.003425 0.000000 0.002701 0.000000
# 2 -0.002694 0.013512 -0.006075 0.000000 -0.001297 0.000000
# 3 -0.003425 -0.006075 0.015279 0.000000 0.004563 0.000000
# 4 0.000000 0.000000 0.000000 0.022969 0.000000 0.004159
# 5 0.002701 -0.001297 0.004563 0.000000 0.031577 0.000000
# 6 0.000000 0.000000 0.000000 0.004159 0.000000 0.027948
#
#
# Mechanical properties :
#
#
# Convention : Reuss Voigt Hill
#
# Bulk Modulus (GPa) = 49.78797 54.62016 52.20407
# Shear Modulus (GPa) = 31.63583 34.23271 32.93427
#
# Velocity S-wave (km/s) = 3.80182 3.95478 3.87906
# Velocity P-wave (km/s) = 6.48221 6.76821 6.62675
#
# Compressibility (1/GPa) = 0.02008517
#
# Stress axis : x y z
#
# Youngs Moduli (GPa) = 63.76899 74.00957 65.44795
#
# Poissons Ratio (x) = 0.19937 0.22418
# Poissons Ratio (y) = 0.17178 0.39757
# Poissons Ratio (z) = 0.21843 0.44958
#
# Static dielectric constant tensor:
#      x y z
#    x 4.035780 0.000000 -0.100670 
#    y 0.000000 4.003500 0.000000 
#    z -0.100670 0.000000 3.928840 
# 
# 
# High freq. dielectric constant tensor:
#      x y z
#    x 1.866500 0.000000 -0.007300 
#    y 0.000000 1.865150 0.000000 
#    z -0.007300 0.000000 1.859080 
# 
# From -- ./inp_files/5590.got.cif
#   From: 2010.03.12/outbox.cif.g09.slc.cpg/sg4_3_cif.got.tgz:5590.got - 2010.03.31 09:31:35.
