data_PCOD8046190
_publ_section_title
;
Structure prediction by ZEFSAII (Michael W. Deem and Ramdas Pophale) SiO2 
 PCOD8046190
Probable space group: P 21
;
_chemical_formula_sum "Si O2"
_cell_formula_units_Z 16
_cell_length_a 9.417184
_cell_length_b 8.501531
_cell_length_c 12.197878
_cell_angle_alpha 90.000000
_cell_angle_beta 45.849053
_cell_angle_gamma 90.000000
_cell_volume 700.694576
_symmetry_space_group_name_H-M "P 21"
_symmetry_group_IT_number 4
_symmetry_cell_setting 'monoclinic'
loop_
_space_group_symop_operation_xyz
x,y,z
-x,1/2+y,-z
loop_
_atom_site_type_symbol
_atom_site_label
_atom_site_fract_x
_atom_site_fract_y
_atom_site_fract_z
Si Si1 0.951333 0.417610 0.402882
Si Si2 0.659055 0.813440 0.443290
Si Si3 0.647089 0.587788 0.151751
Si Si4 0.680867 0.920806 0.060746
Si Si5 0.359898 0.116120 0.326849
Si Si6 0.083894 0.068588 0.801030
Si Si7 0.601304 0.879641 0.858731
Si Si8 0.675717 0.158577 0.511309
O O1 0.845531 0.519327 0.555029
O O2 0.865609 0.464691 0.330756
O O3 0.885053 0.234133 0.438080
O O4 0.183713 0.450305 0.289843
O O5 0.633485 0.741944 0.578919
O O6 0.844476 0.743900 0.272850
O O7 0.454956 0.780742 0.489789
O O8 0.705120 0.998361 0.426889
O O9 0.758806 0.748476 0.054991
O O10 0.788395 0.504018 0.164919
O O11 0.591764 0.470883 0.082788
O O12 0.434556 0.624218 0.316662
O O13 0.535079 0.986564 0.233427
O O14 0.570636 0.885316 0.005226
O O15 0.853469 0.050551 0.954634
O O16 0.390402 0.202875 0.193725
#
# Coordination Sequence:
#
# PCOD8046190 Si02
#       8
#     2   2   2   2   2   2   2   2
#     4  10  23  42  67  98 133 164 226 288 330 400
#     4  10  21  38  70  98 131 165 220 285 336 394
#     4  11  22  42  69  92 132 179 219 275 335 404
#     4  11  24  45  63  93 140 175 222 274 329 406
#     4  11  22  39  67  94 128 178 217 275 338 392
#     4   9  23  44  64 102 128 170 224 280 333 396
#     4  11  25  42  63  94 133 179 225 271 332 400
#     4  11  20  40  67 101 129 168 221 280 347 390
#
# _framework density 22.834485000000001
#
# number of rings (size 3 to 8) (size 9 to 14) (size 15 to 20)
#    0.000    1.500    2.500    3.000    3.500    1.000 
#    2.250    6.250    0.000    0.000    0.000    0.000 
#    0.000    0.000    0.000    0.000    0.000    0.000 
#
# Total GULP energy -198270.063011 kJ/mol
# GULP energy per Si atom -12391.878938 kJ/mol
# Density = 2.278251 g / cm^3
# Si number density = 22.834485 Si / 1000 Ang^3
#
#
#
# Elastic Constant Matrix: (Units=GPa)
#
#
# Indices 1 2 3 4 5 6 
#
# 1 88.2693 25.4195 9.1606 0.0000 12.8435 0.0000
# 2 25.4195 93.1773 9.1091 0.0000 -3.0965 0.0000
# 3 9.1606 9.1091 62.7819 0.0000 -2.7004 0.0000
# 4 0.0000 0.0000 0.0000 29.9447 0.0000 1.0031
# 5 12.8435 -3.0965 -2.7004 0.0000 25.9869 0.0000
# 6 0.0000 0.0000 0.0000 1.0031 0.0000 30.3923
#
#
#
# Elastic Compliance Matrix: (Units=1/GPa)
#
#
# Indices 1 2 3 4 5 6 
#
# 1 0.013685 -0.003807 -0.001763 0.000000 -0.007400 0.000000
# 2 -0.003807 0.011979 -0.001045 0.000000 0.003200 0.000000
# 3 -0.001763 -0.001045 0.016443 0.000000 0.002455 0.000000
# 4 0.000000 0.000000 0.000000 0.033432 0.000000 -0.001103
# 5 -0.007400 0.003200 0.002455 0.000000 0.042775 0.000000
# 6 0.000000 0.000000 0.000000 -0.001103 0.000000 0.032939
#
#
# Mechanical properties :
#
#
# Convention : Reuss Voigt Hill
#
# Bulk Modulus (GPa) = 34.62900 36.84522 35.73711
# Shear Modulus (GPa) = 28.71776 30.63407 29.67591
#
# Velocity S-wave (km/s) = 3.55018 3.66672 3.60892
# Velocity P-wave (km/s) = 5.65714 5.83928 5.74893
#
# Compressibility (1/GPa) = 0.02887753
#
# Stress axis : x y z
#
# Youngs Moduli (GPa) = 73.07270 83.47726 60.81767
#
# Poissons Ratio (x) = 0.31780 0.10721
# Poissons Ratio (y) = 0.27819 0.06355
# Poissons Ratio (z) = 0.12881 0.08723
#
# Static dielectric constant tensor:
#      x y z
#    x 3.999420 0.000000 0.117120 
#    y 0.000000 4.222110 0.000000 
#    z 0.117120 0.000000 4.024140 
# 
# 
# High freq. dielectric constant tensor:
#      x y z
#    x 1.894670 0.000000 0.012650 
#    y 0.000000 1.897830 0.000000 
#    z 0.012650 0.000000 1.893780 
# 
# From -- ./inp_files/11026.got.cif
#   From: 2010.03.12/outbox.cif.g09.slc.cpg/sg4_6_cif.got.tgz:11026.got - 2010.03.31 09:31:35.
