data_PCOD8046680
_publ_section_title
;
Structure prediction by ZEFSAII (Michael W. Deem and Ramdas Pophale) SiO2 
 PCOD8046680
Probable space group: P 21
;
_chemical_formula_sum "Si O2"
_cell_formula_units_Z 16
_cell_length_a 11.782300
_cell_length_b 9.815357
_cell_length_c 9.635199
_cell_angle_alpha 90.000000
_cell_angle_beta 137.509079
_cell_angle_gamma 90.000000
_cell_volume 752.670853
_symmetry_space_group_name_H-M "P 21"
_symmetry_group_IT_number 4
_symmetry_cell_setting 'monoclinic'
loop_
_space_group_symop_operation_xyz
x,y,z
-x,1/2+y,-z
loop_
_atom_site_type_symbol
_atom_site_label
_atom_site_fract_x
_atom_site_fract_y
_atom_site_fract_z
Si Si1 0.866100 0.142170 0.228795
Si Si2 0.917827 0.541221 0.825311
Si Si3 0.615213 0.900369 0.044172
Si Si4 0.968380 0.755276 0.081609
Si Si5 0.418765 0.330969 0.290330
Si Si6 0.889116 0.672896 0.300373
Si Si7 0.571500 0.543865 0.624450
Si Si8 0.690860 0.420143 0.023048
O O1 0.781465 0.275133 0.085503
O O2 0.979087 0.185355 0.458627
O O3 0.720405 0.039488 0.143386
O O4 0.993174 0.067274 0.239675
O O5 0.017262 0.627135 0.030995
O O6 0.721014 0.578756 0.649953
O O7 0.918539 0.381602 0.862493
O O8 0.733073 0.772826 0.186237
O O9 0.526347 0.883067 0.812867
O O10 0.475939 0.905481 0.036709
O O11 0.776366 0.798516 0.890255
O O12 0.000084 0.716399 0.268663
O O13 0.443279 0.444527 0.431002
O O14 0.516027 0.189301 0.416322
O O15 0.818571 0.521005 0.216268
O O16 0.645793 0.477447 0.830998
#
# Coordination Sequence:
#
# PCOD8046680 Si02
#       8
#     2   2   2   2   2   2   2   2
#     4  12  26  40  73 101 129 180 229 268 340 403
#     4  11  22  43  67  98 129 175 216 276 333 387
#     4  11  24  47  68  96 139 180 219 285 332 391
#     4  10  22  44  65  92 139 168 218 277 327 392
#     4  10  23  44  65  96 134 173 220 272 333 395
#     4  11  23  48  64  99 140 174 224 280 332 395
#     4  11  25  43  68  98 134 175 219 277 333 399
#     4  12  25  45  68 100 138 175 229 273 334 402
#
# _framework density 21.257632999999998
#
# number of rings (size 3 to 8) (size 9 to 14) (size 15 to 20)
#    0.000    1.000    6.250    2.250    3.500    3.000 
#    2.250    0.000    0.000    0.000    0.000    0.000 
#    0.000    0.000    0.000    0.000    0.000    0.000 
#
# Total GULP energy -198404.191579 kJ/mol
# GULP energy per Si atom -12400.261974 kJ/mol
# Density = 2.120925 g / cm^3
# Si number density = 21.257633 Si / 1000 Ang^3
#
#
#
# Elastic Constant Matrix: (Units=GPa)
#
#
# Indices 1 2 3 4 5 6 
#
# 1 63.6465 24.6567 23.9383 0.0000 -8.8620 0.0000
# 2 24.6567 112.2132 22.9068 0.0000 -2.7460 0.0000
# 3 23.9383 22.9068 91.6447 0.0000 -21.0009 0.0000
# 4 0.0000 0.0000 0.0000 41.1390 0.0000 -2.1878
# 5 -8.8620 -2.7460 -21.0009 0.0000 15.8901 0.0000
# 6 0.0000 0.0000 0.0000 -2.1878 0.0000 38.7468
#
#
#
# Elastic Compliance Matrix: (Units=1/GPa)
#
#
# Indices 1 2 3 4 5 6 
#
# 1 0.018940 -0.003475 -0.002576 0.000000 0.006558 0.000000
# 2 -0.003475 0.010079 -0.002376 0.000000 -0.003337 0.000000
# 3 -0.002576 -0.002376 0.016862 0.000000 0.020438 0.000000
# 4 0.000000 0.000000 0.000000 0.024381 0.000000 0.001377
# 5 0.006558 -0.003337 0.020438 0.000000 0.093025 0.000000
# 6 0.000000 0.000000 0.000000 0.001377 0.000000 0.025886
#
#
# Mechanical properties :
#
#
# Convention : Reuss Voigt Hill
#
# Bulk Modulus (GPa) = 34.45156 45.61201 40.03179
# Shear Modulus (GPa) = 23.18001 32.22202 27.70101
#
# Velocity S-wave (km/s) = 3.30575 3.89753 3.61378
# Velocity P-wave (km/s) = 5.55090 6.46202 6.02371
#
# Compressibility (1/GPa) = 0.02902626
#
# Stress axis : x y z
#
# Youngs Moduli (GPa) = 52.79813 99.21975 59.30509
#
# Poissons Ratio (x) = 0.34483 0.15276
# Poissons Ratio (y) = 0.18350 0.14091
# Poissons Ratio (z) = 0.13600 0.23575
#
# Static dielectric constant tensor:
#      x y z
#    x 3.726090 0.000000 -0.063800 
#    y 0.000000 4.414800 0.000000 
#    z -0.063800 0.000000 3.567720 
# 
# 
# High freq. dielectric constant tensor:
#      x y z
#    x 1.831500 0.000000 -0.012190 
#    y 0.000000 1.857420 0.000000 
#    z -0.012190 0.000000 1.823190 
# 
# From -- ./inp_files/5592.got.cif
#   From: 2010.03.12/outbox.cif.g09.slc.cpg/sg4_3_cif.got.tgz:5592.got - 2010.03.31 09:31:35.
