data_PCOD8046257
_publ_section_title
;
Structure prediction by ZEFSAII (Michael W. Deem and Ramdas Pophale) SiO2 
 PCOD8046257
Probable space group: P 21
;
_chemical_formula_sum "Si O2"
_cell_formula_units_Z 16
_cell_length_a 11.623572
_cell_length_b 10.407307
_cell_length_c 9.112368
_cell_angle_alpha 90.000000
_cell_angle_beta 130.319526
_cell_angle_gamma 90.000000
_cell_volume 840.464508
_symmetry_space_group_name_H-M "P 21"
_symmetry_group_IT_number 4
_symmetry_cell_setting 'monoclinic'
loop_
_space_group_symop_operation_xyz
x,y,z
-x,1/2+y,-z
loop_
_atom_site_type_symbol
_atom_site_label
_atom_site_fract_x
_atom_site_fract_y
_atom_site_fract_z
Si Si1 0.279791 0.439870 0.246432
Si Si2 0.536966 0.343184 0.263151
Si Si3 0.789009 0.540363 0.403932
Si Si4 0.234559 0.658062 0.423649
Si Si5 0.051664 0.276440 0.924858
Si Si6 0.134463 0.239502 0.302573
Si Si7 0.729602 0.760595 0.143832
Si Si8 0.089129 0.441323 0.500971
O O1 0.436374 0.428141 0.289834
O O2 0.268073 0.580752 0.302870
O O3 0.278399 0.327430 0.370846
O O4 0.129965 0.416853 0.018481
O O5 0.677119 0.422782 0.321690
O O6 0.606757 0.217692 0.398104
O O7 0.437263 0.298396 0.044342
O O8 0.819699 0.604391 0.588154
O O9 0.707766 0.645325 0.237456
O O10 0.940832 0.489515 0.458150
O O11 0.168857 0.564361 0.493723
O O12 0.113613 0.772244 0.285893
O O13 0.168735 0.208716 0.908591
O O14 0.040864 0.206253 0.075996
O O15 0.044896 0.330355 0.345735
O O16 0.803579 0.882991 0.285248
#
# Coordination Sequence:
#
# PCOD8046257 Si02
#       8
#     2   2   2   2   2   2   2   2
#     4   8  21  41  58  86 127 155 203 258 307 355
#     4  11  25  36  61  94 122 170 202 243 325 374
#     4  11  22  39  66  89 125 160 209 258 311 373
#     4  11  21  39  66  90 123 160 210 254 308 373
#     4   9  18  39  63  90 114 159 207 254 299 359
#     4   8  20  39  62  85 122 157 205 251 313 352
#     4  10  22  41  59  88 131 157 205 257 311 368
#     4  10  21  40  63  88 120 166 203 259 306 366
#
# _framework density 19.037092000000001
#
# number of rings (size 3 to 8) (size 9 to 14) (size 15 to 20)
#    0.750    1.500    1.250    0.750    5.250    3.000 
#    0.000    2.500    0.000    0.000    0.000    0.000 
#    0.000    0.000    0.000    0.000    0.000    0.000 
#
# Total GULP energy -198237.891048 kJ/mol
# GULP energy per Si atom -12389.868190 kJ/mol
# Density = 1.899376 g / cm^3
# Si number density = 19.037092 Si / 1000 Ang^3
#
#
#
# Elastic Constant Matrix: (Units=GPa)
#
#
# Indices 1 2 3 4 5 6 
#
# 1 65.2021 23.1013 38.6275 0.0000 3.6728 0.0000
# 2 23.1013 68.8037 40.3221 0.0000 10.2705 0.0000
# 3 38.6275 40.3221 122.0698 0.0000 2.4857 0.0000
# 4 0.0000 0.0000 0.0000 25.4613 0.0000 -0.0721
# 5 3.6728 10.2705 2.4857 0.0000 31.2211 0.0000
# 6 0.0000 0.0000 0.0000 -0.0721 0.0000 24.2852
#
#
#
# Elastic Compliance Matrix: (Units=1/GPa)
#
#
# Indices 1 2 3 4 5 6 
#
# 1 0.019605 -0.003527 -0.005023 0.000000 -0.000746 0.000000
# 2 -0.003527 0.019639 -0.005256 0.000000 -0.005627 0.000000
# 3 -0.005023 -0.005256 0.011489 0.000000 0.001405 0.000000
# 4 0.000000 0.000000 0.000000 0.039276 0.000000 0.000117
# 5 -0.000746 -0.005627 0.001405 0.000000 0.033857 0.000000
# 6 0.000000 0.000000 0.000000 0.000117 0.000000 0.041178
#
#
# Mechanical properties :
#
#
# Convention : Reuss Voigt Hill
#
# Bulk Modulus (GPa) = 43.25454 51.13080 47.19267
# Shear Modulus (GPa) = 24.95476 26.46183 25.70830
#
# Velocity S-wave (km/s) = 3.62449 3.73233 3.67881
# Velocity P-wave (km/s) = 6.34716 6.74467 6.54893
#
# Compressibility (1/GPa) = 0.02311896
#
# Stress axis : x y z
#
# Youngs Moduli (GPa) = 51.00848 50.91964 87.03756
#
# Poissons Ratio (x) = 0.17960 0.43722
# Poissons Ratio (y) = 0.17991 0.45750
# Poissons Ratio (z) = 0.25623 0.26765
#
# Static dielectric constant tensor:
#      x y z
#    x 3.464280 0.000000 -0.235890 
#    y 0.000000 3.370650 0.000000 
#    z -0.235890 0.000000 3.571050 
# 
# 
# High freq. dielectric constant tensor:
#      x y z
#    x 1.738380 0.000000 -0.017140 
#    y 0.000000 1.728570 0.000000 
#    z -0.017140 0.000000 1.738230 
# 
# From -- ./inp_files/8330.got.cif
#   From: 2010.03.12/outbox.cif.g09.slc.cpg/sg4_5_cif.got.tgz:8330.got - 2010.03.31 09:31:35.
