data_PCOD8046938
_publ_section_title
;
Structure prediction by ZEFSAII (Michael W. Deem and Ramdas Pophale) SiO2 
 PCOD8046938
Probable space group: P 21
;
_chemical_formula_sum "Si O2"
_cell_formula_units_Z 16
_cell_length_a 5.202284
_cell_length_b 11.142946
_cell_length_c 11.641075
_cell_angle_alpha 90.000000
_cell_angle_beta 71.487772
_cell_angle_gamma 90.000000
_cell_volume 639.900914
_symmetry_space_group_name_H-M "P 21"
_symmetry_group_IT_number 4
_symmetry_cell_setting 'monoclinic'
loop_
_space_group_symop_operation_xyz
x,y,z
-x,1/2+y,-z
loop_
_atom_site_type_symbol
_atom_site_label
_atom_site_fract_x
_atom_site_fract_y
_atom_site_fract_z
Si Si1 0.204173 0.522820 0.420465
Si Si2 0.064224 0.355499 0.023673
Si Si3 0.947184 0.938464 0.321041
Si Si4 0.664136 0.302488 0.878477
Si Si5 0.369867 0.218797 0.628905
Si Si6 0.054642 0.573133 0.196010
Si Si7 0.983432 0.189304 0.241486
Si Si8 0.608925 0.767128 0.621400
O O1 0.014368 0.498701 0.558259
O O2 0.336614 0.656070 0.409888
O O3 0.050353 0.511077 0.321597
O O4 0.412850 0.411399 0.387074
O O5 0.022425 0.475835 0.102277
O O6 0.038163 0.239979 0.108024
O O7 0.358377 0.349362 0.923921
O O8 0.826800 0.353202 0.964523
O O9 0.662779 0.863397 0.346654
O O10 0.200763 0.850455 0.259296
O O11 0.960407 0.046111 0.227385
O O12 0.683724 0.156813 0.869753
O O13 0.257371 0.204723 0.512348
O O14 0.205685 0.159980 0.758320
O O15 0.702795 0.232416 0.333111
O O16 0.231316 0.225885 0.288944
#
# Coordination Sequence:
#
# PCOD8046938 Si02
#       8
#     2   2   2   2   2   2   2   2
#     4  11  22  47  76 111 149 205 244 323 384 478
#     4  12  28  49  79 105 146 205 259 315 375 455
#     4  10  25  47  74 112 157 198 252 325 387 466
#     4  11  30  50  73 111 148 201 253 318 384 445
#     4  10  23  44  71 111 153 200 243 314 395 459
#     4  11  26  47  77 106 150 198 258 312 386 465
#     4  12  24  47  70 111 145 198 255 314 372 457
#     4  11  24  43  72 113 152 191 252 309 391 451
#
# _framework density 25.003869999999999
#
# number of rings (size 3 to 8) (size 9 to 14) (size 15 to 20)
#    0.000    1.000    2.500    2.250    8.750    1.000 
#    4.500    0.000    0.000    0.000    0.000    0.000 
#    0.000    0.000    0.000    0.000    0.000    0.000 
#
# Total GULP energy -198267.907569 kJ/mol
# GULP energy per Si atom -12391.744223 kJ/mol
# Density = 2.494696 g / cm^3
# Si number density = 25.003870 Si / 1000 Ang^3
#
#
#
# Elastic Constant Matrix: (Units=GPa)
#
#
# Indices 1 2 3 4 5 6 
#
# 1 63.1523 5.0015 21.8066 0.0000 4.6237 0.0000
# 2 5.0015 121.9256 34.5914 0.0000 -2.4136 0.0000
# 3 21.8066 34.5914 108.5233 0.0000 0.2369 0.0000
# 4 0.0000 0.0000 0.0000 51.1213 0.0000 -10.1313
# 5 4.6237 -2.4136 0.2369 0.0000 37.5725 0.0000
# 6 0.0000 0.0000 0.0000 -10.1313 0.0000 20.4233
#
#
#
# Elastic Compliance Matrix: (Units=1/GPa)
#
#
# Indices 1 2 3 4 5 6 
#
# 1 0.017185 0.000255 -0.003530 0.000000 -0.002076 0.000000
# 2 0.000255 0.009034 -0.002932 0.000000 0.000567 0.000000
# 3 -0.003530 -0.002932 0.010858 0.000000 0.000178 0.000000
# 4 0.000000 0.000000 0.000000 0.021694 0.000000 0.010762
# 5 -0.002076 0.000567 0.000178 0.000000 0.026906 0.000000
# 6 0.000000 0.000000 0.000000 0.010762 0.000000 0.054302
#
#
# Mechanical properties :
#
#
# Convention : Reuss Voigt Hill
#
# Bulk Modulus (GPa) = 40.54453 46.26669 43.40561
# Shear Modulus (GPa) = 31.13017 37.30350 34.21683
#
# Velocity S-wave (km/s) = 3.53230 3.86671 3.70329
# Velocity P-wave (km/s) = 5.73470 6.20317 5.97353
#
# Compressibility (1/GPa) = 0.02466424
#
# Stress axis : x y z
#
# Youngs Moduli (GPa) = 58.18865 110.68826 92.09618
#
# Poissons Ratio (x) = -0.02828 0.32511
# Poissons Ratio (y) = -0.01486 0.27005
# Poissons Ratio (z) = 0.20541 0.32457
#
# Static dielectric constant tensor:
#      x y z
#    x 4.036230 0.000000 -0.093220 
#    y 0.000000 5.021030 0.000000 
#    z -0.093220 0.000000 4.733830 
# 
# 
# High freq. dielectric constant tensor:
#      x y z
#    x 1.966910 0.000000 -0.000710 
#    y 0.000000 2.013580 0.000000 
#    z -0.000710 0.000000 2.012550 
# 
# From -- ./inp_files/10513.got.cif
#   From: 2010.03.12/outbox.cif.g09.slc.cpg/sg4_6_cif.got.tgz:10513.got - 2010.03.31 09:31:35.
