data_PCOD8046685
_publ_section_title
;
Structure prediction by ZEFSAII (Michael W. Deem and Ramdas Pophale) SiO2 
 PCOD8046685
Probable space group: P 21
;
_chemical_formula_sum "Si O2"
_cell_formula_units_Z 16
_cell_length_a 8.706472
_cell_length_b 8.801628
_cell_length_c 17.604270
_cell_angle_alpha 90.000000
_cell_angle_beta 147.140389
_cell_angle_gamma 90.000000
_cell_volume 731.962749
_symmetry_space_group_name_H-M "P 21"
_symmetry_group_IT_number 4
_symmetry_cell_setting 'monoclinic'
loop_
_space_group_symop_operation_xyz
x,y,z
-x,1/2+y,-z
loop_
_atom_site_type_symbol
_atom_site_label
_atom_site_fract_x
_atom_site_fract_y
_atom_site_fract_z
Si Si1 0.863566 0.312160 0.167636
Si Si2 0.819559 0.854073 0.406613
Si Si3 0.640107 0.529503 0.373620
Si Si4 0.270073 0.410331 0.456388
Si Si5 0.673366 0.620657 0.044840
Si Si6 0.168623 0.318633 0.136818
Si Si7 0.692076 0.514641 0.882497
Si Si8 0.265503 0.683798 0.347173
O O1 0.688007 0.467525 0.099050
O O2 0.045812 0.297844 0.320663
O O3 0.079864 0.322435 0.187786
O O4 0.629913 0.185031 0.057587
O O5 0.781598 0.671385 0.387148
O O6 0.798340 0.914941 0.483558
O O7 0.594778 0.932554 0.258714
O O8 0.120483 0.910541 0.498956
O O9 0.435017 0.430746 0.234240
O O10 0.459584 0.592979 0.368310
O O11 0.247944 0.580940 0.415340
O O12 0.586433 0.344403 0.573616
O O13 0.952171 0.719531 0.183374
O O14 0.670973 0.596375 0.954224
O O15 0.236225 0.144306 0.148106
O O16 0.926164 0.381858 0.980401
#
# Coordination Sequence:
#
# PCOD8046685 Si02
#       8
#     2   2   2   2   2   2   2   2
#     4  10  23  44  64  96 127 170 216 267 325 379
#     4  11  26  40  66 100 128 175 215 267 333 389
#     4  11  22  46  63  95 136 164 221 267 324 393
#     4  10  23  41  65  96 127 170 214 263 327 382
#     4  10  23  45  63  95 129 168 217 267 323 381
#     4  11  23  44  68  94 134 172 218 272 323 396
#     4  11  24  42  67  97 132 175 216 271 329 385
#     4  10  22  44  66  91 131 170 211 270 318 389
#
# _framework density 21.859034999999999
#
# number of rings (size 3 to 8) (size 9 to 14) (size 15 to 20)
#    0.000    1.500    3.750    1.500    8.750    3.000 
#   13.500    0.000    0.000    0.000    0.000    0.000 
#    0.000    0.000    0.000    0.000    0.000    0.000 
#
# Total GULP energy -198372.004334 kJ/mol
# GULP energy per Si atom -12398.250271 kJ/mol
# Density = 2.180928 g / cm^3
# Si number density = 21.859035 Si / 1000 Ang^3
#
#
#
# Elastic Constant Matrix: (Units=GPa)
#
#
# Indices 1 2 3 4 5 6 
#
# 1 26.0669 6.6042 20.6872 0.0000 3.9187 0.0000
# 2 6.6042 41.6340 15.3192 0.0000 9.8149 0.0000
# 3 20.6872 15.3192 138.1342 0.0000 0.1330 0.0000
# 4 0.0000 0.0000 0.0000 28.0559 0.0000 5.0598
# 5 3.9187 9.8149 0.1330 0.0000 30.5344 0.0000
# 6 0.0000 0.0000 0.0000 5.0598 0.0000 26.6360
#
#
#
# Elastic Compliance Matrix: (Units=1/GPa)
#
#
# Indices 1 2 3 4 5 6 
#
# 1 0.045011 -0.003742 -0.006322 0.000000 -0.004546 0.000000
# 2 -0.003742 0.027493 -0.002481 0.000000 -0.008346 0.000000
# 3 -0.006322 -0.002481 0.008460 0.000000 0.001572 0.000000
# 4 0.000000 0.000000 0.000000 0.036908 0.000000 -0.007011
# 5 -0.004546 -0.008346 0.001572 0.000000 0.036009 0.000000
# 6 0.000000 0.000000 0.000000 -0.007011 0.000000 0.038875
#
#
# Mechanical properties :
#
#
# Convention : Reuss Voigt Hill
#
# Bulk Modulus (GPa) = 17.89704 32.33960 25.11832
# Shear Modulus (GPa) = 21.14442 27.92688 24.53565
#
# Velocity S-wave (km/s) = 3.11353 3.57822 3.35393
# Velocity P-wave (km/s) = 4.59681 5.64785 5.14922
#
# Compressibility (1/GPa) = 0.05587515
#
# Stress axis : x y z
#
# Youngs Moduli (GPa) = 22.21667 36.37336 118.20828
#
# Poissons Ratio (x) = 0.13611 0.74726
# Poissons Ratio (y) = 0.08314 0.29322
# Poissons Ratio (z) = 0.14044 0.09022
#
# Static dielectric constant tensor:
#      x y z
#    x 3.642150 0.000000 0.143820 
#    y 0.000000 4.117400 0.000000 
#    z 0.143820 0.000000 4.290600 
# 
# 
# High freq. dielectric constant tensor:
#      x y z
#    x 1.841270 0.000000 0.005180 
#    y 0.000000 1.857280 0.000000 
#    z 0.005180 0.000000 1.880040 
# 
# From -- ./inp_files/14946.got.cif
#   From: 2010.03.12/outbox.cif.g09.slc.cpg/sg4_8_cif.got.tgz:14946.got - 2010.03.31 09:31:35.
