data_PCOD8046730
_publ_section_title
;
Structure prediction by ZEFSAII (Michael W. Deem and Ramdas Pophale) SiO2 
 PCOD8046730
Probable space group: P 21
;
_chemical_formula_sum "Si O2"
_cell_formula_units_Z 16
_cell_length_a 8.080234
_cell_length_b 15.666481
_cell_length_c 6.413029
_cell_angle_alpha 90.000000
_cell_angle_beta 119.517703
_cell_angle_gamma 90.000000
_cell_volume 706.446744
_symmetry_space_group_name_H-M "P 21"
_symmetry_group_IT_number 4
_symmetry_cell_setting 'monoclinic'
loop_
_space_group_symop_operation_xyz
x,y,z
-x,1/2+y,-z
loop_
_atom_site_type_symbol
_atom_site_label
_atom_site_fract_x
_atom_site_fract_y
_atom_site_fract_z
Si Si1 0.707210 0.431180 0.606754
Si Si2 0.836125 0.840391 0.516637
Si Si3 0.237763 0.771018 0.638950
Si Si4 0.987173 0.972667 0.889130
Si Si5 0.691749 0.538212 0.217818
Si Si6 0.723833 0.120204 0.636297
Si Si7 0.531426 0.709354 0.178034
Si Si8 0.407410 0.476438 0.741454
O O1 0.685331 0.350754 0.442425
O O2 0.691252 0.518026 0.462888
O O3 0.550091 0.419986 0.687587
O O4 0.912679 0.440344 0.840665
O O5 0.660380 0.776019 0.385642
O O6 0.036253 0.794698 0.614065
O O7 0.848241 0.893181 0.743014
O O8 0.783261 0.920661 0.329883
O O9 0.186988 0.695598 0.447382
O O10 0.394604 0.749922 0.915166
O O11 0.133947 0.993732 0.792330
O O12 0.875621 0.061624 0.854573
O O13 0.678411 0.640293 0.169484
O O14 0.495045 0.496835 0.017704
O O15 0.591763 0.160298 0.728691
O O16 0.617735 0.063887 0.398922
#
# Coordination Sequence:
#
# PCOD8046730 Si02
#       8
#     2   2   2   2   2   2   2   2
#     4  11  23  44  72 102 138 186 231 285 353 419
#     4  11  25  45  67  99 143 180 227 291 348 408
#     4  12  26  46  69 105 141 184 232 296 349 415
#     4  10  25  45  70 104 139 186 235 289 343 430
#     4  11  21  45  72 100 141 180 235 285 351 417
#     4  11  24  45  68 100 140 181 234 289 348 410
#     4  12  26  45  71 104 141 186 229 298 350 414
#     4  10  22  45  69 100 137 183 233 285 344 421
#
# _framework density 22.648558999999999
#
# number of rings (size 3 to 8) (size 9 to 14) (size 15 to 20)
#    0.000    1.000    3.750    2.250    3.500    3.000 
#    6.750    0.000    0.000    0.000    0.000    0.000 
#    0.000    0.000    0.000    0.000    0.000    0.000 
#
# Total GULP energy -198214.580259 kJ/mol
# GULP energy per Si atom -12388.411266 kJ/mol
# Density = 2.259701 g / cm^3
# Si number density = 22.648559 Si / 1000 Ang^3
#
#
#
# Elastic Constant Matrix: (Units=GPa)
#
#
# Indices 1 2 3 4 5 6 
#
# 1 49.4266 41.1103 29.6472 0.0000 9.9512 0.0000
# 2 41.1103 149.2558 69.1839 0.0000 14.6587 0.0000
# 3 29.6472 69.1839 124.3278 0.0000 28.1795 0.0000
# 4 0.0000 0.0000 0.0000 45.9636 0.0000 7.8418
# 5 9.9512 14.6587 28.1795 0.0000 32.8286 0.0000
# 6 0.0000 0.0000 0.0000 7.8418 0.0000 45.2780
#
#
#
# Elastic Compliance Matrix: (Units=1/GPa)
#
#
# Indices 1 2 3 4 5 6 
#
# 1 0.027446 -0.006132 -0.002318 0.000000 -0.003591 0.000000
# 2 -0.006132 0.010402 -0.004587 0.000000 0.001152 0.000000
# 3 -0.002318 -0.004587 0.013067 0.000000 -0.008466 0.000000
# 4 0.000000 0.000000 0.000000 0.022419 0.000000 -0.003883
# 5 -0.003591 0.001152 -0.008466 0.000000 0.038303 0.000000
# 6 0.000000 0.000000 0.000000 -0.003883 0.000000 0.022758
#
#
# Mechanical properties :
#
#
# Convention : Reuss Voigt Hill
#
# Bulk Modulus (GPa) = 40.25731 66.98811 53.62271
# Shear Modulus (GPa) = 29.62943 37.01864 33.32404
#
# Velocity S-wave (km/s) = 3.62086 4.04726 3.83998
# Velocity P-wave (km/s) = 5.94090 7.17508 6.58696
#
# Compressibility (1/GPa) = 0.02484021
#
# Stress axis : x y z
#
# Youngs Moduli (GPa) = 36.43485 96.13451 76.52584
#
# Poissons Ratio (x) = 0.58953 0.17742
# Poissons Ratio (y) = 0.22343 0.35103
# Poissons Ratio (z) = 0.08447 0.44098
#
# Static dielectric constant tensor:
#      x y z
#    x 3.936980 0.000000 0.242940 
#    y 0.000000 4.475490 0.000000 
#    z 0.242940 0.000000 4.213890 
# 
# 
# High freq. dielectric constant tensor:
#      x y z
#    x 1.878150 0.000000 0.017350 
#    y 0.000000 1.913780 0.000000 
#    z 0.017350 0.000000 1.901300 
# 
# From -- ./inp_files/1520.got.cif
#   From: 2010.03.12/outbox.cif.g09.slc.cpg/sg4_1_cif.got.tgz:1520.got - 2010.03.31 09:31:35.
