data_PCOD8046142
_publ_section_title
;
Structure prediction by ZEFSAII (Michael W. Deem and Ramdas Pophale) SiO2 
 PCOD8046142
Probable space group: P 21
;
_chemical_formula_sum "Si O2"
_cell_formula_units_Z 16
_cell_length_a 8.766741
_cell_length_b 5.061460
_cell_length_c 29.328785
_cell_angle_alpha 90.000000
_cell_angle_beta 36.135912
_cell_angle_gamma 90.000000
_cell_volume 767.434211
_symmetry_space_group_name_H-M "P 21"
_symmetry_group_IT_number 4
_symmetry_cell_setting 'monoclinic'
loop_
_space_group_symop_operation_xyz
x,y,z
-x,1/2+y,-z
loop_
_atom_site_type_symbol
_atom_site_label
_atom_site_fract_x
_atom_site_fract_y
_atom_site_fract_z
Si Si1 0.051418 0.545450 0.547143
Si Si2 0.512761 0.567702 0.189909
Si Si3 0.109994 0.541005 0.709269
Si Si4 0.978076 0.893832 0.975184
Si Si5 0.850361 0.046155 0.807288
Si Si6 0.300108 0.048625 0.456477
Si Si7 0.500475 0.217531 0.970105
Si Si8 0.253454 0.068682 0.287514
O O1 0.232611 0.290164 0.505861
O O2 0.882019 0.548255 0.543015
O O3 0.855305 0.538120 0.636098
O O4 0.249789 0.790687 0.499352
O O5 0.814863 0.505211 0.110997
O O6 0.389369 0.564683 0.169490
O O7 0.384759 0.353396 0.253661
O O8 0.471706 0.849871 0.223834
O O9 0.411369 0.582985 0.630726
O O10 0.069087 0.258116 0.742164
O O11 0.982616 0.548369 0.690417
O O12 0.984275 0.760148 0.772819
O O13 0.090301 0.633767 0.973651
O O14 0.722135 0.813470 0.010159
O O15 0.744568 0.103998 0.883184
O O16 0.595885 0.472432 0.975683
#
# Coordination Sequence:
#
# PCOD8046142 Si02
#       8
#     2   2   2   2   2   2   2   2
#     4  10  21  38  59  82 121 154 192 250 300 356
#     4  10  21  39  63  89 118 159 210 255 306 369
#     4  10  21  37  62  88 114 157 205 241 309 377
#     4  12  24  42  72  93 122 178 226 259 315 400
#     4  10  21  41  62  84 125 165 195 258 318 371
#     4  10  21  38  59  84 115 161 197 232 302 386
#     4  12  26  44  64  96 136 166 215 276 330 374
#     4  10  21  37  59  90 121 148 196 263 304 347
#
# _framework density 20.848692
#
# number of rings (size 3 to 8) (size 9 to 14) (size 15 to 20)
#    0.000    1.500    1.250    3.750    3.500    1.000 
#    6.750    0.000    0.000    0.000    0.000    0.000 
#    0.000    0.000    0.000    0.000    0.000    0.000 
#
# Total GULP energy -198455.990262 kJ/mol
# GULP energy per Si atom -12403.499391 kJ/mol
# Density = 2.080124 g / cm^3
# Si number density = 20.848692 Si / 1000 Ang^3
#
#
#
# Elastic Constant Matrix: (Units=GPa)
#
#
# Indices 1 2 3 4 5 6 
#
# 1 29.4359 30.4775 21.7867 0.0000 1.4570 0.0000
# 2 30.4775 130.0145 24.9864 0.0000 13.3977 0.0000
# 3 21.7867 24.9864 104.9996 0.0000 4.8212 -0.0001
# 4 0.0000 0.0000 0.0000 29.4517 0.0000 1.0118
# 5 1.4570 13.3977 4.8212 0.0000 24.6727 0.0000
# 6 0.0000 0.0000 -0.0001 1.0118 0.0000 19.7586
#
#
#
# Elastic Compliance Matrix: (Units=1/GPa)
#
#
# Indices 1 2 3 4 5 6 
#
# 1 0.051073 -0.010855 -0.008220 0.000000 0.004484 0.000000
# 2 -0.010855 0.010786 -0.000076 0.000000 -0.005201 0.000000
# 3 -0.008220 -0.000076 0.011325 0.000000 -0.001686 0.000000
# 4 0.000000 0.000000 0.000000 0.034014 0.000000 -0.001742
# 5 0.004484 -0.005201 -0.001686 0.000000 0.043420 0.000000
# 6 0.000000 0.000000 0.000000 -0.001742 0.000000 0.050700
#
#
# Mechanical properties :
#
#
# Convention : Reuss Voigt Hill
#
# Bulk Modulus (GPa) = 28.66702 46.55013 37.60858
# Shear Modulus (GPa) = 19.90077 27.25659 23.57868
#
# Velocity S-wave (km/s) = 3.09290 3.61966 3.36660
# Velocity P-wave (km/s) = 5.15118 6.31231 5.76107
#
# Compressibility (1/GPa) = 0.03488329
#
# Stress axis : x y z
#
# Youngs Moduli (GPa) = 19.57985 92.70853 88.30085
#
# Poissons Ratio (x) = 1.00632 0.72585
# Poissons Ratio (y) = 0.21253 0.00669
# Poissons Ratio (z) = 0.16095 0.00702
#
# Static dielectric constant tensor:
#      x y z
#    x 3.494150 0.000000 0.072650 
#    y 0.000000 4.340570 0.000000 
#    z 0.072650 0.000000 3.699720 
# 
# 
# High freq. dielectric constant tensor:
#      x y z
#    x 1.787880 0.000000 0.002820 
#    y 0.000000 1.841280 0.000000 
#    z 0.002820 0.000000 1.826480 
# 
# From -- ./inp_files/8813.got.cif
#   From: 2010.03.12/outbox.cif.g09.slc.cpg/sg4_5_cif.got.tgz:8813.got - 2010.03.31 09:31:35.
