data_PCOD8046263
_publ_section_title
;
Structure prediction by ZEFSAII (Michael W. Deem and Ramdas Pophale) SiO2 
 PCOD8046263
Probable space group: P 21
;
_chemical_formula_sum "Si O2"
_cell_formula_units_Z 14
_cell_length_a 11.857810
_cell_length_b 11.166490
_cell_length_c 13.922380
_cell_angle_alpha 90.000000
_cell_angle_beta 21.052759
_cell_angle_gamma 90.000000
_cell_volume 662.222868
_symmetry_space_group_name_H-M "P 21"
_symmetry_group_IT_number 4
_symmetry_cell_setting 'monoclinic'
loop_
_space_group_symop_operation_xyz
x,y,z
-x,1/2+y,-z
loop_
_atom_site_type_symbol
_atom_site_label
_atom_site_fract_x
_atom_site_fract_y
_atom_site_fract_z
Si Si1 0.507585 0.909100 0.625643
Si Si2 0.107915 0.366981 0.189909
Si Si3 0.178711 0.615912 0.054265
Si Si4 0.628183 0.180670 0.566048
Si Si5 0.778101 0.295178 0.629093
Si Si6 0.178990 0.225893 0.489793
Si Si7 0.136171 0.295288 0.830601
O O1 0.667230 0.847326 0.591213
O O2 0.621958 0.852055 0.436183
O O3 0.606490 0.047176 0.544646
O O4 0.132599 0.891441 0.930285
O O5 0.068186 0.478451 0.149155
O O6 0.939916 0.249330 0.276195
O O7 0.944873 0.390481 0.423796
O O8 0.476072 0.351625 0.920007
O O9 0.087535 0.681498 0.225651
O O10 0.004386 0.673320 0.102009
O O11 0.551665 0.626548 0.740935
O O12 0.654521 0.183327 0.661465
O O13 0.324535 0.258634 0.776276
O O14 0.024719 0.251517 0.510592
#
# Coordination Sequence:
#
# PCOD8046263 Si02
#       7
#     2   2   2   2   2   2   2
#     4  10  24  42  64  90 124 168 202 261 306 372
#     4  10  23  39  59  96 120 160 206 252 316 362
#     4  10  21  40  64  88 120 164 204 257 304 374
#     4  10  26  39  65  93 129 160 211 255 317 368
#     4  10  23  39  59  97 122 162 205 254 313 371
#     4  10  21  43  62  90 125 160 212 246 316 371
#     4  10  24  40  63  92 122 166 208 251 314 366
#
# _framework density 21.140917999999999
#
# number of rings (size 3 to 8) (size 9 to 14) (size 15 to 20)
#    0.857    1.143    0.000    1.714    6.000    2.286 
#    2.571    0.000    0.000    0.000    0.000    0.000 
#    0.000    0.000    0.000    0.000    0.000    0.000 
#
# Total GULP energy -173536.772675 kJ/mol
# GULP energy per Si atom -12395.483763 kJ/mol
# Density = 2.109280 g / cm^3
# Si number density = 21.140918 Si / 1000 Ang^3
#
#
#
# Elastic Constant Matrix: (Units=GPa)
#
#
# Indices 1 2 3 4 5 6 
#
# 1 90.3524 22.5770 32.0173 0.0000 -20.1253 0.0000
# 2 22.5770 106.3069 27.3124 0.0000 -10.6901 0.0000
# 3 32.0173 27.3124 126.1389 0.0000 1.9468 0.0000
# 4 0.0000 0.0000 0.0000 23.1267 0.0000 2.0396
# 5 -20.1253 -10.6901 1.9468 0.0000 29.0869 0.0000
# 6 0.0000 0.0000 0.0000 2.0396 0.0000 17.1535
#
#
#
# Elastic Compliance Matrix: (Units=1/GPa)
#
#
# Indices 1 2 3 4 5 6 
#
# 1 0.014933 -0.001205 -0.003686 0.000000 0.010136 0.000000
# 2 -0.001205 0.010498 -0.002016 0.000000 0.003159 0.000000
# 3 -0.003686 -0.002016 0.009360 0.000000 -0.003918 0.000000
# 4 0.000000 0.000000 0.000000 0.043698 0.000000 -0.005196
# 5 0.010136 0.003159 -0.003918 0.000000 0.042816 0.000000
# 6 0.000000 0.000000 0.000000 -0.005196 0.000000 0.058915
#
#
# Mechanical properties :
#
#
# Convention : Reuss Voigt Hill
#
# Bulk Modulus (GPa) = 47.67037 54.06796 50.86916
# Shear Modulus (GPa) = 24.87227 29.93286 27.40256
#
# Velocity S-wave (km/s) = 3.43373 3.76689 3.60416
# Velocity P-wave (km/s) = 6.19020 6.67457 6.43694
#
# Compressibility (1/GPa) = 0.02097739
#
# Stress axis : x y z
#
# Youngs Moduli (GPa) = 66.96734 95.25318 106.83420
#
# Poissons Ratio (x) = 0.11479 0.39377
# Poissons Ratio (y) = 0.08070 0.21538
# Poissons Ratio (z) = 0.24683 0.19203
#
# Static dielectric constant tensor:
#      x y z
#    x 3.629970 0.000000 0.001490 
#    y 0.000000 3.586610 0.000000 
#    z 0.001490 0.000000 3.921110 
# 
# 
# High freq. dielectric constant tensor:
#      x y z
#    x 1.822860 0.000000 -0.000840 
#    y 0.000000 1.809690 0.000000 
#    z -0.000840 0.000000 1.843820 
# 
# From -- ./inp_files/2701.got.cif
#   From: 2010.03.12/outbox.cif.g09.slc.cpg/sg4_2_cif.got.tgz:2701.got - 2010.03.31 09:31:35.
