data_PCOD8046828
_publ_section_title
;
Structure prediction by ZEFSAII (Michael W. Deem and Ramdas Pophale) SiO2 
 PCOD8046828
Probable space group: P 21
;
_chemical_formula_sum "Si O2"
_cell_formula_units_Z 14
_cell_length_a 8.940155
_cell_length_b 8.259053
_cell_length_c 7.519888
_cell_angle_alpha 90.000000
_cell_angle_beta 98.354450
_cell_angle_gamma 90.000000
_cell_volume 549.355379
_symmetry_space_group_name_H-M "P 21"
_symmetry_group_IT_number 4
_symmetry_cell_setting 'monoclinic'
loop_
_space_group_symop_operation_xyz
x,y,z
-x,1/2+y,-z
loop_
_atom_site_type_symbol
_atom_site_label
_atom_site_fract_x
_atom_site_fract_y
_atom_site_fract_z
Si Si1 0.425574 0.560390 0.863142
Si Si2 0.098378 0.725667 0.397388
Si Si3 0.947933 0.396105 0.259045
Si Si4 0.120906 0.402012 0.877555
Si Si5 0.358879 0.937259 0.375585
Si Si6 0.385290 0.927805 0.791606
Si Si7 0.864602 0.630000 0.897074
O O1 0.247716 0.530048 0.849277
O O2 0.490999 0.439155 0.720422
O O3 0.446502 0.744761 0.807742
O O4 0.505878 0.535252 0.066933
O O5 0.110163 0.766425 0.605405
O O6 0.266663 0.766698 0.345049
O O7 0.048266 0.543494 0.353461
O O8 0.979585 0.859650 0.309659
O O9 0.783342 0.452015 0.149676
O O10 0.049522 0.291250 0.150620
O O11 0.993681 0.499948 0.982023
O O12 0.202838 0.231757 0.947986
O O13 0.391785 0.986692 0.586213
O O14 0.255117 0.077269 0.269278
#
# Coordination Sequence:
#
# PCOD8046828 Si02
#       7
#     2   2   2   2   2   2   2
#     4  12  27  49  72 108 152 200 245 301 378 449
#     4  10  23  41  75 105 138 188 242 315 366 431
#     4  11  22  44  73 105 143 189 251 309 369 433
#     4  11  24  44  73 109 143 191 248 308 374 441
#     4  10  26  50  71 108 149 192 257 303 374 446
#     4  11  27  47  74 108 149 200 249 308 364 457
#     4  11  23  45  74 109 142 190 250 314 371 435
#
# _framework density 25.484416
#
# number of rings (size 3 to 8) (size 9 to 14) (size 15 to 20)
#    0.000    1.143    1.429    4.286   10.000    2.286 
#    7.714    1.429    0.000    0.000    0.000    0.000 
#    0.000    0.000    0.000    0.000    0.000    0.000 
#
# Total GULP energy -173468.896364 kJ/mol
# GULP energy per Si atom -12390.635455 kJ/mol
# Density = 2.542641 g / cm^3
# Si number density = 25.484416 Si / 1000 Ang^3
#
#
#
# Elastic Constant Matrix: (Units=GPa)
#
#
# Indices 1 2 3 4 5 6 
#
# 1 96.3057 -5.8869 1.0646 0.0000 1.5032 0.0000
# 2 -5.8869 96.3180 -3.0483 0.0000 10.2249 0.0000
# 3 1.0646 -3.0483 63.9810 0.0000 19.9513 0.0000
# 4 0.0000 0.0000 0.0000 36.5111 0.0000 9.1583
# 5 1.5032 10.2249 19.9513 0.0000 28.4579 0.0000
# 6 0.0000 0.0000 0.0000 9.1583 0.0000 33.1804
#
#
#
# Elastic Compliance Matrix: (Units=1/GPa)
#
#
# Indices 1 2 3 4 5 6 
#
# 1 0.010442 0.000741 0.000149 0.000000 -0.000922 0.000000
# 2 0.000741 0.011095 0.002267 0.000000 -0.005615 0.000000
# 3 0.000149 0.002267 0.020466 0.000000 -0.015171 0.000000
# 4 0.000000 0.000000 0.000000 0.029426 0.000000 -0.008122
# 5 -0.000922 -0.005615 -0.015171 0.000000 0.047842 0.000000
# 6 0.000000 0.000000 0.000000 -0.008122 0.000000 0.032380
#
#
# Mechanical properties :
#
#
# Convention : Reuss Voigt Hill
#
# Bulk Modulus (GPa) = 20.69639 26.76261 23.72950
# Shear Modulus (GPa) = 30.97077 37.26158 34.11618
#
# Velocity S-wave (km/s) = 3.48987 3.82793 3.66280
# Velocity P-wave (km/s) = 4.93739 5.48286 5.21726
#
# Compressibility (1/GPa) = 0.04831760
#
# Stress axis : x y z
#
# Youngs Moduli (GPa) = 95.77047 90.12724 48.86165
#
# Poissons Ratio (x) = -0.06677 -0.00729
# Poissons Ratio (y) = -0.07095 -0.11079
# Poissons Ratio (z) = -0.01428 -0.20435
#
# Static dielectric constant tensor:
#      x y z
#    x 4.738360 0.000000 -0.092120 
#    y 0.000000 4.603190 0.000000 
#    z -0.092120 0.000000 4.811480 
# 
# 
# High freq. dielectric constant tensor:
#      x y z
#    x 2.016140 0.000000 0.000200 
#    y 0.000000 2.031330 0.000000 
#    z 0.000200 0.000000 2.032840 
# 
# From -- ./inp_files/5710.got.cif
#   From: 2010.03.12/outbox.cif.g09.slc.cpg/sg4_3_cif.got.tgz:5710.got - 2010.03.31 09:31:35.
