data_PCOD8046863
_publ_section_title
;
Structure prediction by ZEFSAII (Michael W. Deem and Ramdas Pophale) SiO2 
 PCOD8046863
Probable space group: P 21
;
_chemical_formula_sum "Si O2"
_cell_formula_units_Z 10
_cell_length_a 8.829972
_cell_length_b 7.379412
_cell_length_c 9.931603
_cell_angle_alpha 90.000000
_cell_angle_beta 140.279554
_cell_angle_gamma 90.000000
_cell_volume 413.551944
_symmetry_space_group_name_H-M "P 21"
_symmetry_group_IT_number 4
_symmetry_cell_setting 'monoclinic'
loop_
_space_group_symop_operation_xyz
x,y,z
-x,1/2+y,-z
loop_
_atom_site_type_symbol
_atom_site_label
_atom_site_fract_x
_atom_site_fract_y
_atom_site_fract_z
Si Si1 0.567123 0.469420 0.184792
Si Si2 0.675604 0.088400 0.229255
Si Si3 0.739473 0.032835 0.565740
Si Si4 0.684046 0.632216 0.542753
Si Si5 0.066501 0.361391 0.794688
O O1 0.749583 0.301326 0.291732
O O2 0.642682 0.602158 0.354959
O O3 0.546025 0.580306 0.029321
O O4 0.310362 0.374528 0.046508
O O5 0.606282 0.021247 0.330418
O O6 0.890490 0.964807 0.319911
O O7 0.566721 0.126301 0.554229
O O8 0.978278 0.154218 0.716608
O O9 0.803217 0.827860 0.651173
O O10 0.857791 0.478934 0.722752
#
# Coordination Sequence:
#
# PCOD8046863 Si02
#       5
#     2   2   2   2   2
#     4  10  23  46  69 110 140 186 243 293 353 425
#     4  10  23  42  73 101 145 180 244 292 347 431
#     4  12  24  47  74 103 145 187 238 294 360 421
#     4  12  24  48  74 101 147 189 237 300 353 433
#     4  10  26  45  70 103 139 192 232 287 369 410
#
# _framework density 24.180758999999998
#
# number of rings (size 3 to 8) (size 9 to 14) (size 15 to 20)
#    1.200    0.000    4.000    1.200    2.800    1.600 
#    7.200    0.000    0.000    0.000    0.000    0.000 
#    0.000    0.000    0.000    0.000    0.000    0.000 
#
# Total GULP energy -123917.325804 kJ/mol
# GULP energy per Si atom -12391.732580 kJ/mol
# Density = 2.412572 g / cm^3
# Si number density = 24.180759 Si / 1000 Ang^3
#
#
#
# Elastic Constant Matrix: (Units=GPa)
#
#
# Indices 1 2 3 4 5 6 
#
# 1 61.2177 28.7627 5.5702 0.0000 -7.1447 0.0000
# 2 28.7627 179.9856 18.0311 0.0000 10.1117 0.0000
# 3 5.5702 18.0311 57.3733 0.0000 13.4655 0.0000
# 4 0.0000 0.0000 0.0000 35.0967 0.0000 4.1863
# 5 -7.1447 10.1117 13.4655 0.0000 16.0070 0.0000
# 6 0.0000 0.0000 0.0000 4.1863 0.0000 39.4666
#
#
#
# Elastic Compliance Matrix: (Units=1/GPa)
#
#
# Indices 1 2 3 4 5 6 
#
# 1 0.020178 -0.003631 -0.004324 0.000000 0.014937 0.000000
# 2 -0.003631 0.006480 -0.000427 0.000000 -0.005354 0.000000
# 3 -0.004324 -0.000427 0.022893 0.000000 -0.020918 0.000000
# 4 0.000000 0.000000 0.000000 0.028858 0.000000 -0.003061
# 5 0.014937 -0.005354 -0.020918 0.000000 0.090119 0.000000
# 6 0.000000 0.000000 0.000000 -0.003061 0.000000 0.025663
#
#
# Mechanical properties :
#
#
# Convention : Reuss Voigt Hill
#
# Bulk Modulus (GPa) = 30.49918 44.81160 37.65539
# Shear Modulus (GPa) = 22.53442 34.52823 28.53133
#
# Velocity S-wave (km/s) = 3.05604 3.78288 3.43872
# Velocity P-wave (km/s) = 5.00928 6.13616 5.60113
#
# Compressibility (1/GPa) = 0.03278777
#
# Stress axis : x y z
#
# Youngs Moduli (GPa) = 49.55996 154.32591 43.68081
#
# Poissons Ratio (x) = 0.56028 0.18886
# Poissons Ratio (y) = 0.17993 0.01867
# Poissons Ratio (z) = 0.21428 0.06594
#
# Static dielectric constant tensor:
#      x y z
#    x 4.137180 0.000000 0.051220 
#    y 0.000000 4.371170 0.000000 
#    z 0.051220 0.000000 4.005150 
# 
# 
# High freq. dielectric constant tensor:
#      x y z
#    x 1.942160 0.000000 0.006540 
#    y 0.000000 1.977670 0.000000 
#    z 0.006540 0.000000 1.936170 
# 
# From -- ./inp_files/10818.got.cif
#   From: 2010.03.12/outbox.cif.g09.slc.cpg/sg4_6_cif.got.tgz:10818.got - 2010.03.31 09:31:35.
