data_PCOD8046390
_publ_section_title
;
Structure prediction by ZEFSAII (Michael W. Deem and Ramdas Pophale) SiO2 
 PCOD8046390
Probable space group: P 21
;
_chemical_formula_sum "Si O2"
_cell_formula_units_Z 16
_cell_length_a 10.331608
_cell_length_b 9.919529
_cell_length_c 6.862248
_cell_angle_alpha 90.000000
_cell_angle_beta 82.422468
_cell_angle_gamma 90.000000
_cell_volume 697.133853
_symmetry_space_group_name_H-M "P 21"
_symmetry_group_IT_number 4
_symmetry_cell_setting 'monoclinic'
loop_
_space_group_symop_operation_xyz
x,y,z
-x,1/2+y,-z
loop_
_atom_site_type_symbol
_atom_site_label
_atom_site_fract_x
_atom_site_fract_y
_atom_site_fract_z
Si Si1 0.948337 0.032940 0.096896
Si Si2 0.568440 0.273177 0.277032
Si Si3 0.558753 0.034600 0.721516
Si Si4 0.238787 0.857747 0.457879
Si Si5 0.005284 0.320377 0.223318
Si Si6 0.651342 0.632668 0.509381
Si Si7 0.204160 0.407488 0.509914
Si Si8 0.740510 0.193505 0.921919
O O1 0.032625 0.165395 0.144098
O O2 0.886834 0.962557 0.299513
O O3 0.845199 0.081379 0.955138
O O4 0.024650 0.916098 0.959964
O O5 0.473531 0.384612 0.202114
O O6 0.620615 0.306414 0.487183
O O7 0.469328 0.147098 0.312785
O O8 0.701255 0.266514 0.128741
O O9 0.420863 0.088798 0.672781
O O10 0.603252 0.125394 0.891285
O O11 0.686164 0.023427 0.550679
O O12 0.122088 0.814233 0.619144
O O13 0.208574 0.796599 0.251617
O O14 0.246652 0.020247 0.435928
O O15 0.124366 0.377338 0.327718
O O16 0.727312 0.768799 0.440763
#
# Coordination Sequence:
#
# PCOD8046390 Si02
#       8
#     2   2   2   2   2   2   2   2
#     4  12  29  47  75 105 147 190 255 304 362 443
#     4  10  22  41  64 102 138 182 236 291 359 434
#     4  10  21  43  66 102 140 180 232 294 366 431
#     4  11  25  43  69 102 146 193 238 305 371 428
#     4  12  29  48  75 107 148 197 251 307 370 434
#     4  10  23  44  71 103 145 187 243 300 369 441
#     4  11  26  48  74 103 144 193 243 308 370 429
#     4  12  23  42  70 100 140 190 230 297 369 428
#
# _framework density 22.951115000000001
#
# number of rings (size 3 to 8) (size 9 to 14) (size 15 to 20)
#    0.000    1.000    3.750    1.500    7.000    1.000 
#    0.000    0.000    0.000    0.000    0.000    0.000 
#    0.000    0.000    0.000    0.000    0.000    0.000 
#
# Total GULP energy -198265.521663 kJ/mol
# GULP energy per Si atom -12391.595104 kJ/mol
# Density = 2.289888 g / cm^3
# Si number density = 22.951115 Si / 1000 Ang^3
#
#
#
# Elastic Constant Matrix: (Units=GPa)
#
#
# Indices 1 2 3 4 5 6 
#
# 1 53.4667 14.8052 17.4863 0.0000 11.0762 0.0000
# 2 14.8052 95.9883 39.0386 0.0000 7.7633 0.0000
# 3 17.4863 39.0386 97.6844 0.0000 1.7394 0.0000
# 4 0.0000 0.0000 0.0000 33.5848 0.0000 -2.2720
# 5 11.0762 7.7633 1.7394 0.0000 40.7110 0.0000
# 6 0.0000 0.0000 0.0000 -2.2720 0.0000 43.5526
#
#
#
# Elastic Compliance Matrix: (Units=1/GPa)
#
#
# Indices 1 2 3 4 5 6 
#
# 1 0.021258 -0.001597 -0.003072 0.000000 -0.005348 0.000000
# 2 -0.001597 0.012753 -0.004779 0.000000 -0.001793 0.000000
# 3 -0.003072 -0.004779 0.012675 0.000000 0.001206 0.000000
# 4 0.000000 0.000000 0.000000 0.029881 0.000000 0.001559
# 5 -0.005348 -0.001793 0.001206 0.000000 0.026309 0.000000
# 6 0.000000 0.000000 0.000000 0.001559 0.000000 0.023042
#
#
# Mechanical properties :
#
#
# Convention : Reuss Voigt Hill
#
# Bulk Modulus (GPa) = 35.98311 43.31107 39.64709
# Shear Modulus (GPa) = 32.45140 35.29029 33.87085
#
# Velocity S-wave (km/s) = 3.76431 3.92552 3.84576
# Velocity P-wave (km/s) = 5.88265 6.28158 6.08538
#
# Compressibility (1/GPa) = 0.02779082
#
# Stress axis : x y z
#
# Youngs Moduli (GPa) = 47.04119 78.41415 78.89385
#
# Poissons Ratio (x) = 0.12522 0.24236
# Poissons Ratio (y) = 0.07512 0.37701
# Poissons Ratio (z) = 0.14451 0.37472
#
# Static dielectric constant tensor:
#      x y z
#    x 4.102060 0.000000 0.134880 
#    y 0.000000 4.480910 0.000000 
#    z 0.134880 0.000000 3.948960 
# 
# 
# High freq. dielectric constant tensor:
#      x y z
#    x 1.907190 0.000000 0.008770 
#    y 0.000000 1.922580 0.000000 
#    z 0.008770 0.000000 1.892140 
# 
# From -- ./inp_files/2935.got.cif
#   From: 2010.03.12/outbox.cif.g09.slc.cpg/sg4_2_cif.got.tgz:2935.got - 2010.03.31 09:31:35.
