data_PCOD8046953
_publ_section_title
;
Structure prediction by ZEFSAII (Michael W. Deem and Ramdas Pophale) SiO2 
 PCOD8046953
Probable space group: P 21
;
_chemical_formula_sum "Si O2"
_cell_formula_units_Z 12
_cell_length_a 6.210624
_cell_length_b 9.448129
_cell_length_c 9.378418
_cell_angle_alpha 90.000000
_cell_angle_beta 77.078304
_cell_angle_gamma 90.000000
_cell_volume 536.378265
_symmetry_space_group_name_H-M "P 21"
_symmetry_group_IT_number 4
_symmetry_cell_setting 'monoclinic'
loop_
_space_group_symop_operation_xyz
x,y,z
-x,1/2+y,-z
loop_
_atom_site_type_symbol
_atom_site_label
_atom_site_fract_x
_atom_site_fract_y
_atom_site_fract_z
Si Si1 0.795972 0.934070 0.711465
Si Si2 0.291071 0.439007 0.963233
Si Si3 0.392694 0.620342 0.500653
Si Si4 0.624822 0.687382 0.881168
Si Si5 0.986636 0.007133 0.244579
Si Si6 0.236410 0.918768 0.474609
O O1 0.826517 0.986217 0.871263
O O2 0.647981 0.788231 0.736356
O O3 0.038439 0.906154 0.615305
O O4 0.660745 0.047774 0.642231
O O5 0.422028 0.291049 0.975273
O O6 0.443183 0.567792 0.886664
O O7 0.121420 0.407076 0.860079
O O8 0.198995 0.589683 0.640290
O O9 0.405793 0.788435 0.469945
O O10 0.628043 0.564205 0.523032
O O11 0.865653 0.617836 0.865860
O O12 0.138605 0.915549 0.328949
#
# Coordination Sequence:
#
# PCOD8046953 Si02
#       6
#     2   2   2   2   2   2
#     4   9  24  44  66  98 136 179 227 282 342 403
#     4  10  24  43  73  98 137 183 226 284 342 404
#     4  11  24  42  72 100 137 182 233 281 336 413
#     4  10  23  45  69  99 134 182 226 280 341 403
#     4  11  24  44  70 100 141 178 229 285 343 401
#     4  11  25  44  72 101 139 184 227 282 348 400
#
# _framework density 22.372274000000001
#
# number of rings (size 3 to 8) (size 9 to 14) (size 15 to 20)
#    1.000    0.667    1.667    1.000    4.667    8.000 
#    0.000    0.000    0.000    0.000    0.000    0.000 
#    0.000    0.000    0.000    0.000    0.000    0.000 
#
# Total GULP energy -148706.616297 kJ/mol
# GULP energy per Si atom -12392.218025 kJ/mol
# Density = 2.232135 g / cm^3
# Si number density = 22.372274 Si / 1000 Ang^3
#
#
#
# Elastic Constant Matrix: (Units=GPa)
#
#
# Indices 1 2 3 4 5 6 
#
# 1 97.4592 45.7539 58.8798 0.0000 14.0795 0.0000
# 2 45.7539 99.2255 35.2253 0.0000 -8.7200 0.0000
# 3 58.8798 35.2253 113.2242 0.0000 13.0549 0.0000
# 4 0.0000 0.0000 0.0000 26.2247 0.0000 -6.5094
# 5 14.0795 -8.7200 13.0549 0.0000 36.8240 0.0000
# 6 0.0000 0.0000 0.0000 -6.5094 0.0000 35.4443
#
#
#
# Elastic Compliance Matrix: (Units=1/GPa)
#
#
# Indices 1 2 3 4 5 6 
#
# 1 0.018341 -0.006595 -0.006775 0.000000 -0.006173 0.000000
# 2 -0.006595 0.014327 -0.001783 0.000000 0.006546 0.000000
# 3 -0.006775 -0.001783 0.013199 0.000000 -0.002511 0.000000
# 4 0.000000 0.000000 0.000000 0.039953 0.000000 0.007337
# 5 -0.006173 0.006546 -0.002511 0.000000 0.031957 0.000000
# 6 0.000000 0.000000 0.000000 0.007337 0.000000 0.029561
#
#
# Mechanical properties :
#
#
# Convention : Reuss Voigt Hill
#
# Bulk Modulus (GPa) = 64.25263 65.51410 64.88336
# Shear Modulus (GPa) = 27.34777 31.03527 29.19152
#
# Velocity S-wave (km/s) = 3.50007 3.72858 3.61613
# Velocity P-wave (km/s) = 6.71685 6.91980 6.81908
#
# Compressibility (1/GPa) = 0.01556357
#
# Stress axis : x y z
#
# Youngs Moduli (GPa) = 54.52162 69.79780 75.76249
#
# Poissons Ratio (x) = 0.46031 0.51326
# Poissons Ratio (y) = 0.35956 0.13505
# Poissons Ratio (z) = 0.36936 0.12442
#
# Static dielectric constant tensor:
#      x y z
#    x 3.822120 0.000000 0.002920 
#    y 0.000000 3.921940 0.000000 
#    z 0.002920 0.000000 4.056990 
# 
# 
# High freq. dielectric constant tensor:
#      x y z
#    x 1.869040 0.000000 0.002530 
#    y 0.000000 1.874640 0.000000 
#    z 0.002530 0.000000 1.888110 
# 
# From -- ./inp_files/10304.got.cif
#   From: 2010.03.12/outbox.cif.g09.slc.cpg/sg4_6_cif.got.tgz:10304.got - 2010.03.31 09:31:35.
