data_PCOD8046677
_publ_section_title
;
Structure prediction by ZEFSAII (Michael W. Deem and Ramdas Pophale) SiO2 
 PCOD8046677
Probable space group: P 21
;
_chemical_formula_sum "Si O2"
_cell_formula_units_Z 16
_cell_length_a 5.945231
_cell_length_b 11.300009
_cell_length_c 11.469732
_cell_angle_alpha 90.000000
_cell_angle_beta 89.999842
_cell_angle_gamma 90.000000
_cell_volume 770.549944
_symmetry_space_group_name_H-M "P 21"
_symmetry_group_IT_number 4
_symmetry_cell_setting 'monoclinic'
loop_
_space_group_symop_operation_xyz
x,y,z
-x,1/2+y,-z
loop_
_atom_site_type_symbol
_atom_site_label
_atom_site_fract_x
_atom_site_fract_y
_atom_site_fract_z
Si Si1 0.961835 0.926880 0.187041
Si Si2 0.000002 0.063896 0.718148
Si Si3 0.284610 0.354631 0.369299
Si Si4 0.284612 0.273161 0.630700
Si Si5 0.339771 0.313896 0.999999
Si Si6 0.338803 0.743488 0.193267
Si Si7 0.338803 0.884304 0.806735
Si Si8 0.961835 0.700912 0.812958
O O1 0.831384 0.879466 0.299738
O O2 0.203394 0.864889 0.175786
O O3 0.815734 0.903933 0.071635
O O4 0.999999 0.063896 0.204646
O O5 0.128105 0.156720 0.635616
O O6 0.828005 0.131297 0.804618
O O7 0.171995 0.996496 0.804620
O O8 0.871903 0.971071 0.635616
O O9 0.322711 0.313896 0.500000
O O10 0.528273 0.382824 0.315480
O O11 0.168618 0.248325 0.299738
O O12 0.528278 0.244972 0.684518
O O13 0.487893 0.395556 0.086134
O O14 0.184266 0.223859 0.071635
O O15 0.487889 0.232235 0.913864
O O16 0.203393 0.762904 0.824211
#
# Coordination Sequence:
#
# PCOD8046677 Si02
#       8
#     2   2   2   2   2   2   2   2
#     4  10  23  45  64  97 132 168 212 266 320 383
#     4  10  22  44  66  94 132 166 214 268 316 386
#     4  10  23  42  68  98 127 170 213 264 325 380
#     4  10  23  42  68  98 127 170 213 264 325 380
#     4  10  22  44  64 100 128 170 214 262 322 384
#     4  10  22  45  62  98 131 168 215 260 325 385
#     4  10  22  45  62  98 131 168 215 260 325 385
#     4  10  23  45  64  97 132 168 212 266 320 383
#
# _framework density 20.764391
#
# number of rings (size 3 to 8) (size 9 to 14) (size 15 to 20)
#    0.000    2.000    0.000    1.500    1.750    8.000 
#   58.500    0.000    0.000    0.000    0.000    0.000 
#    0.000    0.000    0.000    0.000    0.000    0.000 
#
# Total GULP energy -198472.938550 kJ/mol
# GULP energy per Si atom -12404.558659 kJ/mol
# Density = 2.071713 g / cm^3
# Si number density = 20.764391 Si / 1000 Ang^3
#
#
#
# Elastic Constant Matrix: (Units=GPa)
#
#
# Indices 1 2 3 4 5 6 
#
# 1 142.4700 69.6204 66.1793 0.0000 0.0016 0.0000
# 2 69.6204 167.4986 59.2315 0.0000 0.0012 0.0000
# 3 66.1793 59.2315 151.2989 0.0000 0.0016 0.0000
# 4 0.0000 0.0000 0.0000 16.0283 0.0000 0.0003
# 5 0.0016 0.0012 0.0016 0.0000 17.8662 0.0000
# 6 0.0000 0.0000 0.0000 0.0003 0.0000 29.1555
#
#
#
# Elastic Compliance Matrix: (Units=1/GPa)
#
#
# Indices 1 2 3 4 5 6 
#
# 1 0.009972 -0.003021 -0.003179 0.000000 0.000000 0.000000
# 2 -0.003021 0.007844 -0.001750 0.000000 0.000000 0.000000
# 3 -0.003179 -0.001750 0.008685 0.000000 0.000000 0.000000
# 4 0.000000 0.000000 0.000000 0.062390 0.000000 -0.000001
# 5 0.000000 0.000000 0.000000 0.000000 0.055971 0.000000
# 6 0.000000 0.000000 0.000000 -0.000001 0.000000 0.034299
#
#
# Mechanical properties :
#
#
# Convention : Reuss Voigt Hill
#
# Bulk Modulus (GPa) = 94.31988 94.59223 94.45605
# Shear Modulus (GPa) = 25.17689 30.35908 27.76799
#
# Velocity S-wave (km/s) = 3.48588 3.82786 3.66086
# Velocity P-wave (km/s) = 7.85648 8.07407 7.96602
#
# Compressibility (1/GPa) = 0.01060222
#
# Stress axis : x y z
#
# Youngs Moduli (GPa) = 100.28208 127.47879 115.13971
#
# Poissons Ratio (x) = 0.38505 0.36606
# Poissons Ratio (y) = 0.30290 0.20147
# Poissons Ratio (z) = 0.31883 0.22306
#
# Static dielectric constant tensor:
#      x y z
#    x 4.145950 0.000000 0.000000 
#    y 0.000000 3.649160 0.000000 
#    z 0.000000 0.000000 3.652740 
# 
# 
# High freq. dielectric constant tensor:
#      x y z
#    x 1.835160 0.000000 0.000000 
#    y 0.000000 1.809440 0.000000 
#    z 0.000000 0.000000 1.803680 
# 
# From -- ./inp_files/2725.got.cif
#   From: 2010.03.12/outbox.cif.g09.slc.cpg/sg4_2_cif.got.tgz:2725.got - 2010.03.31 09:31:35.
