data_PCOD8046268
_publ_section_title
;
Structure prediction by ZEFSAII (Michael W. Deem and Ramdas Pophale) SiO2 
 PCOD8046268
Probable space group: P 21
;
_chemical_formula_sum "Si O2"
_cell_formula_units_Z 16
_cell_length_a 17.803395
_cell_length_b 8.724148
_cell_length_c 8.666211
_cell_angle_alpha 90.000000
_cell_angle_beta 32.756154
_cell_angle_gamma 90.000000
_cell_volume 728.290079
_symmetry_space_group_name_H-M "P 21"
_symmetry_group_IT_number 4
_symmetry_cell_setting 'monoclinic'
loop_
_space_group_symop_operation_xyz
x,y,z
-x,1/2+y,-z
loop_
_atom_site_type_symbol
_atom_site_label
_atom_site_fract_x
_atom_site_fract_y
_atom_site_fract_z
Si Si1 0.824331 0.273700 0.275864
Si Si2 0.322164 0.882044 0.780096
Si Si3 0.827315 0.883553 0.766294
Si Si4 0.580774 0.071866 0.734005
Si Si5 0.672353 0.771439 0.732717
Si Si6 0.921415 0.584050 0.761407
Si Si7 0.593723 0.055326 0.344771
Si Si8 0.904819 0.600140 0.157019
O O1 0.749629 0.328212 0.251327
O O2 0.709402 0.178428 0.570793
O O3 0.880122 0.427086 0.265106
O O4 0.953386 0.162986 0.012364
O O5 0.448969 0.996662 0.523331
O O6 0.379407 0.728545 0.765610
O O7 0.205715 0.975050 0.077513
O O8 0.755705 0.825678 0.736293
O O9 0.911539 0.747578 0.699288
O O10 0.715015 0.943976 0.080996
O O11 0.932402 0.017977 0.543446
O O12 0.587661 0.910041 0.805626
O O13 0.586194 0.049680 0.541696
O O14 0.434537 0.141532 0.033422
O O15 0.777388 0.706924 0.424131
O O16 0.919127 0.602578 0.948835
#
# Coordination Sequence:
#
# PCOD8046268 Si02
#       8
#     2   2   2   2   2   2   2   2
#     4  10  21  40  64  94 127 167 212 260 314 376
#     4  10  21  40  64  94 127 167 212 260 314 376
#     4  12  25  43  66  97 130 167 215 266 316 382
#     4  11  24  43  65  96 130 170 213 263 321 379
#     4  12  25  43  66  97 130 167 215 266 316 382
#     4  11  24  43  65  96 130 170 213 263 321 379
#     4  11  23  42  67  93 130 172 211 263 321 377
#     4  11  23  42  67  93 130 172 211 263 321 377
#
# _framework density 21.969270000000002
#
# number of rings (size 3 to 8) (size 9 to 14) (size 15 to 20)
#    0.000    1.000    0.000    8.250    0.000    6.000 
#    0.000    5.000    0.000    0.000    0.000    0.000 
#    0.000    0.000    0.000    0.000    0.000    0.000 
#
# Total GULP energy -198438.944723 kJ/mol
# GULP energy per Si atom -12402.434045 kJ/mol
# Density = 2.191927 g / cm^3
# Si number density = 21.969270 Si / 1000 Ang^3
#
#
#
# Elastic Constant Matrix: (Units=GPa)
#
#
# Indices 1 2 3 4 5 6 
#
# 1 50.1939 14.3363 9.5101 0.0000 -4.5883 0.0000
# 2 14.3363 64.6558 -17.0851 0.0000 -10.1417 0.0000
# 3 9.5101 -17.0851 58.5996 0.0000 -13.1181 0.0000
# 4 0.0000 0.0000 0.0000 71.5509 0.0000 -23.0743
# 5 -4.5883 -10.1417 -13.1181 0.0000 39.7392 0.0000
# 6 0.0000 0.0000 0.0000 -23.0743 0.0000 38.8955
#
#
#
# Elastic Compliance Matrix: (Units=1/GPa)
#
#
# Indices 1 2 3 4 5 6 
#
# 1 0.022897 -0.006812 -0.005938 0.000000 -0.001055 0.000000
# 2 -0.006812 0.020417 0.008691 0.000000 0.007293 0.000000
# 3 -0.005938 0.008691 0.022574 0.000000 0.008984 0.000000
# 4 0.000000 0.000000 0.000000 0.017282 0.000000 0.010253
# 5 -0.001055 0.007293 0.008984 0.000000 0.029869 0.000000
# 6 0.000000 0.000000 0.000000 0.010253 0.000000 0.031792
#
#
# Mechanical properties :
#
#
# Convention : Reuss Voigt Hill
#
# Bulk Modulus (GPa) = 17.30985 20.77466 19.04225
# Shear Modulus (GPa) = 29.03506 41.14967 35.09237
#
# Velocity S-wave (km/s) = 3.63936 4.33258 4.00101
# Velocity P-wave (km/s) = 5.05530 5.87410 5.48002
#
# Compressibility (1/GPa) = 0.05777057
#
# Stress axis : x y z
#
# Youngs Moduli (GPa) = 43.67415 48.97794 44.29945
#
# Poissons Ratio (x) = 0.33361 0.26305
# Poissons Ratio (y) = 0.29749 -0.38500
# Poissons Ratio (z) = 0.25934 -0.42566
#
# Static dielectric constant tensor:
#      x y z
#    x 3.026900 0.000000 0.421290 
#    y 0.000000 5.580200 0.000000 
#    z 0.421290 0.000000 3.622830 
# 
# 
# High freq. dielectric constant tensor:
#      x y z
#    x 1.850440 0.000000 -0.020400 
#    y 0.000000 1.887460 0.000000 
#    z -0.020400 0.000000 1.876580 
# 
# From -- ./inp_files/5497.got.cif
#   From: 2010.03.12/outbox.cif.g09.slc.cpg/sg4_3_cif.got.tgz:5497.got - 2010.03.31 09:31:35.
