data_PCOD8046187
_publ_section_title
;
Structure prediction by ZEFSAII (Michael W. Deem and Ramdas Pophale) SiO2 
 PCOD8046187
Probable space group: P 21
;
_chemical_formula_sum "Si O2"
_cell_formula_units_Z 16
_cell_length_a 11.142770
_cell_length_b 12.393169
_cell_length_c 11.682151
_cell_angle_alpha 90.000000
_cell_angle_beta 25.664794
_cell_angle_gamma 90.000000
_cell_volume 698.701827
_symmetry_space_group_name_H-M "P 21"
_symmetry_group_IT_number 4
_symmetry_cell_setting 'monoclinic'
loop_
_space_group_symop_operation_xyz
x,y,z
-x,1/2+y,-z
loop_
_atom_site_type_symbol
_atom_site_label
_atom_site_fract_x
_atom_site_fract_y
_atom_site_fract_z
Si Si1 0.862467 0.356210 0.250142
Si Si2 0.547073 0.097269 0.858587
Si Si3 0.779811 0.599047 0.391942
Si Si4 0.469125 0.281148 0.771262
Si Si5 0.476691 0.345440 0.150905
Si Si6 0.270747 0.732827 0.855931
Si Si7 0.879801 0.346071 0.609850
Si Si8 0.137625 0.089977 0.408125
O O1 0.791048 0.481714 0.324539
O O2 0.621684 0.284499 0.517687
O O3 0.862542 0.316084 0.119498
O O4 0.173526 0.340709 0.030909
O O5 0.413029 0.160162 0.866077
O O6 0.853389 0.153069 0.614993
O O7 0.540713 0.973867 0.829234
O O8 0.400377 0.121892 0.105634
O O9 0.479368 0.647558 0.617057
O O10 0.794371 0.595009 0.516821
O O11 0.024029 0.671809 0.131890
O O12 0.690910 0.340626 0.660467
O O13 0.541004 0.303282 0.221158
O O14 0.186836 0.289647 0.354570
O O15 0.714494 0.306889 0.862388
O O16 0.958532 0.471266 0.546571
#
# Coordination Sequence:
#
# PCOD8046187 Si02
#       8
#     2   2   2   2   2   2   2   2
#     4  12  28  49  70 101 139 184 236 283 333 410
#     4  10  23  39  66 104 144 181 214 280 347 414
#     4  12  26  47  71 103 132 183 231 292 334 410
#     4  12  24  43  71 103 138 185 227 275 350 408
#     4  10  23  42  62 102 142 173 226 282 342 396
#     4  12  28  46  72 102 133 188 236 280 344 399
#     4  10  21  38  67  97 140 176 216 286 339 404
#     4  10  21  40  63 102 140 176 224 274 345 403
#
# _framework density 22.899611
#
# number of rings (size 3 to 8) (size 9 to 14) (size 15 to 20)
#    0.000    1.000    1.250    4.500    8.750    2.000 
#    0.000    0.000    0.000    0.000    0.000    0.000 
#    0.000    0.000    0.000    0.000    0.000    0.000 
#
# Total GULP energy -198402.325934 kJ/mol
# GULP energy per Si atom -12400.145371 kJ/mol
# Density = 2.284749 g / cm^3
# Si number density = 22.899611 Si / 1000 Ang^3
#
#
#
# Elastic Constant Matrix: (Units=GPa)
#
#
# Indices 1 2 3 4 5 6 
#
# 1 100.0694 55.7369 43.1566 0.0000 2.8874 0.0000
# 2 55.7369 105.5933 67.9632 0.0000 5.3365 0.0000
# 3 43.1566 67.9632 128.3469 0.0000 -2.0688 0.0000
# 4 0.0000 0.0000 0.0000 40.1825 0.0000 3.3388
# 5 2.8874 5.3365 -2.0688 0.0000 35.7307 0.0000
# 6 0.0000 0.0000 0.0000 3.3388 0.0000 23.0284
#
#
#
# Elastic Compliance Matrix: (Units=1/GPa)
#
#
# Indices 1 2 3 4 5 6 
#
# 1 0.014283 -0.006727 -0.001244 0.000000 -0.000221 0.000000
# 2 -0.006727 0.017779 -0.007193 0.000000 -0.002528 0.000000
# 3 -0.001244 -0.007193 0.012049 0.000000 0.001872 0.000000
# 4 0.000000 0.000000 0.000000 0.025190 0.000000 -0.003652
# 5 -0.000221 -0.002528 0.001872 0.000000 0.028491 0.000000
# 6 0.000000 0.000000 0.000000 -0.003652 0.000000 0.043954
#
#
# Mechanical properties :
#
#
# Convention : Reuss Voigt Hill
#
# Bulk Modulus (GPa) = 72.55913 74.19146 73.37529
# Shear Modulus (GPa) = 28.30168 30.93184 29.61676
#
# Velocity S-wave (km/s) = 3.51935 3.67925 3.60019
# Velocity P-wave (km/s) = 6.94759 7.10761 7.02806
#
# Compressibility (1/GPa) = 0.01378186
#
# Stress axis : x y z
#
# Youngs Moduli (GPa) = 70.01361 56.24704 82.99653
#
# Poissons Ratio (x) = 0.37840 0.10324
# Poissons Ratio (y) = 0.47101 0.59699
# Poissons Ratio (z) = 0.08709 0.40458
#
# Static dielectric constant tensor:
#      x y z
#    x 3.971880 0.000000 -0.068550 
#    y 0.000000 4.538380 0.000000 
#    z -0.068550 0.000000 4.403150 
# 
# 
# High freq. dielectric constant tensor:
#      x y z
#    x 1.884520 0.000000 -0.008970 
#    y 0.000000 1.939090 0.000000 
#    z -0.008970 0.000000 1.929460 
# 
# From -- ./inp_files/12340.got.cif
#   From: 2010.03.12/outbox.cif.g09.slc.cpg/sg4_7_cif.got.tgz:12340.got - 2010.03.31 09:31:35.
