data_PCOD8046193
_publ_section_title
;
Structure prediction by ZEFSAII (Michael W. Deem and Ramdas Pophale) SiO2 
 PCOD8046193
Probable space group: P 21
;
_chemical_formula_sum "Si O2"
_cell_formula_units_Z 16
_cell_length_a 9.212600
_cell_length_b 8.569113
_cell_length_c 19.150795
_cell_angle_alpha 90.000000
_cell_angle_beta 151.202455
_cell_angle_gamma 90.000000
_cell_volume 728.276132
_symmetry_space_group_name_H-M "P 21"
_symmetry_group_IT_number 4
_symmetry_cell_setting 'monoclinic'
loop_
_space_group_symop_operation_xyz
x,y,z
-x,1/2+y,-z
loop_
_atom_site_type_symbol
_atom_site_label
_atom_site_fract_x
_atom_site_fract_y
_atom_site_fract_z
Si Si1 0.749567 0.361460 0.953089
Si Si2 0.194543 0.759269 0.408523
Si Si3 0.710230 0.905117 0.554452
Si Si4 0.400801 0.907619 0.864035
Si Si5 0.621751 0.737224 0.081448
Si Si6 0.682861 0.047485 0.848362
Si Si7 0.744458 0.717544 0.440606
Si Si8 0.828296 0.946486 0.362914
O O1 0.609403 0.345919 0.971481
O O2 0.814979 0.192192 0.947238
O O3 0.516928 0.457571 0.806844
O O4 0.059836 0.456019 0.085106
O O5 0.482028 0.873245 0.522172
O O6 0.310564 0.585895 0.475226
O O7 0.972400 0.766371 0.247964
O O8 0.000380 0.814916 0.391518
O O9 0.585209 0.783601 0.443140
O O10 0.051201 0.860397 0.716601
O O11 0.460015 0.060082 0.935552
O O12 0.516057 0.932080 0.833200
O O13 0.578011 0.770385 0.980180
O O14 0.461328 0.109837 0.694905
O O15 0.851379 0.878529 0.450331
O O16 0.035091 0.617756 0.585379
#
# Coordination Sequence:
#
# PCOD8046193 Si02
#       8
#     2   2   2   2   2   2   2   2
#     4   9  21  39  58  85 119 156 197 246 296 354
#     4  10  22  41  60  89 125 159 202 252 299 361
#     4  11  23  40  62  88 121 159 201 250 304 360
#     4  10  22  41  61  88 121 156 198 246 297 358
#     4   9  21  39  60  84 119 156 196 244 297 353
#     4  10  22  40  59  86 121 155 199 249 296 353
#     4  11  22  39  62  88 119 163 203 250 305 355
#     4  10  21  39  60  86 123 160 204 253 300 356
#
# _framework density 21.969688000000001
#
# number of rings (size 3 to 8) (size 9 to 14) (size 15 to 20)
#    0.000    2.000    0.000    4.500    0.000   11.000 
#    0.000    5.000    0.000    0.000    0.000    0.000 
#    0.000    0.000    0.000    0.000    0.000    0.000 
#
# Total GULP energy -198371.885258 kJ/mol
# GULP energy per Si atom -12398.242829 kJ/mol
# Density = 2.191968 g / cm^3
# Si number density = 21.969688 Si / 1000 Ang^3
#
#
#
# Elastic Constant Matrix: (Units=GPa)
#
#
# Indices 1 2 3 4 5 6 
#
# 1 62.0902 22.3073 43.4561 0.0000 10.5155 0.0000
# 2 22.3073 48.1662 29.9506 0.0000 3.9437 0.0000
# 3 43.4561 29.9506 71.1768 0.0000 6.9031 0.0000
# 4 0.0000 0.0000 0.0000 40.2560 0.0000 -1.6839
# 5 10.5155 3.9437 6.9031 0.0000 37.8527 0.0000
# 6 0.0000 0.0000 0.0000 -1.6839 0.0000 42.0223
#
#
#
# Elastic Compliance Matrix: (Units=1/GPa)
#
#
# Indices 1 2 3 4 5 6 
#
# 1 0.029347 -0.003176 -0.016108 0.000000 -0.004884 0.000000
# 2 -0.003176 0.028486 -0.010023 0.000000 -0.000258 0.000000
# 3 -0.016108 -0.010023 0.028062 0.000000 0.000401 0.000000
# 4 0.000000 0.000000 0.000000 0.024883 0.000000 0.000997
# 5 -0.004884 -0.000258 0.000401 0.000000 0.027729 0.000000
# 6 0.000000 0.000000 0.000000 0.000997 0.000000 0.023837
#
#
# Mechanical properties :
#
#
# Convention : Reuss Voigt Hill
#
# Bulk Modulus (GPa) = 36.65241 41.42902 39.04072
# Shear Modulus (GPa) = 21.73443 29.74079 25.73761
#
# Velocity S-wave (km/s) = 3.14871 3.68328 3.42644
# Velocity P-wave (km/s) = 5.47162 6.08170 5.78471
#
# Compressibility (1/GPa) = 0.02728333
#
# Stress axis : x y z
#
# Youngs Moduli (GPa) = 34.07474 35.10551 35.63498
#
# Poissons Ratio (x) = 0.11149 0.57399
# Poissons Ratio (y) = 0.10821 0.35715
# Poissons Ratio (z) = 0.54886 0.35185
#
# Static dielectric constant tensor:
#      x y z
#    x 3.896490 0.000000 -0.016180 
#    y 0.000000 3.878680 0.000000 
#    z -0.016180 0.000000 3.806470 
# 
# 
# High freq. dielectric constant tensor:
#      x y z
#    x 1.864490 0.000000 0.002080 
#    y 0.000000 1.866770 0.000000 
#    z 0.002080 0.000000 1.851820 
# 
# From -- ./inp_files/5579.got.cif
#   From: 2010.03.12/outbox.cif.g09.slc.cpg/sg4_3_cif.got.tgz:5579.got - 2010.03.31 09:31:35.
