data_PCOD8046582
_publ_section_title
;
Structure prediction by ZEFSAII (Michael W. Deem and Ramdas Pophale) SiO2 
 PCOD8046582
Probable space group: P 21
;
_chemical_formula_sum "Si O2"
_cell_formula_units_Z 14
_cell_length_a 13.598145
_cell_length_b 8.474076
_cell_length_c 9.923588
_cell_angle_alpha 90.000000
_cell_angle_beta 31.785684
_cell_angle_gamma 90.000000
_cell_volume 602.337456
_symmetry_space_group_name_H-M "P 21"
_symmetry_group_IT_number 4
_symmetry_cell_setting 'monoclinic'
loop_
_space_group_symop_operation_xyz
x,y,z
-x,1/2+y,-z
loop_
_atom_site_type_symbol
_atom_site_label
_atom_site_fract_x
_atom_site_fract_y
_atom_site_fract_z
Si Si1 0.620708 0.170090 0.545417
Si Si2 0.845559 0.038999 0.802076
Si Si3 0.419361 0.734014 0.712465
Si Si4 0.237032 0.057606 0.998513
Si Si5 0.960870 0.842430 0.443876
Si Si6 0.801384 0.850201 0.343462
Si Si7 0.986431 0.321345 0.170098
O O1 0.620382 0.157447 0.384616
O O2 0.404167 0.179316 0.849853
O O3 0.759380 0.306705 0.437300
O O4 0.707930 0.011054 0.500151
O O5 0.958224 0.178567 0.594872
O O6 0.963958 0.955887 0.781751
O O7 0.660832 0.115895 0.080471
O O8 0.806084 0.908460 0.730121
O O9 0.641227 0.731828 0.478662
O O10 0.335200 0.911021 0.805988
O O11 0.088842 0.154257 0.080999
O O12 0.124498 0.975818 0.251280
O O13 0.897388 0.791505 0.368281
O O14 0.955334 0.873912 0.048060
#
# Coordination Sequence:
#
# PCOD8046582 Si02
#       7
#     2   2   2   2   2   2   2
#     4  11  22  39  68 109 137 174 234 291 355 413
#     4  11  25  46  70  97 138 193 233 291 354 422
#     4  10  22  42  67 103 142 176 232 294 349 412
#     4  10  22  41  66  98 142 175 226 291 343 419
#     4  11  24  46  71  96 140 192 235 283 358 416
#     4  11  23  40  70 107 142 180 233 293 352 425
#     4  12  22  40  72 104 137 182 227 291 365 413
#
# _framework density 23.242785000000001
#
# number of rings (size 3 to 8) (size 9 to 14) (size 15 to 20)
#    0.000    1.143    4.286    2.571    0.000    0.000 
#    2.571    7.143    3.143    0.000    0.000    0.000 
#    0.000    0.000    0.000    0.000    0.000    0.000 
#
# Total GULP energy -173464.932571 kJ/mol
# GULP energy per Si atom -12390.352327 kJ/mol
# Density = 2.318988 g / cm^3
# Si number density = 23.242785 Si / 1000 Ang^3
#
#
#
# Elastic Constant Matrix: (Units=GPa)
#
#
# Indices 1 2 3 4 5 6 
#
# 1 80.3938 19.6347 39.1909 0.0000 -7.8861 0.0000
# 2 19.6347 56.1037 38.0125 0.0000 8.1710 0.0000
# 3 39.1909 38.0125 79.1745 0.0000 -13.5162 0.0000
# 4 0.0000 0.0000 0.0000 36.0500 0.0000 3.8508
# 5 -7.8861 8.1710 -13.5162 0.0000 42.4969 0.0000
# 6 0.0000 0.0000 0.0000 3.8508 0.0000 29.5340
#
#
#
# Elastic Compliance Matrix: (Units=1/GPa)
#
#
# Indices 1 2 3 4 5 6 
#
# 1 0.016418 -0.000634 -0.007699 0.000000 0.000720 0.000000
# 2 -0.000634 0.030788 -0.016389 0.000000 -0.011250 0.000000
# 3 -0.007699 -0.016389 0.026016 0.000000 0.009997 0.000000
# 4 0.000000 0.000000 0.000000 0.028131 0.000000 -0.003668
# 5 0.000720 -0.011250 0.009997 0.000000 0.029007 0.000000
# 6 0.000000 0.000000 0.000000 -0.003668 0.000000 0.034337
#
#
# Mechanical properties :
#
#
# Convention : Reuss Voigt Hill
#
# Bulk Modulus (GPa) = 42.05446 45.48311 43.76879
# Shear Modulus (GPa) = 22.51566 29.53846 26.02706
#
# Velocity S-wave (km/s) = 3.11580 3.56879 3.34996
# Velocity P-wave (km/s) = 5.57468 6.04920 5.81678
#
# Compressibility (1/GPa) = 0.02377869
#
# Stress axis : x y z
#
# Youngs Moduli (GPa) = 60.91054 32.47987 38.43732
#
# Poissons Ratio (x) = 0.02059 0.29594
# Poissons Ratio (y) = 0.03861 0.62993
# Poissons Ratio (z) = 0.46898 0.53230
#
# Static dielectric constant tensor:
#      x y z
#    x 3.985020 0.000000 -0.343810 
#    y 0.000000 4.240670 0.000000 
#    z -0.343810 0.000000 4.345530 
# 
# 
# High freq. dielectric constant tensor:
#      x y z
#    x 1.895470 0.000000 -0.007280 
#    y 0.000000 1.930010 0.000000 
#    z -0.007280 0.000000 1.916200 
# 
# From -- ./inp_files/7482.got.cif
#   From: 2010.03.12/outbox.cif.g09.slc.cpg/sg4_4_cif.got.tgz:7482.got - 2010.03.31 09:31:35.
