data_PCOD8046770
_publ_section_title
;
Structure prediction by ZEFSAII (Michael W. Deem and Ramdas Pophale) SiO2 
 PCOD8046770
Probable space group: P 21
;
_chemical_formula_sum "Si O2"
_cell_formula_units_Z 14
_cell_length_a 5.057753
_cell_length_b 9.064235
_cell_length_c 13.479377
_cell_angle_alpha 90.000000
_cell_angle_beta 129.714408
_cell_angle_gamma 90.000000
_cell_volume 475.356933
_symmetry_space_group_name_H-M "P 21"
_symmetry_group_IT_number 4
_symmetry_cell_setting 'monoclinic'
loop_
_space_group_symop_operation_xyz
x,y,z
-x,1/2+y,-z
loop_
_atom_site_type_symbol
_atom_site_label
_atom_site_fract_x
_atom_site_fract_y
_atom_site_fract_z
Si Si1 0.382577 0.910030 0.232332
Si Si2 0.634265 0.664188 0.171852
Si Si3 0.604860 0.705512 0.676393
Si Si4 0.414420 0.231973 0.550185
Si Si5 0.347105 0.759713 0.910450
Si Si6 0.895311 0.938844 0.944365
Si Si7 0.163874 0.969532 0.618371
O O1 0.656233 0.826447 0.226087
O O2 0.292348 0.796702 0.303806
O O3 0.558736 0.063578 0.308283
O O4 0.039172 0.950789 0.091167
O O5 0.264201 0.597105 0.123579
O O6 0.905225 0.549714 0.289228
O O7 0.592808 0.659680 0.042029
O O8 0.450733 0.697447 0.527364
O O9 0.020590 0.682685 0.778266
O O10 0.502257 0.862377 0.700824
O O11 0.220353 0.091420 0.547652
O O12 0.155648 0.369452 0.483592
O O13 0.585594 0.817940 0.879151
O O14 0.193780 0.891132 0.941336
#
# Coordination Sequence:
#
# PCOD8046770 Si02
#       7
#     2   2   2   2   2   2   2
#     4  10  24  46  68 111 149 195 263 314 387 461
#     4  10  22  47  71 111 146 201 246 323 383 457
#     4  12  23  45  73 106 146 200 250 326 380 467
#     4  11  25  47  70 109 142 209 251 321 381 463
#     4  11  25  44  76 111 152 195 254 309 394 451
#     4  11  23  48  72 112 150 199 248 320 378 462
#     4  11  24  47  74 102 153 193 262 317 387 457
#
# _framework density 29.451554000000002
#
# number of rings (size 3 to 8) (size 9 to 14) (size 15 to 20)
#    0.000    1.143    2.857    2.571    0.000    2.286 
#   30.857    0.000    0.000    0.000    0.000    0.000 
#    0.000    0.000    0.000    0.000    0.000    0.000 
#
# Total GULP energy -173485.332678 kJ/mol
# GULP energy per Si atom -12391.809477 kJ/mol
# Density = 2.938452 g / cm^3
# Si number density = 29.451554 Si / 1000 Ang^3
#
#
#
# Elastic Constant Matrix: (Units=GPa)
#
#
# Indices 1 2 3 4 5 6 
#
# 1 29.3582 -7.7449 -12.2805 0.0000 -7.3209 0.0000
# 2 -7.7449 124.0034 17.0304 0.0000 -8.0058 0.0000
# 3 -12.2805 17.0304 138.1738 0.0000 -28.9319 0.0000
# 4 0.0000 0.0000 0.0000 55.1413 0.0000 -17.7289
# 5 -7.3209 -8.0058 -28.9319 0.0000 33.3414 0.0000
# 6 0.0000 0.0000 0.0000 -17.7289 0.0000 17.6148
#
#
#
# Elastic Compliance Matrix: (Units=1/GPa)
#
#
# Indices 1 2 3 4 5 6 
#
# 1 0.041369 0.002677 0.006579 0.000000 0.015435 0.000000
# 2 0.002677 0.008425 -0.000310 0.000000 0.002342 0.000000
# 3 0.006579 -0.000310 0.009956 0.000000 0.010009 0.000000
# 4 0.000000 0.000000 0.000000 0.026811 0.000000 0.026985
# 5 0.015435 0.002342 0.010009 0.000000 0.042630 0.000000
# 6 0.000000 0.000000 0.000000 0.026985 0.000000 0.083931
#
#
# Mechanical properties :
#
#
# Convention : Reuss Voigt Hill
#
# Bulk Modulus (GPa) = 12.87986 31.72728 22.30357
# Shear Modulus (GPa) = 22.61302 40.85485 31.73393
#
# Velocity S-wave (km/s) = 2.77393 3.72854 3.28608
# Velocity P-wave (km/s) = 3.82653 5.41591 4.68905
#
# Compressibility (1/GPa) = 0.07764059
#
# Stress axis : x y z
#
# Youngs Moduli (GPa) = 24.17276 118.69068 100.44173
#
# Poissons Ratio (x) = -0.31771 -0.66078
# Poissons Ratio (y) = -0.06470 0.03116
# Poissons Ratio (z) = -0.15903 0.03682
#
# Static dielectric constant tensor:
#      x y z
#    x 4.612600 0.000000 -0.133640 
#    y 0.000000 5.619440 0.000000 
#    z -0.133640 0.000000 6.085510 
# 
# 
# High freq. dielectric constant tensor:
#      x y z
#    x 2.154720 0.000000 -0.010870 
#    y 0.000000 2.207710 0.000000 
#    z -0.010870 0.000000 2.239790 
# 
# From -- ./inp_files/3382.got.cif
#   From: 2010.03.12/outbox.cif.g09.slc.cpg/sg4_2_cif.got.tgz:3382.got - 2010.03.31 09:31:35.
