data_PCOD8046008
_publ_section_title
;
Structure prediction by ZEFSAII (Michael W. Deem and Ramdas Pophale) SiO2 
 PCOD8046008
Probable space group: P 21
;
_chemical_formula_sum "Si O2"
_cell_formula_units_Z 16
_cell_length_a 18.356414
_cell_length_b 8.272749
_cell_length_c 9.918001
_cell_angle_alpha 90.000000
_cell_angle_beta 153.805205
_cell_angle_gamma 90.000000
_cell_volume 664.841493
_symmetry_space_group_name_H-M "P 21"
_symmetry_group_IT_number 4
_symmetry_cell_setting 'monoclinic'
loop_
_space_group_symop_operation_xyz
x,y,z
-x,1/2+y,-z
loop_
_atom_site_type_symbol
_atom_site_label
_atom_site_fract_x
_atom_site_fract_y
_atom_site_fract_z
Si Si1 0.970353 0.013060 0.394247
Si Si2 0.566833 0.366471 0.027799
Si Si3 0.485846 0.816368 0.562664
Si Si4 0.981359 0.732181 0.039354
Si Si5 0.153448 0.188188 0.903625
Si Si6 0.378039 0.649168 0.134179
Si Si7 0.893444 0.554316 0.647207
Si Si8 0.642949 0.156121 0.388159
O O1 0.110806 0.032636 0.741759
O O2 0.976490 0.825924 0.360372
O O3 0.796674 0.063182 0.166094
O O4 0.010491 0.117657 0.325815
O O5 0.722426 0.484070 0.307774
O O6 0.533145 0.274914 0.112151
O O7 0.590242 0.225362 0.957949
O O8 0.410742 0.471297 0.723016
O O9 0.382828 0.791099 0.254004
O O10 0.392048 0.709296 0.517619
O O11 0.489489 0.006014 0.608964
O O12 0.664988 0.747209 0.826870
O O13 0.994013 0.923184 0.086044
O O14 0.165858 0.662905 0.332961
O O15 0.879983 0.650036 0.994494
O O16 0.876217 0.698998 0.727633
#
# Coordination Sequence:
#
# PCOD8046008 Si02
#       8
#     2   2   2   2   2   2   2   2
#     4  10  20  39  63  90 127 167 209 258 310 372
#     4  11  24  42  64  93 129 167 214 267 319 378
#     4  11  24  40  64  96 128 169 213 260 317 375
#     4  10  23  41  61  89 125 163 210 259 311 375
#     4  10  23  40  62  92 126 165 211 257 311 370
#     4  11  23  41  64  93 129 167 212 265 316 379
#     4  10  22  40  62  92 125 165 209 258 314 374
#     4  11  23  41  64  95 129 169 214 262 316 375
#
# _framework density 24.065887
#
# number of rings (size 3 to 8) (size 9 to 14) (size 15 to 20)
#    0.000    1.500    0.000    5.250    0.000    9.000 
#    0.000    0.000    0.000    0.000    0.000    0.000 
#    0.000    0.000    0.000    0.000    0.000    0.000 
#
# Total GULP energy -198404.018561 kJ/mol
# GULP energy per Si atom -12400.251160 kJ/mol
# Density = 2.401111 g / cm^3
# Si number density = 24.065887 Si / 1000 Ang^3
#
#
#
# Elastic Constant Matrix: (Units=GPa)
#
#
# Indices 1 2 3 4 5 6 
#
# 1 99.5674 1.4336 2.7346 0.0000 -0.5075 0.0000
# 2 1.4336 47.7652 12.4678 0.0000 7.7904 0.0000
# 3 2.7346 12.4678 39.9528 0.0000 -8.3446 0.0000
# 4 0.0000 0.0000 0.0000 46.2303 0.0000 -15.7855
# 5 -0.5075 7.7904 -8.3446 0.0000 32.2024 0.0000
# 6 0.0000 0.0000 0.0000 -15.7855 0.0000 38.0188
#
#
#
# Elastic Compliance Matrix: (Units=1/GPa)
#
#
# Indices 1 2 3 4 5 6 
#
# 1 0.010063 -0.000139 -0.000640 0.000000 0.000027 0.000000
# 2 -0.000139 0.024799 -0.009497 0.000000 -0.008462 0.000000
# 3 -0.000640 -0.009497 0.030146 0.000000 0.010099 0.000000
# 4 0.000000 0.000000 0.000000 0.025204 0.000000 0.010465
# 5 0.000027 -0.008462 0.010099 0.000000 0.035718 0.000000
# 6 0.000000 0.000000 0.000000 0.010465 0.000000 0.030648
#
#
# Mechanical properties :
#
#
# Convention : Reuss Voigt Hill
#
# Bulk Modulus (GPa) = 22.49386 24.50639 23.50012
# Shear Modulus (GPa) = 26.04854 34.66693 30.35773
#
# Velocity S-wave (km/s) = 3.29353 3.79951 3.55553
# Velocity P-wave (km/s) = 4.88162 5.42711 5.16157
#
# Compressibility (1/GPa) = 0.04445657
#
# Stress axis : x y z
#
# Youngs Moduli (GPa) = 99.37238 40.32413 33.17162
#
# Poissons Ratio (x) = 0.00562 0.02122
# Poissons Ratio (y) = 0.01385 0.31502
# Poissons Ratio (z) = 0.06357 0.38295
#
# Static dielectric constant tensor:
#      x y z
#    x 4.399970 0.000000 -0.196990 
#    y 0.000000 4.394490 0.000000 
#    z -0.196990 0.000000 4.232430 
# 
# 
# High freq. dielectric constant tensor:
#      x y z
#    x 1.963880 0.000000 -0.008070 
#    y 0.000000 1.946520 0.000000 
#    z -0.008070 0.000000 1.956170 
# 
# From -- ./inp_files/5422.got.cif
#   From: 2010.03.12/outbox.cif.g09.slc.cpg/sg4_3_cif.got.tgz:5422.got - 2010.03.31 09:31:35.
