data_PCOD8046239
_publ_section_title
;
Structure prediction by ZEFSAII (Michael W. Deem and Ramdas Pophale) SiO2 
 PCOD8046239
Probable space group: P 21
;
_chemical_formula_sum "Si O2"
_cell_formula_units_Z 10
_cell_length_a 13.430515
_cell_length_b 5.293086
_cell_length_c 7.330690
_cell_angle_alpha 90.000000
_cell_angle_beta 44.853481
_cell_angle_gamma 90.000000
_cell_volume 367.551360
_symmetry_space_group_name_H-M "P 21"
_symmetry_group_IT_number 4
_symmetry_cell_setting 'monoclinic'
loop_
_space_group_symop_operation_xyz
x,y,z
-x,1/2+y,-z
loop_
_atom_site_type_symbol
_atom_site_label
_atom_site_fract_x
_atom_site_fract_y
_atom_site_fract_z
Si Si1 0.431831 0.229290 0.840829
Si Si2 0.689678 0.922083 0.640582
Si Si3 0.029995 0.674555 0.733389
Si Si4 0.918753 0.181583 0.936590
Si Si5 0.680223 0.514384 0.369717
O O1 0.524894 0.464066 0.650384
O O2 0.328546 0.150071 0.813039
O O3 0.536759 0.007922 0.768604
O O4 0.327943 0.308089 0.136484
O O5 0.753337 0.707182 0.421093
O O6 0.799712 0.160268 0.517738
O O7 0.963900 0.412177 0.742024
O O8 0.985620 0.646691 0.006174
O O9 0.947932 0.929523 0.774935
O O10 0.762084 0.247372 0.222449
#
# Coordination Sequence:
#
# PCOD8046239 Si02
#       5
#     2   2   2   2   2
#     4  12  26  42  72 116 154 206 250 326 398 474
#     4  12  24  44  73 111 160 200 263 322 396 473
#     4  10  21  39  71 106 141 199 259 312 378 455
#     4  10  21  39  71 106 141 199 259 312 378 455
#     4  12  24  44  73 111 160 200 263 322 396 473
#
# _framework density 27.207082
#
# number of rings (size 3 to 8) (size 9 to 14) (size 15 to 20)
#    0.000    0.800    6.000    3.600    0.000    0.000 
#    0.000    0.000    0.000   21.600    0.000    0.000 
#    0.000    0.000    0.000    0.000    0.000    0.000 
#
# Total GULP energy -123881.049080 kJ/mol
# GULP energy per Si atom -12388.104908 kJ/mol
# Density = 2.714516 g / cm^3
# Si number density = 27.207082 Si / 1000 Ang^3
#
#
#
# Elastic Constant Matrix: (Units=GPa)
#
#
# Indices 1 2 3 4 5 6 
#
# 1 47.4060 35.1028 50.4905 0.0000 25.5905 0.0000
# 2 35.1028 207.4963 70.6352 0.0000 -5.1237 0.0000
# 3 50.4905 70.6352 162.3736 0.0000 3.2423 0.0000
# 4 0.0000 0.0000 0.0000 58.2363 0.0000 -14.7100
# 5 25.5905 -5.1237 3.2423 0.0000 36.9922 0.0000
# 6 0.0000 0.0000 0.0000 -14.7100 0.0000 32.7572
#
#
#
# Elastic Compliance Matrix: (Units=1/GPa)
#
#
# Indices 1 2 3 4 5 6 
#
# 1 0.073529 -0.007322 -0.018675 0.000000 -0.050243 0.000000
# 2 -0.007322 0.006424 -0.000637 0.000000 0.006011 0.000000
# 3 -0.018675 -0.000637 0.012008 0.000000 0.011779 0.000000
# 4 0.000000 0.000000 0.000000 0.019368 0.000000 0.008698
# 5 -0.050243 0.006011 0.011779 0.000000 0.061590 0.000000
# 6 0.000000 0.000000 0.000000 0.008698 0.000000 0.034433
#
#
# Mechanical properties :
#
#
# Convention : Reuss Voigt Hill
#
# Bulk Modulus (GPa) = 25.84649 81.08145 53.46397
# Shear Modulus (GPa) = 18.28021 43.00030 30.64026
#
# Velocity S-wave (km/s) = 2.59490 3.97984 3.35951
# Velocity P-wave (km/s) = 4.30099 7.14039 5.89422
#
# Compressibility (1/GPa) = 0.03868997
#
# Stress axis : x y z
#
# Youngs Moduli (GPa) = 13.60005 155.67715 83.27817
#
# Poissons Ratio (x) = 1.13993 1.55526
# Poissons Ratio (y) = 0.09958 0.05309
# Poissons Ratio (z) = 0.25399 0.09924
#
# Static dielectric constant tensor:
#      x y z
#    x 4.388890 0.000000 -0.021690 
#    y 0.000000 5.436820 0.000000 
#    z -0.021690 0.000000 4.727590 
# 
# 
# High freq. dielectric constant tensor:
#      x y z
#    x 2.052710 0.000000 -0.013290 
#    y 0.000000 2.106340 0.000000 
#    z -0.013290 0.000000 2.104620 
# 
# From -- ./inp_files/8763.got.cif
#   From: 2010.03.12/outbox.cif.g09.slc.cpg/sg4_5_cif.got.tgz:8763.got - 2010.03.31 09:31:35.
