data_PCOD8046009
_publ_section_title
;
Structure prediction by ZEFSAII (Michael W. Deem and Ramdas Pophale) SiO2 
 PCOD8046009
Probable space group: P 21
;
_chemical_formula_sum "Si O2"
_cell_formula_units_Z 16
_cell_length_a 9.089532
_cell_length_b 13.057485
_cell_length_c 9.045938
_cell_angle_alpha 90.000000
_cell_angle_beta 47.266492
_cell_angle_gamma 90.000000
_cell_volume 788.600464
_symmetry_space_group_name_H-M "P 21"
_symmetry_group_IT_number 4
_symmetry_cell_setting 'monoclinic'
loop_
_space_group_symop_operation_xyz
x,y,z
-x,1/2+y,-z
loop_
_atom_site_type_symbol
_atom_site_label
_atom_site_fract_x
_atom_site_fract_y
_atom_site_fract_z
Si Si1 0.441402 0.327400 0.987262
Si Si2 0.206256 0.598323 0.008430
Si Si3 0.382715 0.987677 0.334609
Si Si4 0.053951 0.993452 0.320933
Si Si5 0.290855 0.512459 0.237771
Si Si6 0.691387 0.615706 0.045886
Si Si7 0.779568 0.325811 0.986133
Si Si8 0.196428 0.995332 0.781513
O O1 0.270804 0.405749 0.160801
O O2 0.561135 0.376811 0.768999
O O3 0.340098 0.229912 0.983324
O O4 0.570459 0.302047 0.045100
O O5 0.202665 0.599779 0.190637
O O6 0.145809 0.714864 0.005698
O O7 0.041163 0.516633 0.066461
O O8 0.426830 0.564731 0.799389
O O9 0.199042 0.024954 0.357944
O O10 0.303197 0.974686 0.554103
O O11 0.825325 0.006612 0.528538
O O12 0.078617 0.879529 0.234465
O O13 0.096918 0.076383 0.164072
O O14 0.524581 0.535792 0.100951
O O15 0.704326 0.598436 0.213754
O O16 0.760259 0.397842 0.142878
#
# Coordination Sequence:
#
# PCOD8046009 Si02
#       8
#     2   2   2   2   2   2   2   2
#     4  10  20  41  65  90 121 167 208 254 298 363
#     4  11  22  40  65  88 124 170 197 252 317 362
#     4  10  21  40  61  87 128 159 199 255 306 360
#     4  10  20  39  63  91 118 160 209 253 293 366
#     4  11  20  38  66  89 118 165 206 246 308 364
#     4  11  22  42  62  92 125 158 209 257 296 365
#     4  10  21  42  62  89 128 158 211 257 296 368
#     4  11  24  40  60  94 130 155 201 264 310 362
#
# _framework density 20.289107999999999
#
# number of rings (size 3 to 8) (size 9 to 14) (size 15 to 20)
#    0.000    1.500    7.500    0.000    0.000    6.000 
#    2.250    0.000    0.000    0.000    0.000    0.000 
#    0.000    0.000    0.000    0.000    0.000    0.000 
#
# Total GULP energy -198249.234037 kJ/mol
# GULP energy per Si atom -12390.577127 kJ/mol
# Density = 2.024293 g / cm^3
# Si number density = 20.289108 Si / 1000 Ang^3
#
#
#
# Elastic Constant Matrix: (Units=GPa)
#
#
# Indices 1 2 3 4 5 6 
#
# 1 57.8171 16.1133 25.3384 0.0000 12.8758 0.0000
# 2 16.1133 97.7816 43.7561 0.0000 0.0665 0.0000
# 3 25.3384 43.7561 132.9536 0.0000 8.6652 0.0000
# 4 0.0000 0.0000 0.0000 15.5525 0.0000 6.6498
# 5 12.8758 0.0665 8.6652 0.0000 29.1524 0.0000
# 6 0.0000 0.0000 0.0000 6.6498 0.0000 31.2291
#
#
#
# Elastic Compliance Matrix: (Units=1/GPa)
#
#
# Indices 1 2 3 4 5 6 
#
# 1 0.020993 -0.002240 -0.002712 0.000000 -0.008461 0.000000
# 2 -0.002240 0.012271 -0.003747 0.000000 0.002075 0.000000
# 3 -0.002712 -0.003747 0.009374 0.000000 -0.001580 0.000000
# 4 0.000000 0.000000 0.000000 0.070739 0.000000 -0.015063
# 5 -0.008461 0.002075 -0.001580 0.000000 0.038504 0.000000
# 6 0.000000 0.000000 0.000000 -0.015063 0.000000 0.035229
#
#
# Mechanical properties :
#
#
# Convention : Reuss Voigt Hill
#
# Bulk Modulus (GPa) = 39.61890 50.99644 45.30767
# Shear Modulus (GPa) = 23.48273 28.74310 26.11291
#
# Velocity S-wave (km/s) = 3.40576 3.76796 3.59143
# Velocity P-wave (km/s) = 5.91905 6.64225 6.29105
#
# Compressibility (1/GPa) = 0.02524048
#
# Stress axis : x y z
#
# Youngs Moduli (GPa) = 47.63487 81.49104 106.67306
#
# Poissons Ratio (x) = 0.18254 0.28932
# Poissons Ratio (y) = 0.10670 0.39970
# Poissons Ratio (z) = 0.12920 0.30534
#
# Static dielectric constant tensor:
#      x y z
#    x 3.754190 0.000000 0.122570 
#    y 0.000000 3.607970 0.000000 
#    z 0.122570 0.000000 3.562870 
# 
# 
# High freq. dielectric constant tensor:
#      x y z
#    x 1.790860 0.000000 0.009810 
#    y 0.000000 1.784290 0.000000 
#    z 0.009810 0.000000 1.783040 
# 
# From -- ./inp_files/6395.got.cif
#   From: 2010.03.12/outbox.cif.g09.slc.cpg/sg4_4_cif.got.tgz:6395.got - 2010.03.31 09:31:35.
