data_PCOD8046669
_publ_section_title
;
Structure prediction by ZEFSAII (Michael W. Deem and Ramdas Pophale) SiO2 
 PCOD8046669
Probable space group: P 21
;
_chemical_formula_sum "Si O2"
_cell_formula_units_Z 16
_cell_length_a 17.439623
_cell_length_b 5.052298
_cell_length_c 20.397786
_cell_angle_alpha 90.000000
_cell_angle_beta 156.834329
_cell_angle_gamma 90.000000
_cell_volume 707.023178
_symmetry_space_group_name_H-M "P 21"
_symmetry_group_IT_number 4
_symmetry_cell_setting 'monoclinic'
loop_
_space_group_symop_operation_xyz
x,y,z
-x,1/2+y,-z
loop_
_atom_site_type_symbol
_atom_site_label
_atom_site_fract_x
_atom_site_fract_y
_atom_site_fract_z
Si Si1 0.871275 0.788970 0.888930
Si Si2 0.135131 0.278445 0.262276
Si Si3 0.093672 0.597026 0.749579
Si Si4 0.312790 0.271033 0.532711
Si Si5 0.442508 0.281912 0.246009
Si Si6 0.897157 0.789563 0.114144
Si Si7 0.486656 0.856233 0.033057
Si Si8 0.900380 0.893847 0.392910
O O1 0.784482 0.828192 0.747479
O O2 0.697320 0.834636 0.802379
O O3 0.954084 0.495093 0.963431
O O4 0.314172 0.248680 0.454125
O O5 0.999917 0.513134 0.182043
O O6 0.006471 0.013779 0.158134
O O7 0.910354 0.789524 0.617998
O O8 0.097409 0.358200 0.804754
O O9 0.287772 0.773814 0.912797
O O10 0.079854 0.474887 0.666975
O O11 0.437233 0.516240 0.653104
O O12 0.402653 0.014202 0.636634
O O13 0.324013 0.270101 0.085154
O O14 0.539845 0.649078 0.017212
O O15 0.669627 0.858842 0.227536
O O16 0.010733 0.617510 0.490261
#
# Coordination Sequence:
#
# PCOD8046669 Si02
#       8
#     2   2   2   2   2   2   2   2
#     4  12  22  40  71  96 132 179 235 284 344 391
#     4  11  22  43  65  98 130 183 222 278 341 408
#     4  10  25  48  68  97 139 191 217 271 349 409
#     4  11  26  42  65  97 144 170 222 285 345 398
#     4  12  24  42  65 103 131 176 232 290 329 403
#     4  11  23  42  70  92 131 178 232 269 332 420
#     4  10  22  43  71  99 133 178 230 265 324 413
#     4  11  24  44  73 106 140 169 226 290 332 394
#
# _framework density 22.630089999999999
#
# number of rings (size 3 to 8) (size 9 to 14) (size 15 to 20)
#    0.000    1.000    2.500    4.500    0.000   11.000 
#    0.000    7.500    0.000    0.000    0.000    0.000 
#    0.000    0.000    0.000    0.000    0.000    0.000 
#
# Total GULP energy -198452.549236 kJ/mol
# GULP energy per Si atom -12403.284327 kJ/mol
# Density = 2.257858 g / cm^3
# Si number density = 22.630090 Si / 1000 Ang^3
#
#
#
# Elastic Constant Matrix: (Units=GPa)
#
#
# Indices 1 2 3 4 5 6 
#
# 1 82.5882 -20.3612 4.7603 0.0000 -1.7952 0.0000
# 2 -20.3612 86.8453 24.8965 0.0000 1.4573 0.0000
# 3 4.7603 24.8965 135.4033 0.0000 -4.6560 0.0000
# 4 0.0000 0.0000 0.0000 53.2356 0.0000 -8.9775
# 5 -1.7952 1.4573 -4.6560 0.0000 43.3794 0.0000
# 6 0.0000 0.0000 0.0000 -8.9775 0.0000 41.3131
#
#
#
# Elastic Compliance Matrix: (Units=1/GPa)
#
#
# Indices 1 2 3 4 5 6 
#
# 1 0.013002 0.003347 -0.001062 0.000000 0.000312 0.000000
# 2 0.003347 0.013036 -0.002534 0.000000 -0.000571 0.000000
# 3 -0.001062 -0.002534 0.007919 0.000000 0.000891 0.000000
# 4 0.000000 0.000000 0.000000 0.019499 0.000000 0.004237
# 5 0.000312 -0.000571 0.000891 0.000000 0.023180 0.000000
# 6 0.000000 0.000000 0.000000 0.004237 0.000000 0.025126
#
#
# Mechanical properties :
#
#
# Convention : Reuss Voigt Hill
#
# Bulk Modulus (GPa) = 29.88713 35.93642 32.91178
# Shear Modulus (GPa) = 44.08704 47.28836 45.68770
#
# Velocity S-wave (km/s) = 4.41859 4.57620 4.49808
# Velocity P-wave (km/s) = 6.26637 6.62092 6.44608
#
# Compressibility (1/GPa) = 0.03345922
#
# Stress axis : x y z
#
# Youngs Moduli (GPa) = 76.91410 76.71283 126.27411
#
# Poissons Ratio (x) = -0.25679 0.13409
# Poissons Ratio (y) = -0.25747 0.32000
# Poissons Ratio (z) = 0.08167 0.19440
#
# Static dielectric constant tensor:
#      x y z
#    x 4.028740 0.000000 -0.077820 
#    y 0.000000 4.111810 0.000000 
#    z -0.077820 0.000000 4.373880 
# 
# 
# High freq. dielectric constant tensor:
#      x y z
#    x 1.881830 0.000000 -0.009570 
#    y 0.000000 1.909150 0.000000 
#    z -0.009570 0.000000 1.903370 
# 
# From -- ./inp_files/15887.got.cif
#   From: 2010.03.12/outbox.cif.g09.slc.cpg/sg4_8_cif.got.tgz:15887.got - 2010.03.31 09:31:35.
