data_PCOD8046090
_publ_section_title
;
Structure prediction by ZEFSAII (Michael W. Deem and Ramdas Pophale) SiO2 
 PCOD8046090
Probable space group: P 21
;
_chemical_formula_sum "Si O2"
_cell_formula_units_Z 16
_cell_length_a 7.359492
_cell_length_b 9.107832
_cell_length_c 11.667398
_cell_angle_alpha 90.000000
_cell_angle_beta 76.306238
_cell_angle_gamma 90.000000
_cell_volume 759.824246
_symmetry_space_group_name_H-M "P 21"
_symmetry_group_IT_number 4
_symmetry_cell_setting 'monoclinic'
loop_
_space_group_symop_operation_xyz
x,y,z
-x,1/2+y,-z
loop_
_atom_site_type_symbol
_atom_site_label
_atom_site_fract_x
_atom_site_fract_y
_atom_site_fract_z
Si Si1 0.742560 0.801860 0.869853
Si Si2 0.631335 0.818889 0.132757
Si Si3 0.723518 0.736975 0.489007
Si Si4 0.113624 0.431549 0.718918
Si Si5 0.015482 0.739525 0.644449
Si Si6 0.356680 0.921599 0.589794
Si Si7 0.605188 0.480200 0.161062
Si Si8 0.268847 0.966032 0.102545
O O1 0.600472 0.916982 0.834421
O O2 0.675416 0.632212 0.871592
O O3 0.939533 0.813690 0.773680
O O4 0.765485 0.836979 0.001352
O O5 0.712387 0.922430 0.219893
O O6 0.608641 0.653952 0.180692
O O7 0.422971 0.864217 0.134941
O O8 0.869695 0.800316 0.374903
O O9 0.551939 0.848579 0.527187
O O10 0.637429 0.584208 0.460942
O O11 0.836569 0.716786 0.589789
O O12 0.116976 0.585874 0.653750
O O13 0.925483 0.410291 0.818574
O O14 0.174874 0.840879 0.563321
O O15 0.324944 0.909844 0.731290
O O16 0.739208 0.441781 0.033790
#
# Coordination Sequence:
#
# PCOD8046090 Si02
#       8
#     2   2   2   2   2   2   2   2
#     4   9  20  41  66  96 133 165 214 269 321 387
#     4  10  21  40  64  99 133 167 209 266 329 384
#     4  12  26  47  65 100 130 169 225 266 325 384
#     4  11  24  42  65  98 130 171 215 264 325 394
#     4  11  25  43  66  95 131 175 219 266 321 385
#     4  12  26  44  71  92 130 176 215 274 318 391
#     4  10  20  43  64  98 131 167 219 261 327 384
#     4   9  22  40  67  96 132 170 206 272 326 385
#
# _framework density 21.057501999999999
#
# number of rings (size 3 to 8) (size 9 to 14) (size 15 to 20)
#    0.000    1.500    2.500    1.500    3.500    4.000 
#    2.250    0.000    0.000    0.000    0.000    0.000 
#    0.000    0.000    0.000    0.000    0.000    0.000 
#
# Total GULP energy -198398.459479 kJ/mol
# GULP energy per Si atom -12399.903717 kJ/mol
# Density = 2.100957 g / cm^3
# Si number density = 21.057502 Si / 1000 Ang^3
#
#
#
# Elastic Constant Matrix: (Units=GPa)
#
#
# Indices 1 2 3 4 5 6 
#
# 1 88.6186 54.4339 43.6373 0.0000 -4.7951 0.0000
# 2 54.4339 107.9522 44.5392 0.0000 -5.7980 0.0000
# 3 43.6373 44.5392 93.0283 0.0000 0.7324 0.0000
# 4 0.0000 0.0000 0.0000 31.6899 0.0000 -2.0398
# 5 -4.7951 -5.7980 0.7324 0.0000 31.6515 0.0000
# 6 0.0000 0.0000 0.0000 -2.0398 0.0000 39.1930
#
#
#
# Elastic Compliance Matrix: (Units=1/GPa)
#
#
# Indices 1 2 3 4 5 6 
#
# 1 0.018209 -0.006936 -0.005233 0.000000 0.001609 0.000000
# 2 -0.006936 0.014347 -0.003629 0.000000 0.001661 0.000000
# 3 -0.005233 -0.003629 0.014956 0.000000 -0.001804 0.000000
# 4 0.000000 0.000000 0.000000 0.031662 0.000000 0.001648
# 5 0.001609 0.001661 -0.001804 0.000000 0.032184 0.000000
# 6 0.000000 0.000000 0.000000 0.001648 0.000000 0.025601
#
#
# Mechanical properties :
#
#
# Convention : Reuss Voigt Hill
#
# Bulk Modulus (GPa) = 62.83000 63.86889 63.34945
# Shear Modulus (GPa) = 28.75902 30.30613 29.53258
#
# Velocity S-wave (km/s) = 3.69960 3.79781 3.74902
# Velocity P-wave (km/s) = 6.93913 7.04469 6.99211
#
# Compressibility (1/GPa) = 0.01591596
#
# Stress axis : x y z
#
# Youngs Moduli (GPa) = 54.91868 69.70058 66.86462
#
# Poissons Ratio (x) = 0.48345 0.34991
# Poissons Ratio (y) = 0.38092 0.24262
# Poissons Ratio (z) = 0.28740 0.25291
#
# Static dielectric constant tensor:
#      x y z
#    x 3.546650 0.000000 -0.018150 
#    y 0.000000 3.765710 0.000000 
#    z -0.018150 0.000000 4.077220 
# 
# 
# High freq. dielectric constant tensor:
#      x y z
#    x 1.816450 0.000000 -0.001650 
#    y 0.000000 1.826160 0.000000 
#    z -0.001650 0.000000 1.840280 
# 
# From -- ./inp_files/3683.got.cif
#   From: 2010.03.12/outbox.cif.g09.slc.cpg/sg4_2_cif.got.tgz:3683.got - 2010.03.31 09:31:35.
