data_PCOD8046588
_publ_section_title
;
Structure prediction by ZEFSAII (Michael W. Deem and Ramdas Pophale) SiO2 
 PCOD8046588
Probable space group: P 21
;
_chemical_formula_sum "Si O2"
_cell_formula_units_Z 16
_cell_length_a 16.168602
_cell_length_b 4.936936
_cell_length_c 27.641648
_cell_angle_alpha 90.000000
_cell_angle_beta 18.773814
_cell_angle_gamma 90.000000
_cell_volume 710.108140
_symmetry_space_group_name_H-M "P 21"
_symmetry_group_IT_number 4
_symmetry_cell_setting 'monoclinic'
loop_
_space_group_symop_operation_xyz
x,y,z
-x,1/2+y,-z
loop_
_atom_site_type_symbol
_atom_site_label
_atom_site_fract_x
_atom_site_fract_y
_atom_site_fract_z
Si Si1 0.246030 0.957540 0.044388
Si Si2 0.039147 0.960041 0.264565
Si Si3 0.809166 0.939061 0.762342
Si Si4 0.984793 0.977927 0.875307
Si Si5 0.319437 0.221023 0.345978
Si Si6 0.051540 0.725491 0.533508
Si Si7 0.501774 0.602619 0.465795
Si Si8 0.906925 0.137607 0.025179
O O1 0.105302 0.898022 0.172718
O O2 0.238854 0.679081 0.018732
O O3 0.095774 0.178713 0.096129
O O4 0.540351 0.040702 0.889514
O O5 0.057866 0.693618 0.286516
O O6 0.231026 0.198381 0.176322
O O7 0.746400 0.060029 0.430332
O O8 0.994761 0.808405 0.619609
O O9 0.253899 0.060530 0.703171
O O10 0.008870 0.000379 0.919539
O O11 0.169301 0.423922 0.465565
O O12 0.622963 0.264639 0.177699
O O13 0.211222 0.259352 0.351618
O O14 0.269485 0.917063 0.390814
O O15 0.503879 0.407456 0.511171
O O16 0.084959 0.394580 0.940135
#
# Coordination Sequence:
#
# PCOD8046588 Si02
#       8
#     2   2   2   2   2   2   2   2
#     4  12  24  44  69  97 140 177 232 272 340 418
#     4  12  24  41  66  98 138 179 217 286 338 394
#     4  12  25  40  64 103 137 172 221 280 349 401
#     4  12  25  45  73  99 129 191 232 277 344 407
#     4  10  22  43  68  93 131 177 227 278 340 403
#     4  10  22  41  68  95 128 178 226 278 336 412
#     4  12  23  45  69  93 132 175 237 278 319 404
#     4  12  27  45  69 102 141 175 226 293 350 405
#
# _framework density 22.531777000000002
#
# number of rings (size 3 to 8) (size 9 to 14) (size 15 to 20)
#    0.000    0.500    2.500    6.000    0.000    6.000 
#    0.000    0.000    0.000    0.000    0.000    0.000 
#    0.000    0.000    0.000    0.000    0.000    0.000 
#
# Total GULP energy -198505.860628 kJ/mol
# GULP energy per Si atom -12406.616289 kJ/mol
# Density = 2.248049 g / cm^3
# Si number density = 22.531777 Si / 1000 Ang^3
#
#
#
# Elastic Constant Matrix: (Units=GPa)
#
#
# Indices 1 2 3 4 5 6 
#
# 1 94.5029 28.5621 38.6415 -0.0001 -1.0350 0.0001
# 2 28.5621 97.6347 9.4478 -0.0001 -10.1593 0.0000
# 3 38.6415 9.4478 97.0525 -0.0007 -2.7618 0.0000
# 4 -0.0001 -0.0001 -0.0007 29.1847 0.0001 -7.3507
# 5 -1.0350 -10.1593 -2.7618 0.0001 21.2893 -0.0001
# 6 0.0001 0.0000 0.0000 -7.3507 -0.0001 45.1114
#
#
#
# Elastic Compliance Matrix: (Units=1/GPa)
#
#
# Indices 1 2 3 4 5 6 
#
# 1 0.013808 -0.003722 -0.005186 0.000000 -0.001778 0.000000
# 2 -0.003722 0.011861 0.000485 0.000000 0.005542 0.000000
# 3 -0.005186 0.000485 0.012366 0.000000 0.001584 0.000000
# 4 0.000000 0.000000 0.000000 0.035731 0.000000 0.005822
# 5 -0.001778 0.005542 0.001584 0.000000 0.049736 0.000000
# 6 0.000000 0.000000 0.000000 0.005822 0.000000 0.023116
#
#
# Mechanical properties :
#
#
# Convention : Reuss Voigt Hill
#
# Bulk Modulus (GPa) = 47.19478 49.16587 48.18033
# Shear Modulus (GPa) = 29.32095 33.28634 31.30364
#
# Velocity S-wave (km/s) = 3.61129 3.84774 3.73139
# Velocity P-wave (km/s) = 6.19515 6.45044 6.32409
#
# Compressibility (1/GPa) = 0.02118878
#
# Stress axis : x y z
#
# Youngs Moduli (GPa) = 72.42336 84.31013 80.86525
#
# Poissons Ratio (x) = 0.31384 0.41935
# Poissons Ratio (y) = 0.26960 -0.03923
# Poissons Ratio (z) = 0.37557 -0.04091
#
# Static dielectric constant tensor:
#      x y z
#    x 4.184000 0.000000 -0.157610 
#    y 0.000000 4.147600 0.000000 
#    z -0.157610 0.000000 3.896300 
# 
# 
# High freq. dielectric constant tensor:
#      x y z
#    x 1.893520 0.000000 -0.006690 
#    y 0.000000 1.903650 0.000000 
#    z -0.006690 0.000000 1.884350 
# 
# From -- ./inp_files/11644.got.cif
#   From: 2010.03.12/outbox.cif.g09.slc.cpg/sg4_6_cif.got.tgz:11644.got - 2010.03.31 09:31:35.
