data_PCOD8046140
_publ_section_title
;
Structure prediction by ZEFSAII (Michael W. Deem and Ramdas Pophale) SiO2 
 PCOD8046140
Probable space group: P 21
;
_chemical_formula_sum "Si O2"
_cell_formula_units_Z 16
_cell_length_a 7.550138
_cell_length_b 8.189114
_cell_length_c 19.606819
_cell_angle_alpha 90.000000
_cell_angle_beta 39.632225
_cell_angle_gamma 90.000000
_cell_volume 773.254476
_symmetry_space_group_name_H-M "P 21"
_symmetry_group_IT_number 4
_symmetry_cell_setting 'monoclinic'
loop_
_space_group_symop_operation_xyz
x,y,z
-x,1/2+y,-z
loop_
_atom_site_type_symbol
_atom_site_label
_atom_site_fract_x
_atom_site_fract_y
_atom_site_fract_z
Si Si1 0.626683 0.466510 0.116235
Si Si2 0.889626 0.776881 0.685808
Si Si3 0.781681 0.567092 0.366195
Si Si4 0.632857 0.461523 0.814192
Si Si5 0.178971 0.590911 0.489192
Si Si6 0.135737 0.647493 0.010808
Si Si7 0.246460 0.671312 0.133805
Si Si8 0.091622 0.771894 0.383765
O O1 0.382993 0.393519 0.236548
O O2 0.833544 0.327842 0.028215
O O3 0.488335 0.559762 0.093981
O O4 0.814107 0.593500 0.103595
O O5 0.835875 0.619202 0.750000
O O6 0.961752 0.715762 0.588738
O O7 0.148663 0.877669 0.639295
O O8 0.459033 0.592019 0.449634
O O9 0.945209 0.619202 0.250000
O O10 0.864259 0.678642 0.406019
O O11 0.316706 0.522641 0.911262
O O12 0.705844 0.360735 0.860705
O O13 0.670817 0.344884 0.736548
O O14 0.228487 0.644904 0.396405
O O15 0.053594 0.410561 0.528215
O O16 0.257570 0.646384 0.050366
#
# Coordination Sequence:
#
# PCOD8046140 Si02
#       8
#     2   2   2   2   2   2   2   2
#     4  10  22  37  58  87 120 156 198 254 298 353
#     4   9  20  39  59  85 121 154 197 254 304 353
#     4  10  21  37  59  85 115 152 196 248 301 357
#     4   9  20  39  59  85 121 154 197 254 304 353
#     4  11  21  37  61  85 116 162 201 240 305 367
#     4  11  21  37  61  85 116 162 201 240 305 367
#     4  10  21  37  59  85 115 152 196 248 301 357
#     4  10  22  37  58  87 120 156 198 254 298 353
#
# _framework density 20.691765
#
# number of rings (size 3 to 8) (size 9 to 14) (size 15 to 20)
#    0.000    2.000    0.000    3.000    0.000    5.000 
#    0.000    2.500    0.000   10.500    0.000    0.000 
#    0.000    0.000    0.000    0.000    0.000    0.000 
#
# Total GULP energy -198399.039170 kJ/mol
# GULP energy per Si atom -12399.939948 kJ/mol
# Density = 2.064467 g / cm^3
# Si number density = 20.691765 Si / 1000 Ang^3
#
#
#
# Elastic Constant Matrix: (Units=GPa)
#
#
# Indices 1 2 3 4 5 6 
#
# 1 110.7085 44.8143 52.3838 0.0000 0.1751 0.0000
# 2 44.8143 97.4696 45.7349 0.0000 -0.0167 0.0000
# 3 52.3838 45.7349 82.5413 0.0000 0.3354 0.0000
# 4 0.0000 0.0000 0.0000 31.9972 0.0000 -0.1171
# 5 0.1751 -0.0167 0.3354 0.0000 24.3285 0.0000
# 6 0.0000 0.0000 0.0000 -0.1171 0.0000 25.5306
#
#
#
# Elastic Compliance Matrix: (Units=1/GPa)
#
#
# Indices 1 2 3 4 5 6 
#
# 1 0.013512 -0.002958 -0.006936 0.000000 -0.000004 0.000000
# 2 -0.002958 0.014512 -0.006164 0.000000 0.000116 0.000000
# 3 -0.006936 -0.006164 0.019934 0.000000 -0.000229 0.000000
# 4 0.000000 0.000000 0.000000 0.031253 0.000000 0.000143
# 5 -0.000004 0.000116 -0.000229 0.000000 0.041107 0.000000
# 6 0.000000 0.000000 0.000000 0.000143 0.000000 0.039169
#
#
# Mechanical properties :
#
#
# Convention : Reuss Voigt Hill
#
# Bulk Modulus (GPa) = 63.12771 64.06507 63.59639
# Shear Modulus (GPa) = 25.39556 26.22369 25.80963
#
# Velocity S-wave (km/s) = 3.50712 3.56385 3.53560
# Velocity P-wave (km/s) = 6.85381 6.92557 6.88978
#
# Compressibility (1/GPa) = 0.01584091
#
# Stress axis : x y z
#
# Youngs Moduli (GPa) = 74.00744 68.90876 50.16642
#
# Poissons Ratio (x) = 0.20382 0.34797
# Poissons Ratio (y) = 0.21890 0.30923
# Poissons Ratio (z) = 0.51335 0.42476
#
# Static dielectric constant tensor:
#      x y z
#    x 3.309540 0.000000 -0.008050 
#    y 0.000000 4.065130 0.000000 
#    z -0.008050 0.000000 3.753830 
# 
# 
# High freq. dielectric constant tensor:
#      x y z
#    x 1.780310 0.000000 -0.000630 
#    y 0.000000 1.831970 0.000000 
#    z -0.000630 0.000000 1.814890 
# 
# From -- ./inp_files/3160.got.cif
#   From: 2010.03.12/outbox.cif.g09.slc.cpg/sg4_2_cif.got.tgz:3160.got - 2010.03.31 09:31:35.
