data_PCOD8046856
_publ_section_title
;
Structure prediction by ZEFSAII (Michael W. Deem and Ramdas Pophale) SiO2 
 PCOD8046856
Probable space group: P 21
;
_chemical_formula_sum "Si O2"
_cell_formula_units_Z 16
_cell_length_a 15.104806
_cell_length_b 5.081485
_cell_length_c 27.041472
_cell_angle_alpha 90.000000
_cell_angle_beta 20.988725
_cell_angle_gamma 90.000000
_cell_volume 743.434286
_symmetry_space_group_name_H-M "P 21"
_symmetry_group_IT_number 4
_symmetry_cell_setting 'monoclinic'
loop_
_space_group_symop_operation_xyz
x,y,z
-x,1/2+y,-z
loop_
_atom_site_type_symbol
_atom_site_label
_atom_site_fract_x
_atom_site_fract_y
_atom_site_fract_z
Si Si1 0.187933 0.791800 0.071421
Si Si2 0.089084 0.793962 0.236808
Si Si3 0.748279 0.787613 0.793108
Si Si4 0.082747 0.797489 0.823731
Si Si5 0.303918 0.239288 0.367408
Si Si6 0.049896 0.739292 0.538917
Si Si7 0.468350 0.330023 0.483741
Si Si8 0.135176 0.778739 0.910913
O O1 0.125766 0.729654 0.160457
O O2 0.045532 0.581665 0.111981
O O3 0.103978 0.083163 0.100817
O O4 0.478432 0.763823 0.910023
O O5 0.226695 0.577074 0.197608
O O6 0.799569 0.788945 0.400576
O O7 0.211840 0.075170 0.184369
O O8 0.951425 0.733398 0.645675
O O9 0.336642 0.791547 0.661326
O O10 0.146523 0.731793 0.846620
O O11 0.224706 0.490717 0.440190
O O12 0.595302 0.235477 0.206483
O O13 0.181724 0.239291 0.377209
O O14 0.221172 0.990392 0.442186
O O15 0.483225 0.623263 0.497736
O O16 0.949409 0.573360 0.032762
#
# Coordination Sequence:
#
# PCOD8046856 Si02
#       8
#     2   2   2   2   2   2   2   2
#     4  12  25  47  66  99 141 178 225 270 342 407
#     4  12  24  44  67 100 140 175 228 276 337 389
#     4  12  26  40  70  99 134 180 229 278 326 400
#     4  12  26  44  73 101 134 185 226 276 342 411
#     4  10  23  47  67  96 133 167 220 283 336 399
#     4  10  23  42  70  95 129 175 221 276 337 385
#     4  12  23  45  70  99 137 179 226 276 333 407
#     4  12  28  47  71 103 138 177 225 285 343 402
#
# _framework density 21.521740000000001
#
# number of rings (size 3 to 8) (size 9 to 14) (size 15 to 20)
#    0.000    0.500    2.500    5.250    7.000    0.000 
#    0.000    0.000    0.000    0.000    0.000    0.000 
#    0.000    0.000    0.000    0.000    0.000    0.000 
#
# Total GULP energy -198563.300178 kJ/mol
# GULP energy per Si atom -12410.206261 kJ/mol
# Density = 2.147276 g / cm^3
# Si number density = 21.521740 Si / 1000 Ang^3
#
#
#
# Elastic Constant Matrix: (Units=GPa)
#
#
# Indices 1 2 3 4 5 6 
#
# 1 66.5305 11.3904 29.1085 0.0000 4.8204 0.0000
# 2 11.3904 111.6131 31.3155 0.0000 -4.3028 0.0000
# 3 29.1085 31.3155 112.6778 0.0000 -17.0672 0.0000
# 4 0.0000 0.0000 0.0000 18.8698 0.0000 -8.9378
# 5 4.8204 -4.3028 -17.0672 0.0000 36.3093 0.0000
# 6 0.0000 0.0000 0.0000 -8.9378 0.0000 38.2426
#
#
#
# Elastic Compliance Matrix: (Units=1/GPa)
#
#
# Indices 1 2 3 4 5 6 
#
# 1 0.017735 -0.000548 -0.005163 0.000000 -0.004846 0.000000
# 2 -0.000548 0.009735 -0.002560 0.000000 0.000023 0.000000
# 3 -0.005163 -0.002560 0.011820 0.000000 0.005938 0.000000
# 4 0.000000 0.000000 0.000000 0.059591 0.000000 0.013927
# 5 -0.004846 0.000023 0.005938 0.000000 0.030978 0.000000
# 6 0.000000 0.000000 0.000000 0.013927 0.000000 0.029404
#
#
# Mechanical properties :
#
#
# Convention : Reuss Voigt Hill
#
# Bulk Modulus (GPa) = 43.96440 48.27223 46.11831
# Shear Modulus (GPa) = 27.26458 33.28480 30.27469
#
# Velocity S-wave (km/s) = 3.56313 3.93691 3.75467
# Velocity P-wave (km/s) = 6.11556 6.56840 6.34602
#
# Compressibility (1/GPa) = 0.02274568
#
# Stress axis : x y z
#
# Youngs Moduli (GPa) = 56.38673 102.72509 84.60450
#
# Poissons Ratio (x) = 0.05630 0.43683
# Poissons Ratio (y) = 0.03090 0.21662
# Poissons Ratio (z) = 0.29114 0.26302
#
# Static dielectric constant tensor:
#      x y z
#    x 3.772120 0.000000 -0.063550 
#    y 0.000000 4.037500 0.000000 
#    z -0.063550 0.000000 3.961920 
# 
# 
# High freq. dielectric constant tensor:
#      x y z
#    x 1.845340 0.000000 -0.003620 
#    y 0.000000 1.862030 0.000000 
#    z -0.003620 0.000000 1.857740 
# 
# From -- ./inp_files/16398.got.cif
#   From: 2010.03.12/outbox.cif.g09.slc.cpg/sg4_9_cif.got.tgz:16398.got - 2010.03.31 09:31:35.
