data_PCOD8046723
_publ_section_title
;
Structure prediction by ZEFSAII (Michael W. Deem and Ramdas Pophale) SiO2 
 PCOD8046723
Probable space group: P 21
;
_chemical_formula_sum "Si O2"
_cell_formula_units_Z 16
_cell_length_a 14.977324
_cell_length_b 4.984454
_cell_length_c 24.990886
_cell_angle_alpha 90.000000
_cell_angle_beta 160.719439
_cell_angle_gamma 90.000000
_cell_volume 616.031424
_symmetry_space_group_name_H-M "P 21"
_symmetry_group_IT_number 4
_symmetry_cell_setting 'monoclinic'
loop_
_space_group_symop_operation_xyz
x,y,z
-x,1/2+y,-z
loop_
_atom_site_type_symbol
_atom_site_label
_atom_site_fract_x
_atom_site_fract_y
_atom_site_fract_z
Si Si1 0.751476 0.448700 0.944150
Si Si2 0.656902 0.042552 0.582729
Si Si3 0.468410 0.448605 0.123302
Si Si4 0.426949 0.210005 0.926426
Si Si5 0.182036 0.759606 0.432536
Si Si6 0.486299 0.434602 0.685625
Si Si7 0.012342 0.236859 0.471925
Si Si8 0.298311 0.595712 0.279567
O O1 0.594777 0.177060 0.868966
O O2 0.658146 0.549146 0.832589
O O3 0.708667 0.686406 0.963283
O O4 0.077025 0.393036 0.128496
O O5 0.391079 0.233734 0.427332
O O6 0.811695 0.049482 0.613850
O O7 0.804488 0.175969 0.718644
O O8 0.415713 0.573853 0.034688
O O9 0.779206 0.358961 0.302861
O O10 0.135127 0.331998 0.743160
O O11 0.592513 0.471548 0.040290
O O12 0.279858 0.652817 0.545267
O O13 0.390189 0.998792 0.537327
O O14 0.285677 0.193901 0.591829
O O15 0.690046 0.348570 0.753762
O O16 0.084986 0.454985 0.559203
#
# Coordination Sequence:
#
# PCOD8046723 Si02
#       8
#     2   2   2   2   2   2   2   2
#     4  12  30  47  77 113 165 207 256 316 393 470
#     4  10  22  45  68 102 138 189 250 304 373 436
#     4  12  26  51  73 113 157 205 253 321 398 456
#     4  12  30  50  80 118 154 198 267 333 391 465
#     4  11  27  48  77 109 152 202 258 325 387 462
#     4  12  26  46  77 112 155 203 263 316 383 466
#     4  12  24  46  75 108 147 197 253 309 381 462
#     4  11  29  47  77 109 154 209 262 318 386 463
#
# _framework density 25.972701000000001
#
# number of rings (size 3 to 8) (size 9 to 14) (size 15 to 20)
#    0.000    0.500    5.000    0.750   12.250    1.000 
#    2.250    0.000    0.000    0.000    0.000    0.000 
#    0.000    0.000    0.000    0.000    0.000    0.000 
#
# Total GULP energy -198235.258423 kJ/mol
# GULP energy per Si atom -12389.703651 kJ/mol
# Density = 2.591359 g / cm^3
# Si number density = 25.972701 Si / 1000 Ang^3
#
#
#
# Elastic Constant Matrix: (Units=GPa)
#
#
# Indices 1 2 3 4 5 6 
#
# 1 87.6478 6.3858 36.2325 0.0000 -19.8675 0.0000
# 2 6.3858 85.7391 16.5186 0.0000 4.3709 0.0000
# 3 36.2325 16.5186 121.4401 0.0000 -2.0432 0.0000
# 4 0.0000 0.0000 0.0000 27.7717 0.0000 -4.2603
# 5 -19.8675 4.3709 -2.0432 0.0000 18.7382 0.0000
# 6 0.0000 0.0000 0.0000 -4.2603 0.0000 34.1913
#
#
#
# Elastic Compliance Matrix: (Units=1/GPa)
#
#
# Indices 1 2 3 4 5 6 
#
# 1 0.017688 -0.001341 -0.004783 0.000000 0.018545 0.000000
# 2 -0.001341 0.012247 -0.001340 0.000000 -0.004425 0.000000
# 3 -0.004783 -0.001340 0.009782 0.000000 -0.003692 0.000000
# 4 0.000000 0.000000 0.000000 0.036710 0.000000 0.004574
# 5 0.018545 -0.004425 -0.003692 0.000000 0.073660 0.000000
# 6 0.000000 0.000000 0.000000 0.004574 0.000000 0.029817
#
#
# Mechanical properties :
#
#
# Convention : Reuss Voigt Hill
#
# Bulk Modulus (GPa) = 40.34215 45.90010 43.12112
# Shear Modulus (GPa) = 24.61912 31.85291 28.23601
#
# Velocity S-wave (km/s) = 3.08211 3.50580 3.30076
# Velocity P-wave (km/s) = 5.31339 5.83937 5.58258
#
# Compressibility (1/GPa) = 0.02478797
#
# Stress axis : x y z
#
# Youngs Moduli (GPa) = 56.53568 81.65282 102.23194
#
# Poissons Ratio (x) = 0.10953 0.48896
# Poissons Ratio (y) = 0.07583 0.13700
# Poissons Ratio (z) = 0.27040 0.10942
#
# Static dielectric constant tensor:
#      x y z
#    x 5.045720 0.000000 -0.160970 
#    y 0.000000 4.312550 0.000000 
#    z -0.160970 0.000000 4.683700 
# 
# 
# High freq. dielectric constant tensor:
#      x y z
#    x 2.049950 0.000000 -0.015940 
#    y 0.000000 2.019130 0.000000 
#    z -0.015940 0.000000 2.037680 
# 
# From -- ./inp_files/13838.got.cif
#   From: 2010.03.12/outbox.cif.g09.slc.cpg/sg4_7_cif.got.tgz:13838.got - 2010.03.31 09:31:35.
