data_PCOD8046866
_publ_section_title
;
Structure prediction by ZEFSAII (Michael W. Deem and Ramdas Pophale) SiO2 
 PCOD8046866
Probable space group: P 21
;
_chemical_formula_sum "Si O2"
_cell_formula_units_Z 10
_cell_length_a 5.061294
_cell_length_b 12.795895
_cell_length_c 6.667930
_cell_angle_alpha 90.000000
_cell_angle_beta 82.228200
_cell_angle_gamma 90.000000
_cell_volume 427.873733
_symmetry_space_group_name_H-M "P 21"
_symmetry_group_IT_number 4
_symmetry_cell_setting 'monoclinic'
loop_
_space_group_symop_operation_xyz
x,y,z
-x,1/2+y,-z
loop_
_atom_site_type_symbol
_atom_site_label
_atom_site_fract_x
_atom_site_fract_y
_atom_site_fract_z
Si Si1 0.205737 0.497610 0.246858
Si Si2 0.361240 0.715001 0.144074
Si Si3 0.250102 0.920929 0.948187
Si Si4 0.314858 0.644144 0.569783
Si Si5 0.784557 0.632418 0.831807
O O1 0.208383 0.604819 0.110006
O O2 0.449416 0.423526 0.161722
O O3 0.232212 0.532064 0.477268
O O4 0.939180 0.433106 0.227462
O O5 0.372000 0.727876 0.384975
O O6 0.203425 0.810838 0.062665
O O7 0.662269 0.702089 0.025585
O O8 0.182584 0.011676 0.111720
O O9 0.585508 0.635988 0.663673
O O10 0.069937 0.680773 0.735876
#
# Coordination Sequence:
#
# PCOD8046866 Si02
#       5
#     2   2   2   2   2
#     4   9  22  40  63  90 131 165 206 275 306 368
#     4   9  24  43  66  93 137 162 223 260 321 377
#     4  11  21  42  68  92 128 179 204 265 327 376
#     4  10  23  43  63  92 129 167 208 271 311 371
#     4  11  22  42  68  89 129 171 209 261 329 368
#
# _framework density 23.371379999999998
#
# number of rings (size 3 to 8) (size 9 to 14) (size 15 to 20)
#    1.200    0.800    0.000    3.600    0.000    6.400 
#   10.800    0.000    0.000    0.000    0.000    0.000 
#    0.000    0.000    0.000    0.000    0.000    0.000 
#
# Total GULP energy -123938.479868 kJ/mol
# GULP energy per Si atom -12393.847987 kJ/mol
# Density = 2.331819 g / cm^3
# Si number density = 23.371380 Si / 1000 Ang^3
#
#
#
# Elastic Constant Matrix: (Units=GPa)
#
#
# Indices 1 2 3 4 5 6 
#
# 1 81.5145 20.5249 9.7748 0.0000 3.4844 0.0000
# 2 20.5249 33.3458 3.8873 0.0000 -9.1425 0.0000
# 3 9.7748 3.8873 91.6077 0.0000 -21.0435 0.0000
# 4 0.0000 0.0000 0.0000 26.1863 0.0000 3.6237
# 5 3.4844 -9.1425 -21.0435 0.0000 36.7297 0.0000
# 6 0.0000 0.0000 0.0000 3.6237 0.0000 15.9102
#
#
#
# Elastic Compliance Matrix: (Units=1/GPa)
#
#
# Indices 1 2 3 4 5 6 
#
# 1 0.015522 -0.010795 -0.002480 0.000000 -0.005580 0.000000
# 2 -0.010795 0.039716 0.002272 0.000000 0.012212 0.000000
# 3 -0.002480 0.002272 0.012976 0.000000 0.008235 0.000000
# 4 0.000000 0.000000 0.000000 0.039431 0.000000 -0.008981
# 5 -0.005580 0.012212 0.008235 0.000000 0.035513 0.000000
# 6 0.000000 0.000000 0.000000 -0.008981 0.000000 0.064898
#
#
# Mechanical properties :
#
#
# Convention : Reuss Voigt Hill
#
# Bulk Modulus (GPa) = 21.64132 30.53803 26.08968
# Shear Modulus (GPa) = 20.36948 27.25062 23.81005
#
# Velocity S-wave (km/s) = 2.95542 3.41835 3.19528
# Velocity P-wave (km/s) = 4.57448 5.35490 4.98000
#
# Compressibility (1/GPa) = 0.04620789
#
# Stress axis : x y z
#
# Youngs Moduli (GPa) = 64.42566 25.17849 77.06504
#
# Poissons Ratio (x) = 0.27180 0.19112
# Poissons Ratio (y) = 0.69546 -0.17506
# Poissons Ratio (z) = 0.15978 -0.05720
#
# Static dielectric constant tensor:
#      x y z
#    x 4.004070 0.000000 -0.045830 
#    y 0.000000 3.830090 0.000000 
#    z -0.045830 0.000000 4.175300 
# 
# 
# High freq. dielectric constant tensor:
#      x y z
#    x 1.925980 0.000000 0.002870 
#    y 0.000000 1.897730 0.000000 
#    z 0.002870 0.000000 1.924320 
# 
# From -- ./inp_files/293.got.cif
#   From: 2010.03.12/outbox.cif.g09.slc.cpg/sg4_1_cif.got.tgz:293.got - 2010.03.31 09:31:35.
