data_PCOD8046149
_publ_section_title
;
Structure prediction by ZEFSAII (Michael W. Deem and Ramdas Pophale) SiO2 
 PCOD8046149
Probable space group: P 21
;
_chemical_formula_sum "Si O2"
_cell_formula_units_Z 16
_cell_length_a 10.366527
_cell_length_b 14.703354
_cell_length_c 5.295982
_cell_angle_alpha 90.000000
_cell_angle_beta 83.104858
_cell_angle_gamma 90.000000
_cell_volume 801.389705
_symmetry_space_group_name_H-M "P 21"
_symmetry_group_IT_number 4
_symmetry_cell_setting 'monoclinic'
loop_
_space_group_symop_operation_xyz
x,y,z
-x,1/2+y,-z
loop_
_atom_site_type_symbol
_atom_site_label
_atom_site_fract_x
_atom_site_fract_y
_atom_site_fract_z
Si Si1 0.220216 0.798180 0.247064
Si Si2 0.308929 0.604947 0.172263
Si Si3 0.460798 0.169138 0.217845
Si Si4 0.528888 0.000534 0.492968
Si Si5 0.922578 0.808975 0.294558
Si Si6 0.736813 0.937794 0.107847
Si Si7 0.624408 0.338532 0.294942
Si Si8 0.204241 0.264732 0.165551
O O1 0.216715 0.688472 0.267079
O O2 0.282929 0.839439 0.483301
O O3 0.073556 0.832929 0.265520
O O4 0.294849 0.831242 0.980828
O O5 0.345084 0.544744 0.404502
O O6 0.444339 0.643112 0.031971
O O7 0.231785 0.540143 0.994304
O O8 0.441642 0.083133 0.407359
O O9 0.521611 0.256016 0.350489
O O10 0.319248 0.191395 0.142170
O O11 0.591029 0.937746 0.258263
O O12 0.446016 0.936528 0.697296
O O13 0.845771 0.905169 0.283756
O O14 0.879927 0.758058 0.560028
O O15 0.886740 0.745693 0.059210
O O16 0.732798 0.865832 0.876429
#
# Coordination Sequence:
#
# PCOD8046149 Si02
#       8
#     2   2   2   2   2   2   2   2
#     4  11  24  43  62  91 126 174 206 257 312 371
#     4  10  21  37  61  92 129 156 211 256 320 377
#     4  10  22  37  62  98 128 156 208 262 321 377
#     4  11  22  38  64  97 128 163 205 263 324 381
#     4  10  22  41  65  85 122 171 220 242 303 371
#     4   9  21  36  63  91 121 165 208 259 296 384
#     4  11  24  39  64  91 131 162 202 264 321 371
#     4  10  22  39  67  91 121 165 210 257 305 368
#
# _framework density 19.965316999999999
#
# number of rings (size 3 to 8) (size 9 to 14) (size 15 to 20)
#    0.750    1.000    1.250    3.000    8.750    0.000 
#    0.000    2.500    0.000    0.000    0.000    0.000 
#    0.000    0.000    0.000    0.000    0.000    0.000 
#
# Total GULP energy -198342.300879 kJ/mol
# GULP energy per Si atom -12396.393805 kJ/mol
# Density = 1.991987 g / cm^3
# Si number density = 19.965317 Si / 1000 Ang^3
#
#
#
# Elastic Constant Matrix: (Units=GPa)
#
#
# Indices 1 2 3 4 5 6 
#
# 1 78.1501 26.4521 28.5827 0.0000 8.7157 0.0000
# 2 26.4521 79.7818 17.3264 0.0000 -3.8353 0.0000
# 3 28.5827 17.3264 114.2046 0.0000 8.1384 0.0000
# 4 0.0000 0.0000 0.0000 24.6822 0.0000 3.5382
# 5 8.7157 -3.8353 8.1384 0.0000 27.7615 0.0000
# 6 0.0000 0.0000 0.0000 3.5382 0.0000 27.3905
#
#
#
# Elastic Compliance Matrix: (Units=1/GPa)
#
#
# Indices 1 2 3 4 5 6 
#
# 1 0.016079 -0.004929 -0.002929 0.000000 -0.004870 0.000000
# 2 -0.004929 0.014633 -0.001267 0.000000 0.003941 0.000000
# 3 -0.002929 -0.001267 0.009834 0.000000 -0.002138 0.000000
# 4 0.000000 0.000000 0.000000 0.041279 0.000000 -0.005332
# 5 -0.004870 0.003941 -0.002138 0.000000 0.038721 0.000000
# 6 0.000000 0.000000 0.000000 -0.005332 0.000000 0.037198
#
#
# Mechanical properties :
#
#
# Convention : Reuss Voigt Hill
#
# Bulk Modulus (GPa) = 44.85350 46.31765 45.58558
# Shear Modulus (GPa) = 27.25881 29.28519 28.27200
#
# Velocity S-wave (km/s) = 3.69902 3.83404 3.76713
# Velocity P-wave (km/s) = 6.38421 6.54593 6.46558
#
# Compressibility (1/GPa) = 0.02229481
#
# Stress axis : x y z
#
# Youngs Moduli (GPa) = 62.19397 68.33848 101.68825
#
# Poissons Ratio (x) = 0.33684 0.29787
# Poissons Ratio (y) = 0.30655 0.12886
# Poissons Ratio (z) = 0.18218 0.08660
#
# Static dielectric constant tensor:
#      x y z
#    x 3.299610 0.000000 0.034740 
#    y 0.000000 3.609640 0.000000 
#    z 0.034740 0.000000 3.678560 
# 
# 
# High freq. dielectric constant tensor:
#      x y z
#    x 1.752600 0.000000 0.004850 
#    y 0.000000 1.769270 0.000000 
#    z 0.004850 0.000000 1.790420 
# 
# From -- ./inp_files/1764.got.cif
#   From: 2010.03.12/outbox.cif.g09.slc.cpg/sg4_1_cif.got.tgz:1764.got - 2010.03.31 09:31:35.
