data_PCOD8046843
_publ_section_title
;
Structure prediction by ZEFSAII (Michael W. Deem and Ramdas Pophale) SiO2 
 PCOD8046843
Probable space group: P 21
;
_chemical_formula_sum "Si O2"
_cell_formula_units_Z 16
_cell_length_a 8.363501
_cell_length_b 10.450500
_cell_length_c 9.433914
_cell_angle_alpha 90.000000
_cell_angle_beta 67.095077
_cell_angle_gamma 90.000000
_cell_volume 759.536029
_symmetry_space_group_name_H-M "P 21"
_symmetry_group_IT_number 4
_symmetry_cell_setting 'monoclinic'
loop_
_space_group_symop_operation_xyz
x,y,z
-x,1/2+y,-z
loop_
_atom_site_type_symbol
_atom_site_label
_atom_site_fract_x
_atom_site_fract_y
_atom_site_fract_z
Si Si1 0.512428 0.757670 0.140155
Si Si2 0.709820 0.040108 0.472135
Si Si3 0.849961 0.837530 0.624591
Si Si4 0.021070 0.512552 0.192196
Si Si5 0.727570 0.997575 0.152685
Si Si6 0.849640 0.220270 0.631348
Si Si7 0.619321 0.511223 0.269287
Si Si8 0.497571 0.245224 0.186459
O O1 0.321272 0.795702 0.261717
O O2 0.566765 0.613166 0.164571
O O3 0.645448 0.859899 0.155889
O O4 0.505232 0.774038 0.976807
O O5 0.740161 0.952661 0.598851
O O6 0.498002 0.047192 0.550502
O O7 0.788392 0.995875 0.295631
O O8 0.809025 0.167721 0.486381
O O9 0.937512 0.878091 0.743882
O O10 0.704963 0.727429 0.697671
O O11 0.987373 0.810273 0.453357
O O12 0.099718 0.623553 0.261629
O O13 0.817272 0.531731 0.244755
O O14 0.109285 0.517428 0.006795
O O15 0.592919 0.113453 0.186424
O O16 0.595108 0.364354 0.227641
#
# Coordination Sequence:
#
# PCOD8046843 Si02
#       8
#     2   2   2   2   2   2   2   2
#     4  11  23  44  67  96 132 176 213 266 333 387
#     4   9  24  42  60  97 132 168 214 271 326 386
#     4  10  23  42  67  91 135 171 220 264 328 386
#     4  11  24  43  63 100 131 169 217 280 318 380
#     4  12  25  39  71  97 132 166 227 270 319 387
#     4  10  23  42  67  91 135 171 220 264 328 386
#     4  10  25  42  68  92 135 173 216 267 325 387
#     4  11  23  44  67  96 132 176 213 266 333 387
#
# _framework density 21.06549
#
# number of rings (size 3 to 8) (size 9 to 14) (size 15 to 20)
#    0.000    1.500    2.500    1.500    7.000    6.000 
#    0.000    0.000    0.000    0.000    0.000    0.000 
#    0.000    0.000    0.000    0.000    0.000    0.000 
#
# Total GULP energy -198280.836141 kJ/mol
# GULP energy per Si atom -12392.552259 kJ/mol
# Density = 2.101754 g / cm^3
# Si number density = 21.065490 Si / 1000 Ang^3
#
#
#
# Elastic Constant Matrix: (Units=GPa)
#
#
# Indices 1 2 3 4 5 6 
#
# 1 104.9263 2.8089 46.0269 0.0000 -21.0217 0.0000
# 2 2.8089 54.3593 -1.6294 0.0000 -2.0988 0.0000
# 3 46.0269 -1.6294 129.3636 0.0000 -2.6132 0.0000
# 4 0.0000 0.0000 0.0000 26.4873 0.0000 -5.6953
# 5 -21.0217 -2.0988 -2.6132 0.0000 45.7132 0.0000
# 6 0.0000 0.0000 0.0000 -5.6953 0.0000 15.9599
#
#
#
# Elastic Compliance Matrix: (Units=1/GPa)
#
#
# Indices 1 2 3 4 5 6 
#
# 1 0.012563 -0.000568 -0.004366 0.000000 0.005502 0.000000
# 2 -0.000568 0.018462 0.000447 0.000000 0.000612 0.000000
# 3 -0.004366 0.000447 0.009260 0.000000 -0.001458 0.000000
# 4 0.000000 0.000000 0.000000 0.040891 0.000000 0.014592
# 5 0.005502 0.000612 -0.001458 0.000000 0.024350 0.000000
# 6 0.000000 0.000000 0.000000 0.014592 0.000000 0.067864
#
#
# Mechanical properties :
#
#
# Convention : Reuss Voigt Hill
#
# Bulk Modulus (GPa) = 31.93669 42.56244 37.24957
# Shear Modulus (GPa) = 25.93338 33.72826 29.83082
#
# Velocity S-wave (km/s) = 3.51249 4.00573 3.76719
# Velocity P-wave (km/s) = 5.62527 6.45316 6.05338
#
# Compressibility (1/GPa) = 0.03131195
#
# Stress axis : x y z
#
# Youngs Moduli (GPa) = 79.59846 54.16391 107.99499
#
# Poissons Ratio (x) = 0.03074 0.47149
# Poissons Ratio (y) = 0.04518 -0.04826
# Poissons Ratio (z) = 0.34752 -0.02420
#
# Static dielectric constant tensor:
#      x y z
#    x 3.979640 0.000000 -0.023110 
#    y 0.000000 3.589420 0.000000 
#    z -0.023110 0.000000 3.922130 
# 
# 
# High freq. dielectric constant tensor:
#      x y z
#    x 1.831950 0.000000 -0.005730 
#    y 0.000000 1.814250 0.000000 
#    z -0.005730 0.000000 1.837020 
# 
# From -- ./inp_files/5506.got.cif
#   From: 2010.03.12/outbox.cif.g09.slc.cpg/sg4_3_cif.got.tgz:5506.got - 2010.03.31 09:31:35.
