data_PCOD8046406
_publ_section_title
;
Structure prediction by ZEFSAII (Michael W. Deem and Ramdas Pophale) SiO2 
 PCOD8046406
Probable space group: P 21
;
_chemical_formula_sum "Si O2"
_cell_formula_units_Z 14
_cell_length_a 17.237696
_cell_length_b 5.420128
_cell_length_c 17.237815
_cell_angle_alpha 90.000000
_cell_angle_beta 25.603576
_cell_angle_gamma 90.000000
_cell_volume 695.981166
_symmetry_space_group_name_H-M "P 21"
_symmetry_group_IT_number 4
_symmetry_cell_setting 'monoclinic'
loop_
_space_group_symop_operation_xyz
x,y,z
-x,1/2+y,-z
loop_
_atom_site_type_symbol
_atom_site_label
_atom_site_fract_x
_atom_site_fract_y
_atom_site_fract_z
Si Si1 0.607347 0.271350 0.392664
Si Si2 0.864667 0.021446 0.864659
Si Si3 0.346806 0.213319 0.052045
Si Si4 0.151910 0.765130 0.966680
Si Si5 0.947999 0.329634 0.653189
Si Si6 0.966646 0.277641 0.151967
Si Si7 0.269324 0.521512 0.269429
O O1 0.501078 0.521326 0.501131
O O2 0.675064 0.278242 0.243186
O O3 0.756761 0.264485 0.325036
O O4 0.986893 0.127034 0.684411
O O5 0.684456 0.915959 0.986797
O O6 0.798371 0.226862 0.987032
O O7 0.986990 0.815919 0.798389
O O8 0.328694 0.310677 0.156099
O O9 0.185592 0.021363 0.185422
O O10 0.547590 0.117738 0.857107
O O11 0.039742 0.521393 0.039862
O O12 0.048291 0.021396 0.048330
O O13 0.844135 0.232191 0.671093
O O14 0.142909 0.425469 0.452474
#
# Coordination Sequence:
#
# PCOD8046406 Si02
#       7
#     2   2   2   2   2   2   2
#     4  12  24  40  70 108 138 166 224 288 330 396
#     4   9  24  40  68  88 134 176 232 268 344 408
#     4  11  21  40  62  98 128 176 226 287 338 405
#     4  10  21  43  70  94 128 185 219 268 333 413
#     4  11  21  40  62  98 128 176 226 287 338 405
#     4  10  21  43  70  94 128 185 219 268 333 413
#     4  11  22  36  68  90 130 168 234 280 342 402
#
# _framework density 20.115489
#
# number of rings (size 3 to 8) (size 9 to 14) (size 15 to 20)
#    0.857    0.571    2.857    3.429    0.000    0.000 
#    0.000    5.714    0.000    0.000    0.000    0.000 
#    0.000    0.000    0.000    0.000    0.000    0.000 
#
# Total GULP energy -173481.200966 kJ/mol
# GULP energy per Si atom -12391.514355 kJ/mol
# Density = 2.006971 g / cm^3
# Si number density = 20.115489 Si / 1000 Ang^3
#
#
#
# Elastic Constant Matrix: (Units=GPa)
#
#
# Indices 1 2 3 4 5 6 
#
# 1 125.0182 38.8901 70.1362 0.0000 3.8661 0.0000
# 2 38.8901 151.4275 71.4552 0.0000 -5.9275 0.0000
# 3 70.1362 71.4552 161.8452 0.0000 -10.5593 0.0000
# 4 0.0000 0.0000 0.0000 44.3754 0.0000 -8.5700
# 5 3.8661 -5.9275 -10.5593 0.0000 19.4336 0.0000
# 6 0.0000 0.0000 0.0000 -8.5700 0.0000 -2.7201
#
#
#
# Elastic Compliance Matrix: (Units=1/GPa)
#
#
# Indices 1 2 3 4 5 6 
#
# 1 0.011084 -0.000786 -0.004785 0.000000 -0.005045 0.000000
# 2 -0.000786 0.008403 -0.003309 0.000000 0.000921 0.000000
# 3 -0.004785 -0.003309 0.010067 0.000000 0.005412 0.000000
# 4 0.000000 0.000000 0.000000 0.014010 0.000000 -0.044141
# 5 -0.005045 0.000921 0.005412 0.000000 0.055683 0.000000
# 6 0.000000 0.000000 0.000000 -0.044141 0.000000 -0.228562
#
#
# Mechanical properties :
#
#
# Convention : Reuss Voigt Hill
#
# Bulk Modulus (GPa) = 84.79946 88.80598 86.80272
# Shear Modulus (GPa) = -46.45895 29.40508 -8.52694
#
# Velocity S-wave (km/s) = -4.81105 3.82751 -2.06111
# Velocity P-wave (km/s) = 3.37434 7.98605 6.13038
#
# Compressibility (1/GPa) = 0.01179253
#
# Stress axis : x y z
#
# Youngs Moduli (GPa) = 90.22004 118.99987 99.33679
#
# Poissons Ratio (x) = 0.09353 0.47537
# Poissons Ratio (y) = 0.07091 0.32875
# Poissons Ratio (z) = 0.43174 0.39382
#
# Static dielectric constant tensor:
#      x y z
#    x 3.542250 0.000000 0.007100 
#    y 0.000000 3.885330 0.000000 
#    z 0.007100 0.000000 3.502790 
# 
# 
# High freq. dielectric constant tensor:
#      x y z
#    x 1.784170 0.000000 0.003340 
#    y 0.000000 1.802310 0.000000 
#    z 0.003340 0.000000 1.765860 
# 
# From -- ./inp_files/14655.got.cif
#   From: 2010.03.12/outbox.cif.g09.slc.cpg/sg4_8_cif.got.tgz:14655.got - 2010.03.31 09:31:35.
