data_PCOD8046755
_publ_section_title
;
Structure prediction by ZEFSAII (Michael W. Deem and Ramdas Pophale) SiO2 
 PCOD8046755
Probable space group: P 21
;
_chemical_formula_sum "Si O2"
_cell_formula_units_Z 16
_cell_length_a 12.248611
_cell_length_b 11.305888
_cell_length_c 6.976752
_cell_angle_alpha 90.000000
_cell_angle_beta 48.874715
_cell_angle_gamma 90.000000
_cell_volume 727.775333
_symmetry_space_group_name_H-M "P 21"
_symmetry_group_IT_number 4
_symmetry_cell_setting 'monoclinic'
loop_
_space_group_symop_operation_xyz
x,y,z
-x,1/2+y,-z
loop_
_atom_site_type_symbol
_atom_site_label
_atom_site_fract_x
_atom_site_fract_y
_atom_site_fract_z
Si Si1 0.517270 0.687680 0.429059
Si Si2 0.961628 0.345368 0.193037
Si Si3 0.340993 0.041823 0.014122
Si Si4 0.085988 0.085354 0.581056
Si Si5 0.643474 0.014777 0.612896
Si Si6 0.266078 0.827173 0.865197
Si Si7 0.169802 0.685674 0.340827
Si Si8 0.219289 0.276291 0.670090
O O1 0.616103 0.673484 0.120078
O O2 0.407958 0.573158 0.535549
O O3 0.414919 0.801911 0.573943
O O4 0.637819 0.695828 0.458304
O O5 0.958420 0.487371 0.212239
O O6 0.868641 0.304860 0.117672
O O7 0.900672 0.293211 0.460589
O O8 0.126965 0.302283 0.969695
O O9 0.494184 0.978959 0.897442
O O10 0.267877 0.963167 0.929947
O O11 0.237094 0.047563 0.312635
O O12 0.111415 0.210802 0.650900
O O13 0.958291 0.097744 0.574732
O O14 0.742242 0.901819 0.467951
O O15 0.724444 0.112949 0.644787
O O16 0.255623 0.738635 0.059484
#
# Coordination Sequence:
#
# PCOD8046755 Si02
#       8
#     2   2   2   2   2   2   2   2
#     4  10  22  46  71 102 142 192 237 301 354 436
#     4  12  27  47  74 105 144 200 241 305 368 435
#     4  10  23  46  69 107 140 189 246 296 360 432
#     4  12  28  45  75 108 144 198 240 313 364 441
#     4  10  26  45  72 104 150 189 243 308 362 436
#     4  12  23  49  72 104 148 190 244 297 366 435
#     4  12  27  48  71 109 146 190 245 306 367 438
#     4  12  26  46  74 109 150 192 252 300 373 443
#
# _framework density 21.984808999999998
#
# number of rings (size 3 to 8) (size 9 to 14) (size 15 to 20)
#    0.750    0.000    5.000    1.500    8.750    0.000 
#    2.250    0.000    0.000    0.000    0.000    0.000 
#    0.000    0.000    0.000    0.000    0.000    0.000 
#
# Total GULP energy -198211.280161 kJ/mol
# GULP energy per Si atom -12388.205010 kJ/mol
# Density = 2.193477 g / cm^3
# Si number density = 21.984809 Si / 1000 Ang^3
#
#
#
# Elastic Constant Matrix: (Units=GPa)
#
#
# Indices 1 2 3 4 5 6 
#
# 1 111.8295 38.4086 34.6342 0.0000 -5.0054 0.0000
# 2 38.4086 94.6423 47.8638 0.0000 2.9967 0.0000
# 3 34.6342 47.8638 94.7466 0.0000 -10.3273 0.0000
# 4 0.0000 0.0000 0.0000 39.3455 0.0000 -1.5218
# 5 -5.0054 2.9967 -10.3273 0.0000 29.7148 0.0000
# 6 0.0000 0.0000 0.0000 -1.5218 0.0000 36.5693
#
#
#
# Elastic Compliance Matrix: (Units=1/GPa)
#
#
# Indices 1 2 3 4 5 6 
#
# 1 0.010814 -0.003377 -0.002091 0.000000 0.001435 0.000000
# 2 -0.003377 0.015738 -0.007225 0.000000 -0.004667 0.000000
# 3 -0.002091 -0.007225 0.015601 0.000000 0.005798 0.000000
# 4 0.000000 0.000000 0.000000 0.025457 0.000000 0.001059
# 5 0.001435 -0.004667 0.005798 0.000000 0.036381 0.000000
# 6 0.000000 0.000000 0.000000 0.001059 0.000000 0.027389
#
#
# Mechanical properties :
#
#
# Convention : Reuss Voigt Hill
#
# Bulk Modulus (GPa) = 59.63748 60.33685 59.98717
# Shear Modulus (GPa) = 30.79707 33.14672 31.97190
#
# Velocity S-wave (km/s) = 3.74683 3.88714 3.81763
# Velocity P-wave (km/s) = 6.77524 6.90296 6.83940
#
# Compressibility (1/GPa) = 0.01676798
#
# Stress axis : x y z
#
# Youngs Moduli (GPa) = 92.47583 63.54009 64.10027
#
# Poissons Ratio (x) = 0.21455 0.13401
# Poissons Ratio (y) = 0.31226 0.46312
# Poissons Ratio (z) = 0.19333 0.45907
#
# Static dielectric constant tensor:
#      x y z
#    x 4.000050 0.000000 -0.249800 
#    y 0.000000 3.828070 0.000000 
#    z -0.249800 0.000000 3.866980 
# 
# 
# High freq. dielectric constant tensor:
#      x y z
#    x 1.874680 0.000000 -0.021030 
#    y 0.000000 1.855660 0.000000 
#    z -0.021030 0.000000 1.854130 
# 
# From -- ./inp_files/3035.got.cif
#   From: 2010.03.12/outbox.cif.g09.slc.cpg/sg4_2_cif.got.tgz:3035.got - 2010.03.31 09:31:35.
