data_PCOD8046439
_publ_section_title
;
Structure prediction by ZEFSAII (Michael W. Deem and Ramdas Pophale) SiO2 
 PCOD8046439
Probable space group: P 21
;
_chemical_formula_sum "Si O2"
_cell_formula_units_Z 14
_cell_length_a 6.603540
_cell_length_b 7.413565
_cell_length_c 16.240683
_cell_angle_alpha 90.000000
_cell_angle_beta 131.084457
_cell_angle_gamma 90.000000
_cell_volume 599.281322
_symmetry_space_group_name_H-M "P 21"
_symmetry_group_IT_number 4
_symmetry_cell_setting 'monoclinic'
loop_
_space_group_symop_operation_xyz
x,y,z
-x,1/2+y,-z
loop_
_atom_site_type_symbol
_atom_site_label
_atom_site_fract_x
_atom_site_fract_y
_atom_site_fract_z
Si Si1 0.929671 0.253140 0.062552
Si Si2 0.710181 0.784265 0.645561
Si Si3 0.666550 0.056438 0.857941
Si Si4 0.775614 0.493164 0.536624
Si Si5 0.712204 0.286627 0.173921
Si Si6 0.272802 0.244864 0.632864
Si Si7 0.557423 0.586943 0.758210
O O1 0.078329 0.447936 0.111514
O O2 0.145310 0.087180 0.122145
O O3 0.724991 0.216074 0.083427
O O4 0.766836 0.235726 0.932816
O O5 0.787905 0.592009 0.626744
O O6 0.519209 0.906143 0.539861
O O7 0.563773 0.752067 0.694105
O O8 0.998607 0.882287 0.732011
O O9 0.423478 0.099249 0.730329
O O10 0.532779 0.925078 0.889246
O O11 0.799129 0.645362 0.471408
O O12 0.995136 0.333280 0.590702
O O13 0.661523 0.128491 0.228913
O O14 0.488699 0.407839 0.687939
#
# Coordination Sequence:
#
# PCOD8046439 Si02
#       7
#     2   2   2   2   2   2   2
#     4  10  23  45  71 104 138 182 226 293 357 429
#     4  11  24  44  66  99 134 187 231 295 346 420
#     4  11  25  43  70 101 141 178 235 291 357 421
#     4  12  26  41  71  99 143 187 246 288 358 408
#     4  10  22  43  68  98 138 180 225 291 347 430
#     4  12  25  43  69 102 138 190 234 297 346 420
#     4  10  21  45  69  97 140 176 229 289 351 418
#
# _framework density 23.361315000000001
#
# number of rings (size 3 to 8) (size 9 to 14) (size 15 to 20)
#    0.000    1.143    1.429    5.143    4.000    3.429 
#    2.571    0.000    0.000    0.000    0.000    0.000 
#    0.000    0.000    0.000    0.000    0.000    0.000 
#
# Total GULP energy -173440.745585 kJ/mol
# GULP energy per Si atom -12388.624685 kJ/mol
# Density = 2.330814 g / cm^3
# Si number density = 23.361315 Si / 1000 Ang^3
#
#
#
# Elastic Constant Matrix: (Units=GPa)
#
#
# Indices 1 2 3 4 5 6 
#
# 1 125.7496 27.1736 13.8590 0.0000 -10.6559 0.0000
# 2 27.1736 80.5658 9.7536 0.0000 -0.8834 0.0000
# 3 13.8590 9.7536 75.5009 0.0000 -9.2915 0.0000
# 4 0.0000 0.0000 0.0000 51.4622 0.0000 6.2587
# 5 -10.6559 -0.8834 -9.2915 0.0000 25.4129 0.0000
# 6 0.0000 0.0000 0.0000 6.2587 0.0000 32.5601
#
#
#
# Elastic Compliance Matrix: (Units=1/GPa)
#
#
# Indices 1 2 3 4 5 6 
#
# 1 0.008952 -0.002879 -0.000860 0.000000 0.003339 0.000000
# 2 -0.002879 0.013536 -0.001373 0.000000 -0.001238 0.000000
# 3 -0.000860 -0.001373 0.014167 0.000000 0.004771 0.000000
# 4 0.000000 0.000000 0.000000 0.019897 0.000000 -0.003825
# 5 0.003339 -0.001238 0.004771 0.000000 0.042452 0.000000
# 6 0.000000 0.000000 0.000000 -0.003825 0.000000 0.031448
#
#
# Mechanical properties :
#
#
# Convention : Reuss Voigt Hill
#
# Bulk Modulus (GPa) = 37.83324 42.59874 40.21599
# Shear Modulus (GPa) = 33.44810 37.28905 35.36858
#
# Velocity S-wave (km/s) = 3.78798 3.99957 3.89521
# Velocity P-wave (km/s) = 5.94657 6.29309 6.12229
#
# Compressibility (1/GPa) = 0.02643178
#
# Stress axis : x y z
#
# Youngs Moduli (GPa) = 111.70503 73.87849 70.58495
#
# Poissons Ratio (x) = 0.21267 0.06074
# Poissons Ratio (y) = 0.32156 0.09689
# Poissons Ratio (z) = 0.09612 0.10141
#
# Static dielectric constant tensor:
#      x y z
#    x 4.158340 0.000000 0.072830 
#    y 0.000000 3.946530 0.000000 
#    z 0.072830 0.000000 4.353030 
# 
# 
# High freq. dielectric constant tensor:
#      x y z
#    x 1.923430 0.000000 0.006280 
#    y 0.000000 1.903760 0.000000 
#    z 0.006280 0.000000 1.936770 
# 
# From -- ./inp_files/10268.got.cif
#   From: 2010.03.12/outbox.cif.g09.slc.cpg/sg4_6_cif.got.tgz:10268.got - 2010.03.31 09:31:35.
