data_PCOD8046846
_publ_section_title
;
Structure prediction by ZEFSAII (Michael W. Deem and Ramdas Pophale) SiO2 
 PCOD8046846
Probable space group: P 21
;
_chemical_formula_sum "Si O2"
_cell_formula_units_Z 14
_cell_length_a 9.709138
_cell_length_b 11.066875
_cell_length_c 9.279639
_cell_angle_alpha 90.000000
_cell_angle_beta 40.948227
_cell_angle_gamma 90.000000
_cell_volume 653.473262
_symmetry_space_group_name_H-M "P 21"
_symmetry_group_IT_number 4
_symmetry_cell_setting 'monoclinic'
loop_
_space_group_symop_operation_xyz
x,y,z
-x,1/2+y,-z
loop_
_atom_site_type_symbol
_atom_site_label
_atom_site_fract_x
_atom_site_fract_y
_atom_site_fract_z
Si Si1 0.315558 0.513900 0.876165
Si Si2 0.222850 0.047519 0.404698
Si Si3 0.746177 0.404237 0.117374
Si Si4 0.952922 0.576346 0.767516
Si Si5 0.692807 0.905901 0.416516
Si Si6 0.026747 0.853637 0.759681
Si Si7 0.002573 0.711197 0.200138
O O1 0.524545 0.567719 0.784555
O O2 0.387517 0.473507 0.661579
O O3 0.213936 0.403550 0.047748
O O4 0.121403 0.609172 0.012270
O O5 0.171664 0.046462 0.278553
O O6 0.084438 0.156435 0.582378
O O7 0.163651 0.922238 0.530349
O O8 0.502367 0.379848 0.326966
O O9 0.871170 0.372786 0.164231
O O10 0.801127 0.540816 0.023016
O O11 0.824192 0.318064 0.923169
O O12 0.023002 0.714223 0.721440
O O13 0.157919 0.492197 0.608709
O O14 0.801369 0.778054 0.285025
#
# Coordination Sequence:
#
# PCOD8046846 Si02
#       7
#     2   2   2   2   2   2   2
#     4  11  22  44  70 100 137 178 229 284 344 405
#     4  11  26  46  69 100 142 185 221 290 353 401
#     4  11  23  43  71 103 132 181 232 283 339 409
#     4  11  27  45  70 103 142 178 232 283 346 414
#     4  11  23  42  72 103 135 179 229 286 341 406
#     4  11  24  44  69 103 141 177 234 281 337 417
#     4  10  23  42  67  96 139 174 227 279 338 404
#
# _framework density 21.423984000000001
#
# number of rings (size 3 to 8) (size 9 to 14) (size 15 to 20)
#    0.000    1.143    4.286    1.714    6.000    3.429 
#    7.714    0.000    0.000    0.000    0.000    0.000 
#    0.000    0.000    0.000    0.000    0.000    0.000 
#
# Total GULP energy -173475.223572 kJ/mol
# GULP energy per Si atom -12391.087398 kJ/mol
# Density = 2.137522 g / cm^3
# Si number density = 21.423984 Si / 1000 Ang^3
#
#
#
# Elastic Constant Matrix: (Units=GPa)
#
#
# Indices 1 2 3 4 5 6 
#
# 1 129.8696 49.2424 57.7667 0.0000 -0.4231 0.0000
# 2 49.2424 126.8706 53.8355 0.0000 -1.3952 0.0000
# 3 57.7667 53.8355 135.6220 0.0000 -31.2221 0.0000
# 4 0.0000 0.0000 0.0000 36.5195 0.0000 3.0467
# 5 -0.4231 -1.3952 -31.2221 0.0000 37.5252 0.0000
# 6 0.0000 0.0000 0.0000 3.0467 0.0000 17.3448
#
#
#
# Elastic Compliance Matrix: (Units=1/GPa)
#
#
# Indices 1 2 3 4 5 6 
#
# 1 0.010506 -0.002240 -0.004425 0.000000 -0.003647 0.000000
# 2 -0.002240 0.010329 -0.003789 0.000000 -0.002794 0.000000
# 3 -0.004425 -0.003789 0.013258 0.000000 0.010840 0.000000
# 4 0.000000 0.000000 0.000000 0.027790 0.000000 -0.004881
# 5 -0.003647 -0.002794 0.010840 0.000000 0.035523 0.000000
# 6 0.000000 0.000000 0.000000 -0.004881 0.000000 0.058512
#
#
# Mechanical properties :
#
#
# Convention : Reuss Voigt Hill
#
# Bulk Modulus (GPa) = 75.85009 79.33904 77.59456
# Shear Modulus (GPa) = 27.59077 33.71240 30.65158
#
# Velocity S-wave (km/s) = 3.59255 3.97114 3.78658
# Velocity P-wave (km/s) = 7.25877 7.62495 7.44411
#
# Compressibility (1/GPa) = 0.01318390
#
# Stress axis : x y z
#
# Youngs Moduli (GPa) = 95.18516 96.81912 75.42645
#
# Poissons Ratio (x) = 0.21687 0.33378
# Poissons Ratio (y) = 0.21321 0.28579
# Poissons Ratio (z) = 0.42121 0.36685
#
# Static dielectric constant tensor:
#      x y z
#    x 3.546810 0.000000 -0.205740 
#    y 0.000000 4.224250 0.000000 
#    z -0.205740 0.000000 4.081740 
# 
# 
# High freq. dielectric constant tensor:
#      x y z
#    x 1.812490 0.000000 -0.015050 
#    y 0.000000 1.851780 0.000000 
#    z -0.015050 0.000000 1.851290 
# 
# From -- ./inp_files/6357.got.cif
#   From: 2010.03.12/outbox.cif.g09.slc.cpg/sg4_4_cif.got.tgz:6357.got - 2010.03.31 09:31:35.
