data_PCOD8046715
_publ_section_title
;
Structure prediction by ZEFSAII (Michael W. Deem and Ramdas Pophale) SiO2 
 PCOD8046715
Probable space group: P 21
;
_chemical_formula_sum "Si O2"
_cell_formula_units_Z 16
_cell_length_a 7.964440
_cell_length_b 4.758893
_cell_length_c 20.114875
_cell_angle_alpha 90.000000
_cell_angle_beta 130.260475
_cell_angle_gamma 90.000000
_cell_volume 581.792519
_symmetry_space_group_name_H-M "P 21"
_symmetry_group_IT_number 4
_symmetry_cell_setting 'monoclinic'
loop_
_space_group_symop_operation_xyz
x,y,z
-x,1/2+y,-z
loop_
_atom_site_type_symbol
_atom_site_label
_atom_site_fract_x
_atom_site_fract_y
_atom_site_fract_z
Si Si1 0.076701 0.677610 0.254640
Si Si2 0.118630 0.305322 0.057008
Si Si3 0.539013 0.989828 0.178409
Si Si4 0.415417 0.223531 0.944825
Si Si5 0.104328 0.854233 0.677979
Si Si6 0.113168 0.184692 0.502832
Si Si7 0.937595 0.183187 0.145696
Si Si8 0.527711 0.671070 0.308086
O O1 0.885695 0.495120 0.165757
O O2 0.306739 0.549286 0.285582
O O3 0.022123 0.609964 0.317495
O O4 0.068812 0.008693 0.237286
O O5 0.365489 0.210244 0.101060
O O6 0.108703 0.250379 0.132047
O O7 0.075469 0.632462 0.030616
O O8 0.565152 0.737334 0.131069
O O9 0.784389 0.126052 0.243845
O O10 0.465058 0.885760 0.232472
O O11 0.243618 0.461995 0.928291
O O12 0.377810 0.905333 0.966845
O O13 0.910282 0.725447 0.582441
O O14 0.312703 0.946335 0.686389
O O15 0.339795 0.298732 0.594365
O O16 0.917979 0.355713 0.490051
#
# Coordination Sequence:
#
# PCOD8046715 Si02
#       8
#     2   2   2   2   2   2   2   2
#     4  12  26  45  73 108 146 188 248 300 364 454
#     4  12  26  43  66 102 139 186 247 310 369 438
#     4  12  24  45  76  98 145 203 250 298 391 446
#     4  12  26  43  66 102 139 186 247 310 369 438
#     4  11  25  46  77 110 146 199 245 308 373 458
#     4  10  22  44  74 110 148 186 242 310 364 444
#     4  12  24  46  65 100 141 181 240 308 359 436
#     4  11  25  46  77 110 146 199 245 308 373 458
#
# _framework density 27.501213
#
# number of rings (size 3 to 8) (size 9 to 14) (size 15 to 20)
#    0.000    0.500    3.750    4.500    3.500    0.000 
#    0.000    6.250    0.000    0.000    0.000    0.000 
#    0.000    0.000    0.000    0.000    0.000    0.000 
#
# Total GULP energy -198232.112039 kJ/mol
# GULP energy per Si atom -12389.507002 kJ/mol
# Density = 2.743862 g / cm^3
# Si number density = 27.501213 Si / 1000 Ang^3
#
#
#
# Elastic Constant Matrix: (Units=GPa)
#
#
# Indices 1 2 3 4 5 6 
#
# 1 113.8769 8.4494 13.1788 0.0000 -6.0964 0.0000
# 2 8.4494 122.5575 13.4938 0.0000 -12.2143 0.0000
# 3 13.1788 13.4938 139.8409 0.0000 -10.7873 0.0000
# 4 0.0000 0.0000 0.0000 29.8698 0.0000 -3.5965
# 5 -6.0964 -12.2143 -10.7873 0.0000 23.8624 0.0000
# 6 0.0000 0.0000 0.0000 -3.5965 0.0000 35.0059
#
#
#
# Elastic Compliance Matrix: (Units=1/GPa)
#
#
# Indices 1 2 3 4 5 6 
#
# 1 0.008983 -0.000366 -0.000672 0.000000 0.001804 0.000000
# 2 -0.000366 0.008648 -0.000483 0.000000 0.004115 0.000000
# 3 -0.000672 -0.000483 0.007490 0.000000 0.002967 0.000000
# 4 0.000000 0.000000 0.000000 0.033898 0.000000 0.003483
# 5 0.001804 0.004115 0.002967 0.000000 0.045816 0.000000
# 6 0.000000 0.000000 0.000000 0.003483 0.000000 0.028924
#
#
# Mechanical properties :
#
#
# Convention : Reuss Voigt Hill
#
# Bulk Modulus (GPa) = 45.28964 49.61324 47.45144
# Shear Modulus (GPa) = 34.68391 40.49115 37.58753
#
# Velocity S-wave (km/s) = 3.55516 3.84127 3.70098
# Velocity P-wave (km/s) = 5.77548 6.14438 5.96278
#
# Compressibility (1/GPa) = 0.02208010
#
# Stress axis : x y z
#
# Youngs Moduli (GPa) = 111.32265 115.63540 133.51529
#
# Poissons Ratio (x) = 0.04227 0.08974
# Poissons Ratio (y) = 0.04069 0.06443
# Poissons Ratio (z) = 0.07482 0.05580
#
# Static dielectric constant tensor:
#      x y z
#    x 4.743100 0.000000 0.092060 
#    y 0.000000 4.928440 0.000000 
#    z 0.092060 0.000000 5.643330 
# 
# 
# High freq. dielectric constant tensor:
#      x y z
#    x 2.093570 0.000000 -0.001320 
#    y 0.000000 2.119540 0.000000 
#    z -0.001320 0.000000 2.126750 
# 
# From -- ./inp_files/13473.got.cif
#   From: 2010.03.12/outbox.cif.g09.slc.cpg/sg4_7_cif.got.tgz:13473.got - 2010.03.31 09:31:35.
