data_PCOD8046717
_publ_section_title
;
Structure prediction by ZEFSAII (Michael W. Deem and Ramdas Pophale) SiO2 
 PCOD8046717
Probable space group: P 21
;
_chemical_formula_sum "Si O2"
_cell_formula_units_Z 14
_cell_length_a 8.784891
_cell_length_b 11.337275
_cell_length_c 6.068077
_cell_angle_alpha 90.000000
_cell_angle_beta 81.313045
_cell_angle_gamma 90.000000
_cell_volume 597.427553
_symmetry_space_group_name_H-M "P 21"
_symmetry_group_IT_number 4
_symmetry_cell_setting 'monoclinic'
loop_
_space_group_symop_operation_xyz
x,y,z
-x,1/2+y,-z
loop_
_atom_site_type_symbol
_atom_site_label
_atom_site_fract_x
_atom_site_fract_y
_atom_site_fract_z
Si Si1 0.268487 0.125000 0.531947
Si Si2 0.699826 0.831879 0.815389
Si Si3 0.142332 0.894290 0.394599
Si Si4 0.198046 0.714666 0.753348
Si Si5 0.066991 0.272674 0.898935
Si Si6 0.398019 0.781315 0.083732
Si Si7 0.391826 0.565942 0.400982
O O1 0.297923 0.212967 0.325789
O O2 0.193451 0.189522 0.757794
O O3 0.430470 0.064056 0.560508
O O4 0.142369 0.028273 0.480844
O O5 0.665568 0.938570 0.659672
O O6 0.857605 0.846843 0.916945
O O7 0.573046 0.822673 0.036088
O O8 0.121204 0.802564 0.596333
O O9 0.307681 0.878623 0.243128
O O10 0.003542 0.868168 0.255427
O O11 0.271361 0.600348 0.620750
O O12 0.338787 0.779549 0.845317
O O13 0.067521 0.688525 0.967852
O O14 0.376596 0.654165 0.199669
#
# Coordination Sequence:
#
# PCOD8046717 Si02
#       7
#     2   2   2   2   2   2   2
#     4  12  26  48  79 112 148 193 255 309 363 443
#     4  12  26  46  76 118 144 191 255 309 364 446
#     4  10  25  49  76 105 149 199 244 306 369 446
#     4  10  22  51  73 105 147 197 243 303 373 440
#     4  11  26  51  73 113 151 194 247 300 384 441
#     4  10  22  44  77 108 142 193 245 301 379 429
#     4  11  25  45  80 109 145 193 253 312 360 443
#
# _framework density 23.433803000000001
#
# number of rings (size 3 to 8) (size 9 to 14) (size 15 to 20)
#    0.000    1.143    2.857    1.714    4.000    3.429 
#   33.429    0.000    0.000    0.000    0.000    0.000 
#    0.000    0.000    0.000    0.000    0.000    0.000 
#
# Total GULP energy -173610.921279 kJ/mol
# GULP energy per Si atom -12400.780091 kJ/mol
# Density = 2.338047 g / cm^3
# Si number density = 23.433803 Si / 1000 Ang^3
#
#
#
# Elastic Constant Matrix: (Units=GPa)
#
#
# Indices 1 2 3 4 5 6 
#
# 1 135.3468 40.1694 49.3255 0.0000 16.9559 0.0000
# 2 40.1694 100.6520 25.7785 0.0000 15.1522 0.0000
# 3 49.3255 25.7785 98.6665 0.0000 10.6054 0.0000
# 4 0.0000 0.0000 0.0000 29.9034 0.0000 7.5753
# 5 16.9559 15.1522 10.6054 0.0000 48.3800 0.0000
# 6 0.0000 0.0000 0.0000 7.5753 0.0000 27.4978
#
#
#
# Elastic Compliance Matrix: (Units=1/GPa)
#
#
# Indices 1 2 3 4 5 6 
#
# 1 0.009868 -0.002637 -0.004057 0.000000 -0.001743 0.000000
# 2 -0.002637 0.011733 -0.001487 0.000000 -0.002425 0.000000
# 3 -0.004057 -0.001487 0.012647 0.000000 -0.000885 0.000000
# 4 0.000000 0.000000 0.000000 0.035950 0.000000 -0.009904
# 5 -0.001743 -0.002425 -0.000885 0.000000 0.022234 0.000000
# 6 0.000000 0.000000 0.000000 -0.009904 0.000000 0.039095
#
#
# Mechanical properties :
#
#
# Convention : Reuss Voigt Hill
#
# Bulk Modulus (GPa) = 55.90566 62.80137 59.35351
# Shear Modulus (GPa) = 32.49918 35.78237 34.14078
#
# Velocity S-wave (km/s) = 3.72808 3.91187 3.82108
# Velocity P-wave (km/s) = 6.51461 6.87468 6.69707
#
# Compressibility (1/GPa) = 0.01788728
#
# Stress axis : x y z
#
# Youngs Moduli (GPa) = 101.33923 85.22734 79.07121
#
# Poissons Ratio (x) = 0.22472 0.32078
# Poissons Ratio (y) = 0.26720 0.11756
# Poissons Ratio (z) = 0.41112 0.12671
#
# Static dielectric constant tensor:
#      x y z
#    x 4.390970 0.000000 -0.032780 
#    y 0.000000 3.821120 0.000000 
#    z -0.032780 0.000000 4.364540 
# 
# 
# High freq. dielectric constant tensor:
#      x y z
#    x 1.945020 0.000000 -0.000770 
#    y 0.000000 1.900730 0.000000 
#    z -0.000770 0.000000 1.945660 
# 
# From -- ./inp_files/1181.got.cif
#   From: 2010.03.12/outbox.cif.g09.slc.cpg/sg4_1_cif.got.tgz:1181.got - 2010.03.31 09:31:35.
