data_PCOD8046065
_publ_section_title
;
Structure prediction by ZEFSAII (Michael W. Deem and Ramdas Pophale) SiO2 
 PCOD8046065
Probable space group: P 21
;
_chemical_formula_sum "Si O2"
_cell_formula_units_Z 16
_cell_length_a 9.512912
_cell_length_b 14.824589
_cell_length_c 6.873389
_cell_angle_alpha 90.000000
_cell_angle_beta 130.080516
_cell_angle_gamma 90.000000
_cell_volume 741.665704
_symmetry_space_group_name_H-M "P 21"
_symmetry_group_IT_number 4
_symmetry_cell_setting 'monoclinic'
loop_
_space_group_symop_operation_xyz
x,y,z
-x,1/2+y,-z
loop_
_atom_site_type_symbol
_atom_site_label
_atom_site_fract_x
_atom_site_fract_y
_atom_site_fract_z
Si Si1 0.906105 0.616520 0.053520
Si Si2 0.513733 0.126737 0.434670
Si Si3 0.606744 0.360771 0.147076
Si Si4 0.396699 0.273479 0.614235
Si Si5 0.500162 0.430582 0.447020
Si Si6 0.993773 0.226260 0.211320
Si Si7 0.183092 0.698324 0.565095
Si Si8 0.834458 0.420481 0.010181
O O1 0.688202 0.629563 0.841288
O O2 0.019703 0.656448 0.975269
O O3 0.959199 0.510542 0.119709
O O4 0.982998 0.674910 0.300863
O O5 0.529517 0.205127 0.611853
O O6 0.658293 0.137279 0.387795
O O7 0.564088 0.032715 0.579949
O O8 0.486050 0.411797 0.202202
O O9 0.755410 0.302530 0.402944
O O10 0.709907 0.429710 0.095041
O O11 0.481786 0.295440 0.900825
O O12 0.372712 0.362702 0.458137
O O13 0.200838 0.227810 0.478862
O O14 0.709251 0.420052 0.706602
O O15 0.846005 0.185709 0.229834
O O16 0.949370 0.328894 0.110446
#
# Coordination Sequence:
#
# PCOD8046065 Si02
#       8
#     2   2   2   2   2   2   2   2
#     4  10  23  42  63  94 129 166 209 268 316 372
#     4  10  23  42  66  92 128 168 210 267 314 376
#     4  10  21  40  67  91 126 175 209 257 321 379
#     4  10  22  40  63  96 132 163 216 261 310 383
#     4  10  20  41  64  89 125 171 209 259 323 369
#     4  10  23  40  64  97 127 169 214 262 317 377
#     4  11  23  39  66  92 124 167 212 258 318 374
#     4   9  21  40  63  91 129 161 215 264 311 380
#
# _framework density 21.573063000000001
#
# number of rings (size 3 to 8) (size 9 to 14) (size 15 to 20)
#    0.000    2.000    1.250    0.750    7.000    3.000 
#    4.500    0.000    0.000    0.000    0.000    0.000 
#    0.000    0.000    0.000    0.000    0.000    0.000 
#
# Total GULP energy -198305.305422 kJ/mol
# GULP energy per Si atom -12394.081589 kJ/mol
# Density = 2.152396 g / cm^3
# Si number density = 21.573063 Si / 1000 Ang^3
#
#
#
# Elastic Constant Matrix: (Units=GPa)
#
#
# Indices 1 2 3 4 5 6 
#
# 1 97.1555 48.1437 21.6042 0.0000 -21.8082 0.0000
# 2 48.1437 135.7847 49.1024 0.0000 -27.1769 0.0000
# 3 21.6042 49.1024 77.1379 0.0000 -19.1664 0.0000
# 4 0.0000 0.0000 0.0000 22.8826 0.0000 -0.6059
# 5 -21.8082 -27.1769 -19.1664 0.0000 23.4883 0.0000
# 6 0.0000 0.0000 0.0000 -0.6059 0.0000 36.1093
#
#
#
# Elastic Compliance Matrix: (Units=1/GPa)
#
#
# Indices 1 2 3 4 5 6 
#
# 1 0.013928 -0.003197 0.000537 0.000000 0.009671 0.000000
# 2 -0.003197 0.011539 -0.004854 0.000000 0.006421 0.000000
# 3 0.000537 -0.004854 0.018353 0.000000 0.009858 0.000000
# 4 0.000000 0.000000 0.000000 0.043721 0.000000 0.000734
# 5 0.009671 0.006421 0.009858 0.000000 0.067028 0.000000
# 6 0.000000 0.000000 0.000000 0.000734 0.000000 0.027706
#
#
# Mechanical properties :
#
#
# Convention : Reuss Voigt Hill
#
# Bulk Modulus (GPa) = 34.73195 60.86431 47.79813
# Shear Modulus (GPa) = 24.16630 29.24457 26.70544
#
# Velocity S-wave (km/s) = 3.35058 3.68585 3.52221
# Velocity P-wave (km/s) = 5.57702 6.81090 6.22461
#
# Compressibility (1/GPa) = 0.02879193
#
# Stress axis : x y z
#
# Youngs Moduli (GPa) = 71.79544 86.66499 54.48801
#
# Poissons Ratio (x) = 0.27707 -0.02927
# Poissons Ratio (y) = 0.22953 0.26449
# Poissons Ratio (z) = -0.03856 0.42068
#
# Static dielectric constant tensor:
#      x y z
#    x 3.789730 0.000000 -0.096900 
#    y 0.000000 3.984880 0.000000 
#    z -0.096900 0.000000 3.826600 
# 
# 
# High freq. dielectric constant tensor:
#      x y z
#    x 1.843990 0.000000 -0.007320 
#    y 0.000000 1.846130 0.000000 
#    z -0.007320 0.000000 1.839650 
# 
# From -- ./inp_files/1788.got.cif
#   From: 2010.03.12/outbox.cif.g09.slc.cpg/sg4_1_cif.got.tgz:1788.got - 2010.03.31 09:31:35.
