data_PCOD8046979
_publ_section_title
;
Structure prediction by ZEFSAII (Michael W. Deem and Ramdas Pophale) SiO2 
 PCOD8046979
Probable space group: P 21
;
_chemical_formula_sum "Si O2"
_cell_formula_units_Z 16
_cell_length_a 8.692699
_cell_length_b 9.331837
_cell_length_c 17.946867
_cell_angle_alpha 90.000000
_cell_angle_beta 28.631113
_cell_angle_gamma 90.000000
_cell_volume 697.587579
_symmetry_space_group_name_H-M "P 21"
_symmetry_group_IT_number 4
_symmetry_cell_setting 'monoclinic'
loop_
_space_group_symop_operation_xyz
x,y,z
-x,1/2+y,-z
loop_
_atom_site_type_symbol
_atom_site_label
_atom_site_fract_x
_atom_site_fract_y
_atom_site_fract_z
Si Si1 0.664846 0.743040 0.593978
Si Si2 0.796908 0.059212 0.106716
Si Si3 0.589868 0.430482 0.864933
Si Si4 0.655922 0.169421 0.925124
Si Si5 0.741561 0.991116 0.462764
Si Si6 0.806156 0.303023 0.004556
Si Si7 0.171925 0.041904 0.602354
Si Si8 0.926885 0.775306 0.632582
O O1 0.397255 0.642403 0.745971
O O2 0.861341 0.649835 0.451739
O O3 0.907699 0.806183 0.552544
O O4 0.536433 0.886602 0.605547
O O5 0.981501 0.181150 0.980271
O O6 0.578245 0.964996 0.142830
O O7 0.060332 0.959834 0.033949
O O8 0.453129 0.281533 0.959376
O O9 0.969973 0.396828 0.695015
O O10 0.568007 0.564987 0.931020
O O11 0.880124 0.065418 0.782419
O O12 0.867680 0.267855 0.891752
O O13 0.511133 0.059358 0.499109
O O14 0.928801 0.117500 0.424381
O O15 0.427367 0.289700 0.182111
O O16 0.163752 0.882015 0.573457
#
# Coordination Sequence:
#
# PCOD8046979 Si02
#       8
#     2   2   2   2   2   2   2   2
#     4  11  24  46  70 101 141 190 239 298 364 422
#     4  10  24  45  70 104 143 190 247 297 365 432
#     4  11  24  48  70 103 142 188 241 302 360 432
#     4  11  24  44  69 103 141 186 238 296 369 423
#     4  12  24  48  68 104 149 182 243 295 357 439
#     4  10  23  46  69 104 143 190 241 301 363 430
#     4  12  27  42  69 109 137 191 240 295 369 428
#     4  11  24  47  71 102 144 189 245 300 359 432
#
# _framework density 22.936188999999999
#
# number of rings (size 3 to 8) (size 9 to 14) (size 15 to 20)
#    0.000    1.000    5.000    2.250    1.750    6.000 
#    2.250    0.000    0.000    0.000    0.000    0.000 
#    0.000    0.000    0.000    0.000    0.000    0.000 
#
# Total GULP energy -198302.688817 kJ/mol
# GULP energy per Si atom -12393.918051 kJ/mol
# Density = 2.288399 g / cm^3
# Si number density = 22.936189 Si / 1000 Ang^3
#
#
#
# Elastic Constant Matrix: (Units=GPa)
#
#
# Indices 1 2 3 4 5 6 
#
# 1 92.9684 45.8042 43.3892 0.0000 17.4737 0.0000
# 2 45.8042 135.0923 39.6370 0.0000 4.4354 0.0000
# 3 43.3892 39.6370 67.7465 0.0000 14.9215 0.0000
# 4 0.0000 0.0000 0.0000 40.0793 0.0000 5.4730
# 5 17.4737 4.4354 14.9215 0.0000 31.5422 0.0000
# 6 0.0000 0.0000 0.0000 5.4730 0.0000 47.0033
#
#
#
# Elastic Compliance Matrix: (Units=1/GPa)
#
#
# Indices 1 2 3 4 5 6 
#
# 1 0.017019 -0.003308 -0.007804 0.000000 -0.005271 0.000000
# 2 -0.003308 0.009632 -0.004043 0.000000 0.002391 0.000000
# 3 -0.007804 -0.004043 0.023495 0.000000 -0.006223 0.000000
# 4 0.000000 0.000000 0.000000 0.025354 0.000000 -0.002952
# 5 -0.005271 0.002391 -0.006223 0.000000 0.037231 0.000000
# 6 0.000000 0.000000 0.000000 -0.002952 0.000000 0.021619
#
#
# Mechanical properties :
#
#
# Convention : Reuss Voigt Hill
#
# Bulk Modulus (GPa) = 50.41274 61.49644 55.95459
# Shear Modulus (GPa) = 29.19344 34.85676 32.02510
#
# Velocity S-wave (km/s) = 3.57152 3.90260 3.74072
# Velocity P-wave (km/s) = 6.24779 6.86857 6.56552
#
# Compressibility (1/GPa) = 0.01983626
#
# Stress axis : x y z
#
# Youngs Moduli (GPa) = 58.75870 103.82373 42.56170
#
# Poissons Ratio (x) = 0.34341 0.33214
# Poissons Ratio (y) = 0.19435 0.17210
# Poissons Ratio (z) = 0.45853 0.41981
#
# Static dielectric constant tensor:
#      x y z
#    x 4.282910 0.000000 0.384750 
#    y 0.000000 4.457020 0.000000 
#    z 0.384750 0.000000 3.878820 
# 
# 
# High freq. dielectric constant tensor:
#      x y z
#    x 1.908640 0.000000 0.028020 
#    y 0.000000 1.928030 0.000000 
#    z 0.028020 0.000000 1.880610 
# 
# From -- ./inp_files/14966.got.cif
#   From: 2010.03.12/outbox.cif.g09.slc.cpg/sg4_8_cif.got.tgz:14966.got - 2010.03.31 09:31:35.
