data_PCOD8046482
_publ_section_title
;
Structure prediction by ZEFSAII (Michael W. Deem and Ramdas Pophale) SiO2 
 PCOD8046482
Probable space group: P 21
;
_chemical_formula_sum "Si O2"
_cell_formula_units_Z 16
_cell_length_a 11.118503
_cell_length_b 8.219129
_cell_length_c 10.308432
_cell_angle_alpha 90.000000
_cell_angle_beta 49.030015
_cell_angle_gamma 90.000000
_cell_volume 711.282714
_symmetry_space_group_name_H-M "P 21"
_symmetry_group_IT_number 4
_symmetry_cell_setting 'monoclinic'
loop_
_space_group_symop_operation_xyz
x,y,z
-x,1/2+y,-z
loop_
_atom_site_type_symbol
_atom_site_label
_atom_site_fract_x
_atom_site_fract_y
_atom_site_fract_z
Si Si1 0.930823 0.702530 0.876332
Si Si2 0.669984 0.401924 0.757951
Si Si3 0.209954 0.439181 0.352223
Si Si4 0.766324 0.038356 0.385389
Si Si5 0.959615 0.231502 0.658520
Si Si6 0.776184 0.388187 0.388726
Si Si7 0.164809 0.214171 0.763035
Si Si8 0.388129 0.217021 0.055150
O O1 0.758488 0.688096 0.937081
O O2 0.038646 0.544035 0.765138
O O3 0.030948 0.859441 0.752271
O O4 0.913081 0.717920 0.042512
O O5 0.820568 0.365074 0.743365
O O6 0.720500 0.423469 0.573536
O O7 0.585989 0.565447 0.867466
O O8 0.546597 0.250840 0.859168
O O9 0.279497 0.525231 0.431382
O O10 0.099942 0.559185 0.349197
O O11 0.358157 0.377772 0.162930
O O12 0.107513 0.280117 0.462299
O O13 0.697966 0.216636 0.387632
O O14 0.719003 0.874793 0.338726
O O15 0.020866 0.216167 0.761783
O O16 0.733155 0.546591 0.331827
#
# Coordination Sequence:
#
# PCOD8046482 Si02
#       8
#     2   2   2   2   2   2   2   2
#     4  10  22  40  61  92 125 161 204 250 300 370
#     4  12  24  40  59  91 123 160 205 258 321 355
#     4  11  19  36  59  91 120 154 202 254 316 353
#     4   9  20  34  61  91 121 153 197 258 299 356
#     4  11  20  33  62  93 119 152 199 253 307 367
#     4  10  22  38  64  93 124 157 202 261 305 365
#     4  11  20  36  65  94 122 162 202 245 306 365
#     4  12  25  39  63  85 126 163 201 263 304 377
#
# _framework density 22.494568999999998
#
# number of rings (size 3 to 8) (size 9 to 14) (size 15 to 20)
#    0.750    0.500    1.250    8.250    0.000    0.000 
#    0.000    0.000    2.750    3.000    0.000    0.000 
#    0.000    0.000    0.000    0.000    0.000    0.000 
#
# Total GULP energy -198240.900379 kJ/mol
# GULP energy per Si atom -12390.056274 kJ/mol
# Density = 2.244337 g / cm^3
# Si number density = 22.494569 Si / 1000 Ang^3
#
#
#
# Elastic Constant Matrix: (Units=GPa)
#
#
# Indices 1 2 3 4 5 6 
#
# 1 21.5656 -1.6717 27.5493 0.0000 16.4326 0.0000
# 2 -1.6717 142.6635 27.7495 0.0000 12.2090 0.0000
# 3 27.5493 27.7495 122.2162 0.0000 28.6756 0.0000
# 4 0.0000 0.0000 0.0000 33.1126 0.0000 -0.7174
# 5 16.4326 12.2090 28.6756 0.0000 27.2423 0.0000
# 6 0.0000 0.0000 0.0000 -0.7174 0.0000 13.9825
#
#
#
# Elastic Compliance Matrix: (Units=1/GPa)
#
#
# Indices 1 2 3 4 5 6 
#
# 1 0.103491 0.008213 -0.012858 0.000000 -0.052572 0.000000
# 2 0.008213 0.008071 -0.002221 0.000000 -0.006233 0.000000
# 3 -0.012858 -0.002221 0.012658 0.000000 -0.004572 0.000000
# 4 0.000000 0.000000 0.000000 0.030234 0.000000 0.001551
# 5 -0.052572 -0.006233 -0.004572 0.000000 0.076025 0.000000
# 6 0.000000 0.000000 0.000000 0.001551 0.000000 0.071598
#
#
# Mechanical properties :
#
#
# Convention : Reuss Voigt Hill
#
# Bulk Modulus (GPa) = 9.05087 43.74439 26.39763
# Shear Modulus (GPa) = 14.17880 30.38871 22.28376
#
# Velocity S-wave (km/s) = 2.51334 3.67949 3.15084
# Velocity P-wave (km/s) = 3.52914 6.12703 4.99976
#
# Compressibility (1/GPa) = 0.11048666
#
# Stress axis : x y z
#
# Youngs Moduli (GPa) = 9.66263 123.89685 79.00270
#
# Poissons Ratio (x) = -1.01754 1.01584
# Poissons Ratio (y) = -0.07936 0.17550
# Poissons Ratio (z) = 0.12424 0.27523
#
# Static dielectric constant tensor:
#      x y z
#    x 3.408160 0.000000 0.141070 
#    y 0.000000 4.544220 0.000000 
#    z 0.141070 0.000000 4.002320 
# 
# 
# High freq. dielectric constant tensor:
#      x y z
#    x 1.828780 0.000000 0.020840 
#    y 0.000000 1.918130 0.000000 
#    z 0.020840 0.000000 1.886750 
# 
# From -- ./inp_files/11982.got.cif
#   From: 2010.03.12/outbox.cif.g09.slc.cpg/sg4_6_cif.got.tgz:11982.got - 2010.03.31 09:31:35.
