data_PCOD8046591
_publ_section_title
;
Structure prediction by ZEFSAII (Michael W. Deem and Ramdas Pophale) SiO2 
 PCOD8046591
Probable space group: P 21
;
_chemical_formula_sum "Si O2"
_cell_formula_units_Z 12
_cell_length_a 14.550979
_cell_length_b 4.959906
_cell_length_c 20.565414
_cell_angle_alpha 90.000000
_cell_angle_beta 161.623728
_cell_angle_gamma 90.000000
_cell_volume 467.914546
_symmetry_space_group_name_H-M "P 21"
_symmetry_group_IT_number 4
_symmetry_cell_setting 'monoclinic'
loop_
_space_group_symop_operation_xyz
x,y,z
-x,1/2+y,-z
loop_
_atom_site_type_symbol
_atom_site_label
_atom_site_fract_x
_atom_site_fract_y
_atom_site_fract_z
Si Si1 0.365122 0.398610 0.376799
Si Si2 0.153580 0.403073 0.575026
Si Si3 0.254573 0.167878 0.027997
Si Si4 0.118342 0.984578 0.735635
Si Si5 0.193809 0.383265 0.124659
Si Si6 0.252297 0.484460 0.901098
O O1 0.589160 0.615625 0.556277
O O2 0.426071 0.361446 0.340215
O O3 0.031800 0.486823 0.160499
O O4 0.478513 0.479516 0.816699
O O5 0.914791 0.604530 0.445765
O O6 0.143009 0.414343 0.489316
O O7 0.338854 0.303185 0.153568
O O8 0.201103 0.410002 0.941576
O O9 0.074607 0.280422 0.735106
O O10 0.125669 0.780890 0.801870
O O11 0.408981 0.955524 0.888116
O O12 0.079735 0.688781 0.043131
#
# Coordination Sequence:
#
# PCOD8046591 Si02
#       6
#     2   2   2   2   2   2
#     4  11  25  48  76 107 145 183 242 309 364 424
#     4  12  26  44  72 107 147 191 243 289 353 433
#     4  11  26  47  77 105 145 196 240 292 367 431
#     4  10  22  42  64  99 145 186 232 291 333 409
#     4  10  23  46  74 107 142 184 239 303 361 427
#     4  10  22  41  69  97 138 190 234 282 350 410
#
# _framework density 25.645709
#
# number of rings (size 3 to 8) (size 9 to 14) (size 15 to 20)
#    0.000    1.333    1.667    3.000    4.667    9.333 
#    0.000    8.333    0.000    0.000    0.000    0.000 
#    0.000    0.000    0.000    0.000    0.000    0.000 
#
# Total GULP energy -148874.297553 kJ/mol
# GULP energy per Si atom -12406.191463 kJ/mol
# Density = 2.558734 g / cm^3
# Si number density = 25.645709 Si / 1000 Ang^3
#
#
#
# Elastic Constant Matrix: (Units=GPa)
#
#
# Indices 1 2 3 4 5 6 
#
# 1 116.7991 -2.6173 24.3406 0.0000 -27.0258 0.0000
# 2 -2.6173 66.5000 0.2659 0.0000 -3.7998 0.0000
# 3 24.3406 0.2659 81.8244 0.0000 -19.6618 0.0000
# 4 0.0000 0.0000 0.0000 35.2570 0.0000 -14.9352
# 5 -27.0258 -3.7998 -19.6618 0.0000 48.6771 0.0000
# 6 0.0000 0.0000 0.0000 -14.9352 0.0000 30.8313
#
#
#
# Elastic Compliance Matrix: (Units=1/GPa)
#
#
# Indices 1 2 3 4 5 6 
#
# 1 0.010096 0.000686 -0.001823 0.000000 0.004923 0.000000
# 2 0.000686 0.015157 0.000136 0.000000 0.001619 0.000000
# 3 -0.001823 0.000136 0.013869 0.000000 0.004600 0.000000
# 4 0.000000 0.000000 0.000000 0.035686 0.000000 0.017287
# 5 0.004923 0.001619 0.004600 0.000000 0.025261 0.000000
# 6 0.000000 0.000000 0.000000 0.017287 0.000000 0.040809
#
#
# Mechanical properties :
#
#
# Convention : Reuss Voigt Hill
#
# Bulk Modulus (GPa) = 26.94037 34.34463 30.64250
# Shear Modulus (GPa) = 32.20568 39.16202 35.68385
#
# Velocity S-wave (km/s) = 3.54756 3.91198 3.73422
# Velocity P-wave (km/s) = 5.22569 5.81599 5.52873
#
# Compressibility (1/GPa) = 0.03711901
#
# Stress axis : x y z
#
# Youngs Moduli (GPa) = 99.04954 65.97805 72.10582
#
# Poissons Ratio (x) = -0.04526 0.13142
# Poissons Ratio (y) = -0.06794 -0.00978
# Poissons Ratio (z) = 0.18053 -0.00895
#
# Static dielectric constant tensor:
#      x y z
#    x 4.707010 0.000000 -0.395490 
#    y 0.000000 4.568050 0.000000 
#    z -0.395490 0.000000 4.403300 
# 
# 
# High freq. dielectric constant tensor:
#      x y z
#    x 2.027140 0.000000 -0.025440 
#    y 0.000000 2.030980 0.000000 
#    z -0.025440 0.000000 2.015390 
# 
# From -- ./inp_files/7264.got.cif
#   From: 2010.03.12/outbox.cif.g09.slc.cpg/sg4_4_cif.got.tgz:7264.got - 2010.03.31 09:31:35.
