data_PCOD8046473
_publ_section_title
;
Structure prediction by ZEFSAII (Michael W. Deem and Ramdas Pophale) SiO2 
 PCOD8046473
Probable space group: P 21
;
_chemical_formula_sum "Si O2"
_cell_formula_units_Z 14
_cell_length_a 16.760397
_cell_length_b 7.600272
_cell_length_c 15.570533
_cell_angle_alpha 90.000000
_cell_angle_beta 161.657933
_cell_angle_gamma 90.000000
_cell_volume 624.164544
_symmetry_space_group_name_H-M "P 21"
_symmetry_group_IT_number 4
_symmetry_cell_setting 'monoclinic'
loop_
_space_group_symop_operation_xyz
x,y,z
-x,1/2+y,-z
loop_
_atom_site_type_symbol
_atom_site_label
_atom_site_fract_x
_atom_site_fract_y
_atom_site_fract_z
Si Si1 0.775507 0.293200 0.738154
Si Si2 0.965059 0.305856 0.263029
Si Si3 0.039223 0.384844 0.727400
Si Si4 0.957850 0.601900 0.123868
Si Si5 0.718554 0.661705 0.709541
Si Si6 0.482086 0.315082 0.876614
Si Si7 0.479744 0.907152 0.888274
O O1 0.787421 0.159567 0.669467
O O2 0.735450 0.492966 0.663883
O O3 0.553333 0.251255 0.579179
O O4 0.044100 0.292231 0.065870
O O5 0.984571 0.408691 0.192530
O O6 0.207712 0.378285 0.563804
O O7 0.960395 0.093394 0.246546
O O8 0.713519 0.379501 0.053213
O O9 0.096252 0.262620 0.866640
O O10 0.771081 0.324839 0.411876
O O11 0.259509 0.332840 0.884531
O O12 0.731522 0.596121 0.822778
O O13 0.477176 0.109271 0.866267
O O14 0.532051 0.381901 0.022626
#
# Coordination Sequence:
#
# PCOD8046473 Si02
#       7
#     2   2   2   2   2   2   2
#     4  10  23  43  66  99 131 166 219 261 331 400
#     4  10  23  40  59  92 127 163 213 265 313 375
#     4  10  23  40  59  92 127 163 213 265 313 375
#     4  10  26  40  72  92 130 170 212 258 338 370
#     4  10  23  43  66  99 131 166 219 261 331 400
#     4  10  22  38  60  89 124 166 214 261 317 369
#     4  10  22  38  60  89 124 166 214 261 317 369
#
# _framework density 22.429984999999999
#
# number of rings (size 3 to 8) (size 9 to 14) (size 15 to 20)
#    0.857    1.143    0.000    1.714    8.000    1.143 
#    0.000    0.000    0.000    0.000    0.000    0.000 
#    0.000    0.000    0.000    0.000    0.000    0.000 
#
# Total GULP energy -173438.072339 kJ/mol
# GULP energy per Si atom -12388.433739 kJ/mol
# Density = 2.237893 g / cm^3
# Si number density = 22.429985 Si / 1000 Ang^3
#
#
#
# Elastic Constant Matrix: (Units=GPa)
#
#
# Indices 1 2 3 4 5 6 
#
# 1 34.6498 -0.4608 32.6281 0.0000 -4.5092 0.0000
# 2 -0.4608 46.8671 7.2834 0.0000 7.7485 0.0000
# 3 32.6281 7.2834 133.6997 0.0000 36.1496 0.0000
# 4 0.0000 0.0000 0.0000 19.1136 0.0000 -2.6545
# 5 -4.5092 7.7485 36.1496 0.0000 40.2965 0.0000
# 6 0.0000 0.0000 0.0000 -2.6545 0.0000 39.2686
#
#
#
# Elastic Compliance Matrix: (Units=1/GPa)
#
#
# Indices 1 2 3 4 5 6 
#
# 1 0.047932 -0.000302 -0.017357 0.000000 0.020992 0.000000
# 2 -0.000302 0.022040 0.000037 0.000000 -0.004305 0.000000
# 3 -0.017357 0.000037 0.016160 0.000000 -0.016446 0.000000
# 4 0.000000 0.000000 0.000000 0.052815 0.000000 0.003570
# 5 0.020992 -0.004305 -0.016446 0.000000 0.042747 0.000000
# 6 0.000000 0.000000 0.000000 0.003570 0.000000 0.025707
#
#
# Mechanical properties :
#
#
# Convention : Reuss Voigt Hill
#
# Bulk Modulus (GPa) = 19.65084 32.67977 26.16530
# Shear Modulus (GPa) = 19.25990 31.45345 25.35667
#
# Velocity S-wave (km/s) = 2.93348 3.74879 3.36591
# Velocity P-wave (km/s) = 4.50042 5.77401 5.17653
#
# Compressibility (1/GPa) = 0.05088841
#
# Stress axis : x y z
#
# Youngs Moduli (GPa) = 20.86283 45.37216 61.88151
#
# Poissons Ratio (x) = 0.01371 1.07406
# Poissons Ratio (y) = 0.00630 -0.00230
# Poissons Ratio (z) = 0.36211 -0.00168
#
# Static dielectric constant tensor:
#      x y z
#    x 3.744080 0.000000 0.330210 
#    y 0.000000 3.966650 0.000000 
#    z 0.330210 0.000000 4.553990 
# 
# 
# High freq. dielectric constant tensor:
#      x y z
#    x 1.867170 0.000000 0.016150 
#    y 0.000000 1.885770 0.000000 
#    z 0.016150 0.000000 1.889550 
# 
# From -- ./inp_files/3690.got.cif
#   From: 2010.03.12/outbox.cif.g09.slc.cpg/sg4_2_cif.got.tgz:3690.got - 2010.03.31 09:31:35.
