data_PCOD8046754
_publ_section_title
;
Structure prediction by ZEFSAII (Michael W. Deem and Ramdas Pophale) SiO2 
 PCOD8046754
Probable space group: P 21
;
_chemical_formula_sum "Si O2"
_cell_formula_units_Z 14
_cell_length_a 5.824927
_cell_length_b 8.740068
_cell_length_c 11.013150
_cell_angle_alpha 90.000000
_cell_angle_beta 84.759532
_cell_angle_gamma 90.000000
_cell_volume 558.338733
_symmetry_space_group_name_H-M "P 21"
_symmetry_group_IT_number 4
_symmetry_cell_setting 'monoclinic'
loop_
_space_group_symop_operation_xyz
x,y,z
-x,1/2+y,-z
loop_
_atom_site_type_symbol
_atom_site_label
_atom_site_fract_x
_atom_site_fract_y
_atom_site_fract_z
Si Si1 0.998843 0.164060 0.743691
Si Si2 0.288860 0.951598 0.882947
Si Si3 0.026990 0.703847 0.781746
Si Si4 0.372985 0.697763 0.557258
Si Si5 0.721791 0.431986 0.843125
Si Si6 0.312349 0.409619 0.305522
Si Si7 0.578611 0.870662 0.357149
O O1 0.187827 0.271452 0.667528
O O2 0.797674 0.259190 0.818176
O O3 0.095793 0.073998 0.856145
O O4 0.884180 0.039637 0.653830
O O5 0.198769 0.775521 0.873483
O O6 0.483683 0.993454 0.775837
O O7 0.368689 0.970063 0.017899
O O8 0.144133 0.732777 0.643870
O O9 0.956955 0.528711 0.806236
O O10 0.789645 0.796088 0.791786
O O11 0.597359 0.796281 0.592605
O O12 0.370989 0.759635 0.417633
O O13 0.400415 0.514347 0.550310
O O14 0.504116 0.456342 0.762858
#
# Coordination Sequence:
#
# PCOD8046754 Si02
#       7
#     2   2   2   2   2   2   2
#     4  11  25  46  70 112 144 187 247 298 367 442
#     4  10  24  43  75 104 148 189 238 302 362 440
#     4  10  22  46  71 102 140 189 238 297 367 428
#     4  11  26  49  70 103 147 190 248 316 353 433
#     4  12  24  45  71 110 143 190 244 298 370 433
#     4  10  23  47  72 101 142 195 236 296 373 421
#     4  12  28  46  73 106 148 190 251 305 362 437
#
# _framework density 25.074384999999999
#
# number of rings (size 3 to 8) (size 9 to 14) (size 15 to 20)
#    0.000    1.143    2.857    1.714    8.000    5.714 
#    0.000    0.000    0.000    0.000    0.000    0.000 
#    0.000    0.000    0.000    0.000    0.000    0.000 
#
# Total GULP energy -173451.313499 kJ/mol
# GULP energy per Si atom -12389.379536 kJ/mol
# Density = 2.501731 g / cm^3
# Si number density = 25.074385 Si / 1000 Ang^3
#
#
#
# Elastic Constant Matrix: (Units=GPa)
#
#
# Indices 1 2 3 4 5 6 
#
# 1 56.1821 30.1324 -7.2668 0.0000 -3.2757 0.0000
# 2 30.1324 142.1362 25.6342 0.0000 1.1269 0.0000
# 3 -7.2668 25.6342 54.9856 0.0000 -10.0344 0.0000
# 4 0.0000 0.0000 0.0000 36.4566 0.0000 -6.7643
# 5 -3.2757 1.1269 -10.0344 0.0000 22.5505 0.0000
# 6 0.0000 0.0000 0.0000 -6.7643 0.0000 54.8703
#
#
#
# Elastic Compliance Matrix: (Units=1/GPa)
#
#
# Indices 1 2 3 4 5 6 
#
# 1 0.022334 -0.006047 0.006985 0.000000 0.006655 0.000000
# 2 -0.006047 0.009416 -0.005915 0.000000 -0.003981 0.000000
# 3 0.006985 -0.005915 0.024061 0.000000 0.012017 0.000000
# 4 0.000000 0.000000 0.000000 0.028072 0.000000 0.003461
# 5 0.006655 -0.003981 0.012017 0.000000 0.050858 0.000000
# 6 0.000000 0.000000 0.000000 0.003461 0.000000 0.018651
#
#
# Mechanical properties :
#
#
# Convention : Reuss Voigt Hill
#
# Bulk Modulus (GPa) = 21.80749 38.92261 30.36505
# Shear Modulus (GPa) = 27.99052 36.42909 32.20980
#
# Velocity S-wave (km/s) = 3.34473 3.81575 3.58798
# Velocity P-wave (km/s) = 4.86131 5.91353 5.41305
#
# Compressibility (1/GPa) = 0.04585581
#
# Stress axis : x y z
#
# Youngs Moduli (GPa) = 44.77438 106.20288 41.56189
#
# Poissons Ratio (x) = 0.64225 -0.29033
# Poissons Ratio (y) = 0.27077 0.24586
# Poissons Ratio (z) = -0.31277 0.62824
#
# Static dielectric constant tensor:
#      x y z
#    x 4.371760 0.000000 0.160790 
#    y 0.000000 4.727920 0.000000 
#    z 0.160790 0.000000 4.107340 
# 
# 
# High freq. dielectric constant tensor:
#      x y z
#    x 1.994680 0.000000 0.006150 
#    y 0.000000 2.025680 0.000000 
#    z 0.006150 0.000000 1.976110 
# 
# From -- ./inp_files/2421.got.cif
#   From: 2010.03.12/outbox.cif.g09.slc.cpg/sg4_2_cif.got.tgz:2421.got - 2010.03.31 09:31:35.
