data_PCOD8046094
_publ_section_title
;
Structure prediction by ZEFSAII (Michael W. Deem and Ramdas Pophale) SiO2 
 PCOD8046094
Probable space group: P 21
;
_chemical_formula_sum "Si O2"
_cell_formula_units_Z 16
_cell_length_a 14.408120
_cell_length_b 8.739459
_cell_length_c 12.073638
_cell_angle_alpha 90.000000
_cell_angle_beta 151.145830
_cell_angle_gamma 90.000000
_cell_volume 733.670569
_symmetry_space_group_name_H-M "P 21"
_symmetry_group_IT_number 4
_symmetry_cell_setting 'monoclinic'
loop_
_space_group_symop_operation_xyz
x,y,z
-x,1/2+y,-z
loop_
_atom_site_type_symbol
_atom_site_label
_atom_site_fract_x
_atom_site_fract_y
_atom_site_fract_z
Si Si1 0.676851 0.492410 0.965926
Si Si2 0.596495 0.413227 0.354405
Si Si3 0.733438 0.641453 0.796271
Si Si4 0.577130 0.955314 0.614802
Si Si5 0.173807 0.650532 0.283616
Si Si6 0.414559 0.236756 0.741090
Si Si7 0.119394 0.481538 0.445810
Si Si8 0.578663 0.182646 0.147438
O O1 0.894260 0.456707 0.228039
O O2 0.671823 0.616399 0.860940
O O3 0.554389 0.339209 0.806713
O O4 0.572132 0.559105 0.963991
O O5 0.407052 0.441315 0.234171
O O6 0.748807 0.309218 0.583005
O O7 0.668305 0.585113 0.404160
O O8 0.546848 0.337774 0.184623
O O9 0.649931 0.491373 0.646685
O O10 0.637986 0.788158 0.636679
O O11 0.958241 0.667922 0.014059
O O12 0.698953 0.092406 0.686882
O O13 0.174572 0.519187 0.376712
O O14 0.223748 0.323218 0.582925
O O15 0.547325 0.204370 0.985911
O O16 0.203071 0.618646 0.609632
#
# Coordination Sequence:
#
# PCOD8046094 Si02
#       8
#     2   2   2   2   2   2   2   2
#     4  10  21  44  63  89 130 166 212 263 318 374
#     4  11  23  42  65  96 131 170 211 265 319 380
#     4  11  25  43  66  91 125 176 211 267 316 381
#     4  12  23  42  65  92 130 166 215 258 317 387
#     4  10  24  44  62  92 131 169 215 263 317 383
#     4  11  23  39  66  96 127 166 214 266 324 378
#     4   9  21  41  64  87 126 168 209 264 315 374
#     4  10  20  43  67  91 126 167 215 266 320 373
#
# _framework density 21.808153999999998
#
# number of rings (size 3 to 8) (size 9 to 14) (size 15 to 20)
#    0.000    1.500    2.500    3.000    5.250    1.000 
#    4.500    1.250    0.000    0.000    0.000    0.000 
#    0.000    0.000    0.000    0.000    0.000    0.000 
#
# Total GULP energy -198265.290289 kJ/mol
# GULP energy per Si atom -12391.580643 kJ/mol
# Density = 2.175852 g / cm^3
# Si number density = 21.808154 Si / 1000 Ang^3
#
#
#
# Elastic Constant Matrix: (Units=GPa)
#
#
# Indices 1 2 3 4 5 6 
#
# 1 59.0622 25.7388 28.5233 0.0000 10.7268 0.0000
# 2 25.7388 129.1576 65.4465 0.0000 9.9801 0.0000
# 3 28.5233 65.4465 118.4527 0.0000 19.0401 0.0000
# 4 0.0000 0.0000 0.0000 29.8959 0.0000 -9.1413
# 5 10.7268 9.9801 19.0401 0.0000 27.4550 0.0000
# 6 0.0000 0.0000 0.0000 -9.1413 0.0000 24.1393
#
#
#
# Elastic Compliance Matrix: (Units=1/GPa)
#
#
# Indices 1 2 3 4 5 6 
#
# 1 0.020183 -0.002196 -0.002822 0.000000 -0.005130 0.000000
# 2 -0.002196 0.010993 -0.005673 0.000000 0.000796 0.000000
# 3 -0.002822 -0.005673 0.013221 0.000000 -0.006004 0.000000
# 4 0.000000 0.000000 0.000000 0.037830 0.000000 0.014326
# 5 -0.005130 0.000796 -0.006004 0.000000 0.042302 0.000000
# 6 0.000000 0.000000 0.000000 0.014326 0.000000 0.046851
#
#
# Mechanical properties :
#
#
# Convention : Reuss Voigt Hill
#
# Bulk Modulus (GPa) = 43.44913 60.67661 52.06287
# Shear Modulus (GPa) = 24.94580 28.76229 26.85404
#
# Velocity S-wave (km/s) = 3.38579 3.63558 3.51290
# Velocity P-wave (km/s) = 5.93729 6.74585 6.35444
#
# Compressibility (1/GPa) = 0.02301542
#
# Stress axis : x y z
#
# Youngs Moduli (GPa) = 49.54701 90.96553 75.63516
#
# Poissons Ratio (x) = 0.19972 0.21347
# Poissons Ratio (y) = 0.10878 0.42909
# Poissons Ratio (z) = 0.13984 0.51606
#
# Static dielectric constant tensor:
#      x y z
#    x 3.810640 0.000000 0.035350 
#    y 0.000000 4.089170 0.000000 
#    z 0.035350 0.000000 3.920490 
# 
# 
# High freq. dielectric constant tensor:
#      x y z
#    x 1.845640 0.000000 -0.002460 
#    y 0.000000 1.867550 0.000000 
#    z -0.002460 0.000000 1.844410 
# 
# From -- ./inp_files/12564.got.cif
#   From: 2010.03.12/outbox.cif.g09.slc.cpg/sg4_7_cif.got.tgz:12564.got - 2010.03.31 09:31:35.
