data_PCOD8046463
_publ_section_title
;
Structure prediction by ZEFSAII (Michael W. Deem and Ramdas Pophale) SiO2 
 PCOD8046463
Probable space group: P 21
;
_chemical_formula_sum "Si O2"
_cell_formula_units_Z 14
_cell_length_a 6.956716
_cell_length_b 8.404794
_cell_length_c 18.304420
_cell_angle_alpha 90.000000
_cell_angle_beta 138.874963
_cell_angle_gamma 90.000000
_cell_volume 703.911590
_symmetry_space_group_name_H-M "P 21"
_symmetry_group_IT_number 4
_symmetry_cell_setting 'monoclinic'
loop_
_space_group_symop_operation_xyz
x,y,z
-x,1/2+y,-z
loop_
_atom_site_type_symbol
_atom_site_label
_atom_site_fract_x
_atom_site_fract_y
_atom_site_fract_z
Si Si1 0.792944 0.546410 0.090834
Si Si2 0.780947 0.245891 0.520494
Si Si3 0.190360 0.755295 0.303279
Si Si4 0.205053 0.124515 0.293496
Si Si5 0.585538 0.256156 0.122095
Si Si6 0.674227 0.848670 0.802051
Si Si7 0.271727 0.045051 0.587838
O O1 0.615294 0.420664 0.087836
O O2 0.927615 0.676140 0.183863
O O3 0.044302 0.462547 0.115239
O O4 0.566156 0.625731 0.971599
O O5 0.887556 0.238970 0.633967
O O6 0.448141 0.185066 0.420068
O O7 0.805692 0.427577 0.500865
O O8 0.978176 0.132245 0.527379
O O9 0.496964 0.673202 0.373908
O O10 0.213245 0.936882 0.286167
O O11 0.261662 0.196866 0.229949
O O12 0.897815 0.187525 0.236987
O O13 0.385078 0.286040 0.134512
O O14 0.396867 0.945077 0.691786
#
# Coordination Sequence:
#
# PCOD8046463 Si02
#       7
#     2   2   2   2   2   2   2
#     4  10  23  39  61  90 115 152 201 236 287 357
#     4  11  22  38  60  87 121 158 194 242 292 341
#     4  11  22  39  59  86 121 155 195 243 290 342
#     4  10  23  38  60  91 116 152 202 235 286 357
#     4  11  22  42  63  85 120 153 189 245 294 339
#     4   9  22  41  60  86 119 154 193 243 291 342
#     4  10  22  37  57  87 120 156 200 238 286 352
#
# _framework density 19.888860000000001
#
# number of rings (size 3 to 8) (size 9 to 14) (size 15 to 20)
#    0.000    1.714    0.000    4.286    0.000   10.286 
#    0.000    2.857    0.000    0.000    0.000    0.000 
#    0.000    0.000    0.000    0.000    0.000    0.000 
#
# Total GULP energy -173689.652343 kJ/mol
# GULP energy per Si atom -12406.403739 kJ/mol
# Density = 1.984359 g / cm^3
# Si number density = 19.888860 Si / 1000 Ang^3
#
#
#
# Elastic Constant Matrix: (Units=GPa)
#
#
# Indices 1 2 3 4 5 6 
#
# 1 93.3261 42.0771 32.7116 0.0000 -2.1666 0.0000
# 2 42.0771 138.9659 24.0064 0.0000 -0.0845 0.0000
# 3 32.7116 24.0064 56.2794 0.0000 6.8494 0.0000
# 4 0.0000 0.0000 0.0000 37.0775 0.0000 5.9483
# 5 -2.1666 -0.0845 6.8494 0.0000 24.2323 0.0000
# 6 0.0000 0.0000 0.0000 5.9483 0.0000 23.4147
#
#
#
# Elastic Compliance Matrix: (Units=1/GPa)
#
#
# Indices 1 2 3 4 5 6 
#
# 1 0.014953 -0.003185 -0.007761 0.000000 0.003520 0.000000
# 2 -0.003185 0.008470 -0.001793 0.000000 0.000251 0.000000
# 3 -0.007761 -0.001793 0.023953 0.000000 -0.007471 0.000000
# 4 0.000000 0.000000 0.000000 0.028116 0.000000 -0.007143
# 5 0.003520 0.000251 -0.007471 0.000000 0.043695 0.000000
# 6 0.000000 0.000000 0.000000 -0.007143 0.000000 0.044523
#
#
# Mechanical properties :
#
#
# Convention : Reuss Voigt Hill
#
# Bulk Modulus (GPa) = 45.66253 54.01796 49.84024
# Shear Modulus (GPa) = 25.44697 29.59665 27.52181
#
# Velocity S-wave (km/s) = 3.58083 3.86178 3.72396
# Velocity P-wave (km/s) = 6.33286 6.86318 6.60335
#
# Compressibility (1/GPa) = 0.02189979
#
# Stress axis : x y z
#
# Youngs Moduli (GPa) = 66.87602 118.06227 41.74775
#
# Poissons Ratio (x) = 0.37599 0.32401
# Poissons Ratio (y) = 0.21298 0.07483
# Poissons Ratio (z) = 0.51903 0.21163
#
# Static dielectric constant tensor:
#      x y z
#    x 3.464870 0.000000 0.100780 
#    y 0.000000 3.764120 0.000000 
#    z 0.100780 0.000000 3.660020 
# 
# 
# High freq. dielectric constant tensor:
#      x y z
#    x 1.773760 0.000000 0.005540 
#    y 0.000000 1.793340 0.000000 
#    z 0.005540 0.000000 1.778990 
# 
# From -- ./inp_files/2402.got.cif
#   From: 2010.03.12/outbox.cif.g09.slc.cpg/sg4_2_cif.got.tgz:2402.got - 2010.03.31 09:31:35.
