data_PCOD8046297
_publ_section_title
;
Structure prediction by ZEFSAII (Michael W. Deem and Ramdas Pophale) SiO2 
 PCOD8046297
Probable space group: P 21
;
_chemical_formula_sum "Si O2"
_cell_formula_units_Z 16
_cell_length_a 9.187344
_cell_length_b 4.910767
_cell_length_c 16.274857
_cell_angle_alpha 90.000000
_cell_angle_beta 58.133297
_cell_angle_gamma 90.000000
_cell_volume 623.600838
_symmetry_space_group_name_H-M "P 21"
_symmetry_group_IT_number 4
_symmetry_cell_setting 'monoclinic'
loop_
_space_group_symop_operation_xyz
x,y,z
-x,1/2+y,-z
loop_
_atom_site_type_symbol
_atom_site_label
_atom_site_fract_x
_atom_site_fract_y
_atom_site_fract_z
Si Si1 0.504035 0.667340 0.948642
Si Si2 0.631153 0.616600 0.203050
Si Si3 0.277579 0.535382 0.231905
Si Si4 0.396846 0.823080 0.626660
Si Si5 0.084125 0.501165 0.842864
Si Si6 0.180367 0.782175 0.969988
Si Si7 0.282056 0.327899 0.565334
Si Si8 0.055405 0.051611 0.290340
O O1 0.653893 0.846309 0.863172
O O2 0.344901 0.583996 0.936826
O O3 0.576328 0.379698 0.959858
O O4 0.426336 0.634747 0.250024
O O5 0.655453 0.370946 0.262619
O O6 0.723016 0.877432 0.216127
O O7 0.724785 0.560556 0.088014
O O8 0.193616 0.817544 0.229006
O O9 0.136005 0.320823 0.310079
O O10 0.358881 0.512951 0.615543
O O11 0.601573 0.870949 0.550755
O O12 0.287538 0.019952 0.598340
O O13 0.064975 0.705692 0.925697
O O14 0.039530 0.632558 0.767855
O O15 0.935339 0.286011 0.913346
O O16 0.086750 0.422571 0.605652
#
# Coordination Sequence:
#
# PCOD8046297 Si02
#       8
#     2   2   2   2   2   2   2   2
#     4  11  24  43  63  87 129 178 221 267 328 392
#     4  11  25  43  64  94 133 176 215 277 332 400
#     4  11  27  42  64  93 137 175 220 265 336 406
#     4  10  21  41  69 104 125 172 212 275 336 385
#     4  12  24  40  68  93 130 169 226 280 327 383
#     4  11  25  38  64  94 127 166 225 275 321 383
#     4  10  21  40  70 100 135 158 223 275 325 396
#     4  12  25  45  66  99 130 178 216 276 331 393
#
# _framework density 25.657436000000001
#
# number of rings (size 3 to 8) (size 9 to 14) (size 15 to 20)
#    0.000    1.000    2.500    3.750    8.750    1.000 
#    0.000    1.250    0.000    0.000    0.000    0.000 
#    0.000    0.000    0.000    0.000    0.000    0.000 
#
# Total GULP energy -198211.505129 kJ/mol
# GULP energy per Si atom -12388.219071 kJ/mol
# Density = 2.559904 g / cm^3
# Si number density = 25.657436 Si / 1000 Ang^3
#
#
#
# Elastic Constant Matrix: (Units=GPa)
#
#
# Indices 1 2 3 4 5 6 
#
# 1 116.8923 22.3364 1.3002 0.0000 -22.3936 0.0000
# 2 22.3364 83.5137 -13.8504 0.0000 2.7120 0.0000
# 3 1.3002 -13.8504 79.8057 0.0000 -11.9844 0.0000
# 4 0.0000 0.0000 0.0000 21.9904 0.0000 0.2055
# 5 -22.3936 2.7120 -11.9844 0.0000 26.5060 0.0000
# 6 0.0000 0.0000 0.0000 0.2055 0.0000 33.1515
#
#
#
# Elastic Compliance Matrix: (Units=1/GPa)
#
#
# Indices 1 2 3 4 5 6 
#
# 1 0.011071 -0.003158 0.000777 0.000000 0.010028 0.000000
# 2 -0.003158 0.013232 0.001871 0.000000 -0.003176 0.000000
# 3 0.000777 0.001871 0.013853 0.000000 0.006729 0.000000
# 4 0.000000 0.000000 0.000000 0.045477 0.000000 -0.000282
# 5 0.010028 -0.003176 0.006729 0.000000 0.049566 0.000000
# 6 0.000000 0.000000 0.000000 -0.000282 0.000000 0.030166
#
#
# Mechanical properties :
#
#
# Convention : Reuss Voigt Hill
#
# Bulk Modulus (GPa) = 26.92706 33.30935 30.11820
# Shear Modulus (GPa) = 28.28650 34.35796 31.32223
#
# Velocity S-wave (km/s) = 3.32395 3.66335 3.49776
# Velocity P-wave (km/s) = 5.02485 5.55914 5.29873
#
# Compressibility (1/GPa) = 0.03713736
#
# Stress axis : x y z
#
# Youngs Moduli (GPa) = 90.32888 75.57414 72.18672
#
# Poissons Ratio (x) = 0.23864 -0.05612
# Poissons Ratio (y) = 0.28523 -0.13506
# Poissons Ratio (z) = -0.07023 -0.14140
#
# Static dielectric constant tensor:
#      x y z
#    x 4.690690 0.000000 -0.494930 
#    y 0.000000 4.470020 0.000000 
#    z -0.494930 0.000000 4.872470 
# 
# 
# High freq. dielectric constant tensor:
#      x y z
#    x 2.013490 0.000000 -0.036290 
#    y 0.000000 2.027100 0.000000 
#    z -0.036290 0.000000 2.010460 
# 
# From -- ./inp_files/8803.got.cif
#   From: 2010.03.12/outbox.cif.g09.slc.cpg/sg4_5_cif.got.tgz:8803.got - 2010.03.31 09:31:35.
