data_PCOD8046597
_publ_section_title
;
Structure prediction by ZEFSAII (Michael W. Deem and Ramdas Pophale) SiO2 
 PCOD8046597
Probable space group: P 21
;
_chemical_formula_sum "Si O2"
_cell_formula_units_Z 14
_cell_length_a 18.749193
_cell_length_b 4.925751
_cell_length_c 10.780748
_cell_angle_alpha 90.000000
_cell_angle_beta 148.148895
_cell_angle_gamma 90.000000
_cell_volume 525.414743
_symmetry_space_group_name_H-M "P 21"
_symmetry_group_IT_number 4
_symmetry_cell_setting 'monoclinic'
loop_
_space_group_symop_operation_xyz
x,y,z
-x,1/2+y,-z
loop_
_atom_site_type_symbol
_atom_site_label
_atom_site_fract_x
_atom_site_fract_y
_atom_site_fract_z
Si Si1 0.650490 0.829500 0.804271
Si Si2 0.509003 0.821083 0.349388
Si Si3 0.821633 0.155557 0.357682
Si Si4 0.085354 0.847431 0.992507
Si Si5 0.122842 0.980369 0.796154
Si Si6 0.095953 0.852536 0.271928
Si Si7 0.470088 0.591267 0.034856
O O1 0.634435 0.783821 0.630828
O O2 0.548565 0.627042 0.728728
O O3 0.615174 0.134484 0.788028
O O4 0.805977 0.774049 0.077288
O O5 0.550838 0.724983 0.271785
O O6 0.818239 0.373506 0.243797
O O7 0.808037 0.309813 0.469457
O O8 0.680496 0.992740 0.142875
O O9 0.958801 0.980475 0.548001
O O10 0.166663 0.798328 0.983244
O O11 0.034247 0.157865 0.908463
O O12 0.168874 0.799562 0.244476
O O13 0.952457 0.661630 0.798262
O O14 0.542565 0.324851 0.089273
#
# Coordination Sequence:
#
# PCOD8046597 Si02
#       7
#     2   2   2   2   2   2   2
#     4  10  22  41  74 100 139 180 231 302 359 417
#     4  10  22  46  69 101 134 185 246 289 343 425
#     4  11  25  41  70 108 146 182 232 295 373 429
#     4   9  19  36  59  88 135 176 225 258 348 414
#     4  11  23  40  70 111 141 181 223 308 370 428
#     4   9  19  38  58  88 131 184 216 274 325 435
#     4  12  28  48  72  98 144 200 245 290 348 436
#
# _framework density 26.645617000000001
#
# number of rings (size 3 to 8) (size 9 to 14) (size 15 to 20)
#    0.000    1.714    1.429    1.714    2.000    5.714 
#    0.000    8.571    0.000    0.000    0.000    0.000 
#    0.000    0.000    0.000    0.000    0.000    0.000 
#
# Total GULP energy -173452.089752 kJ/mol
# GULP energy per Si atom -12389.434982 kJ/mol
# Density = 2.658497 g / cm^3
# Si number density = 26.645617 Si / 1000 Ang^3
#
#
#
# Elastic Constant Matrix: (Units=GPa)
#
#
# Indices 1 2 3 4 5 6 
#
# 1 101.3039 10.3329 43.7644 0.0000 -34.1638 0.0000
# 2 10.3329 52.7315 -9.0308 0.0000 1.2704 0.0000
# 3 43.7644 -9.0308 95.3534 0.0000 -11.8816 0.0000
# 4 0.0000 0.0000 0.0000 22.1965 0.0000 -1.0887
# 5 -34.1638 1.2704 -11.8816 0.0000 57.3976 0.0000
# 6 0.0000 0.0000 0.0000 -1.0887 0.0000 19.0504
#
#
#
# Elastic Compliance Matrix: (Units=1/GPa)
#
#
# Indices 1 2 3 4 5 6 
#
# 1 0.016027 -0.004496 -0.006755 0.000000 0.008241 0.000000
# 2 -0.004496 0.020538 0.003714 0.000000 -0.002362 0.000000
# 3 -0.006755 0.003714 0.013784 0.000000 -0.001250 0.000000
# 4 0.000000 0.000000 0.000000 0.045179 0.000000 0.002582
# 5 0.008241 -0.002362 -0.001250 0.000000 0.022121 0.000000
# 6 0.000000 0.000000 0.000000 0.002582 0.000000 0.052640
#
#
# Mechanical properties :
#
#
# Convention : Reuss Voigt Hill
#
# Bulk Modulus (GPa) = 28.34804 37.72463 33.03634
# Shear Modulus (GPa) = 25.36520 33.35039 29.35779
#
# Velocity S-wave (km/s) = 3.08871 3.54167 3.32292
# Velocity P-wave (km/s) = 4.83551 5.55997 5.21035
#
# Compressibility (1/GPa) = 0.03527580
#
# Stress axis : x y z
#
# Youngs Moduli (GPa) = 62.39378 48.69019 72.54935
#
# Poissons Ratio (x) = 0.21891 0.49007
# Poissons Ratio (y) = 0.28052 -0.26947
# Poissons Ratio (z) = 0.42147 -0.18085
#
# Static dielectric constant tensor:
#      x y z
#    x 5.208680 0.000000 -0.787230 
#    y 0.000000 4.468240 0.000000 
#    z -0.787230 0.000000 4.865290 
# 
# 
# High freq. dielectric constant tensor:
#      x y z
#    x 2.079150 0.000000 -0.040050 
#    y 0.000000 2.056230 0.000000 
#    z -0.040050 0.000000 2.057770 
# 
# From -- ./inp_files/12988.got.cif
#   From: 2010.03.12/outbox.cif.g09.slc.cpg/sg4_7_cif.got.tgz:12988.got - 2010.03.31 09:31:35.
