data_PCOD8046323
_publ_section_title
;
Structure prediction by ZEFSAII (Michael W. Deem and Ramdas Pophale) SiO2 
 PCOD8046323
Probable space group: P 21
;
_chemical_formula_sum "Si O2"
_cell_formula_units_Z 16
_cell_length_a 13.811895
_cell_length_b 8.832132
_cell_length_c 11.245343
_cell_angle_alpha 90.000000
_cell_angle_beta 149.650399
_cell_angle_gamma 90.000000
_cell_volume 693.137237
_symmetry_space_group_name_H-M "P 21"
_symmetry_group_IT_number 4
_symmetry_cell_setting 'monoclinic'
loop_
_space_group_symop_operation_xyz
x,y,z
-x,1/2+y,-z
loop_
_atom_site_type_symbol
_atom_site_label
_atom_site_fract_x
_atom_site_fract_y
_atom_site_fract_z
Si Si1 0.631761 0.619340 0.380352
Si Si2 0.227734 0.980007 0.877293
Si Si3 0.552827 0.836664 0.087134
Si Si4 0.015830 0.110905 0.859039
Si Si5 0.241151 0.798952 0.568567
Si Si6 0.206192 0.659923 0.967766
Si Si7 0.060651 0.450572 0.617515
Si Si8 0.934882 0.780028 0.858947
O O1 0.614964 0.694372 0.232384
O O2 0.725927 0.454722 0.469541
O O3 0.747624 0.730519 0.588590
O O4 0.422162 0.604877 0.215656
O O5 0.176858 0.810504 0.860418
O O6 0.071906 0.040043 0.617131
O O7 0.440076 0.967614 0.043580
O O8 0.197396 0.086884 0.960984
O O9 0.737939 0.914581 0.228524
O O10 0.429802 0.766555 0.847585
O O11 0.818175 0.165207 0.585121
O O12 0.965570 0.958674 0.876761
O O13 0.087257 0.240125 0.025586
O O14 0.063063 0.806174 0.471988
O O15 0.085285 0.539806 0.765932
O O16 0.116567 0.685298 0.002608
#
# Coordination Sequence:
#
# PCOD8046323 Si02
#       8
#     2   2   2   2   2   2   2   2
#     4  11  22  42  68  97 140 183 229 289 347 415
#     4   9  23  39  65  99 141 179 227 282 347 417
#     4  10  22  39  66 108 143 183 220 287 350 430
#     4  11  25  47  73  98 137 190 237 295 350 421
#     4  11  24  40  67 105 139 182 233 282 360 420
#     4  10  21  41  66  98 134 179 230 280 344 405
#     4  11  21  37  68 102 143 176 221 280 352 417
#     4  11  24  47  71  95 137 186 241 291 350 409
#
# _framework density 23.083452000000001
#
# number of rings (size 3 to 8) (size 9 to 14) (size 15 to 20)
#    0.000    1.500    2.500    2.250    5.250    2.000 
#    0.000   10.000    0.000    0.000    0.000    0.000 
#    0.000    0.000    0.000    0.000    0.000    0.000 
#
# Total GULP energy -198321.839395 kJ/mol
# GULP energy per Si atom -12395.114962 kJ/mol
# Density = 2.303091 g / cm^3
# Si number density = 23.083452 Si / 1000 Ang^3
#
#
#
# Elastic Constant Matrix: (Units=GPa)
#
#
# Indices 1 2 3 4 5 6 
#
# 1 111.4951 37.5462 42.2063 0.0000 8.0750 0.0000
# 2 37.5462 71.1992 17.4539 0.0000 -3.3431 0.0000
# 3 42.2063 17.4539 86.3956 0.0000 -0.8612 0.0000
# 4 0.0000 0.0000 0.0000 32.7084 0.0000 -8.9149
# 5 8.0750 -3.3431 -0.8612 0.0000 36.6417 0.0000
# 6 0.0000 0.0000 0.0000 -8.9149 0.0000 34.2746
#
#
#
# Elastic Compliance Matrix: (Units=1/GPa)
#
#
# Indices 1 2 3 4 5 6 
#
# 1 0.013198 -0.005826 -0.005306 0.000000 -0.003565 0.000000
# 2 -0.005826 0.017409 -0.000642 0.000000 0.002857 0.000000
# 3 -0.005306 -0.000642 0.014311 0.000000 0.001447 0.000000
# 4 0.000000 0.000000 0.000000 0.032906 0.000000 0.008559
# 5 -0.003565 0.002857 0.001447 0.000000 0.028372 0.000000
# 6 0.000000 0.000000 0.000000 0.008559 0.000000 0.031402
#
#
# Mechanical properties :
#
#
# Convention : Reuss Voigt Hill
#
# Bulk Modulus (GPa) = 46.79719 51.50028 49.14873
# Shear Modulus (GPa) = 29.71419 32.18385 30.94902
#
# Velocity S-wave (km/s) = 3.59172 3.73800 3.66559
# Velocity P-wave (km/s) = 6.12517 6.40227 6.26525
#
# Compressibility (1/GPa) = 0.02136881
#
# Stress axis : x y z
#
# Youngs Moduli (GPa) = 75.77041 57.44090 69.87685
#
# Poissons Ratio (x) = 0.33467 0.37076
# Poissons Ratio (y) = 0.44147 0.04488
# Poissons Ratio (z) = 0.40203 0.03689
#
# Static dielectric constant tensor:
#      x y z
#    x 4.414010 0.000000 0.111590 
#    y 0.000000 4.041540 0.000000 
#    z 0.111590 0.000000 4.109060 
# 
# 
# High freq. dielectric constant tensor:
#      x y z
#    x 1.912600 0.000000 0.006670 
#    y 0.000000 1.910320 0.000000 
#    z 0.006670 0.000000 1.906140 
# 
# From -- ./inp_files/12690.got.cif
#   From: 2010.03.12/outbox.cif.g09.slc.cpg/sg4_7_cif.got.tgz:12690.got - 2010.03.31 09:31:35.
