data_PCOD8046773
_publ_section_title
;
Structure prediction by ZEFSAII (Michael W. Deem and Ramdas Pophale) SiO2 
 PCOD8046773
Probable space group: P 21
;
_chemical_formula_sum "Si O2"
_cell_formula_units_Z 14
_cell_length_a 7.991499
_cell_length_b 14.076115
_cell_length_c 5.181064
_cell_angle_alpha 90.000000
_cell_angle_beta 90.450713
_cell_angle_gamma 90.000000
_cell_volume 582.796018
_symmetry_space_group_name_H-M "P 21"
_symmetry_group_IT_number 4
_symmetry_cell_setting 'monoclinic'
loop_
_space_group_symop_operation_xyz
x,y,z
-x,1/2+y,-z
loop_
_atom_site_type_symbol
_atom_site_label
_atom_site_fract_x
_atom_site_fract_y
_atom_site_fract_z
Si Si1 0.484642 0.844780 0.750189
Si Si2 0.199237 0.651255 0.263815
Si Si3 0.341091 0.997533 0.396698
Si Si4 0.837785 0.662130 0.361190
Si Si5 0.401399 0.631576 0.751443
Si Si6 0.829136 0.788531 0.874828
Si Si7 0.167872 0.855474 0.105062
O O1 0.486440 0.732460 0.688744
O O2 0.676886 0.864115 0.842645
O O3 0.451574 0.910433 0.504027
O O4 0.340148 0.865595 0.951345
O O5 0.308629 0.602571 0.485767
O O6 0.182457 0.765866 0.298788
O O7 0.012110 0.611643 0.286211
O O8 0.270531 0.631715 0.981469
O O9 0.292001 0.075538 0.610445
O O10 0.456738 0.052943 0.189312
O O11 0.170832 0.953570 0.269415
O O12 0.856824 0.723806 0.622816
O O13 0.776458 0.726109 0.122497
O O14 0.001788 0.846562 0.928211
#
# Coordination Sequence:
#
# PCOD8046773 Si02
#       7
#     2   2   2   2   2   2   2
#     4  11  25  47  77 108 155 205 251 318 378 460
#     4  10  22  48  73 103 145 204 238 312 385 445
#     4  12  27  45  78 115 152 196 268 314 377 452
#     4  11  25  47  79 111 146 201 258 318 374 462
#     4  11  24  45  76 104 152 196 250 306 386 445
#     4  11  26  49  80 106 154 203 252 311 400 442
#     4  10  25  47  75 107 152 197 257 313 378 456
#
# _framework density 24.022124000000002
#
# number of rings (size 3 to 8) (size 9 to 14) (size 15 to 20)
#    0.000    1.143    2.857    2.571   12.000    0.000 
#    5.143    0.000    3.143    0.000    0.000    0.000 
#    0.000    0.000    0.000    0.000    0.000    0.000 
#
# Total GULP energy -173544.594759 kJ/mol
# GULP energy per Si atom -12396.042483 kJ/mol
# Density = 2.396745 g / cm^3
# Si number density = 24.022124 Si / 1000 Ang^3
#
#
#
# Elastic Constant Matrix: (Units=GPa)
#
#
# Indices 1 2 3 4 5 6 
#
# 1 164.7921 50.9799 44.4591 0.0000 3.5750 0.0000
# 2 50.9799 92.7674 42.5645 0.0000 4.1361 0.0000
# 3 44.4591 42.5645 129.0515 0.0000 2.7030 0.0000
# 4 0.0000 0.0000 0.0000 17.3757 0.0000 2.9028
# 5 3.5750 4.1361 2.7030 0.0000 38.3734 0.0000
# 6 0.0000 0.0000 0.0000 2.9028 0.0000 27.0138
#
#
#
# Elastic Compliance Matrix: (Units=1/GPa)
#
#
# Indices 1 2 3 4 5 6 
#
# 1 0.007536 -0.003467 -0.001448 0.000000 -0.000226 0.000000
# 2 -0.003467 0.014341 -0.003515 0.000000 -0.000975 0.000000
# 3 -0.001448 -0.003515 0.009410 0.000000 -0.000149 0.000000
# 4 0.000000 0.000000 0.000000 0.058604 0.000000 -0.006297
# 5 -0.000226 -0.000975 -0.000149 0.000000 0.026196 0.000000
# 6 0.000000 0.000000 0.000000 -0.006297 0.000000 0.037695
#
#
# Mechanical properties :
#
#
# Convention : Reuss Voigt Hill
#
# Bulk Modulus (GPa) = 69.31372 73.62423 71.46898
# Shear Modulus (GPa) = 28.49769 33.12642 30.81206
#
# Velocity S-wave (km/s) = 3.44802 3.71751 3.58530
# Velocity P-wave (km/s) = 6.69093 7.01011 6.85238
#
# Compressibility (1/GPa) = 0.01442716
#
# Stress axis : x y z
#
# Youngs Moduli (GPa) = 132.68917 69.72834 106.26689
#
# Poissons Ratio (x) = 0.24175 0.15388
# Poissons Ratio (y) = 0.46005 0.37356
# Poissons Ratio (z) = 0.19214 0.24512
#
# Static dielectric constant tensor:
#      x y z
#    x 4.542140 0.000000 0.041100 
#    y 0.000000 4.342330 0.000000 
#    z 0.041100 0.000000 4.224790 
# 
# 
# High freq. dielectric constant tensor:
#      x y z
#    x 1.966960 0.000000 -0.001550 
#    y 0.000000 1.937190 0.000000 
#    z -0.001550 0.000000 1.949690 
# 
# From -- ./inp_files/1784.got.cif
#   From: 2010.03.12/outbox.cif.g09.slc.cpg/sg4_1_cif.got.tgz:1784.got - 2010.03.31 09:31:35.
