data_PCOD8046484
_publ_section_title
;
Structure prediction by ZEFSAII (Michael W. Deem and Ramdas Pophale) SiO2 
 PCOD8046484
Probable space group: P 21
;
_chemical_formula_sum "Si O2"
_cell_formula_units_Z 16
_cell_length_a 8.630068
_cell_length_b 10.692675
_cell_length_c 9.009196
_cell_angle_alpha 90.000000
_cell_angle_beta 63.279400
_cell_angle_gamma 90.000000
_cell_volume 742.574602
_symmetry_space_group_name_H-M "P 21"
_symmetry_group_IT_number 4
_symmetry_cell_setting 'monoclinic'
loop_
_space_group_symop_operation_xyz
x,y,z
-x,1/2+y,-z
loop_
_atom_site_type_symbol
_atom_site_label
_atom_site_fract_x
_atom_site_fract_y
_atom_site_fract_z
Si Si1 0.080097 0.264110 0.938402
Si Si2 0.682706 0.993163 0.207684
Si Si3 0.341752 0.937579 0.508989
Si Si4 0.662571 0.540208 0.173805
Si Si5 0.871014 0.197683 0.314164
Si Si6 0.485133 0.637608 0.979216
Si Si7 0.220249 0.844775 0.097541
Si Si8 0.821587 0.566922 0.674540
O O1 0.158623 0.401790 0.888783
O O2 0.223696 0.161677 0.846247
O O3 0.934422 0.247810 0.872350
O O4 0.999661 0.251541 0.135603
O O5 0.737187 0.099375 0.301510
O O6 0.639001 0.054478 0.068757
O O7 0.516931 0.916913 0.339646
O O8 0.239071 0.807281 0.562226
O O9 0.403604 0.987340 0.642021
O O10 0.224477 0.045083 0.478894
O O11 0.502118 0.573389 0.133897
O O12 0.778121 0.433721 0.047617
O O13 0.991025 0.131540 0.388276
O O14 0.675119 0.650376 0.821370
O O15 0.403823 0.774668 0.037589
O O16 0.179811 0.926094 0.259289
#
# Coordination Sequence:
#
# PCOD8046484 Si02
#       8
#     2   2   2   2   2   2   2   2
#     4  12  22  41  75  96 134 179 234 283 333 404
#     4  11  25  44  69 102 138 180 222 285 352 397
#     4  11  27  44  68 101 145 181 224 283 351 407
#     4  11  24  40  66 101 131 178 232 274 339 411
#     4  12  23  47  73  99 140 181 228 289 337 410
#     4  10  22  38  69  99 135 173 232 283 330 405
#     4  11  21  42  69 101 129 179 226 287 334 406
#     4  10  24  44  65 103 142 177 226 278 352 404
#
# _framework density 21.546655999999999
#
# number of rings (size 3 to 8) (size 9 to 14) (size 15 to 20)
#    0.000    1.000    6.250    0.000    7.000    1.000 
#    0.000    1.250    0.000    0.000    0.000    0.000 
#    0.000    0.000    0.000    0.000    0.000    0.000 
#
# Total GULP energy -198415.143637 kJ/mol
# GULP energy per Si atom -12400.946477 kJ/mol
# Density = 2.149761 g / cm^3
# Si number density = 21.546656 Si / 1000 Ang^3
#
#
#
# Elastic Constant Matrix: (Units=GPa)
#
#
# Indices 1 2 3 4 5 6 
#
# 1 135.8851 49.5356 23.8192 0.0000 7.5749 0.0000
# 2 49.5356 101.0131 32.5435 0.0000 -6.9989 0.0000
# 3 23.8192 32.5435 60.8840 0.0000 4.8401 0.0000
# 4 0.0000 0.0000 0.0000 34.8029 0.0000 -4.8546
# 5 7.5749 -6.9989 4.8401 0.0000 33.6138 0.0000
# 6 0.0000 0.0000 0.0000 -4.8546 0.0000 42.0847
#
#
#
# Elastic Compliance Matrix: (Units=1/GPa)
#
#
# Indices 1 2 3 4 5 6 
#
# 1 0.009318 -0.004431 -0.001049 0.000000 -0.002871 0.000000
# 2 -0.004431 0.014475 -0.006396 0.000000 0.004933 0.000000
# 3 -0.001049 -0.006396 0.020576 0.000000 -0.004058 0.000000
# 4 0.000000 0.000000 0.000000 0.029203 0.000000 0.003369
# 5 -0.002871 0.004933 -0.004058 0.000000 0.032008 0.000000
# 6 0.000000 0.000000 0.000000 0.003369 0.000000 0.024150
#
#
# Mechanical properties :
#
#
# Convention : Reuss Voigt Hill
#
# Bulk Modulus (GPa) = 48.50010 56.61986 52.55998
# Shear Modulus (GPa) = 31.18089 34.89253 33.03671
#
# Velocity S-wave (km/s) = 3.80825 4.02854 3.91994
# Velocity P-wave (km/s) = 6.47265 6.92630 6.70331
#
# Compressibility (1/GPa) = 0.02061852
#
# Stress axis : x y z
#
# Youngs Moduli (GPa) = 107.31674 69.08584 48.59939
#
# Poissons Ratio (x) = 0.30609 0.05098
# Poissons Ratio (y) = 0.47547 0.31083
# Poissons Ratio (z) = 0.11258 0.44186
#
# Static dielectric constant tensor:
#      x y z
#    x 4.185800 0.000000 0.181480 
#    y 0.000000 3.879340 0.000000 
#    z 0.181480 0.000000 3.661670 
# 
# 
# High freq. dielectric constant tensor:
#      x y z
#    x 1.865170 0.000000 0.010490 
#    y 0.000000 1.844670 0.000000 
#    z 0.010490 0.000000 1.824180 
# 
# From -- ./inp_files/6221.got.cif
#   From: 2010.03.12/outbox.cif.g09.slc.cpg/sg4_4_cif.got.tgz:6221.got - 2010.03.31 09:31:35.
