data_PCOD8046905
_publ_section_title
;
Structure prediction by ZEFSAII (Michael W. Deem and Ramdas Pophale) SiO2 
 PCOD8046905
Probable space group: P 21
;
_chemical_formula_sum "Si O2"
_cell_formula_units_Z 16
_cell_length_a 8.674230
_cell_length_b 5.310303
_cell_length_c 18.834000
_cell_angle_alpha 90.000000
_cell_angle_beta 126.134454
_cell_angle_gamma 90.000000
_cell_volume 700.661357
_symmetry_space_group_name_H-M "P 21"
_symmetry_group_IT_number 4
_symmetry_cell_setting 'monoclinic'
loop_
_space_group_symop_operation_xyz
x,y,z
-x,1/2+y,-z
loop_
_atom_site_type_symbol
_atom_site_label
_atom_site_fract_x
_atom_site_fract_y
_atom_site_fract_z
Si Si1 0.880305 0.491610 0.763485
Si Si2 0.255050 0.950852 0.507612
Si Si3 0.946124 0.164960 0.657270
Si Si4 0.351875 0.293241 0.410777
Si Si5 0.522544 0.479640 0.762597
Si Si6 0.748095 0.069154 0.054498
Si Si7 0.284931 0.980817 0.673835
Si Si8 0.612064 0.565695 0.946956
O O1 0.988098 0.274708 0.746948
O O2 0.807555 0.686226 0.685576
O O3 0.698271 0.405204 0.759635
O O4 0.038424 0.603547 0.858515
O O5 0.066993 0.856879 0.413943
O O6 0.437690 0.762427 0.565021
O O7 0.198855 0.032666 0.571786
O O8 0.347136 0.177007 0.487874
O O9 0.725678 0.075699 0.600647
O O10 0.106576 0.958127 0.680286
O O11 0.402592 0.722181 0.704206
O O12 0.602447 0.561890 0.860093
O O13 0.399260 0.225222 0.732488
O O14 0.600973 0.070715 0.079728
O O15 0.719467 0.312232 0.998152
O O16 0.727916 0.813050 0.003424
#
# Coordination Sequence:
#
# PCOD8046905 Si02
#       8
#     2   2   2   2   2   2   2   2
#     4  11  26  44  71 103 137 189 233 287 353 428
#     4  11  24  42  67  96 140 185 239 290 353 412
#     4  11  27  43  70  99 139 188 242 293 352 421
#     4  11  23  43  66  97 136 184 234 291 349 415
#     4  12  27  47  71 104 146 181 233 293 353 415
#     4  10  23  43  73 100 139 179 228 276 349 425
#     4  12  29  44  71 102 143 187 236 298 348 414
#     4  10  23  44  69 105 138 179 221 288 347 412
#
# _framework density 22.835567000000001
#
# number of rings (size 3 to 8) (size 9 to 14) (size 15 to 20)
#    0.000    1.000    2.500    2.250   12.250    2.000 
#    0.000    0.000    0.000    0.000    0.000    0.000 
#    0.000    0.000    0.000    0.000    0.000    0.000 
#
# Total GULP energy -198283.838943 kJ/mol
# GULP energy per Si atom -12392.739934 kJ/mol
# Density = 2.278359 g / cm^3
# Si number density = 22.835567 Si / 1000 Ang^3
#
#
#
# Elastic Constant Matrix: (Units=GPa)
#
#
# Indices 1 2 3 4 5 6 
#
# 1 100.7895 12.2269 33.8707 0.0000 -10.7898 0.0000
# 2 12.2269 96.5661 23.9638 0.0000 -1.3005 0.0000
# 3 33.8707 23.9638 114.4892 0.0000 -10.9210 0.0000
# 4 0.0000 0.0000 0.0000 27.3401 0.0000 -0.3126
# 5 -10.7898 -1.3005 -10.9210 0.0000 41.4915 0.0000
# 6 0.0000 0.0000 0.0000 -0.3126 0.0000 26.8157
#
#
#
# Elastic Compliance Matrix: (Units=1/GPa)
#
#
# Indices 1 2 3 4 5 6 
#
# 1 0.011230 -0.000653 -0.002984 0.000000 0.002114 0.000000
# 2 -0.000653 0.010964 -0.002139 0.000000 -0.000389 0.000000
# 3 -0.002984 -0.002139 0.010242 0.000000 0.001853 0.000000
# 4 0.000000 0.000000 0.000000 0.036581 0.000000 0.000426
# 5 0.002114 -0.000389 0.001853 0.000000 0.025127 0.000000
# 6 0.000000 0.000000 0.000000 0.000426 0.000000 0.037297
#
#
# Mechanical properties :
#
#
# Convention : Reuss Voigt Hill
#
# Bulk Modulus (GPa) = 47.88333 50.21860 49.05097
# Shear Modulus (GPa) = 33.34389 35.24835 34.29612
#
# Velocity S-wave (km/s) = 3.82537 3.93309 3.87960
# Velocity P-wave (km/s) = 6.36597 6.53183 6.44943
#
# Compressibility (1/GPa) = 0.02088409
#
# Stress axis : x y z
#
# Youngs Moduli (GPa) = 89.04720 91.20928 97.64082
#
# Poissons Ratio (x) = 0.05955 0.29135
# Poissons Ratio (y) = 0.05814 0.20883
# Poissons Ratio (z) = 0.26571 0.19508
#
# Static dielectric constant tensor:
#      x y z
#    x 4.147950 0.000000 0.004440 
#    y 0.000000 4.107720 0.000000 
#    z 0.004440 0.000000 4.124110 
# 
# 
# High freq. dielectric constant tensor:
#      x y z
#    x 1.903170 0.000000 -0.003730 
#    y 0.000000 1.897100 0.000000 
#    z -0.003730 0.000000 1.910820 
# 
# From -- ./inp_files/9022.got.cif
#   From: 2010.03.12/outbox.cif.g09.slc.cpg/sg4_5_cif.got.tgz:9022.got - 2010.03.31 09:31:35.
