data_PCOD8046283
_publ_section_title
;
Structure prediction by ZEFSAII (Michael W. Deem and Ramdas Pophale) SiO2 
 PCOD8046283
Probable space group: P 21
;
_chemical_formula_sum "Si O2"
_cell_formula_units_Z 10
_cell_length_a 10.628049
_cell_length_b 5.007420
_cell_length_c 10.333671
_cell_angle_alpha 90.000000
_cell_angle_beta 51.143501
_cell_angle_gamma 90.000000
_cell_volume 428.255903
_symmetry_space_group_name_H-M "P 21"
_symmetry_group_IT_number 4
_symmetry_cell_setting 'monoclinic'
loop_
_space_group_symop_operation_xyz
x,y,z
-x,1/2+y,-z
loop_
_atom_site_type_symbol
_atom_site_label
_atom_site_fract_x
_atom_site_fract_y
_atom_site_fract_z
Si Si1 0.028427 0.273560 0.187911
Si Si2 0.314181 0.648093 0.469650
Si Si3 0.378390 0.420243 0.694030
Si Si4 0.177041 0.921176 0.902782
Si Si5 0.898685 0.001147 0.604490
O O1 0.138513 0.431001 0.220613
O O2 0.859485 0.238215 0.368072
O O3 0.986222 0.430175 0.081633
O O4 0.117710 0.998006 0.086612
O O5 0.389390 0.456505 0.531424
O O6 0.437429 0.897245 0.370763
O O7 0.275798 0.508914 0.356325
O O8 0.275159 0.643075 0.837012
O O9 0.300114 0.136073 0.769488
O O10 0.988351 0.285622 0.540720
#
# Coordination Sequence:
#
# PCOD8046283 Si02
#       5
#     2   2   2   2   2
#     4  10  21  40  66  97 133 172 220 270 327 392
#     4  10  21  40  66  97 133 172 220 270 327 392
#     4  11  23  38  63  98 134 173 219 272 328 389
#     4  11  23  38  63  98 134 173 219 272 328 389
#     4  10  22  38  64 100 132 166 218 278 326 380
#
# _framework density 23.350522999999999
#
# number of rings (size 3 to 8) (size 9 to 14) (size 15 to 20)
#    0.000    1.600    0.000    6.000    0.000    9.600 
#    0.000    0.000    0.000   19.200    0.000    2.800 
#    0.000    0.000    0.000    0.000    0.000    0.000 
#
# Total GULP energy -123911.378598 kJ/mol
# GULP energy per Si atom -12391.137860 kJ/mol
# Density = 2.329738 g / cm^3
# Si number density = 23.350523 Si / 1000 Ang^3
#
#
#
# Elastic Constant Matrix: (Units=GPa)
#
#
# Indices 1 2 3 4 5 6 
#
# 1 178.6453 57.3599 72.4591 0.0000 21.4340 0.0000
# 2 57.3599 69.2395 13.4295 0.0000 -4.8871 0.0000
# 3 72.4591 13.4295 88.5036 0.0000 3.5841 0.0000
# 4 0.0000 0.0000 0.0000 39.8485 0.0000 0.2160
# 5 21.4340 -4.8871 3.5841 0.0000 41.1566 0.0000
# 6 0.0000 0.0000 0.0000 0.2160 0.0000 42.2565
#
#
#
# Elastic Compliance Matrix: (Units=1/GPa)
#
#
# Indices 1 2 3 4 5 6 
#
# 1 0.013309 -0.009772 -0.009118 0.000000 -0.007298 0.000000
# 2 -0.009772 0.022217 0.004332 0.000000 0.007350 0.000000
# 3 -0.009118 0.004332 0.017957 0.000000 0.003699 0.000000
# 4 0.000000 0.000000 0.000000 0.025096 0.000000 -0.000128
# 5 -0.007298 0.007350 0.003699 0.000000 0.028649 0.000000
# 6 0.000000 0.000000 0.000000 -0.000128 0.000000 0.023666
#
#
# Mechanical properties :
#
#
# Convention : Reuss Voigt Hill
#
# Bulk Modulus (GPa) = 41.04070 69.20950 55.12510
# Shear Modulus (GPa) = 29.73841 37.52832 33.63336
#
# Velocity S-wave (km/s) = 3.57258 4.01330 3.79934
# Velocity P-wave (km/s) = 5.88488 7.15396 6.55023
#
# Compressibility (1/GPa) = 0.02436606
#
# Stress axis : x y z
#
# Youngs Moduli (GPa) = 75.13489 45.01071 55.68854
#
# Poissons Ratio (x) = 0.43986 0.50778
# Poissons Ratio (y) = 0.73425 -0.24124
# Poissons Ratio (z) = 0.68509 -0.19498
#
# Static dielectric constant tensor:
#      x y z
#    x 4.943040 0.000000 0.496330 
#    y 0.000000 4.210090 0.000000 
#    z 0.496330 0.000000 4.484530 
# 
# 
# High freq. dielectric constant tensor:
#      x y z
#    x 1.916350 0.000000 0.000820 
#    y 0.000000 1.926540 0.000000 
#    z 0.000820 0.000000 1.912640 
# 
# From -- ./inp_files/5082.got.cif
#   From: 2010.03.12/outbox.cif.g09.slc.cpg/sg4_3_cif.got.tgz:5082.got - 2010.03.31 09:31:35.
