data_PCOD8046258
_publ_section_title
;
Structure prediction by ZEFSAII (Michael W. Deem and Ramdas Pophale) SiO2 
 PCOD8046258
Probable space group: P 21
;
_chemical_formula_sum "Si O2"
_cell_formula_units_Z 12
_cell_length_a 13.947916
_cell_length_b 9.704670
_cell_length_c 8.052793
_cell_angle_alpha 90.000000
_cell_angle_beta 150.000486
_cell_angle_gamma 90.000000
_cell_volume 545.004709
_symmetry_space_group_name_H-M "P 21"
_symmetry_group_IT_number 4
_symmetry_cell_setting 'monoclinic'
loop_
_space_group_symop_operation_xyz
x,y,z
-x,1/2+y,-z
loop_
_atom_site_type_symbol
_atom_site_label
_atom_site_fract_x
_atom_site_fract_y
_atom_site_fract_z
Si Si1 0.941019 0.822610 0.599126
Si Si2 0.282911 0.578641 0.624814
Si Si3 0.941012 0.745306 0.223934
Si Si4 0.282922 0.989281 0.223934
Si Si5 0.658107 0.911978 0.599126
Si Si6 0.658097 0.655946 0.375186
O O1 0.987895 0.783956 0.481849
O O2 0.848621 0.693898 0.557489
O O3 0.793782 0.950625 0.381341
O O4 0.139770 0.860563 0.988397
O O5 0.291131 0.540689 0.442510
O O6 0.139754 0.707354 0.430894
O O7 0.493946 0.617294 1.000000
O O8 0.793775 0.617293 0.000001
O O9 0.848627 0.874024 0.988397
O O10 0.493953 0.950630 0.481847
O O11 0.291141 0.027234 0.430895
O O12 0.587560 0.783963 0.381341
#
# Coordination Sequence:
#
# PCOD8046258 Si02
#       6
#     2   2   2   2   2   2
#     4  10  21  40  63  91 123 161 207 255 308 367
#     4  10  21  40  63  91 123 161 207 255 308 367
#     4  10  21  40  63  91 123 161 207 255 308 367
#     4  10  21  40  63  91 123 161 207 255 308 367
#     4  10  21  40  63  91 123 161 207 255 308 367
#     4  10  21  40  63  91 123 161 207 255 308 367
#
# _framework density 22.018159000000001
#
# number of rings (size 3 to 8) (size 9 to 14) (size 15 to 20)
#    0.000    2.000    0.000    3.000    0.000    0.000 
#    0.000   85.000    0.000    0.000    0.000    0.000 
#    0.000    0.000    0.000    0.000    0.000    0.000 
#
# Total GULP energy -148850.653950 kJ/mol
# GULP energy per Si atom -12404.221163 kJ/mol
# Density = 2.196804 g / cm^3
# Si number density = 22.018159 Si / 1000 Ang^3
#
#
#
# Elastic Constant Matrix: (Units=GPa)
#
#
# Indices 1 2 3 4 5 6 
#
# 1 158.8517 67.5378 94.3385 0.0000 0.0001 0.0000
# 2 67.5378 60.2513 67.5443 0.0000 0.0000 0.0000
# 3 94.3385 67.5443 158.8452 0.0000 0.0004 0.0000
# 4 0.0000 0.0000 0.0000 40.7808 0.0000 0.0005
# 5 0.0001 0.0000 0.0004 0.0000 32.2577 0.0000
# 6 0.0000 0.0000 0.0000 0.0005 0.0000 40.7944
#
#
#
# Elastic Compliance Matrix: (Units=1/GPa)
#
#
# Indices 1 2 3 4 5 6 
#
# 1 0.012663 -0.011013 -0.002837 0.000000 0.000000 0.000000
# 2 -0.011013 0.041295 -0.011019 0.000000 0.000000 0.000000
# 3 -0.002837 -0.011019 0.012666 0.000000 0.000000 0.000000
# 4 0.000000 0.000000 0.000000 0.024521 0.000000 0.000000
# 5 0.000000 0.000000 0.000000 0.000000 0.031000 0.000000
# 6 0.000000 0.000000 0.000000 0.000000 0.000000 0.024513
#
#
# Mechanical properties :
#
#
# Convention : Reuss Voigt Hill
#
# Bulk Modulus (GPa) = 59.22464 92.97663 76.10064
# Shear Modulus (GPa) = 24.74950 32.66841 28.70896
#
# Velocity S-wave (km/s) = 3.35632 3.85607 3.61484
# Velocity P-wave (km/s) = 6.47892 7.88318 7.21529
#
# Compressibility (1/GPa) = 0.01688486
#
# Stress axis : x y z
#
# Youngs Moduli (GPa) = 78.97267 24.21626 78.95267
#
# Poissons Ratio (x) = 0.26670 0.22401
# Poissons Ratio (y) = 0.86975 0.86994
# Poissons Ratio (z) = 0.22407 0.26683
#
# Static dielectric constant tensor:
#      x y z
#    x 3.921310 0.000000 0.000000 
#    y 0.000000 3.967270 0.000000 
#    z 0.000000 0.000000 3.921110 
# 
# 
# High freq. dielectric constant tensor:
#      x y z
#    x 1.868400 0.000000 0.000000 
#    y 0.000000 1.856220 0.000000 
#    z 0.000000 0.000000 1.868390 
# 
# From -- ./inp_files/9102.got.cif
#   From: 2010.03.12/outbox.cif.g09.slc.cpg/sg4_5_cif.got.tgz:9102.got - 2010.03.31 09:31:35.
