data_PCOD8046386
_publ_section_title
;
Structure prediction by ZEFSAII (Michael W. Deem and Ramdas Pophale) SiO2 
 PCOD8046386
Probable space group: P 21
;
_chemical_formula_sum "Si O2"
_cell_formula_units_Z 12
_cell_length_a 5.198937
_cell_length_b 17.023990
_cell_length_c 6.354541
_cell_angle_alpha 90.000000
_cell_angle_beta 76.594598
_cell_angle_gamma 90.000000
_cell_volume 547.095487
_symmetry_space_group_name_H-M "P 21"
_symmetry_group_IT_number 4
_symmetry_cell_setting 'monoclinic'
loop_
_space_group_symop_operation_xyz
x,y,z
-x,1/2+y,-z
loop_
_atom_site_type_symbol
_atom_site_label
_atom_site_fract_x
_atom_site_fract_y
_atom_site_fract_z
Si Si1 0.188834 0.205870 0.827793
Si Si2 0.340385 0.900979 0.337050
Si Si3 0.712185 0.126540 0.710655
Si Si4 0.207813 0.455011 0.455551
Si Si5 0.375944 0.326910 0.098905
Si Si6 0.411105 0.751016 0.563136
O O1 0.415230 0.142342 0.853820
O O2 0.163457 0.274255 0.010184
O O3 0.290997 0.248305 0.594590
O O4 0.912421 0.162848 0.844360
O O5 0.565485 0.951213 0.411967
O O6 0.433130 0.877548 0.086638
O O7 0.262237 0.823592 0.481873
O O8 0.075224 0.953085 0.373763
O O9 0.743581 0.171064 0.475904
O O10 0.768229 0.035470 0.676689
O O11 0.225603 0.384965 0.283854
O O12 0.561585 0.265600 0.193651
#
# Coordination Sequence:
#
# PCOD8046386 Si02
#       6
#     2   2   2   2   2   2
#     4   9  21  39  64  95 124 169 223 265 302 402
#     4  10  23  40  64  95 126 167 226 259 312 408
#     4  10  21  43  64  92 139 162 213 278 320 373
#     4  11  24  43  66  95 137 172 206 277 335 368
#     4  10  22  43  71  94 129 174 224 261 326 383
#     4   8  21  38  67  89 123 172 212 260 319 374
#
# _framework density 21.934014999999999
#
# number of rings (size 3 to 8) (size 9 to 14) (size 15 to 20)
#    1.000    1.333    0.000    1.000    7.000    5.333 
#    3.000    0.000    0.000    0.000    0.000    0.000 
#    0.000    0.000    0.000    0.000    0.000    0.000 
#
# Total GULP energy -148702.909145 kJ/mol
# GULP energy per Si atom -12391.909095 kJ/mol
# Density = 2.188409 g / cm^3
# Si number density = 21.934015 Si / 1000 Ang^3
#
#
#
# Elastic Constant Matrix: (Units=GPa)
#
#
# Indices 1 2 3 4 5 6 
#
# 1 137.1147 37.4917 32.1353 0.0000 11.1651 0.0000
# 2 37.4917 81.4966 7.8627 0.0000 10.4490 0.0000
# 3 32.1353 7.8627 74.7871 0.0000 10.3715 0.0000
# 4 0.0000 0.0000 0.0000 28.8269 0.0000 3.4755
# 5 11.1651 10.4490 10.3715 0.0000 10.2064 0.0000
# 6 0.0000 0.0000 0.0000 3.4755 0.0000 27.7780
#
#
#
# Elastic Compliance Matrix: (Units=1/GPa)
#
#
# Indices 1 2 3 4 5 6 
#
# 1 0.009268 -0.003534 -0.003151 0.000000 -0.003319 0.000000
# 2 -0.003534 0.015496 0.001808 0.000000 -0.013835 0.000000
# 3 -0.003151 0.001808 0.016662 0.000000 -0.015336 0.000000
# 4 0.000000 0.000000 0.000000 0.035221 0.000000 -0.004407
# 5 -0.003319 -0.013835 -0.015336 0.000000 0.131357 0.000000
# 6 0.000000 0.000000 0.000000 -0.004407 0.000000 0.036551
#
#
# Mechanical properties :
#
#
# Convention : Reuss Voigt Hill
#
# Bulk Modulus (GPa) = 31.57324 49.81976 40.69650
# Shear Modulus (GPa) = 18.87748 27.75616 23.31682
#
# Velocity S-wave (km/s) = 2.93686 3.56116 3.26397
# Velocity P-wave (km/s) = 5.09177 6.29857 5.72704
#
# Compressibility (1/GPa) = 0.03167239
#
# Stress axis : x y z
#
# Youngs Moduli (GPa) = 107.89577 64.53376 60.01765
#
# Poissons Ratio (x) = 0.22808 0.18909
# Poissons Ratio (y) = 0.38133 -0.10852
# Poissons Ratio (z) = 0.33994 -0.11669
#
# Static dielectric constant tensor:
#      x y z
#    x 3.762560 0.000000 0.120790 
#    y 0.000000 3.808960 0.000000 
#    z 0.120790 0.000000 3.729180 
# 
# 
# High freq. dielectric constant tensor:
#      x y z
#    x 1.861560 0.000000 0.009170 
#    y 0.000000 1.849650 0.000000 
#    z 0.009170 0.000000 1.843810 
# 
# From -- ./inp_files/334.got.cif
#   From: 2010.03.12/outbox.cif.g09.slc.cpg/sg4_1_cif.got.tgz:334.got - 2010.03.31 09:31:35.
