data_PCOD8046616
_publ_section_title
;
Structure prediction by ZEFSAII (Michael W. Deem and Ramdas Pophale) SiO2 
 PCOD8046616
Probable space group: P 21
;
_chemical_formula_sum "Si O2"
_cell_formula_units_Z 14
_cell_length_a 12.870723
_cell_length_b 9.617356
_cell_length_c 5.496712
_cell_angle_alpha 90.000000
_cell_angle_beta 64.867650
_cell_angle_gamma 90.000000
_cell_volume 615.982141
_symmetry_space_group_name_H-M "P 21"
_symmetry_group_IT_number 4
_symmetry_cell_setting 'monoclinic'
loop_
_space_group_symop_operation_xyz
x,y,z
-x,1/2+y,-z
loop_
_atom_site_type_symbol
_atom_site_label
_atom_site_fract_x
_atom_site_fract_y
_atom_site_fract_z
Si Si1 0.040567 0.621150 0.084754
Si Si2 0.486668 0.594563 0.310453
Si Si3 0.537243 0.329133 0.002716
Si Si4 0.287506 0.744806 0.791384
Si Si5 0.167442 0.224930 0.468209
Si Si6 0.890320 0.818007 0.980985
Si Si7 0.337437 0.010774 0.487945
O O1 0.033871 0.455793 0.085405
O O2 0.965529 0.672063 0.392079
O O3 0.171958 0.665776 0.971890
O O4 0.978306 0.686510 0.907787
O O5 0.527871 0.693124 0.040647
O O6 0.366979 0.650952 0.535616
O O7 0.591616 0.608050 0.395972
O O8 0.466839 0.431100 0.256294
O O9 0.566224 0.429054 0.752595
O O10 0.650426 0.268837 0.015158
O O11 0.259790 0.896016 0.704533
O O12 0.183219 0.307223 0.197097
O O13 0.256316 0.097636 0.389543
O O14 0.189762 0.316195 0.693832
#
# Coordination Sequence:
#
# PCOD8046616 Si02
#       7
#     2   2   2   2   2   2   2
#     4  10  24  45  67  99 139 172 229 277 339 403
#     4  10  22  43  66 100 128 177 225 273 347 403
#     4  10  22  42  67  95 133 180 217 283 337 405
#     4  10  22  43  67  98 131 176 222 280 337 402
#     4  10  25  42  70 100 135 179 224 273 340 401
#     4  10  25  44  68 102 133 179 226 278 337 396
#     4  10  22  43  67  94 135 177 225 274 341 402
#
# _framework density 22.727929
#
# number of rings (size 3 to 8) (size 9 to 14) (size 15 to 20)
#    0.857    1.143    0.000    1.714    6.000    3.429 
#   12.857    0.000    0.000    0.000    0.000    0.000 
#    0.000    0.000    0.000    0.000    0.000    0.000 
#
# Total GULP energy -173440.160688 kJ/mol
# GULP energy per Si atom -12388.582906 kJ/mol
# Density = 2.267620 g / cm^3
# Si number density = 22.727929 Si / 1000 Ang^3
#
#
#
# Elastic Constant Matrix: (Units=GPa)
#
#
# Indices 1 2 3 4 5 6 
#
# 1 84.6622 28.5235 34.5676 0.0000 8.1788 0.0000
# 2 28.5235 61.4464 19.6987 0.0000 11.4370 0.0000
# 3 34.5676 19.6987 78.1955 0.0000 32.2305 0.0000
# 4 0.0000 0.0000 0.0000 32.2979 0.0000 5.9358
# 5 8.1788 11.4370 32.2305 0.0000 39.1451 0.0000
# 6 0.0000 0.0000 0.0000 5.9358 0.0000 41.0692
#
#
#
# Elastic Compliance Matrix: (Units=1/GPa)
#
#
# Indices 1 2 3 4 5 6 
#
# 1 0.016559 -0.006083 -0.007711 0.000000 0.004667 0.000000
# 2 -0.006083 0.020073 -0.000718 0.000000 -0.004003 0.000000
# 3 -0.007711 -0.000718 0.023656 0.000000 -0.017656 0.000000
# 4 0.000000 0.000000 0.000000 0.031807 0.000000 -0.004597
# 5 0.004667 -0.004003 -0.017656 0.000000 0.040278 0.000000
# 6 0.000000 0.000000 0.000000 -0.004597 0.000000 0.025014
#
#
# Mechanical properties :
#
#
# Convention : Reuss Voigt Hill
#
# Bulk Modulus (GPa) = 31.98596 43.32040 37.65318
# Shear Modulus (GPa) = 25.40251 31.93674 28.66962
#
# Velocity S-wave (km/s) = 3.34680 3.75263 3.55551
# Velocity P-wave (km/s) = 5.38876 6.15452 5.78433
#
# Compressibility (1/GPa) = 0.03126371
#
# Stress axis : x y z
#
# Youngs Moduli (GPa) = 60.39108 49.81742 42.27322
#
# Poissons Ratio (x) = 0.30305 0.32597
# Poissons Ratio (y) = 0.36737 0.03034
# Poissons Ratio (z) = 0.46568 0.03576
#
# Static dielectric constant tensor:
#      x y z
#    x 3.659850 0.000000 0.175220 
#    y 0.000000 4.359510 0.000000 
#    z 0.175220 0.000000 4.100990 
# 
# 
# High freq. dielectric constant tensor:
#      x y z
#    x 1.873470 0.000000 0.012220 
#    y 0.000000 1.903320 0.000000 
#    z 0.012220 0.000000 1.894130 
# 
# From -- ./inp_files/3692.got.cif
#   From: 2010.03.12/outbox.cif.g09.slc.cpg/sg4_2_cif.got.tgz:3692.got - 2010.03.31 09:31:35.
