data_PCOD8046479
_publ_section_title
;
Structure prediction by ZEFSAII (Michael W. Deem and Ramdas Pophale) SiO2 
 PCOD8046479
Probable space group: P 21
;
_chemical_formula_sum "Si O2"
_cell_formula_units_Z 16
_cell_length_a 18.958326
_cell_length_b 6.102344
_cell_length_c 7.106942
_cell_angle_alpha 90.000000
_cell_angle_beta 110.229979
_cell_angle_gamma 90.000000
_cell_volume 771.483812
_symmetry_space_group_name_H-M "P 21"
_symmetry_group_IT_number 4
_symmetry_cell_setting 'monoclinic'
loop_
_space_group_symop_operation_xyz
x,y,z
-x,1/2+y,-z
loop_
_atom_site_type_symbol
_atom_site_label
_atom_site_fract_x
_atom_site_fract_y
_atom_site_fract_z
Si Si1 0.604758 0.233080 0.460287
Si Si2 0.667600 0.523909 0.827041
Si Si3 0.899920 0.175928 0.018628
Si Si4 0.032838 0.874692 0.265742
Si Si5 0.444066 0.405052 0.275116
Si Si6 0.088137 0.064182 0.688651
Si Si7 0.343110 0.645990 0.904229
Si Si8 0.784041 0.855744 0.049106
O O1 0.664307 0.368499 0.641270
O O2 0.533604 0.385858 0.346661
O O3 0.645126 0.162217 0.306821
O O4 0.579717 0.016982 0.550336
O O5 0.591539 0.664381 0.769477
O O6 0.740337 0.680597 0.878479
O O7 0.675580 0.382805 0.025329
O O8 0.890952 0.347502 0.178408
O O9 0.904410 0.298487 0.824413
O O10 0.975296 0.035499 0.109646
O O11 0.825916 0.024175 0.948194
O O12 0.990339 0.664959 0.312256
O O13 0.079242 0.005504 0.463605
O O14 0.417865 0.553298 0.075066
O O15 0.154361 0.241550 0.761814
O O16 0.274312 0.479906 0.870918
#
# Coordination Sequence:
#
# PCOD8046479 Si02
#       8
#     2   2   2   2   2   2   2   2
#     4  11  22  40  69  97 130 167 217 275 329 378
#     4  10  22  45  64  91 135 169 215 266 319 390
#     4  11  22  41  69  99 133 168 217 265 330 376
#     4  11  22  39  70 103 127 167 211 277 319 375
#     4  10  22  38  63 102 128 162 215 277 325 378
#     4  11  22  41  69  96 137 161 218 267 322 381
#     4  10  24  42  66  93 131 174 217 264 323 391
#     4  10  24  46  64  91 137 180 210 261 319 397
#
# _framework density 20.739256000000001
#
# number of rings (size 3 to 8) (size 9 to 14) (size 15 to 20)
#    0.000    1.500    3.750    0.750    1.750    2.000 
#    0.000   16.250    0.000    0.000    0.000    0.000 
#    0.000    0.000    0.000    0.000    0.000    0.000 
#
# Total GULP energy -198487.886780 kJ/mol
# GULP energy per Si atom -12405.492924 kJ/mol
# Density = 2.069205 g / cm^3
# Si number density = 20.739256 Si / 1000 Ang^3
#
#
#
# Elastic Constant Matrix: (Units=GPa)
#
#
# Indices 1 2 3 4 5 6 
#
# 1 104.9445 33.7214 45.6381 0.0000 -4.0046 0.0000
# 2 33.7214 87.7999 25.2263 0.0000 -8.2165 0.0000
# 3 45.6381 25.2263 110.8850 0.0000 -21.7006 0.0000
# 4 0.0000 0.0000 0.0000 29.0512 0.0000 -0.4705
# 5 -4.0046 -8.2165 -21.7006 0.0000 28.2085 0.0000
# 6 0.0000 0.0000 0.0000 -0.4705 0.0000 34.9132
#
#
#
# Elastic Compliance Matrix: (Units=1/GPa)
#
#
# Indices 1 2 3 4 5 6 
#
# 1 0.012807 -0.003768 -0.005030 0.000000 -0.003149 0.000000
# 2 -0.003768 0.013362 -0.000979 0.000000 0.002604 0.000000
# 3 -0.005030 -0.000979 0.013086 0.000000 0.009068 0.000000
# 4 0.000000 0.000000 0.000000 0.034430 0.000000 0.000464
# 5 -0.003149 0.002604 0.009068 0.000000 0.042737 0.000000
# 6 0.000000 0.000000 0.000000 0.000464 0.000000 0.028649
#
#
# Mechanical properties :
#
#
# Convention : Reuss Voigt Hill
#
# Bulk Modulus (GPa) = 50.76289 56.97788 53.87038
# Shear Modulus (GPa) = 29.20693 31.70415 30.45554
#
# Velocity S-wave (km/s) = 3.75679 3.91410 3.83626
# Velocity P-wave (km/s) = 6.58391 6.92532 6.75677
#
# Compressibility (1/GPa) = 0.01969943
#
# Stress axis : x y z
#
# Youngs Moduli (GPa) = 78.08219 74.83994 76.41748
#
# Poissons Ratio (x) = 0.28202 0.38439
# Poissons Ratio (y) = 0.29423 0.07484
# Poissons Ratio (z) = 0.39276 0.07329
#
# Static dielectric constant tensor:
#      x y z
#    x 3.660080 0.000000 0.185320 
#    y 0.000000 4.013050 0.000000 
#    z 0.185320 0.000000 3.660550 
# 
# 
# High freq. dielectric constant tensor:
#      x y z
#    x 1.803150 0.000000 0.011900 
#    y 0.000000 1.831130 0.000000 
#    z 0.011900 0.000000 1.802230 
# 
# From -- ./inp_files/4205.got.cif
#   From: 2010.03.12/outbox.cif.g09.slc.cpg/sg4_3_cif.got.tgz:4205.got - 2010.03.31 09:31:35.
