data_PCOD8046437
_publ_section_title
;
Structure prediction by ZEFSAII (Michael W. Deem and Ramdas Pophale) SiO2 
 PCOD8046437
Probable space group: P 21
;
_chemical_formula_sum "Si O2"
_cell_formula_units_Z 16
_cell_length_a 5.849510
_cell_length_b 21.787851
_cell_length_c 4.729464
_cell_angle_alpha 90.000000
_cell_angle_beta 88.165337
_cell_angle_gamma 90.000000
_cell_volume 602.452930
_symmetry_space_group_name_H-M "P 21"
_symmetry_group_IT_number 4
_symmetry_cell_setting 'monoclinic'
loop_
_space_group_symop_operation_xyz
x,y,z
-x,1/2+y,-z
loop_
_atom_site_type_symbol
_atom_site_label
_atom_site_fract_x
_atom_site_fract_y
_atom_site_fract_z
Si Si1 0.496605 0.645800 0.978638
Si Si2 0.172101 0.370087 0.786478
Si Si3 0.522618 0.973602 0.326624
Si Si4 0.102539 0.565592 0.893936
Si Si5 0.275568 0.086485 0.530971
Si Si6 0.460669 0.789332 0.053190
Si Si7 0.780558 0.343406 0.436962
Si Si8 0.168807 0.959133 0.867057
O O1 0.706482 0.618891 0.162399
O O2 0.488689 0.718052 0.002389
O O3 0.245257 0.617301 0.061744
O O4 0.536354 0.624420 0.656105
O O5 0.359035 0.409123 0.591373
O O6 0.297269 0.323831 0.002674
O O7 0.027118 0.330452 0.565950
O O8 0.017440 0.414512 0.984061
O O9 0.733382 0.017775 0.260120
O O10 0.356889 0.013204 0.553286
O O11 0.396857 0.962267 0.038164
O O12 0.956049 0.593667 0.640063
O O13 0.947251 0.528516 0.141699
O O14 0.407201 0.805847 0.380140
O O15 0.250536 0.817154 0.878091
O O16 0.759685 0.419846 0.427041
#
# Coordination Sequence:
#
# PCOD8046437 Si02
#       8
#     2   2   2   2   2   2   2   2
#     4  11  25  47  69  96 138 184 236 285 336 414
#     4  11  23  42  68 100 140 187 222 288 352 407
#     4   9  19  43  67 104 139 174 223 288 351 414
#     4   9  22  42  72 101 138 181 222 294 355 403
#     4  10  23  44  67 101 127 175 234 282 344 416
#     4  12  28  45  69 100 142 186 237 285 341 411
#     4  12  25  44  66 104 135 180 235 283 345 420
#     4  10  21  45  68 108 139 179 231 287 352 431
#
# _framework density 26.558091000000001
#
# number of rings (size 3 to 8) (size 9 to 14) (size 15 to 20)
#    0.000    1.500    2.500    0.750    3.500    4.000 
#   22.500    0.000    0.000    0.000    0.000    0.000 
#    0.000    0.000    0.000    0.000    0.000    0.000 
#
# Total GULP energy -198341.217724 kJ/mol
# GULP energy per Si atom -12396.326108 kJ/mol
# Density = 2.649764 g / cm^3
# Si number density = 26.558091 Si / 1000 Ang^3
#
#
#
# Elastic Constant Matrix: (Units=GPa)
#
#
# Indices 1 2 3 4 5 6 
#
# 1 110.6820 57.7949 29.5726 0.0000 35.4209 0.0000
# 2 57.7949 202.5417 39.8070 0.0000 27.9056 0.0000
# 3 29.5726 39.8070 105.6885 0.0000 22.8793 0.0000
# 4 0.0000 0.0000 0.0000 36.3383 0.0000 5.0637
# 5 35.4209 27.9056 22.8793 0.0000 48.2450 0.0000
# 6 0.0000 0.0000 0.0000 5.0637 0.0000 39.3332
#
#
#
# Elastic Compliance Matrix: (Units=1/GPa)
#
#
# Indices 1 2 3 4 5 6 
#
# 1 0.013055 -0.002460 -0.001069 0.000000 -0.007655 0.000000
# 2 -0.002460 0.006052 -0.001364 0.000000 -0.001047 0.000000
# 3 -0.001069 -0.001364 0.011071 0.000000 -0.003676 0.000000
# 4 0.000000 0.000000 0.000000 0.028022 0.000000 -0.003607
# 5 -0.007655 -0.001047 -0.003676 0.000000 0.028696 0.000000
# 6 0.000000 0.000000 0.000000 -0.003607 0.000000 0.025888
#
#
# Mechanical properties :
#
#
# Convention : Reuss Voigt Hill
#
# Bulk Modulus (GPa) = 49.04465 74.80680 61.92573
# Shear Modulus (GPa) = 38.64948 44.23248 41.44098
#
# Velocity S-wave (km/s) = 3.81895 4.08548 3.95446
# Velocity P-wave (km/s) = 6.16059 7.10516 6.64967
#
# Compressibility (1/GPa) = 0.02038958
#
# Stress axis : x y z
#
# Youngs Moduli (GPa) = 76.59895 165.24226 90.33006
#
# Poissons Ratio (x) = 0.40657 0.09657
# Poissons Ratio (y) = 0.18847 0.12323
# Poissons Ratio (z) = 0.08189 0.22543
#
# Static dielectric constant tensor:
#      x y z
#    x 5.681800 0.000000 -0.245230 
#    y 0.000000 4.890290 0.000000 
#    z -0.245230 0.000000 4.766830 
# 
# 
# High freq. dielectric constant tensor:
#      x y z
#    x 2.099740 0.000000 -0.009330 
#    y 0.000000 2.060710 0.000000 
#    z -0.009330 0.000000 2.067840 
# 
# From -- ./inp_files/732.got.cif
#   From: 2010.03.12/outbox.cif.g09.slc.cpg/sg4_1_cif.got.tgz:732.got - 2010.03.31 09:31:35.
