data_PCOD8046901
_publ_section_title
;
Structure prediction by ZEFSAII (Michael W. Deem and Ramdas Pophale) SiO2 
 PCOD8046901
Probable space group: P 21
;
_chemical_formula_sum "Si O2"
_cell_formula_units_Z 10
_cell_length_a 5.520886
_cell_length_b 4.838273
_cell_length_c 15.052188
_cell_angle_alpha 90.000000
_cell_angle_beta 112.351259
_cell_angle_gamma 90.000000
_cell_volume 371.859958
_symmetry_space_group_name_H-M "P 21"
_symmetry_group_IT_number 4
_symmetry_cell_setting 'monoclinic'
loop_
_space_group_symop_operation_xyz
x,y,z
-x,1/2+y,-z
loop_
_atom_site_type_symbol
_atom_site_label
_atom_site_fract_x
_atom_site_fract_y
_atom_site_fract_z
Si Si1 0.683497 0.829020 0.650798
Si Si2 0.529419 0.161488 0.201257
Si Si3 0.338073 0.030726 0.998069
Si Si4 0.846657 0.506204 0.508649
Si Si5 0.130328 0.162102 0.794788
O O1 0.586812 0.626950 0.716295
O O2 0.846650 0.637467 0.606373
O O3 0.445866 0.980044 0.568211
O O4 0.858456 0.078591 0.712398
O O5 0.628330 0.473689 0.204789
O O6 0.786196 0.970565 0.221247
O O7 0.296105 0.093485 0.097416
O O8 0.103907 0.126875 0.899322
O O9 0.598129 0.208727 0.007042
O O10 0.986812 0.207635 0.533175
#
# Coordination Sequence:
#
# PCOD8046901 Si02
#       5
#     2   2   2   2   2
#     4  12  28  48  78 106 136 192 242 290 362 422
#     4  10  23  43  71 106 145 185 232 287 345 419
#     4   8  16  38  66  98 144 186 220 278 346 406
#     4  12  30  52  74 104 144 184 238 306 362 422
#     4  10  23  43  71 106 145 185 232 287 345 419
#
# _framework density 26.891845
#
# number of rings (size 3 to 8) (size 9 to 14) (size 15 to 20)
#    0.000    1.600    0.000    2.400    0.000   17.600 
#    0.000   12.000    0.000    4.800    0.000    0.000 
#    0.000    0.000    0.000    0.000    0.000    0.000 
#
# Total GULP energy -124010.499218 kJ/mol
# GULP energy per Si atom -12401.049922 kJ/mol
# Density = 2.683064 g / cm^3
# Si number density = 26.891845 Si / 1000 Ang^3
#
#
#
# Elastic Constant Matrix: (Units=GPa)
#
#
# Indices 1 2 3 4 5 6 
#
# 1 56.7668 7.5573 25.6653 0.0000 15.3557 0.0000
# 2 7.5573 78.4716 19.0821 0.0000 -34.1172 0.0000
# 3 25.6653 19.0821 149.7757 0.0000 -1.2600 0.0000
# 4 0.0000 0.0000 0.0000 40.0129 0.0000 1.7313
# 5 15.3557 -34.1172 -1.2600 0.0000 -95.0872 0.0000
# 6 0.0000 0.0000 0.0000 1.7313 0.0000 33.2094
#
#
#
# Elastic Compliance Matrix: (Units=1/GPa)
#
#
# Indices 1 2 3 4 5 6 
#
# 1 0.018215 0.000263 -0.003130 0.000000 0.002889 0.000000
# 2 0.000263 0.011346 -0.001524 0.000000 -0.004008 0.000000
# 3 -0.003130 -0.001524 0.007407 0.000000 -0.000057 0.000000
# 4 0.000000 0.000000 0.000000 0.025048 0.000000 -0.001306
# 5 0.002889 -0.004008 -0.000057 0.000000 -0.008611 0.000000
# 6 0.000000 0.000000 0.000000 -0.001306 0.000000 0.030180
#
#
# Mechanical properties :
#
#
# Convention : Reuss Voigt Hill
#
# Bulk Modulus (GPa) = 35.48099 43.29149 39.38624
# Shear Modulus (GPa) = 49.13357 11.14097 30.13727
#
# Velocity S-wave (km/s) = 4.27907 2.03762 3.35129
# Velocity P-wave (km/s) = 6.13486 4.65501 5.44544
#
# Compressibility (1/GPa) = 0.02818411
#
# Stress axis : x y z
#
# Youngs Moduli (GPa) = 54.90023 88.13585 135.01088
#
# Poissons Ratio (x) = -0.02318 0.42265
# Poissons Ratio (y) = -0.01444 0.20580
# Poissons Ratio (z) = 0.17186 0.13435
#
# Static dielectric constant tensor:
#      x y z
#    x 4.307910 0.000000 -0.223310 
#    y 0.000000 4.778520 0.000000 
#    z -0.223310 0.000000 5.350140 
# 
# 
# High freq. dielectric constant tensor:
#      x y z
#    x 2.039770 0.000000 -0.005520 
#    y 0.000000 2.091500 0.000000 
#    z -0.005520 0.000000 2.109320 
# 
# From -- ./inp_files/3368.got.cif
#   From: 2010.03.12/outbox.cif.g09.slc.cpg/sg4_2_cif.got.tgz:3368.got - 2010.03.31 09:31:35.
