data_PCOD8046701
_publ_section_title
;
Structure prediction by ZEFSAII (Michael W. Deem and Ramdas Pophale) SiO2 
 PCOD8046701
Probable space group: P 21
;
_chemical_formula_sum "Si O2"
_cell_formula_units_Z 14
_cell_length_a 6.511113
_cell_length_b 8.801098
_cell_length_c 11.822149
_cell_angle_alpha 90.000000
_cell_angle_beta 59.025009
_cell_angle_gamma 90.000000
_cell_volume 580.855304
_symmetry_space_group_name_H-M "P 21"
_symmetry_group_IT_number 4
_symmetry_cell_setting 'monoclinic'
loop_
_space_group_symop_operation_xyz
x,y,z
-x,1/2+y,-z
loop_
_atom_site_type_symbol
_atom_site_label
_atom_site_fract_x
_atom_site_fract_y
_atom_site_fract_z
Si Si1 0.274590 0.422650 0.990105
Si Si2 0.796318 0.705835 0.447282
Si Si3 0.055940 0.149488 0.354518
Si Si4 0.162212 0.748419 0.958667
Si Si5 0.362920 0.418169 0.214967
Si Si6 0.413046 0.528318 0.435851
Si Si7 0.204253 0.854682 0.196527
O O1 0.184252 0.566473 0.944237
O O2 0.507505 0.337710 0.872286
O O3 0.344055 0.489927 0.095152
O O4 0.063842 0.297868 0.053893
O O5 0.826759 0.615235 0.555905
O O6 0.675485 0.588313 0.394185
O O7 0.059768 0.749922 0.325881
O O8 0.633928 0.855512 0.511426
O O9 0.122897 0.318792 0.298069
O O10 0.770279 0.138851 0.447025
O O11 0.150261 0.031410 0.234893
O O12 0.404849 0.812635 0.837221
O O13 0.114805 0.810944 0.097493
O O14 0.379731 0.543420 0.309077
#
# Coordination Sequence:
#
# PCOD8046701 Si02
#       7
#     2   2   2   2   2   2   2
#     4  11  26  46  75 101 142 181 240 287 354 411
#     4  10  24  44  70 105 137 182 232 283 351 415
#     4  10  22  44  70  98 140 185 221 285 351 412
#     4  11  26  43  72 107 133 185 234 294 347 410
#     4  10  24  46  71  99 143 182 231 288 353 414
#     4  10  24  43  72 104 138 181 233 283 349 417
#     4  10  24  46  68 102 143 180 229 286 351 413
#
# _framework density 24.102388999999999
#
# number of rings (size 3 to 8) (size 9 to 14) (size 15 to 20)
#    0.000    1.714    1.429    0.000    6.000   10.286 
#    0.000    0.000    0.000    0.000    0.000    0.000 
#    0.000    0.000    0.000    0.000    0.000    0.000 
#
# Total GULP energy -173616.873860 kJ/mol
# GULP energy per Si atom -12401.205276 kJ/mol
# Density = 2.404753 g / cm^3
# Si number density = 24.102389 Si / 1000 Ang^3
#
#
#
# Elastic Constant Matrix: (Units=GPa)
#
#
# Indices 1 2 3 4 5 6 
#
# 1 106.7544 43.2270 27.8526 0.0000 -10.0309 0.0000
# 2 43.2270 53.4620 24.1793 0.0000 -4.1638 0.0000
# 3 27.8526 24.1793 93.4536 0.0000 -8.7005 0.0000
# 4 0.0000 0.0000 0.0000 26.5920 0.0000 0.7456
# 5 -10.0309 -4.1638 -8.7005 0.0000 32.9199 0.0000
# 6 0.0000 0.0000 0.0000 0.7456 0.0000 48.3521
#
#
#
# Elastic Compliance Matrix: (Units=1/GPa)
#
#
# Indices 1 2 3 4 5 6 
#
# 1 0.014316 -0.010816 -0.001220 0.000000 0.002672 0.000000
# 2 -0.010816 0.029406 -0.004455 0.000000 -0.000754 0.000000
# 3 -0.001220 -0.004455 0.012436 0.000000 0.002352 0.000000
# 4 0.000000 0.000000 0.000000 0.037622 0.000000 -0.000580
# 5 0.002672 -0.000754 0.002352 0.000000 0.031717 0.000000
# 6 0.000000 0.000000 0.000000 -0.000580 0.000000 0.020691
#
#
# Mechanical properties :
#
#
# Convention : Reuss Voigt Hill
#
# Bulk Modulus (GPa) = 43.14576 49.35419 46.24998
# Shear Modulus (GPa) = 26.75329 32.13355 29.44342
#
# Velocity S-wave (km/s) = 3.33526 3.65528 3.49893
# Velocity P-wave (km/s) = 5.72467 6.19161 5.96271
#
# Compressibility (1/GPa) = 0.02317725
#
# Stress axis : x y z
#
# Youngs Moduli (GPa) = 69.85195 34.00660 80.41465
#
# Poissons Ratio (x) = 0.36780 0.09807
# Poissons Ratio (y) = 0.75549 0.35825
# Poissons Ratio (z) = 0.08519 0.15150
#
# Static dielectric constant tensor:
#      x y z
#    x 4.160830 0.000000 -0.118760 
#    y 0.000000 4.076680 0.000000 
#    z -0.118760 0.000000 4.459490 
# 
# 
# High freq. dielectric constant tensor:
#      x y z
#    x 1.952510 0.000000 -0.008890 
#    y 0.000000 1.947570 0.000000 
#    z -0.008890 0.000000 1.963960 
# 
# From -- ./inp_files/2396.got.cif
#   From: 2010.03.12/outbox.cif.g09.slc.cpg/sg4_2_cif.got.tgz:2396.got - 2010.03.31 09:31:35.
