data_PCOD8046230
_publ_section_title
;
Structure prediction by ZEFSAII (Michael W. Deem and Ramdas Pophale) SiO2 
 PCOD8046230
Probable space group: P 21
;
_chemical_formula_sum "Si O2"
_cell_formula_units_Z 16
_cell_length_a 12.657867
_cell_length_b 7.510774
_cell_length_c 8.270507
_cell_angle_alpha 90.000000
_cell_angle_beta 59.084787
_cell_angle_gamma 90.000000
_cell_volume 674.572235
_symmetry_space_group_name_H-M "P 21"
_symmetry_group_IT_number 4
_symmetry_cell_setting 'monoclinic'
loop_
_space_group_symop_operation_xyz
x,y,z
-x,1/2+y,-z
loop_
_atom_site_type_symbol
_atom_site_label
_atom_site_fract_x
_atom_site_fract_y
_atom_site_fract_z
Si Si1 0.252832 0.069660 0.960012
Si Si2 0.878854 0.607085 0.264081
Si Si3 0.102022 0.762600 0.572733
Si Si4 0.595104 0.812133 0.944651
Si Si5 0.480007 0.946482 0.589751
Si Si6 0.376699 0.130919 0.395658
Si Si7 0.967261 0.400343 0.707371
Si Si8 0.623561 0.164356 0.712345
O O1 0.165403 0.133089 0.883582
O O2 0.366206 0.950523 0.806602
O O3 0.298999 0.248482 0.014345
O O4 0.174058 0.947410 0.142835
O O5 0.919527 0.402753 0.264698
O O6 0.769990 0.653653 0.476633
O O7 0.989729 0.743478 0.207066
O O8 0.022626 0.831619 0.483544
O O9 0.245145 0.755879 0.411901
O O10 0.054864 0.570587 0.665814
O O11 0.581408 0.656225 0.820197
O O12 0.631126 0.995523 0.829817
O O13 0.463703 0.816422 0.139477
O O14 0.556207 0.766972 0.535245
O O15 0.427297 0.952826 0.445758
O O16 0.574446 0.100276 0.576136
#
# Coordination Sequence:
#
# PCOD8046230 Si02
#       8
#     2   2   2   2   2   2   2   2
#     4  10  25  44  70 101 139 179 234 285 342 412
#     4  11  26  48  69 101 136 186 231 284 343 405
#     4  12  27  46  73 100 137 182 235 284 337 412
#     4  10  22  42  69 103 141 175 226 281 348 418
#     4   9  21  40  64 102 136 176 225 274 349 410
#     4  10  21  39  67  95 139 172 221 274 339 413
#     4  12  26  47  73  98 137 183 236 287 339 404
#     4  10  24  40  67 104 137 181 222 281 347 406
#
# _framework density 23.718734999999999
#
# number of rings (size 3 to 8) (size 9 to 14) (size 15 to 20)
#    0.000    1.500    1.250    2.250   14.000    2.000 
#    0.000    0.000    0.000    0.000    0.000    0.000 
#    0.000    0.000    0.000    0.000    0.000    0.000 
#
# Total GULP energy -198403.229615 kJ/mol
# GULP energy per Si atom -12400.201851 kJ/mol
# Density = 2.366475 g / cm^3
# Si number density = 23.718735 Si / 1000 Ang^3
#
#
#
# Elastic Constant Matrix: (Units=GPa)
#
#
# Indices 1 2 3 4 5 6 
#
# 1 96.3724 31.1463 6.6344 0.0000 11.1183 0.0000
# 2 31.1463 100.7764 11.9729 0.0000 -4.7715 0.0000
# 3 6.6344 11.9729 52.2817 0.0000 5.5806 0.0000
# 4 0.0000 0.0000 0.0000 21.6592 0.0000 -2.8882
# 5 11.1183 -4.7715 5.5806 0.0000 46.6797 0.0000
# 6 0.0000 0.0000 0.0000 -2.8882 0.0000 39.5770
#
#
#
# Elastic Compliance Matrix: (Units=1/GPa)
#
#
# Indices 1 2 3 4 5 6 
#
# 1 0.012005 -0.003826 -0.000304 0.000000 -0.003214 0.000000
# 2 -0.003826 0.011503 -0.002402 0.000000 0.002374 0.000000
# 3 -0.000304 -0.002402 0.019989 0.000000 -0.002563 0.000000
# 4 0.000000 0.000000 0.000000 0.046623 0.000000 0.003402
# 5 -0.003214 0.002374 -0.002563 0.000000 0.022737 0.000000
# 6 0.000000 0.000000 0.000000 0.003402 0.000000 0.025515
#
#
# Mechanical properties :
#
#
# Convention : Reuss Voigt Hill
#
# Bulk Modulus (GPa) = 32.85976 38.77086 35.81531
# Shear Modulus (GPa) = 30.94387 34.89500 32.91943
#
# Velocity S-wave (km/s) = 3.61587 3.83978 3.72951
# Velocity P-wave (km/s) = 5.59613 6.00335 5.80331
#
# Compressibility (1/GPa) = 0.03043236
#
# Stress axis : x y z
#
# Youngs Moduli (GPa) = 83.30031 86.93122 50.02645
#
# Poissons Ratio (x) = 0.33262 0.01521
# Poissons Ratio (y) = 0.31873 0.12018
# Poissons Ratio (z) = 0.02533 0.20883
#
# Static dielectric constant tensor:
#      x y z
#    x 4.402060 0.000000 0.085250 
#    y 0.000000 4.215740 0.000000 
#    z 0.085250 0.000000 4.127200 
# 
# 
# High freq. dielectric constant tensor:
#      x y z
#    x 1.951700 0.000000 0.011550 
#    y 0.000000 1.946260 0.000000 
#    z 0.011550 0.000000 1.930960 
# 
# From -- ./inp_files/8011.got.cif
#   From: 2010.03.12/outbox.cif.g09.slc.cpg/sg4_5_cif.got.tgz:8011.got - 2010.03.31 09:31:35.
