data_PCOD8046118
_publ_section_title
;
Structure prediction by ZEFSAII (Michael W. Deem and Ramdas Pophale) SiO2 
 PCOD8046118
Probable space group: P 21
;
_chemical_formula_sum "Si O2"
_cell_formula_units_Z 14
_cell_length_a 17.410228
_cell_length_b 5.008680
_cell_length_c 22.782981
_cell_angle_alpha 90.000000
_cell_angle_beta 18.976437
_cell_angle_gamma 90.000000
_cell_volume 646.042603
_symmetry_space_group_name_H-M "P 21"
_symmetry_group_IT_number 4
_symmetry_cell_setting 'monoclinic'
loop_
_space_group_symop_operation_xyz
x,y,z
-x,1/2+y,-z
loop_
_atom_site_type_symbol
_atom_site_label
_atom_site_fract_x
_atom_site_fract_y
_atom_site_fract_z
Si Si1 0.796043 0.267760 0.442392
Si Si2 0.977222 0.274521 0.670584
Si Si3 0.284499 0.282031 0.765272
Si Si4 0.385960 0.785032 0.966203
Si Si5 0.085508 0.777698 0.864754
Si Si6 0.100474 0.029767 0.399536
Si Si7 0.157601 0.291796 0.080805
O O1 0.908450 0.479329 0.407523
O O2 0.520591 0.308063 0.632564
O O3 0.919855 0.279776 0.290086
O O4 0.829695 0.971476 0.442172
O O5 0.931973 0.369834 0.637498
O O6 0.730048 0.279786 0.884987
O O7 0.263649 0.529912 0.736402
O O8 0.261884 0.029906 0.738115
O O9 0.069498 0.279859 0.965256
O O10 0.654052 0.689699 0.776412
O O11 0.257650 0.588095 0.014174
O O12 0.355374 0.080231 0.960564
O O13 0.908151 0.751470 0.938740
O O14 0.917644 0.279769 0.541171
#
# Coordination Sequence:
#
# PCOD8046118 Si02
#       7
#     2   2   2   2   2   2   2
#     4  10  21  38  61  88 115 154 206 251 299 362
#     4  10  23  42  63  87 122 164 202 249 314 377
#     4  10  21  36  55  82 117 156 194 239 303 367
#     4  10  23  42  63  87 122 164 202 249 314 377
#     4  10  21  36  55  82 117 156 194 239 303 367
#     4  12  26  42  64  98 128 158 212 266 312 370
#     4  10  21  38  61  88 115 154 206 251 299 362
#
# _framework density 21.670399
#
# number of rings (size 3 to 8) (size 9 to 14) (size 15 to 20)
#    0.000    1.714    0.000    3.429    0.000    9.143 
#    0.000    0.000    0.000    0.000    0.000    0.000 
#    0.000    0.000    0.000    0.000    0.000    0.000 
#
# Total GULP energy -173526.318815 kJ/mol
# GULP energy per Si atom -12394.737058 kJ/mol
# Density = 2.162108 g / cm^3
# Si number density = 21.670399 Si / 1000 Ang^3
#
#
#
# Elastic Constant Matrix: (Units=GPa)
#
#
# Indices 1 2 3 4 5 6 
#
# 1 89.1097 34.0009 32.0302 0.0000 -6.5220 0.0000
# 2 34.0009 140.5171 38.8386 0.0000 5.9441 0.0000
# 3 32.0302 38.8386 73.9908 0.0000 -12.4730 0.0000
# 4 0.0000 0.0000 0.0000 25.1366 0.0000 -0.5915
# 5 -6.5220 5.9441 -12.4730 0.0000 18.5043 0.0000
# 6 0.0000 0.0000 0.0000 -0.5915 0.0000 25.6257
#
#
#
# Elastic Compliance Matrix: (Units=1/GPa)
#
#
# Indices 1 2 3 4 5 6 
#
# 1 0.013846 -0.002258 -0.004359 0.000000 0.002668 0.000000
# 2 -0.002258 0.009409 -0.005195 0.000000 -0.007320 0.000000
# 3 -0.004359 -0.005195 0.020478 0.000000 0.013936 0.000000
# 4 0.000000 0.000000 0.000000 0.039804 0.000000 0.000919
# 5 0.002668 -0.007320 0.013936 0.000000 0.066727 0.000000
# 6 0.000000 0.000000 0.000000 0.000919 0.000000 0.039045
#
#
# Mechanical properties :
#
#
# Convention : Reuss Voigt Hill
#
# Bulk Modulus (GPa) = 49.73010 57.03965 53.38487
# Shear Modulus (GPa) = 22.76506 27.10318 24.93412
#
# Velocity S-wave (km/s) = 3.24468 3.54036 3.39574
# Velocity P-wave (km/s) = 6.08568 6.56436 6.32955
#
# Compressibility (1/GPa) = 0.02010855
#
# Stress axis : x y z
#
# Youngs Moduli (GPa) = 72.22423 106.28614 48.83248
#
# Poissons Ratio (x) = 0.24004 0.21284
# Poissons Ratio (y) = 0.16311 0.25368
# Poissons Ratio (z) = 0.31480 0.55215
#
# Static dielectric constant tensor:
#      x y z
#    x 3.667520 0.000000 0.148950 
#    y 0.000000 4.576300 0.000000 
#    z 0.148950 0.000000 3.786500 
# 
# 
# High freq. dielectric constant tensor:
#      x y z
#    x 1.841610 0.000000 -0.001780 
#    y 0.000000 1.879480 0.000000 
#    z -0.001780 0.000000 1.840180 
# 
# From -- ./inp_files/15730.got.cif
#   From: 2010.03.12/outbox.cif.g09.slc.cpg/sg4_8_cif.got.tgz:15730.got - 2010.03.31 09:31:35.
