data_PCOD8046467
_publ_section_title
;
Structure prediction by ZEFSAII (Michael W. Deem and Ramdas Pophale) SiO2 
 PCOD8046467
Probable space group: P 21
;
_chemical_formula_sum "Si O2"
_cell_formula_units_Z 14
_cell_length_a 11.360549
_cell_length_b 11.304800
_cell_length_c 8.790410
_cell_angle_alpha 90.000000
_cell_angle_beta 37.407625
_cell_angle_gamma 90.000000
_cell_volume 685.810976
_symmetry_space_group_name_H-M "P 21"
_symmetry_group_IT_number 4
_symmetry_cell_setting 'monoclinic'
loop_
_space_group_symop_operation_xyz
x,y,z
-x,1/2+y,-z
loop_
_atom_site_type_symbol
_atom_site_label
_atom_site_fract_x
_atom_site_fract_y
_atom_site_fract_z
Si Si1 0.196996 0.125000 0.022704
Si Si2 0.749155 0.944199 0.093048
Si Si3 0.817626 0.760393 0.260531
Si Si4 0.955310 0.313795 0.405541
Si Si5 0.433167 0.766215 0.365148
Si Si6 0.877907 0.358496 0.826406
Si Si7 0.600373 0.205420 0.264888
O O1 0.088382 0.196264 0.268629
O O2 0.144345 0.988778 0.083370
O O3 0.110618 0.177135 0.952403
O O4 0.429481 0.149041 0.796669
O O5 0.763166 0.889657 0.248610
O O6 0.568195 0.880357 0.196045
O O7 0.710829 0.081871 0.138432
O O8 0.949166 0.916731 0.796710
O O9 0.629774 0.695283 0.524428
O O10 0.974804 0.777340 0.228671
O O11 0.741975 0.274023 0.571853
O O12 0.943799 0.365844 0.585872
O O13 0.349883 0.763368 0.622295
O O14 0.674185 0.291593 0.055014
#
# Coordination Sequence:
#
# PCOD8046467 Si02
#       7
#     2   2   2   2   2   2   2
#     4   9  23  44  62  91 131 163 211 266 309 379
#     4   9  21  41  63  92 124 162 214 258 313 378
#     4   9  23  40  65  94 124 159 215 270 312 364
#     4  10  23  43  61  91 130 173 199 259 319 383
#     4   9  21  43  64  86 128 164 206 267 323 356
#     4  12  25  38  67  98 124 170 213 251 327 382
#     4  10  22  37  64  96 117 165 218 259 309 372
#
# _framework density 20.413786999999999
#
# number of rings (size 3 to 8) (size 9 to 14) (size 15 to 20)
#    0.000    2.857    0.000    1.714   14.000    3.429 
#    2.571    0.000    0.000    0.000    0.000    0.000 
#    0.000    0.000    0.000    0.000    0.000    0.000 
#
# Total GULP energy -173532.953538 kJ/mol
# GULP energy per Si atom -12395.210967 kJ/mol
# Density = 2.036732 g / cm^3
# Si number density = 20.413787 Si / 1000 Ang^3
#
#
#
# Elastic Constant Matrix: (Units=GPa)
#
#
# Indices 1 2 3 4 5 6 
#
# 1 80.9385 31.6558 50.0016 0.0000 -4.8596 0.0000
# 2 31.6558 96.3144 29.9059 0.0000 -1.5225 0.0000
# 3 50.0016 29.9059 95.8550 0.0000 -2.1509 0.0000
# 4 0.0000 0.0000 0.0000 29.9056 0.0000 -3.3365
# 5 -4.8596 -1.5225 -2.1509 0.0000 21.5144 0.0000
# 6 0.0000 0.0000 0.0000 -3.3365 0.0000 16.6886
#
#
#
# Elastic Compliance Matrix: (Units=1/GPa)
#
#
# Indices 1 2 3 4 5 6 
#
# 1 0.019495 -0.003567 -0.008984 0.000000 0.003253 0.000000
# 2 -0.003567 0.012153 -0.001934 0.000000 -0.000139 0.000000
# 3 -0.008984 -0.001934 0.015709 0.000000 -0.000596 0.000000
# 4 0.000000 0.000000 0.000000 0.034201 0.000000 0.006838
# 5 0.003253 -0.000139 -0.000596 0.000000 0.047146 0.000000
# 6 0.000000 0.000000 0.000000 0.006838 0.000000 0.061288
#
#
# Mechanical properties :
#
#
# Convention : Reuss Voigt Hill
#
# Bulk Modulus (GPa) = 54.38337 55.13717 54.76027
# Shear Modulus (GPa) = 22.21322 24.39138 23.30230
#
# Velocity S-wave (km/s) = 3.30229 3.46041 3.38227
# Velocity P-wave (km/s) = 6.42172 6.56005 6.49125
#
# Compressibility (1/GPa) = 0.01838797
#
# Stress axis : x y z
#
# Youngs Moduli (GPa) = 51.29474 82.28193 63.65862
#
# Poissons Ratio (x) = 0.29347 0.57189
# Poissons Ratio (y) = 0.18295 0.12314
# Poissons Ratio (z) = 0.46082 0.15916
#
# Static dielectric constant tensor:
#      x y z
#    x 3.378530 0.000000 -0.142950 
#    y 0.000000 3.521800 0.000000 
#    z -0.142950 0.000000 3.943850 
# 
# 
# High freq. dielectric constant tensor:
#      x y z
#    x 1.769460 0.000000 -0.016230 
#    y 0.000000 1.790410 0.000000 
#    z -0.016230 0.000000 1.809510 
# 
# From -- ./inp_files/8290.got.cif
#   From: 2010.03.12/outbox.cif.g09.slc.cpg/sg4_5_cif.got.tgz:8290.got - 2010.03.31 09:31:35.
