data_PCOD8046213
_publ_section_title
;
Structure prediction by ZEFSAII (Michael W. Deem and Ramdas Pophale) SiO2 
 PCOD8046213
Probable space group: P 21
;
_chemical_formula_sum "Si O2"
_cell_formula_units_Z 16
_cell_length_a 5.259083
_cell_length_b 13.272010
_cell_length_c 11.276373
_cell_angle_alpha 90.000000
_cell_angle_beta 105.919873
_cell_angle_gamma 90.000000
_cell_volume 756.887776
_symmetry_space_group_name_H-M "P 21"
_symmetry_group_IT_number 4
_symmetry_cell_setting 'monoclinic'
loop_
_space_group_symop_operation_xyz
x,y,z
-x,1/2+y,-z
loop_
_atom_site_type_symbol
_atom_site_label
_atom_site_fract_x
_atom_site_fract_y
_atom_site_fract_z
Si Si1 0.159978 0.942500 0.905498
Si Si2 0.426160 0.196628 0.573003
Si Si3 0.973951 0.274085 0.670958
Si Si4 0.237188 0.154818 0.298305
Si Si5 0.967020 0.460630 0.845216
Si Si6 0.201483 0.597619 0.214374
Si Si7 0.409271 0.592783 0.996714
Si Si8 0.661144 0.247502 0.195315
O O1 0.308988 0.861408 0.844622
O O2 0.122465 0.912057 0.039495
O O3 0.891588 0.979765 0.803730
O O4 0.324992 0.044757 0.921402
O O5 0.678805 0.268698 0.575086
O O6 0.314282 0.137837 0.444883
O O7 0.524186 0.108615 0.676275
O O8 0.200470 0.269109 0.599906
O O9 0.998221 0.375416 0.750352
O O10 0.013362 0.175276 0.758539
O O11 0.455756 0.233792 0.276727
O O12 0.949352 0.204182 0.259421
O O13 0.236470 0.048079 0.227393
O O14 0.253125 0.510451 0.897827
O O15 0.235004 0.632862 0.083121
O O16 0.481555 0.689346 0.929352
#
# Coordination Sequence:
#
# PCOD8046213 Si02
#       8
#     2   2   2   2   2   2   2   2
#     4  11  22  40  67 103 135 178 229 278 359 407
#     4  10  23  44  67  90 137 177 222 283 331 399
#     4  10  22  41  67 100 127 177 228 278 331 406
#     4  11  24  48  66  98 140 178 227 280 348 403
#     4  10  23  40  69 101 130 180 229 282 347 423
#     4   9  22  39  63  99 134 168 221 277 334 400
#     4  10  21  39  64  97 137 168 222 284 344 401
#     4  11  25  41  69  96 138 178 220 290 338 413
#
# _framework density 21.139196999999999
#
# number of rings (size 3 to 8) (size 9 to 14) (size 15 to 20)
#    0.750    1.000    1.250    2.250    5.250    1.000 
#    2.250    2.500    0.000    0.000    0.000    0.000 
#    0.000    0.000    0.000    0.000    0.000    0.000 
#
# Total GULP energy -198236.498564 kJ/mol
# GULP energy per Si atom -12389.781160 kJ/mol
# Density = 2.109108 g / cm^3
# Si number density = 21.139197 Si / 1000 Ang^3
#
#
#
# Elastic Constant Matrix: (Units=GPa)
#
#
# Indices 1 2 3 4 5 6 
#
# 1 118.5874 23.8048 32.3955 0.0000 0.3330 0.0000
# 2 23.8048 74.1053 47.9628 0.0000 0.2012 0.0000
# 3 32.3955 47.9628 106.8993 0.0000 5.5828 0.0000
# 4 0.0000 0.0000 0.0000 23.7148 0.0000 -3.9323
# 5 0.3330 0.2012 5.5828 0.0000 23.0931 0.0000
# 6 0.0000 0.0000 0.0000 -3.9323 0.0000 29.1814
#
#
#
# Elastic Compliance Matrix: (Units=1/GPa)
#
#
# Indices 1 2 3 4 5 6 
#
# 1 0.009337 -0.001629 -0.002119 0.000000 0.000392 0.000000
# 2 -0.001629 0.019385 -0.008301 0.000000 0.001861 0.000000
# 3 -0.002119 -0.008301 0.013891 0.000000 -0.003255 0.000000
# 4 0.000000 0.000000 0.000000 0.043131 0.000000 0.005812
# 5 0.000392 0.001861 -0.003255 0.000000 0.044068 0.000000
# 6 0.000000 0.000000 0.000000 0.005812 0.000000 0.035052
#
#
# Mechanical properties :
#
#
# Convention : Reuss Voigt Hill
#
# Bulk Modulus (GPa) = 54.00943 56.43535 55.22239
# Shear Modulus (GPa) = 25.62320 28.22647 26.92483
#
# Velocity S-wave (km/s) = 3.48533 3.65809 3.57275
# Velocity P-wave (km/s) = 6.46541 6.67811 6.57262
#
# Compressibility (1/GPa) = 0.01851529
#
# Stress axis : x y z
#
# Youngs Moduli (GPa) = 107.09598 51.58561 71.98706
#
# Poissons Ratio (x) = 0.08402 0.15256
# Poissons Ratio (y) = 0.17444 0.59758
# Poissons Ratio (z) = 0.22697 0.42822
#
# Static dielectric constant tensor:
#      x y z
#    x 3.879600 0.000000 0.033720 
#    y 0.000000 3.533680 0.000000 
#    z 0.033720 0.000000 3.762610 
# 
# 
# High freq. dielectric constant tensor:
#      x y z
#    x 1.837040 0.000000 0.001570 
#    y 0.000000 1.804630 0.000000 
#    z 0.001570 0.000000 1.823710 
# 
# From -- ./inp_files/10433.got.cif
#   From: 2010.03.12/outbox.cif.g09.slc.cpg/sg4_6_cif.got.tgz:10433.got - 2010.03.31 09:31:35.
