data_PCOD8046667
_publ_section_title
;
Structure prediction by ZEFSAII (Michael W. Deem and Ramdas Pophale) SiO2 
 PCOD8046667
Probable space group: P 21
;
_chemical_formula_sum "Si O2"
_cell_formula_units_Z 14
_cell_length_a 9.378087
_cell_length_b 7.686931
_cell_length_c 12.552687
_cell_angle_alpha 90.000000
_cell_angle_beta 38.220067
_cell_angle_gamma 90.000000
_cell_volume 559.851103
_symmetry_space_group_name_H-M "P 21"
_symmetry_group_IT_number 4
_symmetry_cell_setting 'monoclinic'
loop_
_space_group_symop_operation_xyz
x,y,z
-x,1/2+y,-z
loop_
_atom_site_type_symbol
_atom_site_label
_atom_site_fract_x
_atom_site_fract_y
_atom_site_fract_z
Si Si1 0.619664 0.633930 0.861813
Si Si2 0.183353 0.713427 0.011587
Si Si3 0.794399 0.533508 0.366470
Si Si4 0.138390 0.698783 0.531815
Si Si5 0.792190 0.923250 0.159688
Si Si6 0.511214 0.760976 0.148069
Si Si7 0.612902 0.900306 0.490560
O O1 0.553545 0.442723 0.865848
O O2 0.867130 0.683337 0.668519
O O3 0.427750 0.763040 0.921664
O O4 0.609918 0.640226 0.996036
O O5 0.043485 0.590863 0.176661
O O6 0.043921 0.885778 0.062429
O O7 0.219553 0.615715 0.878979
O O8 0.821245 0.386658 0.439784
O O9 0.670232 0.703764 0.493318
O O10 0.654600 0.462529 0.342310
O O11 0.280638 0.682459 0.338127
O O12 0.210258 0.537257 0.563713
O O13 0.713002 0.782974 0.117124
O O14 0.615227 0.908039 0.360182
#
# Coordination Sequence:
#
# PCOD8046667 Si02
#       7
#     2   2   2   2   2   2   2
#     4  11  28  49  75 110 162 206 264 330 393 486
#     4  10  24  42  71 108 148 199 255 329 395 458
#     4  11  22  44  71 110 154 196 261 327 387 469
#     4  12  25  49  81 109 159 209 258 328 401 473
#     4  10  22  43  71 106 146 187 266 318 388 468
#     4  11  26  52  73 113 151 207 265 325 404 472
#     4  11  23  43  76 114 152 196 259 333 390 462
#
# _framework density 25.006647999999998
#
# number of rings (size 3 to 8) (size 9 to 14) (size 15 to 20)
#    0.000    1.143    2.857    2.571    8.000    2.286 
#    2.571    0.000    0.000    0.000    0.000    0.000 
#    0.000    0.000    0.000    0.000    0.000    0.000 
#
# Total GULP energy -173560.301247 kJ/mol
# GULP energy per Si atom -12397.164375 kJ/mol
# Density = 2.494973 g / cm^3
# Si number density = 25.006648 Si / 1000 Ang^3
#
#
#
# Elastic Constant Matrix: (Units=GPa)
#
#
# Indices 1 2 3 4 5 6 
#
# 1 114.8815 17.4858 23.6501 0.0000 -20.0679 0.0000
# 2 17.4858 94.5749 -10.2925 0.0000 1.5872 0.0000
# 3 23.6501 -10.2925 68.5014 0.0000 -10.5024 0.0000
# 4 0.0000 0.0000 0.0000 28.5369 0.0000 6.0777
# 5 -20.0679 1.5872 -10.5024 0.0000 55.0642 0.0000
# 6 0.0000 0.0000 0.0000 6.0777 0.0000 35.6560
#
#
#
# Elastic Compliance Matrix: (Units=1/GPa)
#
#
# Indices 1 2 3 4 5 6 
#
# 1 0.010320 -0.002334 -0.003427 0.000000 0.003175 0.000000
# 2 -0.002334 0.011277 0.002390 0.000000 -0.000720 0.000000
# 3 -0.003427 0.002390 0.016419 0.000000 0.001814 0.000000
# 4 0.000000 0.000000 0.000000 0.036362 0.000000 -0.006198
# 5 0.003175 -0.000720 0.001814 0.000000 0.019684 0.000000
# 6 0.000000 0.000000 0.000000 -0.006198 0.000000 0.029102
#
#
# Mechanical properties :
#
#
# Convention : Reuss Voigt Hill
#
# Bulk Modulus (GPa) = 31.97603 37.73829 34.85716
# Shear Modulus (GPa) = 35.62981 40.32572 37.97776
#
# Velocity S-wave (km/s) = 3.77877 4.02008 3.90129
# Velocity P-wave (km/s) = 5.64389 6.05575 5.85344
#
# Compressibility (1/GPa) = 0.03127343
#
# Stress axis : x y z
#
# Youngs Moduli (GPa) = 96.89940 88.67296 60.90665
#
# Poissons Ratio (x) = 0.20699 0.20873
# Poissons Ratio (y) = 0.22619 -0.14557
# Poissons Ratio (z) = 0.33207 -0.21193
#
# Static dielectric constant tensor:
#      x y z
#    x 4.684480 0.000000 -0.153000 
#    y 0.000000 4.428360 0.000000 
#    z -0.153000 0.000000 4.743240 
# 
# 
# High freq. dielectric constant tensor:
#      x y z
#    x 1.997800 0.000000 -0.012920 
#    y 0.000000 1.990810 0.000000 
#    z -0.012920 0.000000 1.999550 
# 
# From -- ./inp_files/10785.got.cif
#   From: 2010.03.12/outbox.cif.g09.slc.cpg/sg4_6_cif.got.tgz:10785.got - 2010.03.31 09:31:35.
