data_PCOD8046114
_publ_section_title
;
Structure prediction by ZEFSAII (Michael W. Deem and Ramdas Pophale) SiO2 
 PCOD8046114
Probable space group: P 21
;
_chemical_formula_sum "Si O2"
_cell_formula_units_Z 16
_cell_length_a 13.861472
_cell_length_b 4.974572
_cell_length_c 11.585521
_cell_angle_alpha 90.000000
_cell_angle_beta 110.168919
_cell_angle_gamma 90.000000
_cell_volume 749.891270
_symmetry_space_group_name_H-M "P 21"
_symmetry_group_IT_number 4
_symmetry_cell_setting 'monoclinic'
loop_
_space_group_symop_operation_xyz
x,y,z
-x,1/2+y,-z
loop_
_atom_site_type_symbol
_atom_site_label
_atom_site_fract_x
_atom_site_fract_y
_atom_site_fract_z
Si Si1 0.578916 0.251560 0.909726
Si Si2 0.088953 0.968841 0.266300
Si Si3 0.061313 0.803779 0.492067
Si Si4 0.052863 0.430855 0.978954
Si Si5 0.557299 0.255006 0.159943
Si Si6 0.744527 0.828672 0.592407
Si Si7 0.242358 0.630407 0.179217
Si Si8 0.716474 0.341757 0.427652
O O1 0.487178 0.456494 0.840037
O O2 0.673839 0.288887 0.861895
O O3 0.539871 0.950336 0.875445
O O4 0.612961 0.287682 0.057986
O O5 0.076903 0.749229 0.361864
O O6 0.135277 0.246949 0.337680
O O7 0.977724 0.029341 0.163139
O O8 0.172050 0.856095 0.209519
O O9 0.974966 0.031710 0.464938
O O10 0.172385 0.902604 0.586612
O O11 0.172335 0.455274 0.061351
O O12 0.017789 0.120463 0.968774
O O13 0.633346 0.336267 0.293277
O O14 0.704573 0.937429 0.701125
O O15 0.727101 0.050099 0.488494
O O16 0.688404 0.560350 0.516832
#
# Coordination Sequence:
#
# PCOD8046114 Si02
#       8
#     2   2   2   2   2   2   2   2
#     4  10  24  42  73  92 127 161 217 269 338 373
#     4  10  22  40  60  88 133 167 206 262 313 373
#     4  11  23  37  60  90 123 169 207 247 303 373
#     4  10  21  34  58  89 124 164 201 249 308 369
#     4  10  23  48  65  96 124 169 208 274 322 396
#     4  11  20  38  65  90 125 173 200 262 321 375
#     4  11  22  40  66  96 126 170 212 271 321 387
#     4  11  23  41  69  87 130 171 211 258 324 380
#
# _framework density 21.336427
#
# number of rings (size 3 to 8) (size 9 to 14) (size 15 to 20)
#    0.000    1.500    3.750    2.250    1.750    1.000 
#    0.000    7.500    0.000    0.000    0.000    0.000 
#    0.000    0.000    0.000    0.000    0.000    0.000 
#
# Total GULP energy -198235.637190 kJ/mol
# GULP energy per Si atom -12389.727324 kJ/mol
# Density = 2.128786 g / cm^3
# Si number density = 21.336427 Si / 1000 Ang^3
#
#
#
# Elastic Constant Matrix: (Units=GPa)
#
#
# Indices 1 2 3 4 5 6 
#
# 1 92.2572 14.9981 45.0068 0.0000 -13.3801 0.0000
# 2 14.9981 90.3266 25.6601 0.0000 -3.9800 0.0000
# 3 45.0068 25.6601 159.8212 0.0000 18.5127 0.0000
# 4 0.0000 0.0000 0.0000 36.1538 0.0000 -3.4811
# 5 -13.3801 -3.9800 18.5127 0.0000 26.8592 0.0000
# 6 0.0000 0.0000 0.0000 -3.4811 0.0000 23.2187
#
#
#
# Elastic Compliance Matrix: (Units=1/GPa)
#
#
# Indices 1 2 3 4 5 6 
#
# 1 0.015263 -0.000460 -0.005539 0.000000 0.011353 0.000000
# 2 -0.000460 0.011883 -0.002125 0.000000 0.002996 0.000000
# 3 -0.005539 -0.002125 0.009253 0.000000 -0.009452 0.000000
# 4 0.000000 0.000000 0.000000 0.028065 0.000000 0.004208
# 5 0.011353 0.002996 -0.009452 0.000000 0.049846 0.000000
# 6 0.000000 0.000000 0.000000 0.004208 0.000000 0.043700
#
#
# Mechanical properties :
#
#
# Convention : Reuss Voigt Hill
#
# Bulk Modulus (GPa) = 49.63030 57.08169 53.35599
# Shear Modulus (GPa) = 27.62803 34.36233 30.99518
#
# Velocity S-wave (km/s) = 3.60234 4.01746 3.81555
# Velocity P-wave (km/s) = 6.37290 6.95206 6.66877
#
# Compressibility (1/GPa) = 0.02014898
#
# Stress axis : x y z
#
# Youngs Moduli (GPa) = 65.51801 84.15256 108.07305
#
# Poissons Ratio (x) = 0.03875 0.59865
# Poissons Ratio (y) = 0.03017 0.22969
# Poissons Ratio (z) = 0.36293 0.17885
#
# Static dielectric constant tensor:
#      x y z
#    x 3.565580 0.000000 -0.017330 
#    y 0.000000 3.982670 0.000000 
#    z -0.017330 0.000000 4.174560 
# 
# 
# High freq. dielectric constant tensor:
#      x y z
#    x 1.790370 0.000000 0.001090 
#    y 0.000000 1.852250 0.000000 
#    z 0.001090 0.000000 1.847230 
# 
# From -- ./inp_files/11634.got.cif
#   From: 2010.03.12/outbox.cif.g09.slc.cpg/sg4_6_cif.got.tgz:11634.got - 2010.03.31 09:31:35.
