data_PCOD8046811
_publ_section_title
;
Structure prediction by ZEFSAII (Michael W. Deem and Ramdas Pophale) SiO2 
 PCOD8046811
Probable space group: P 21
;
_chemical_formula_sum "Si O2"
_cell_formula_units_Z 14
_cell_length_a 9.463056
_cell_length_b 7.635112
_cell_length_c 10.891559
_cell_angle_alpha 90.000000
_cell_angle_beta 135.838120
_cell_angle_gamma 90.000000
_cell_volume 548.245638
_symmetry_space_group_name_H-M "P 21"
_symmetry_group_IT_number 4
_symmetry_cell_setting 'monoclinic'
loop_
_space_group_symop_operation_xyz
x,y,z
-x,1/2+y,-z
loop_
_atom_site_type_symbol
_atom_site_label
_atom_site_fract_x
_atom_site_fract_y
_atom_site_fract_z
Si Si1 0.067340 0.118250 0.007021
Si Si2 0.386940 0.387097 0.821507
Si Si3 0.711674 0.124099 0.620746
Si Si4 0.432748 0.266587 0.110454
Si Si5 0.149970 0.307203 0.443874
Si Si6 0.175232 0.778195 0.948750
Si Si7 0.612728 0.471937 0.416940
O O1 0.933646 0.169495 0.806221
O O2 0.132771 0.918497 0.029701
O O3 0.270044 0.236174 0.119609
O O4 0.952512 0.119862 0.068209
O O5 0.447778 0.589352 0.847842
O O6 0.189947 0.342660 0.614197
O O7 0.323489 0.345228 0.921524
O O8 0.581875 0.261477 0.911678
O O9 0.631324 0.292251 0.501486
O O10 0.706522 0.950257 0.532305
O O11 0.578421 0.084061 0.657061
O O12 0.585326 0.414633 0.257499
O O13 0.920180 0.326018 0.245953
O O14 0.199580 0.103426 0.450173
#
# Coordination Sequence:
#
# PCOD8046811 Si02
#       7
#     2   2   2   2   2   2   2
#     4  10  23  41  65  99 140 174 234 293 351 411
#     4  11  24  47  69  98 145 189 236 290 349 428
#     4  11  23  40  67 101 141 182 230 290 352 417
#     4  11  24  45  70 100 141 188 235 288 359 418
#     4  11  23  43  66  99 141 181 233 290 349 418
#     4  10  24  42  69 102 137 184 233 294 353 418
#     4  12  23  40  70 103 139 182 231 287 359 416
#
# _framework density 25.535997999999999
#
# number of rings (size 3 to 8) (size 9 to 14) (size 15 to 20)
#    0.000    1.143    2.857    3.429    2.000    1.143 
#    2.571    0.000    0.000    0.000    0.000    0.000 
#    0.000    0.000    0.000    0.000    0.000    0.000 
#
# Total GULP energy -173470.805011 kJ/mol
# GULP energy per Si atom -12390.771787 kJ/mol
# Density = 2.547788 g / cm^3
# Si number density = 25.535998 Si / 1000 Ang^3
#
#
#
# Elastic Constant Matrix: (Units=GPa)
#
#
# Indices 1 2 3 4 5 6 
#
# 1 26.1470 7.9892 -0.1621 0.0000 -15.0256 0.0000
# 2 7.9892 116.6428 30.3092 0.0000 -13.9653 0.0000
# 3 -0.1621 30.3092 111.1995 0.0000 -18.0603 0.0000
# 4 0.0000 0.0000 0.0000 40.4430 0.0000 -8.5689
# 5 -15.0256 -13.9653 -18.0603 0.0000 31.9133 0.0000
# 6 0.0000 0.0000 0.0000 -8.5689 0.0000 26.5845
#
#
#
# Elastic Compliance Matrix: (Units=1/GPa)
#
#
# Indices 1 2 3 4 5 6 
#
# 1 0.054874 -0.001735 0.005094 0.000000 0.027960 0.000000
# 2 -0.001735 0.009528 -0.002263 0.000000 0.002072 0.000000
# 3 0.005094 -0.002263 0.010842 0.000000 0.007544 0.000000
# 4 0.000000 0.000000 0.000000 0.026539 0.000000 0.008554
# 5 0.027960 0.002072 0.007544 0.000000 0.049675 0.000000
# 6 0.000000 0.000000 0.000000 0.008554 0.000000 0.040373
#
#
# Mechanical properties :
#
#
# Convention : Reuss Voigt Hill
#
# Bulk Modulus (GPa) = 12.91367 36.69576 24.80472
# Shear Modulus (GPa) = 23.20707 34.17834 28.69270
#
# Velocity S-wave (km/s) = 3.01790 3.66244 3.35568
# Velocity P-wave (km/s) = 4.14869 5.68208 4.97482
#
# Compressibility (1/GPa) = 0.07743729
#
# Stress axis : x y z
#
# Youngs Moduli (GPa) = 18.22345 104.95250 92.23119
#
# Poissons Ratio (x) = 0.18204 -0.46981
# Poissons Ratio (y) = 0.03161 0.20872
# Poissons Ratio (z) = -0.09283 0.23751
#
# Static dielectric constant tensor:
#      x y z
#    x 4.303150 0.000000 -0.128280 
#    y 0.000000 4.760630 0.000000 
#    z -0.128280 0.000000 4.552490 
# 
# 
# High freq. dielectric constant tensor:
#      x y z
#    x 1.983420 0.000000 -0.011040 
#    y 0.000000 2.034600 0.000000 
#    z -0.011040 0.000000 2.028390 
# 
# From -- ./inp_files/12135.got.cif
#   From: 2010.03.12/outbox.cif.g09.slc.cpg/sg4_7_cif.got.tgz:12135.got - 2010.03.31 09:31:35.
