data_PCOD8046133
_publ_section_title
;
Structure prediction by ZEFSAII (Michael W. Deem and Ramdas Pophale) SiO2 
 PCOD8046133
Probable space group: P 21
;
_chemical_formula_sum "Si O2"
_cell_formula_units_Z 16
_cell_length_a 5.249386
_cell_length_b 12.346144
_cell_length_c 12.372541
_cell_angle_alpha 90.000000
_cell_angle_beta 129.110235
_cell_angle_gamma 90.000000
_cell_volume 622.190509
_symmetry_space_group_name_H-M "P 21"
_symmetry_group_IT_number 4
_symmetry_cell_setting 'monoclinic'
loop_
_space_group_symop_operation_xyz
x,y,z
-x,1/2+y,-z
loop_
_atom_site_type_symbol
_atom_site_label
_atom_site_fract_x
_atom_site_fract_y
_atom_site_fract_z
Si Si1 0.764657 0.139060 0.645691
Si Si2 0.229111 0.144199 0.350183
Si Si3 0.055273 0.076826 0.937137
Si Si4 0.773163 0.340496 0.947194
Si Si5 0.729112 0.775151 0.350183
Si Si6 0.273165 0.578853 0.947194
Si Si7 0.555277 0.842523 0.937138
Si Si8 0.735342 0.280289 0.354309
O O1 0.505261 0.079333 0.494844
O O2 0.558261 0.235214 0.646842
O O3 0.894604 0.061802 0.775842
O O4 0.076983 0.179630 0.660729
O O5 0.423014 0.239720 0.339270
O O6 0.941736 0.184135 0.353156
O O7 0.051906 0.069530 0.213757
O O8 0.071147 0.959803 0.998214
O O9 0.413253 0.137200 0.027748
O O10 0.808918 0.136469 0.957824
O O11 0.691079 0.282879 0.042175
O O12 0.086743 0.282149 0.972250
O O13 0.448090 0.349820 0.786243
O O14 0.005262 0.840016 0.494844
O O15 0.428849 0.459545 0.001784
O O16 0.394608 0.857546 0.775843
#
# Coordination Sequence:
#
# PCOD8046133 Si02
#       8
#     2   2   2   2   2   2   2   2
#     4  10  21  37  58  84 113 146 185 231 281 331
#     4  10  21  37  58  84 113 146 185 231 281 331
#     4  10  21  37  55  82 115 148 187 226 276 335
#     4  10  21  37  55  82 115 148 187 226 276 335
#     4  10  21  37  58  84 113 146 185 231 281 331
#     4  10  21  37  55  82 115 148 187 226 276 335
#     4  10  21  37  55  82 115 148 187 226 276 335
#     4  10  21  37  58  84 113 146 185 231 281 331
#
# _framework density 25.715596999999999
#
# number of rings (size 3 to 8) (size 9 to 14) (size 15 to 20)
#    0.000    2.000    0.000    3.000    0.000    6.000 
#    0.000   10.000    0.000    0.000    0.000    0.000 
#    0.000    0.000    0.000    0.000    0.000    0.000 
#
# Total GULP energy -198281.795753 kJ/mol
# GULP energy per Si atom -12392.612235 kJ/mol
# Density = 2.565707 g / cm^3
# Si number density = 25.715597 Si / 1000 Ang^3
#
#
#
# Elastic Constant Matrix: (Units=GPa)
#
#
# Indices 1 2 3 4 5 6 
#
# 1 196.3626 16.9396 41.0056 0.0000 -0.5323 0.0000
# 2 16.9396 17.8815 17.6408 0.0000 8.3785 0.0000
# 3 41.0056 17.6408 264.3081 0.0000 3.2239 0.0000
# 4 0.0000 0.0000 0.0000 39.5083 0.0000 -2.0185
# 5 -0.5323 8.3785 3.2239 0.0000 44.1837 0.0000
# 6 0.0000 0.0000 0.0000 -2.0185 0.0000 12.8319
#
#
#
# Elastic Compliance Matrix: (Units=1/GPa)
#
#
# Indices 1 2 3 4 5 6 
#
# 1 0.005671 -0.005372 -0.000535 0.000000 0.001126 0.000000
# 2 -0.005372 0.070902 -0.003737 0.000000 -0.013237 0.000000
# 3 -0.000535 -0.003737 0.004111 0.000000 0.000402 0.000000
# 4 0.000000 0.000000 0.000000 0.025516 0.000000 0.004014
# 5 0.001126 -0.013237 0.000402 0.000000 0.025127 0.000000
# 6 0.000000 0.000000 0.000000 0.004014 0.000000 0.078562
#
#
# Mechanical properties :
#
#
# Convention : Reuss Voigt Hill
#
# Bulk Modulus (GPa) = 16.28785 69.96937 43.12861
# Shear Modulus (GPa) = 20.02856 46.16918 33.09887
#
# Velocity S-wave (km/s) = 2.79381 4.24178 3.59153
# Velocity P-wave (km/s) = 4.09326 7.15949 5.83151
#
# Compressibility (1/GPa) = 0.06139544
#
# Stress axis : x y z
#
# Youngs Moduli (GPa) = 176.34152 14.10393 243.24989
#
# Poissons Ratio (x) = 0.07577 0.13013
# Poissons Ratio (y) = 0.94730 0.90911
# Poissons Ratio (z) = 0.09434 0.05271
#
# Static dielectric constant tensor:
#      x y z
#    x 5.522220 0.000000 0.037700 
#    y 0.000000 4.539170 0.000000 
#    z 0.037700 0.000000 5.244580 
# 
# 
# High freq. dielectric constant tensor:
#      x y z
#    x 2.086190 0.000000 0.001560 
#    y 0.000000 1.986770 0.000000 
#    z 0.001560 0.000000 2.042090 
# 
# From -- ./inp_files/3193.got.cif
#   From: 2010.03.12/outbox.cif.g09.slc.cpg/sg4_2_cif.got.tgz:3193.got - 2010.03.31 09:31:35.
