data_PCOD8046477
_publ_section_title
;
Structure prediction by ZEFSAII (Michael W. Deem and Ramdas Pophale) SiO2 
 PCOD8046477
Probable space group: P 21
;
_chemical_formula_sum "Si O2"
_cell_formula_units_Z 16
_cell_length_a 20.447749
_cell_length_b 7.336618
_cell_length_c 14.297684
_cell_angle_alpha 90.000000
_cell_angle_beta 20.661540
_cell_angle_gamma 90.000000
_cell_volume 756.821296
_symmetry_space_group_name_H-M "P 21"
_symmetry_group_IT_number 4
_symmetry_cell_setting 'monoclinic'
loop_
_space_group_symop_operation_xyz
x,y,z
-x,1/2+y,-z
loop_
_atom_site_type_symbol
_atom_site_label
_atom_site_fract_x
_atom_site_fract_y
_atom_site_fract_z
Si Si1 0.615493 0.915770 0.674266
Si Si2 0.661879 0.124106 0.909634
Si Si3 0.559834 0.909964 0.537974
Si Si4 0.700789 0.708513 0.876938
Si Si5 0.332629 0.568530 0.789382
Si Si6 0.734809 0.705438 0.041083
Si Si7 0.096891 0.568855 0.575264
Si Si8 0.939517 0.216903 0.704842
O O1 0.660389 0.902987 0.503706
O O2 0.808314 0.961645 0.466430
O O3 0.536894 0.723690 0.817449
O O4 0.470811 0.072840 0.894049
O O5 0.779050 0.189929 0.842627
O O6 0.627192 0.908105 0.946252
O O7 0.759722 0.181442 0.681208
O O8 0.502619 0.708207 0.578728
O O9 0.689898 0.019604 0.290661
O O10 0.367550 0.015943 0.805126
O O11 0.864345 0.629503 0.590897
O O12 0.788347 0.732083 0.861624
O O13 0.390210 0.376692 0.760319
O O14 0.136329 0.632882 0.095958
O O15 0.932725 0.701671 0.832247
O O16 0.983618 0.429792 0.658929
#
# Coordination Sequence:
#
# PCOD8046477 Si02
#       8
#     2   2   2   2   2   2   2   2
#     4  11  25  44  59  93 144 167 205 262 326 385
#     4  11  22  39  64  91 129 170 206 260 312 376
#     4  11  23  42  67  94 125 164 219 276 310 371
#     4  10  22  38  62  98 125 166 213 258 317 379
#     4  12  22  39  69  98 117 168 219 273 318 356
#     4  11  20  38  66  91 125 162 216 262 309 379
#     4  11  25  39  61  99 133 170 207 256 323 398
#     4  11  21  39  64  96 122 163 219 261 305 376
#
# _framework density 21.141052999999999
#
# number of rings (size 3 to 8) (size 9 to 14) (size 15 to 20)
#    0.000    1.000    6.250    0.750    7.000    0.000 
#    2.250    1.250    0.000    0.000    0.000    0.000 
#    0.000    0.000    0.000    0.000    0.000    0.000 
#
# Total GULP energy -198316.233897 kJ/mol
# GULP energy per Si atom -12394.764619 kJ/mol
# Density = 2.109294 g / cm^3
# Si number density = 21.141053 Si / 1000 Ang^3
#
#
#
# Elastic Constant Matrix: (Units=GPa)
#
#
# Indices 1 2 3 4 5 6 
#
# 1 88.5075 27.4433 43.9100 0.0000 18.4217 0.0000
# 2 27.4433 81.6091 18.6803 0.0000 -1.9400 0.0000
# 3 43.9100 18.6803 64.0638 0.0000 16.8201 0.0000
# 4 0.0000 0.0000 0.0000 36.7136 0.0000 5.2927
# 5 18.4217 -1.9400 16.8201 0.0000 36.5568 0.0000
# 6 0.0000 0.0000 0.0000 5.2927 0.0000 24.6988
#
#
#
# Elastic Compliance Matrix: (Units=1/GPa)
#
#
# Indices 1 2 3 4 5 6 
#
# 1 0.018706 -0.004033 -0.010366 0.000000 -0.004871 0.000000
# 2 -0.004033 0.014256 -0.002417 0.000000 0.003901 0.000000
# 3 -0.010366 -0.002417 0.025115 0.000000 -0.006460 0.000000
# 4 0.000000 0.000000 0.000000 0.028106 0.000000 -0.006023
# 5 -0.004871 0.003901 -0.006460 0.000000 0.032989 0.000000
# 6 0.000000 0.000000 0.000000 -0.006023 0.000000 0.041778
#
#
# Mechanical properties :
#
#
# Convention : Reuss Voigt Hill
#
# Bulk Modulus (GPa) = 40.90864 46.02749 43.46806
# Shear Modulus (GPa) = 24.66334 29.20364 26.93349
#
# Velocity S-wave (km/s) = 3.41927 3.72071 3.57317
# Velocity P-wave (km/s) = 5.91446 6.34643 6.13425
#
# Compressibility (1/GPa) = 0.02444472
#
# Stress axis : x y z
#
# Youngs Moduli (GPa) = 53.45973 70.14741 39.81629
#
# Poissons Ratio (x) = 0.28292 0.41274
# Poissons Ratio (y) = 0.21562 0.09622
# Poissons Ratio (z) = 0.55417 0.16951
#
# Static dielectric constant tensor:
#      x y z
#    x 3.761970 0.000000 0.338080 
#    y 0.000000 3.939850 0.000000 
#    z 0.338080 0.000000 3.757410 
# 
# 
# High freq. dielectric constant tensor:
#      x y z
#    x 1.806740 0.000000 0.025200 
#    y 0.000000 1.839260 0.000000 
#    z 0.025200 0.000000 1.810950 
# 
# From -- ./inp_files/7568.got.cif
#   From: 2010.03.12/outbox.cif.g09.slc.cpg/sg4_4_cif.got.tgz:7568.got - 2010.03.31 09:31:35.
