data_PCOD8046927
_publ_section_title
;
Structure prediction by ZEFSAII (Michael W. Deem and Ramdas Pophale) SiO2 
 PCOD8046927
Probable space group: P 21
;
_chemical_formula_sum "Si O2"
_cell_formula_units_Z 16
_cell_length_a 11.708981
_cell_length_b 11.819190
_cell_length_c 6.581043
_cell_angle_alpha 90.000000
_cell_angle_beta 130.221333
_cell_angle_gamma 90.000000
_cell_volume 695.412095
_symmetry_space_group_name_H-M "P 21"
_symmetry_group_IT_number 4
_symmetry_cell_setting 'monoclinic'
loop_
_space_group_symop_operation_xyz
x,y,z
-x,1/2+y,-z
loop_
_atom_site_type_symbol
_atom_site_label
_atom_site_fract_x
_atom_site_fract_y
_atom_site_fract_z
Si Si1 0.466502 0.872160 0.983502
Si Si2 0.037726 0.257434 0.760599
Si Si3 0.418435 0.527131 0.533807
Si Si4 0.358970 0.048811 0.562821
Si Si5 0.062020 0.159969 0.205333
Si Si6 0.724105 0.161733 0.278595
Si Si7 0.724220 0.723933 0.236371
Si Si8 0.814707 0.993781 0.059634
O O1 0.632059 0.838385 0.091551
O O2 0.487207 0.943123 0.213701
O O3 0.372294 0.761257 0.934544
O O4 0.385868 0.926889 0.694712
O O5 0.188077 0.186116 0.867553
O O6 0.079798 0.388339 0.756410
O O7 0.891886 0.210747 0.481202
O O8 0.012705 0.240586 0.967769
O O9 0.534479 0.579282 0.503417
O O10 0.344322 0.628413 0.579276
O O11 0.290776 0.462496 0.254863
O O12 0.187036 0.063738 0.292830
O O13 0.387703 0.131624 0.792681
O O14 0.135325 0.247036 0.450553
O O15 0.916419 0.099671 0.118634
O O16 0.717053 0.046149 0.135033
#
# Coordination Sequence:
#
# PCOD8046927 Si02
#       8
#     2   2   2   2   2   2   2   2
#     4  12  25  44  70 107 140 194 235 286 372 411
#     4  12  24  46  76  98 142 194 226 301 364 407
#     4  12  25  46  70 104 145 185 236 303 346 435
#     4  10  25  43  68 106 141 187 238 291 349 433
#     4  10  24  46  67 102 137 183 237 294 348 425
#     4  12  27  47  73 108 146 186 241 303 348 432
#     4  10  23  44  68  99 139 182 232 290 348 427
#     4  12  25  50  70 108 142 181 253 286 359 430
#
# _framework density 23.007940999999999
#
# number of rings (size 3 to 8) (size 9 to 14) (size 15 to 20)
#    0.750    0.000    2.500    5.250    3.500    2.000 
#    2.250    0.000    0.000    0.000    0.000    0.000 
#    0.000    0.000    0.000    0.000    0.000    0.000 
#
# Total GULP energy -198239.256053 kJ/mol
# GULP energy per Si atom -12389.953503 kJ/mol
# Density = 2.295557 g / cm^3
# Si number density = 23.007941 Si / 1000 Ang^3
#
#
#
# Elastic Constant Matrix: (Units=GPa)
#
#
# Indices 1 2 3 4 5 6 
#
# 1 105.3395 30.5972 6.3469 0.0000 -15.1663 0.0000
# 2 30.5972 93.2653 33.6471 0.0000 -5.9048 0.0000
# 3 6.3469 33.6471 86.1153 0.0000 1.0710 0.0000
# 4 0.0000 0.0000 0.0000 40.9520 0.0000 2.6475
# 5 -15.1663 -5.9048 1.0710 0.0000 32.2637 0.0000
# 6 0.0000 0.0000 0.0000 2.6475 0.0000 36.1821
#
#
#
# Elastic Compliance Matrix: (Units=1/GPa)
#
#
# Indices 1 2 3 4 5 6 
#
# 1 0.011153 -0.003553 0.000509 0.000000 0.004576 0.000000
# 2 -0.003553 0.013810 -0.005147 0.000000 0.001028 0.000000
# 3 0.000509 -0.005147 0.013600 0.000000 -0.001154 0.000000
# 4 0.000000 0.000000 0.000000 0.024535 0.000000 -0.001795
# 5 0.004576 0.001028 -0.001154 0.000000 0.033372 0.000000
# 6 0.000000 0.000000 0.000000 -0.001795 0.000000 0.027769
#
#
# Mechanical properties :
#
#
# Convention : Reuss Voigt Hill
#
# Bulk Modulus (GPa) = 45.08125 47.32249 46.20187
# Shear Modulus (GPa) = 33.78064 36.15482 34.96773
#
# Velocity S-wave (km/s) = 3.83589 3.96840 3.90271
# Velocity P-wave (km/s) = 6.26538 6.45059 6.35866
#
# Compressibility (1/GPa) = 0.02218217
#
# Stress axis : x y z
#
# Youngs Moduli (GPa) = 89.66001 72.41360 73.52918
#
# Poissons Ratio (x) = 0.25729 -0.03745
# Poissons Ratio (y) = 0.31857 0.37843
# Poissons Ratio (z) = -0.04567 0.37268
#
# Static dielectric constant tensor:
#      x y z
#    x 4.312030 0.000000 0.040100 
#    y 0.000000 3.815120 0.000000 
#    z 0.040100 0.000000 4.088440 
# 
# 
# High freq. dielectric constant tensor:
#      x y z
#    x 1.930980 0.000000 0.006180 
#    y 0.000000 1.887590 0.000000 
#    z 0.006180 0.000000 1.908520 
# 
# From -- ./inp_files/3121.got.cif
#   From: 2010.03.12/outbox.cif.g09.slc.cpg/sg4_2_cif.got.tgz:3121.got - 2010.03.31 09:31:35.
