data_PCOD8046751
_publ_section_title
;
Structure prediction by ZEFSAII (Michael W. Deem and Ramdas Pophale) SiO2 
 PCOD8046751
Probable space group: P 21
;
_chemical_formula_sum "Si O2"
_cell_formula_units_Z 14
_cell_length_a 8.984901
_cell_length_b 10.477705
_cell_length_c 8.984873
_cell_angle_alpha 90.000000
_cell_angle_beta 131.563656
_cell_angle_gamma 90.000000
_cell_volume 632.878273
_symmetry_space_group_name_H-M "P 21"
_symmetry_group_IT_number 4
_symmetry_cell_setting 'monoclinic'
loop_
_space_group_symop_operation_xyz
x,y,z
-x,1/2+y,-z
loop_
_atom_site_type_symbol
_atom_site_label
_atom_site_fract_x
_atom_site_fract_y
_atom_site_fract_z
Si Si1 0.752953 0.046580 0.082665
Si Si2 0.692599 0.929963 0.346814
Si Si3 0.259183 0.920969 0.147325
Si Si4 0.082663 0.029340 0.752951
Si Si5 0.930666 0.787960 0.069341
Si Si6 0.852677 0.654954 0.740819
Si Si7 0.346816 0.145957 0.692601
O O1 0.575374 0.109282 0.870843
O O2 0.931738 0.149166 0.197305
O O3 0.679994 0.031939 0.204853
O O4 0.822779 0.908193 0.072023
O O5 0.710734 0.787960 0.289252
O O6 0.495743 0.929310 0.318402
O O7 0.870846 0.966632 0.575374
O O8 0.150521 0.037959 0.150525
O O9 0.164601 0.803419 0.177420
O O10 0.197308 0.926757 0.931741
O O11 0.072012 0.167727 0.822770
O O12 0.204851 0.043983 0.679991
O O13 0.822583 0.772502 0.835404
O O14 0.681601 0.646616 0.504258
#
# Coordination Sequence:
#
# PCOD8046751 Si02
#       7
#     2   2   2   2   2   2   2
#     4  11  23  43  69  98 137 182 231 280 344 411
#     4  12  24  41  69 100 134 178 230 281 344 412
#     4  10  23  42  64  96 136 174 226 284 341 405
#     4  11  23  43  69  98 137 182 231 280 344 411
#     4  10  22  46  68  96 138 182 226 292 342 404
#     4  10  23  42  64  96 136 174 226 284 341 405
#     4  12  24  41  69 100 134 178 230 281 344 412
#
# _framework density 22.121158999999999
#
# number of rings (size 3 to 8) (size 9 to 14) (size 15 to 20)
#    0.000    1.143    4.286    1.714    0.000    5.714 
#    0.000   10.000    0.000    0.000    0.000    0.000 
#    0.000    0.000    0.000    0.000    0.000    0.000 
#
# Total GULP energy -173498.905550 kJ/mol
# GULP energy per Si atom -12392.778968 kJ/mol
# Density = 2.207081 g / cm^3
# Si number density = 22.121159 Si / 1000 Ang^3
#
#
#
# Elastic Constant Matrix: (Units=GPa)
#
#
# Indices 1 2 3 4 5 6 
#
# 1 71.3638 0.8896 32.1554 0.0000 -2.8105 0.0000
# 2 0.8896 55.3413 13.1055 0.0000 5.1303 0.0000
# 3 32.1554 13.1055 123.7471 0.0000 24.7971 0.0000
# 4 0.0000 0.0000 0.0000 33.0386 0.0000 9.5169
# 5 -2.8105 5.1303 24.7971 0.0000 27.8386 0.0000
# 6 0.0000 0.0000 0.0000 9.5169 0.0000 10.3548
#
#
#
# Elastic Compliance Matrix: (Units=1/GPa)
#
#
# Indices 1 2 3 4 5 6 
#
# 1 0.016886 0.000473 -0.005797 0.000000 0.006781 0.000000
# 2 0.000473 0.018642 -0.001726 0.000000 -0.001850 0.000000
# 3 -0.005797 -0.001726 0.011958 0.000000 -0.010919 0.000000
# 4 0.000000 0.000000 0.000000 0.041166 0.000000 -0.037835
# 5 0.006781 -0.001850 -0.010919 0.000000 0.046673 0.000000
# 6 0.000000 0.000000 0.000000 -0.037835 0.000000 0.131347
#
#
# Mechanical properties :
#
#
# Convention : Reuss Voigt Hill
#
# Bulk Modulus (GPa) = 29.95318 38.08369 34.01843
# Shear Modulus (GPa) = 17.12908 27.86650 22.49779
#
# Velocity S-wave (km/s) = 2.78570 3.55311 3.19254
# Velocity P-wave (km/s) = 4.89047 5.83833 5.38529
#
# Compressibility (1/GPa) = 0.03338544
#
# Stress axis : x y z
#
# Youngs Moduli (GPa) = 59.22164 53.64107 83.62607
#
# Poissons Ratio (x) = -0.02535 0.48474
# Poissons Ratio (y) = -0.02799 0.14437
# Poissons Ratio (z) = 0.34328 0.09261
#
# Static dielectric constant tensor:
#      x y z
#    x 4.094200 0.000000 -0.118990 
#    y 0.000000 4.199450 0.000000 
#    z -0.118990 0.000000 3.810580 
# 
# 
# High freq. dielectric constant tensor:
#      x y z
#    x 1.880600 0.000000 -0.006720 
#    y 0.000000 1.868790 0.000000 
#    z -0.006720 0.000000 1.864580 
# 
# From -- ./inp_files/1116.got.cif
#   From: 2010.03.12/outbox.cif.g09.slc.cpg/sg4_1_cif.got.tgz:1116.got - 2010.03.31 09:31:35.
