data_PCOD8046612
_publ_section_title
;
Structure prediction by ZEFSAII (Michael W. Deem and Ramdas Pophale) SiO2 
 PCOD8046612
Probable space group: P 21
;
_chemical_formula_sum "Si O2"
_cell_formula_units_Z 16
_cell_length_a 6.641345
_cell_length_b 9.133006
_cell_length_c 15.533417
_cell_angle_alpha 90.000000
_cell_angle_beta 130.595919
_cell_angle_gamma 90.000000
_cell_volume 715.418695
_symmetry_space_group_name_H-M "P 21"
_symmetry_group_IT_number 4
_symmetry_cell_setting 'monoclinic'
loop_
_space_group_symop_operation_xyz
x,y,z
-x,1/2+y,-z
loop_
_atom_site_type_symbol
_atom_site_label
_atom_site_fract_x
_atom_site_fract_y
_atom_site_fract_z
Si Si1 0.710340 0.847860 0.336998
Si Si2 0.292155 0.747102 0.526300
Si Si3 0.781046 0.681143 0.002480
Si Si4 0.630445 0.990188 0.032258
Si Si5 0.475944 0.787113 0.764660
Si Si6 0.375416 0.607954 0.155930
Si Si7 0.915478 0.089295 0.270487
Si Si8 0.521589 0.465403 0.560311
O O1 0.595731 0.725976 0.241527
O O2 0.992064 0.798805 0.455092
O O3 0.746084 0.991123 0.289892
O O4 0.509013 0.874189 0.359917
O O5 0.447386 0.731605 0.659433
O O6 0.281799 0.582232 0.483317
O O7 0.463107 0.854319 0.513975
O O8 0.645139 0.529761 0.996028
O O9 0.717576 0.706631 0.883126
O O10 0.090392 0.665674 0.108623
O O11 0.655162 0.818139 0.019572
O O12 0.869932 0.040394 0.159857
O O13 0.643504 0.087357 0.950746
O O14 0.201678 0.752094 0.742076
O O15 0.533433 0.958771 0.773579
O O16 0.224745 0.073128 0.371937
#
# Coordination Sequence:
#
# PCOD8046612 Si02
#       8
#     2   2   2   2   2   2   2   2
#     4  11  25  44  70 100 143 176 223 291 340 400
#     4  11  27  45  69 101 137 181 234 280 343 408
#     4  10  23  43  66  99 135 181 225 277 347 398
#     4  10  22  42  66  98 137 173 227 282 330 411
#     4  10  24  44  66  99 138 178 223 292 331 402
#     4  11  25  41  68 103 137 180 223 278 343 410
#     4  10  22  43  69  98 133 180 225 279 345 399
#     4  11  26  44  72 100 132 187 228 281 343 412
#
# _framework density 22.364525
#
# number of rings (size 3 to 8) (size 9 to 14) (size 15 to 20)
#    0.000    1.500    1.250    1.500    7.000    7.000 
#    4.500    0.000    0.000    0.000    0.000    0.000 
#    0.000    0.000    0.000    0.000    0.000    0.000 
#
# Total GULP energy -198357.041307 kJ/mol
# GULP energy per Si atom -12397.315082 kJ/mol
# Density = 2.231362 g / cm^3
# Si number density = 22.364525 Si / 1000 Ang^3
#
#
#
# Elastic Constant Matrix: (Units=GPa)
#
#
# Indices 1 2 3 4 5 6 
#
# 1 86.8778 47.1243 32.9985 0.0000 -6.5627 0.0000
# 2 47.1243 103.5464 44.4229 0.0000 7.4449 0.0000
# 3 32.9985 44.4229 94.9440 0.0000 -15.3353 0.0000
# 4 0.0000 0.0000 0.0000 34.2031 0.0000 -2.0853
# 5 -6.5627 7.4449 -15.3353 0.0000 23.3593 0.0000
# 6 0.0000 0.0000 0.0000 -2.0853 0.0000 35.6983
#
#
#
# Elastic Compliance Matrix: (Units=1/GPa)
#
#
# Indices 1 2 3 4 5 6 
#
# 1 0.016466 -0.007390 -0.001273 0.000000 0.006146 0.000000
# 2 -0.007390 0.017105 -0.007439 0.000000 -0.012411 0.000000
# 3 -0.001273 -0.007439 0.016534 0.000000 0.012868 0.000000
# 4 0.000000 0.000000 0.000000 0.029342 0.000000 0.001714
# 5 0.006146 -0.012411 0.012868 0.000000 0.056940 0.000000
# 6 0.000000 0.000000 0.000000 0.001714 0.000000 0.028113
#
#
# Mechanical properties :
#
#
# Convention : Reuss Voigt Hill
#
# Bulk Modulus (GPa) = 55.86171 59.38438 57.62305
# Shear Modulus (GPa) = 24.67067 29.37362 27.02215
#
# Velocity S-wave (km/s) = 3.32492 3.62802 3.47977
# Velocity P-wave (km/s) = 6.30652 6.64535 6.47815
#
# Compressibility (1/GPa) = 0.01790135
#
# Stress axis : x y z
#
# Youngs Moduli (GPa) = 60.72937 58.46398 60.48126
#
# Poissons Ratio (x) = 0.43204 0.07698
# Poissons Ratio (y) = 0.44878 0.44994
# Poissons Ratio (z) = 0.07730 0.43493
#
# Static dielectric constant tensor:
#      x y z
#    x 3.906160 0.000000 -0.067490 
#    y 0.000000 4.082750 0.000000 
#    z -0.067490 0.000000 4.006680 
# 
# 
# High freq. dielectric constant tensor:
#      x y z
#    x 1.875640 0.000000 -0.007270 
#    y 0.000000 1.888110 0.000000 
#    z -0.007270 0.000000 1.883870 
# 
# From -- ./inp_files/3623.got.cif
#   From: 2010.03.12/outbox.cif.g09.slc.cpg/sg4_2_cif.got.tgz:3623.got - 2010.03.31 09:31:35.
