data_PCOD8046489
_publ_section_title
;
Structure prediction by ZEFSAII (Michael W. Deem and Ramdas Pophale) SiO2 
 PCOD8046489
Probable space group: P 21
;
_chemical_formula_sum "Si O2"
_cell_formula_units_Z 16
_cell_length_a 10.391678
_cell_length_b 8.659155
_cell_length_c 8.656021
_cell_angle_alpha 90.000000
_cell_angle_beta 118.036755
_cell_angle_gamma 90.000000
_cell_volume 687.489667
_symmetry_space_group_name_H-M "P 21"
_symmetry_group_IT_number 4
_symmetry_cell_setting 'monoclinic'
loop_
_space_group_symop_operation_xyz
x,y,z
-x,1/2+y,-z
loop_
_atom_site_type_symbol
_atom_site_label
_atom_site_fract_x
_atom_site_fract_y
_atom_site_fract_z
Si Si1 0.873879 0.068280 0.702535
Si Si2 0.658270 0.674488 0.451887
Si Si3 0.595416 0.309030 0.896693
Si Si4 0.864475 0.895896 0.396032
Si Si5 0.310300 0.327215 0.218911
Si Si6 0.621121 0.990220 0.034642
Si Si7 0.848293 0.532083 0.949486
Si Si8 0.146644 0.907992 0.362174
O O1 0.818033 0.242287 0.692828
O O2 0.856313 0.036598 0.511079
O O3 0.777521 0.968832 0.761551
O O4 0.038665 0.028923 0.846570
O O5 0.514766 0.712176 0.274548
O O6 0.804234 0.748876 0.458430
O O7 0.613159 0.738813 0.595897
O O8 0.705011 0.493171 0.491676
O O9 0.731902 0.391875 0.894417
O O10 0.645588 0.174959 0.042063
O O11 0.515239 0.451742 0.933787
O O12 0.030101 0.877814 0.432423
O O13 0.768021 0.923401 0.190837
O O14 0.413297 0.407312 0.149340
O O15 0.214624 0.203584 0.072321
O O16 0.917548 0.512432 0.816113
#
# Coordination Sequence:
#
# PCOD8046489 Si02
#       8
#     2   2   2   2   2   2   2   2
#     4  11  22  38  64  97 128 160 211 274 334 387
#     4   9  23  43  61  91 129 166 215 269 325 390
#     4  11  25  43  63  91 129 177 221 264 323 398
#     4  10  22  39  61  93 129 164 211 270 331 387
#     4  10  22  41  64  90 123 164 214 276 328 384
#     4  11  23  41  63  88 126 171 219 268 325 393
#     4  11  23  40  63  92 130 170 214 265 329 397
#     4  11  22  39  67  94 124 166 213 272 331 386
#
# _framework density 23.273074999999999
#
# number of rings (size 3 to 8) (size 9 to 14) (size 15 to 20)
#    0.000    1.500    0.000    4.500    0.000   10.000 
#    0.000    5.000    0.000    0.000    0.000    0.000 
#    0.000    0.000    0.000    0.000    0.000    0.000 
#
# Total GULP energy -198273.328434 kJ/mol
# GULP energy per Si atom -12392.083027 kJ/mol
# Density = 2.322010 g / cm^3
# Si number density = 23.273075 Si / 1000 Ang^3
#
#
#
# Elastic Constant Matrix: (Units=GPa)
#
#
# Indices 1 2 3 4 5 6 
#
# 1 53.0407 7.3784 39.1963 0.0000 -3.0222 0.0000
# 2 7.3784 93.6801 36.1992 0.0000 -4.4126 0.0000
# 3 39.1963 36.1992 89.5138 0.0000 -7.6416 0.0000
# 4 0.0000 0.0000 0.0000 36.3885 0.0000 -3.2303
# 5 -3.0222 -4.4126 -7.6416 0.0000 19.5347 0.0000
# 6 0.0000 0.0000 0.0000 -3.2303 0.0000 24.6489
#
#
#
# Elastic Compliance Matrix: (Units=1/GPa)
#
#
# Indices 1 2 3 4 5 6 
#
# 1 0.028598 0.003061 -0.013784 0.000000 -0.000276 0.000000
# 2 0.003061 0.012994 -0.006522 0.000000 0.000857 0.000000
# 3 -0.013784 -0.006522 0.020212 0.000000 0.004301 0.000000
# 4 0.000000 0.000000 0.000000 0.027805 0.000000 0.003644
# 5 -0.000276 0.000857 0.004301 0.000000 0.053024 0.000000
# 6 0.000000 0.000000 0.000000 0.003644 0.000000 0.041047
#
#
# Mechanical properties :
#
#
# Convention : Reuss Voigt Hill
#
# Bulk Modulus (GPa) = 36.61127 44.64248 40.62688
# Shear Modulus (GPa) = 21.99983 26.34512 24.17248
#
# Velocity S-wave (km/s) = 3.07789 3.36817 3.22630
# Velocity P-wave (km/s) = 5.32884 5.86087 5.60118
#
# Compressibility (1/GPa) = 0.02731399
#
# Stress axis : x y z
#
# Youngs Moduli (GPa) = 34.96755 76.95824 49.47635
#
# Poissons Ratio (x) = -0.23556 0.68197
# Poissons Ratio (y) = -0.10703 0.32268
# Poissons Ratio (z) = 0.48199 0.50191
#
# Static dielectric constant tensor:
#      x y z
#    x 3.957240 0.000000 -0.223520 
#    y 0.000000 4.309080 0.000000 
#    z -0.223520 0.000000 4.160400 
# 
# 
# High freq. dielectric constant tensor:
#      x y z
#    x 1.905220 0.000000 -0.020090 
#    y 0.000000 1.934100 0.000000 
#    z -0.020090 0.000000 1.921480 
# 
# From -- ./inp_files/8041.got.cif
#   From: 2010.03.12/outbox.cif.g09.slc.cpg/sg4_5_cif.got.tgz:8041.got - 2010.03.31 09:31:35.
