data_PCOD8046734
_publ_section_title
;
Structure prediction by ZEFSAII (Michael W. Deem and Ramdas Pophale) SiO2 
 PCOD8046734
Probable space group: P 21
;
_chemical_formula_sum "Si O2"
_cell_formula_units_Z 16
_cell_length_a 9.634915
_cell_length_b 12.289280
_cell_length_c 8.560393
_cell_angle_alpha 90.000000
_cell_angle_beta 41.113863
_cell_angle_gamma 90.000000
_cell_volume 666.502530
_symmetry_space_group_name_H-M "P 21"
_symmetry_group_IT_number 4
_symmetry_cell_setting 'monoclinic'
loop_
_space_group_symop_operation_xyz
x,y,z
-x,1/2+y,-z
loop_
_atom_site_type_symbol
_atom_site_label
_atom_site_fract_x
_atom_site_fract_y
_atom_site_fract_z
Si Si1 0.396520 0.933730 0.055376
Si Si2 0.945778 0.488570 0.875925
Si Si3 0.148025 0.714916 0.293858
Si Si4 0.135542 0.703412 0.650179
Si Si5 0.242016 0.349575 0.427911
Si Si6 0.854664 0.857823 0.035018
Si Si7 0.415163 0.560062 0.844812
Si Si8 0.541965 0.733063 0.500878
O O1 0.261842 0.830082 0.217994
O O2 0.292768 0.990693 0.989894
O O3 0.403181 0.023993 0.187168
O O4 0.639110 0.894623 0.825675
O O5 0.030870 0.608506 0.844084
O O6 0.099387 0.446406 0.609856
O O7 0.962914 0.409985 0.010263
O O8 0.174585 0.659474 0.441436
O O9 0.899559 0.739928 0.473865
O O10 0.247797 0.641651 0.071584
O O11 0.342492 0.747845 0.559142
O O12 0.972078 0.805220 0.786413
O O13 0.438980 0.321673 0.376522
O O14 0.745611 0.756541 0.219802
O O15 0.693105 0.950226 0.122668
O O16 0.527604 0.615339 0.599319
#
# Coordination Sequence:
#
# PCOD8046734 Si02
#       8
#     2   2   2   2   2   2   2   2
#     4  11  23  44  69 105 144 188 239 292 361 437
#     4  10  24  42  68 102 137 191 235 297 365 414
#     4  11  26  45  73 107 145 184 240 302 364 436
#     4  12  25  46  68 105 146 185 240 302 357 440
#     4  10  22  45  70 101 144 184 239 301 353 439
#     4  11  26  48  72 104 144 190 246 300 360 438
#     4  12  25  48  74 106 145 194 242 300 369 427
#     4  11  25  46  72 102 145 190 247 296 357 433
#
# _framework density 24.005908000000002
#
# number of rings (size 3 to 8) (size 9 to 14) (size 15 to 20)
#    0.000    1.000    2.500    3.000    5.250    4.000 
#    6.750    0.000    0.000    0.000    0.000    0.000 
#    0.000    0.000    0.000    0.000    0.000    0.000 
#
# Total GULP energy -198298.812057 kJ/mol
# GULP energy per Si atom -12393.675754 kJ/mol
# Density = 2.395127 g / cm^3
# Si number density = 24.005908 Si / 1000 Ang^3
#
#
#
# Elastic Constant Matrix: (Units=GPa)
#
#
# Indices 1 2 3 4 5 6 
#
# 1 118.2651 29.2416 24.5902 0.0000 -10.4735 0.0000
# 2 29.2416 79.3081 29.1228 0.0000 -5.4576 0.0000
# 3 24.5902 29.1228 57.4351 0.0000 7.1022 0.0000
# 4 0.0000 0.0000 0.0000 34.3288 0.0000 3.6074
# 5 -10.4735 -5.4576 7.1022 0.0000 32.0594 0.0000
# 6 0.0000 0.0000 0.0000 3.6074 0.0000 45.8834
#
#
#
# Elastic Compliance Matrix: (Units=1/GPa)
#
#
# Indices 1 2 3 4 5 6 
#
# 1 0.010079 -0.002092 -0.003720 0.000000 0.003761 0.000000
# 2 -0.002092 0.016587 -0.007999 0.000000 0.003912 0.000000
# 3 -0.003720 -0.007999 0.024036 0.000000 -0.007902 0.000000
# 4 0.000000 0.000000 0.000000 0.029373 0.000000 -0.002309
# 5 0.003761 0.003912 -0.007902 0.000000 0.034837 0.000000
# 6 0.000000 0.000000 0.000000 -0.002309 0.000000 0.021976
#
#
# Mechanical properties :
#
#
# Convention : Reuss Voigt Hill
#
# Bulk Modulus (GPa) = 43.32337 46.76861 45.04599
# Shear Modulus (GPa) = 29.03562 33.92457 31.48009
#
# Velocity S-wave (km/s) = 3.48159 3.76330 3.62518
# Velocity P-wave (km/s) = 5.85219 6.19739 6.02726
#
# Compressibility (1/GPa) = 0.02308223
#
# Stress axis : x y z
#
# Youngs Moduli (GPa) = 99.21398 60.28947 41.60351
#
# Poissons Ratio (x) = 0.12610 0.15476
# Poissons Ratio (y) = 0.20751 0.33277
# Poissons Ratio (z) = 0.36906 0.48224
#
# Static dielectric constant tensor:
#      x y z
#    x 4.441580 0.000000 -0.036270 
#    y 0.000000 4.221710 0.000000 
#    z -0.036270 0.000000 4.238040 
# 
# 
# High freq. dielectric constant tensor:
#      x y z
#    x 1.960160 0.000000 -0.001450 
#    y 0.000000 1.951650 0.000000 
#    z -0.001450 0.000000 1.940300 
# 
# From -- ./inp_files/4630.got.cif
#   From: 2010.03.12/outbox.cif.g09.slc.cpg/sg4_3_cif.got.tgz:4630.got - 2010.03.31 09:31:35.
