data_PCOD8046277
_publ_section_title
;
Structure prediction by ZEFSAII (Michael W. Deem and Ramdas Pophale) SiO2 
 PCOD8046277
Probable space group: P 21
;
_chemical_formula_sum "Si O2"
_cell_formula_units_Z 16
_cell_length_a 14.599148
_cell_length_b 8.283312
_cell_length_c 11.400787
_cell_angle_alpha 90.000000
_cell_angle_beta 29.664806
_cell_angle_gamma 90.000000
_cell_volume 682.347759
_symmetry_space_group_name_H-M "P 21"
_symmetry_group_IT_number 4
_symmetry_cell_setting 'monoclinic'
loop_
_space_group_symop_operation_xyz
x,y,z
-x,1/2+y,-z
loop_
_atom_site_type_symbol
_atom_site_label
_atom_site_fract_x
_atom_site_fract_y
_atom_site_fract_z
Si Si1 0.322084 0.438300 0.448151
Si Si2 0.373268 0.199841 0.188627
Si Si3 0.537795 0.884986 0.325676
Si Si4 0.679196 0.967463 0.925926
Si Si5 0.851280 0.259540 0.313264
Si Si6 0.033454 0.792897 0.070674
Si Si7 0.369818 0.033323 0.727415
Si Si8 0.014410 0.036108 0.680967
O O1 0.369027 0.357645 0.273463
O O2 0.205420 0.600403 0.552274
O O3 0.523139 0.464106 0.279525
O O4 0.184885 0.333012 0.681815
O O5 0.564159 0.100488 0.981039
O O6 0.349297 0.282530 0.087218
O O7 0.213779 0.078762 0.406351
O O8 0.635819 0.979340 0.112595
O O9 0.332915 0.855524 0.508938
O O10 0.515477 0.005405 0.459714
O O11 0.654134 0.725523 0.232517
O O12 0.894754 0.017287 0.693831
O O13 0.980363 0.368541 0.252178
O O14 0.941350 0.214882 0.086230
O O15 0.071103 0.667553 0.134027
O O16 0.170345 0.947335 0.936061
#
# Coordination Sequence:
#
# PCOD8046277 Si02
#       8
#     2   2   2   2   2   2   2   2
#     4  10  23  40  67  96 139 184 220 282 342 403
#     4  11  28  49  69  99 134 179 239 294 340 408
#     4  10  24  41  68 102 137 181 219 285 342 423
#     4  12  28  48  75  95 135 186 230 292 353 398
#     4  10  21  40  66 103 147 173 227 274 343 412
#     4  10  22  39  64 104 143 185 215 277 342 411
#     4  10  23  39  64 104 140 173 231 271 345 422
#     4  11  25  46  69 103 139 179 239 279 341 419
#
# _framework density 23.448453000000001
#
# number of rings (size 3 to 8) (size 9 to 14) (size 15 to 20)
#    0.000    1.500    1.250    1.500   14.000    3.000 
#    2.250    0.000    0.000    0.000    0.000    0.000 
#    0.000    0.000    0.000    0.000    0.000    0.000 
#
# Total GULP energy -198339.309110 kJ/mol
# GULP energy per Si atom -12396.206819 kJ/mol
# Density = 2.339508 g / cm^3
# Si number density = 23.448453 Si / 1000 Ang^3
#
#
#
# Elastic Constant Matrix: (Units=GPa)
#
#
# Indices 1 2 3 4 5 6 
#
# 1 85.1136 32.4050 16.8658 0.0000 -12.1142 0.0000
# 2 32.4050 79.3636 4.6001 0.0000 -2.0429 0.0000
# 3 16.8658 4.6001 50.8255 0.0000 -1.8172 0.0000
# 4 0.0000 0.0000 0.0000 33.5004 0.0000 3.6519
# 5 -12.1142 -2.0429 -1.8172 0.0000 24.5181 0.0000
# 6 0.0000 0.0000 0.0000 3.6519 0.0000 47.5208
#
#
#
# Elastic Compliance Matrix: (Units=1/GPa)
#
#
# Indices 1 2 3 4 5 6 
#
# 1 0.015954 -0.006072 -0.004493 0.000000 0.007044 0.000000
# 2 -0.006072 0.015001 0.000596 0.000000 -0.001706 0.000000
# 3 -0.004493 0.000596 0.021090 0.000000 -0.000607 0.000000
# 4 0.000000 0.000000 0.000000 0.030103 0.000000 -0.002313
# 5 0.007044 -0.001706 -0.000607 0.000000 0.044079 0.000000
# 6 0.000000 0.000000 0.000000 -0.002313 0.000000 0.021221
#
#
# Mechanical properties :
#
#
# Convention : Reuss Voigt Hill
#
# Bulk Modulus (GPa) = 31.14500 35.89381 33.51940
# Shear Modulus (GPa) = 28.07602 31.86999 29.97300
#
# Velocity S-wave (km/s) = 3.46403 3.69067 3.57914
# Velocity P-wave (km/s) = 5.41392 5.78810 5.60413
#
# Compressibility (1/GPa) = 0.03210789
#
# Stress axis : x y z
#
# Youngs Moduli (GPa) = 62.68163 66.66155 47.41521
#
# Poissons Ratio (x) = 0.40479 0.21302
# Poissons Ratio (y) = 0.38062 -0.02827
# Poissons Ratio (z) = 0.28160 -0.03975
#
# Static dielectric constant tensor:
#      x y z
#    x 4.146150 0.000000 -0.082830 
#    y 0.000000 4.208540 0.000000 
#    z -0.082830 0.000000 4.328040 
# 
# 
# High freq. dielectric constant tensor:
#      x y z
#    x 1.924260 0.000000 -0.009390 
#    y 0.000000 1.927510 0.000000 
#    z -0.009390 0.000000 1.930210 
# 
# From -- ./inp_files/12650.got.cif
#   From: 2010.03.12/outbox.cif.g09.slc.cpg/sg4_7_cif.got.tgz:12650.got - 2010.03.31 09:31:35.
