data_PCOD8046224
_publ_section_title
;
Structure prediction by ZEFSAII (Michael W. Deem and Ramdas Pophale) SiO2 
 PCOD8046224
Probable space group: P 21
;
_chemical_formula_sum "Si O2"
_cell_formula_units_Z 14
_cell_length_a 17.155835
_cell_length_b 8.672444
_cell_length_c 5.202850
_cell_angle_alpha 90.000000
_cell_angle_beta 109.072970
_cell_angle_gamma 90.000000
_cell_volume 731.600330
_symmetry_space_group_name_H-M "P 21"
_symmetry_group_IT_number 4
_symmetry_cell_setting 'monoclinic'
loop_
_space_group_symop_operation_xyz
x,y,z
-x,1/2+y,-z
loop_
_atom_site_type_symbol
_atom_site_label
_atom_site_fract_x
_atom_site_fract_y
_atom_site_fract_z
Si Si1 0.977003 0.084220 0.269339
Si Si2 0.818378 0.008283 0.851022
Si Si3 0.414146 0.198622 0.875273
Si Si4 0.664643 0.188723 0.621531
Si Si5 0.977459 0.930535 0.773836
Si Si6 0.342627 0.349119 0.306799
Si Si7 0.407416 0.836101 0.962306
O O1 0.998770 0.258548 0.252345
O O2 0.013255 0.032341 0.580075
O O3 0.877690 0.054832 0.153802
O O4 0.019960 0.986836 0.084912
O O5 0.763555 0.158493 0.717254
O O6 0.878058 0.954395 0.682047
O O7 0.756109 0.866932 0.851000
O O8 0.384250 0.277400 0.103488
O O9 0.414794 0.016765 0.919256
O O10 0.356157 0.243250 0.572414
O O11 0.504262 0.259091 0.904735
O O12 0.643174 0.304039 0.831141
O O13 0.619293 0.021597 0.608282
O O14 0.639135 0.260025 0.325145
#
# Coordination Sequence:
#
# PCOD8046224 Si02
#       7
#     2   2   2   2   2   2   2
#     4  10  21  39  66  94 126 164 207 248 309 378
#     4   8  24  38  72  82 138 158 214 238 342 344
#     4  12  24  40  62  93 124 161 213 261 311 366
#     4  10  22  40  65  86 123 171 204 250 315 368
#     4  10  21  39  66  94 126 164 207 248 309 378
#     4  10  22  40  65  86 123 171 204 250 315 368
#     4  12  24  40  62  93 124 161 213 261 311 366
#
# _framework density 19.136133000000001
#
# number of rings (size 3 to 8) (size 9 to 14) (size 15 to 20)
#    1.714    0.000    0.000    5.143    4.000    0.000 
#    0.000    4.286    0.000    0.000    0.000    0.000 
#    0.000    0.000    0.000    0.000    0.000    0.000 
#
# Total GULP energy -173460.616357 kJ/mol
# GULP energy per Si atom -12390.044025 kJ/mol
# Density = 1.909258 g / cm^3
# Si number density = 19.136133 Si / 1000 Ang^3
#
#
#
# Elastic Constant Matrix: (Units=GPa)
#
#
# Indices 1 2 3 4 5 6 
#
# 1 38.5007 20.2690 18.9465 0.0000 5.0861 0.0000
# 2 20.2690 83.3724 -7.5331 0.0000 0.8027 0.0000
# 3 18.9465 -7.5331 68.6881 0.0000 -10.3244 0.0000
# 4 0.0000 0.0000 0.0000 34.0648 0.0000 -2.5786
# 5 5.0861 0.8027 -10.3244 0.0000 19.5451 0.0000
# 6 0.0000 0.0000 0.0000 -2.5786 0.0000 33.1910
#
#
#
# Elastic Compliance Matrix: (Units=1/GPa)
#
#
# Indices 1 2 3 4 5 6 
#
# 1 0.042288 -0.011524 -0.015763 0.000000 -0.018858 0.000000
# 2 -0.011524 0.015255 0.005657 0.000000 0.005361 0.000000
# 3 -0.015763 0.005657 0.021843 0.000000 0.015408 0.000000
# 4 0.000000 0.000000 0.000000 0.029530 0.000000 0.002294
# 5 -0.018858 0.005361 0.015408 0.000000 0.063990 0.000000
# 6 0.000000 0.000000 0.000000 0.002294 0.000000 0.030307
#
#
# Mechanical properties :
#
#
# Convention : Reuss Voigt Hill
#
# Bulk Modulus (GPa) = 27.67878 28.21399 27.94639
# Shear Modulus (GPa) = 19.34133 27.95211 23.64672
#
# Velocity S-wave (km/s) = 3.18264 3.82605 3.51908
# Velocity P-wave (km/s) = 5.29161 5.85612 5.58100
#
# Compressibility (1/GPa) = 0.03612876
#
# Stress axis : x y z
#
# Youngs Moduli (GPa) = 23.64712 65.55025 45.78151
#
# Poissons Ratio (x) = 0.75537 0.72165
# Poissons Ratio (y) = 0.27250 -0.25901
# Poissons Ratio (z) = 0.37275 -0.37085
#
# Static dielectric constant tensor:
#      x y z
#    x 3.329130 0.000000 -0.070520 
#    y 0.000000 3.569350 0.000000 
#    z -0.070520 0.000000 3.108710 
# 
# 
# High freq. dielectric constant tensor:
#      x y z
#    x 1.726880 0.000000 -0.010510 
#    y 0.000000 1.745110 0.000000 
#    z -0.010510 0.000000 1.753510 
# 
# From -- ./inp_files/4046.got.cif
#   From: 2010.03.12/outbox.cif.g09.slc.cpg/sg4_3_cif.got.tgz:4046.got - 2010.03.31 09:31:35.
