data_PCOD8046453
_publ_section_title
;
Structure prediction by ZEFSAII (Michael W. Deem and Ramdas Pophale) SiO2 
 PCOD8046453
Probable space group: P 21
;
_chemical_formula_sum "Si O2"
_cell_formula_units_Z 14
_cell_length_a 9.385328
_cell_length_b 8.542595
_cell_length_c 10.003084
_cell_angle_alpha 90.000000
_cell_angle_beta 126.880821
_cell_angle_gamma 90.000000
_cell_volume 641.506505
_symmetry_space_group_name_H-M "P 21"
_symmetry_group_IT_number 4
_symmetry_cell_setting 'monoclinic'
loop_
_space_group_symop_operation_xyz
x,y,z
-x,1/2+y,-z
loop_
_atom_site_type_symbol
_atom_site_label
_atom_site_fract_x
_atom_site_fract_y
_atom_site_fract_z
Si Si1 0.081432 0.446010 0.773336
Si Si2 0.154840 0.461719 0.100829
Si Si3 0.306435 0.698524 0.016567
Si Si4 0.702178 0.682863 0.214444
Si Si5 0.322541 0.000182 0.524334
Si Si6 0.400804 0.226498 0.335013
Si Si7 0.209791 0.039264 0.007909
O O1 0.177405 0.617608 0.831828
O O2 0.174870 0.338977 0.712044
O O3 0.873096 0.460400 0.636653
O O4 0.110054 0.365648 0.936908
O O5 0.228506 0.342018 0.253830
O O6 0.990907 0.570348 0.053723
O O7 0.316972 0.580004 0.150745
O O8 0.224057 0.853748 0.029854
O O9 0.500630 0.732827 0.065797
O O10 0.706361 0.586813 0.352523
O O11 0.775002 0.573074 0.139502
O O12 0.425528 0.834244 0.591267
O O13 0.420328 0.117813 0.475677
O O14 0.363600 0.121314 0.182707
#
# Coordination Sequence:
#
# PCOD8046453 Si02
#       7
#     2   2   2   2   2   2   2
#     4  10  23  47  71 103 153 182 248 311 365 442
#     4  10  21  47  74 102 138 193 265 287 352 454
#     4  10  23  43  73 108 139 186 256 299 358 449
#     4  12  26  46  72 108 147 188 246 306 379 429
#     4  12  28  48  67 118 153 196 239 318 383 436
#     4  12  26  48  73 104 155 196 252 298 371 452
#     4  12  23  41  80 103 135 201 242 307 352 448
#
# _framework density 21.823627999999999
#
# number of rings (size 3 to 8) (size 9 to 14) (size 15 to 20)
#    0.857    0.000    4.286    2.571    4.000    3.429 
#    2.571    0.000    0.000    0.000    0.000    0.000 
#    0.000    0.000    0.000    0.000    0.000    0.000 
#
# Total GULP energy -173495.163008 kJ/mol
# GULP energy per Si atom -12392.511643 kJ/mol
# Density = 2.177396 g / cm^3
# Si number density = 21.823628 Si / 1000 Ang^3
#
#
#
# Elastic Constant Matrix: (Units=GPa)
#
#
# Indices 1 2 3 4 5 6 
#
# 1 109.7146 38.8243 29.9022 0.0000 0.9031 0.0000
# 2 38.8243 123.5393 39.3629 0.0000 -1.2668 0.0000
# 3 29.9022 39.3629 89.2931 0.0000 -7.4276 0.0000
# 4 0.0000 0.0000 0.0000 39.4208 0.0000 -0.4351
# 5 0.9031 -1.2668 -7.4276 0.0000 43.1286 0.0000
# 6 0.0000 0.0000 0.0000 -0.4351 0.0000 50.6081
#
#
#
# Elastic Compliance Matrix: (Units=1/GPa)
#
#
# Indices 1 2 3 4 5 6 
#
# 1 0.010717 -0.002574 -0.002515 0.000000 -0.000733 0.000000
# 2 -0.002574 0.010044 -0.003588 0.000000 -0.000269 0.000000
# 3 -0.002515 -0.003588 0.013817 0.000000 0.002327 0.000000
# 4 0.000000 0.000000 0.000000 0.025370 0.000000 0.000218
# 5 -0.000733 -0.000269 0.002327 0.000000 0.023595 0.000000
# 6 0.000000 0.000000 0.000000 0.000218 0.000000 0.019762
#
#
# Mechanical properties :
#
#
# Convention : Reuss Voigt Hill
#
# Bulk Modulus (GPa) = 58.06181 59.85842 58.96012
# Shear Modulus (GPa) = 39.55722 40.92865 40.24293
#
# Velocity S-wave (km/s) = 4.26207 4.33532 4.29885
# Velocity P-wave (km/s) = 7.13324 7.24899 7.19134
#
# Compressibility (1/GPa) = 0.01722302
#
# Stress axis : x y z
#
# Youngs Moduli (GPa) = 93.30993 99.56143 72.37675
#
# Poissons Ratio (x) = 0.25628 0.18204
# Poissons Ratio (y) = 0.24019 0.25969
# Poissons Ratio (z) = 0.23468 0.35723
#
# Static dielectric constant tensor:
#      x y z
#    x 3.945850 0.000000 0.146190 
#    y 0.000000 3.982630 0.000000 
#    z 0.146190 0.000000 3.758770 
# 
# 
# High freq. dielectric constant tensor:
#      x y z
#    x 1.861840 0.000000 0.010250 
#    y 0.000000 1.870160 0.000000 
#    z 0.010250 0.000000 1.839080 
# 
# From -- ./inp_files/5294.got.cif
#   From: 2010.03.12/outbox.cif.g09.slc.cpg/sg4_3_cif.got.tgz:5294.got - 2010.03.31 09:31:35.
