data_PCOD8046630
_publ_section_title
;
Structure prediction by ZEFSAII (Michael W. Deem and Ramdas Pophale) SiO2 
 PCOD8046630
Probable space group: P 21
;
_chemical_formula_sum "Si O2"
_cell_formula_units_Z 14
_cell_length_a 5.125885
_cell_length_b 12.836249
_cell_length_c 11.213819
_cell_angle_alpha 90.000000
_cell_angle_beta 62.196357
_cell_angle_gamma 90.000000
_cell_volume 652.654848
_symmetry_space_group_name_H-M "P 21"
_symmetry_group_IT_number 4
_symmetry_cell_setting 'monoclinic'
loop_
_space_group_symop_operation_xyz
x,y,z
-x,1/2+y,-z
loop_
_atom_site_type_symbol
_atom_site_label
_atom_site_fract_x
_atom_site_fract_y
_atom_site_fract_z
Si Si1 0.519321 0.258050 0.591332
Si Si2 0.825429 0.587106 0.212880
Si Si3 0.040174 0.658989 0.928367
Si Si4 0.074992 0.617389 0.660413
Si Si5 0.379449 0.260017 0.140960
Si Si6 0.261409 0.467051 0.274678
Si Si7 0.039172 0.391747 0.561062
O O1 0.293327 0.201357 0.729159
O O2 0.669180 0.170428 0.473840
O O3 0.331648 0.338753 0.552366
O O4 0.752029 0.317358 0.627805
O O5 0.557693 0.506015 0.275020
O O6 0.075564 0.559952 0.255960
O O7 0.963840 0.579993 0.050821
O O8 0.166919 0.603266 0.781123
O O9 0.275022 0.741491 0.926018
O O10 0.741806 0.722470 0.961272
O O11 0.984190 0.503603 0.633750
O O12 0.792271 0.695311 0.717601
O O13 0.329429 0.383065 0.158510
O O14 0.070546 0.409595 0.414194
#
# Coordination Sequence:
#
# PCOD8046630 Si02
#       7
#     2   2   2   2   2   2   2
#     4  12  26  43  69 100 136 172 224 283 337 387
#     4  12  26  45  68 101 141 172 220 288 337 386
#     4  10  23  45  64  95 137 177 214 275 332 394
#     4  10  25  42  71  90 138 173 218 279 325 401
#     4  10  22  42  70  92 131 176 228 261 328 411
#     4  12  23  43  72 101 130 182 226 269 337 414
#     4  12  25  42  68 105 129 174 228 271 342 399
#
# _framework density 21.450848000000001
#
# number of rings (size 3 to 8) (size 9 to 14) (size 15 to 20)
#    0.857    0.000    2.857    4.286    2.000    0.000 
#    7.714    0.000    0.000    0.000    0.000    0.000 
#    0.000    0.000    0.000    0.000    0.000    0.000 
#
# Total GULP energy -173548.318149 kJ/mol
# GULP energy per Si atom -12396.308439 kJ/mol
# Density = 2.140202 g / cm^3
# Si number density = 21.450848 Si / 1000 Ang^3
#
#
#
# Elastic Constant Matrix: (Units=GPa)
#
#
# Indices 1 2 3 4 5 6 
#
# 1 119.7171 36.8335 24.4903 0.0000 8.2765 0.0000
# 2 36.8335 110.7153 29.0226 0.0000 -2.2900 0.0000
# 3 24.4903 29.0226 66.9777 0.0000 3.2472 0.0000
# 4 0.0000 0.0000 0.0000 20.5713 0.0000 -1.5215
# 5 8.2765 -2.2900 3.2472 0.0000 19.8543 0.0000
# 6 0.0000 0.0000 0.0000 -1.5215 0.0000 44.2872
#
#
#
# Elastic Compliance Matrix: (Units=1/GPa)
#
#
# Indices 1 2 3 4 5 6 
#
# 1 0.009958 -0.002816 -0.002222 0.000000 -0.004113 0.000000
# 2 -0.002816 0.011058 -0.003912 0.000000 0.003089 0.000000
# 3 -0.002222 -0.003912 0.017554 0.000000 -0.002396 0.000000
# 4 0.000000 0.000000 0.000000 0.048735 0.000000 0.001674
# 5 -0.004113 0.003089 -0.002396 0.000000 0.052829 0.000000
# 6 0.000000 0.000000 0.000000 0.001674 0.000000 0.022637
#
#
# Mechanical properties :
#
#
# Convention : Reuss Voigt Hill
#
# Bulk Modulus (GPa) = 48.37520 53.12255 50.74887
# Shear Modulus (GPa) = 26.65791 30.74681 28.70236
#
# Velocity S-wave (km/s) = 3.52908 3.79008 3.66191
# Velocity P-wave (km/s) = 6.26151 6.63110 6.44895
#
# Compressibility (1/GPa) = 0.02067175
#
# Stress axis : x y z
#
# Youngs Moduli (GPa) = 100.42059 90.43026 56.96705
#
# Poissons Ratio (x) = 0.25461 0.12657
# Poissons Ratio (y) = 0.28274 0.22285
# Poissons Ratio (z) = 0.22311 0.35376
#
# Static dielectric constant tensor:
#      x y z
#    x 3.838240 0.000000 -0.047260 
#    y 0.000000 3.732430 0.000000 
#    z -0.047260 0.000000 3.849220 
# 
# 
# High freq. dielectric constant tensor:
#      x y z
#    x 1.851700 0.000000 0.002340 
#    y 0.000000 1.837810 0.000000 
#    z 0.002340 0.000000 1.828310 
# 
# From -- ./inp_files/2820.got.cif
#   From: 2010.03.12/outbox.cif.g09.slc.cpg/sg4_2_cif.got.tgz:2820.got - 2010.03.31 09:31:35.
