data_PCOD8046977
_publ_section_title
;
Structure prediction by ZEFSAII (Michael W. Deem and Ramdas Pophale) SiO2 
 PCOD8046977
Probable space group: P 21
;
_chemical_formula_sum "Si O2"
_cell_formula_units_Z 14
_cell_length_a 14.757662
_cell_length_b 7.517974
_cell_length_c 14.434311
_cell_angle_alpha 90.000000
_cell_angle_beta 159.702061
_cell_angle_gamma 90.000000
_cell_volume 555.547418
_symmetry_space_group_name_H-M "P 21"
_symmetry_group_IT_number 4
_symmetry_cell_setting 'monoclinic'
loop_
_space_group_symop_operation_xyz
x,y,z
-x,1/2+y,-z
loop_
_atom_site_type_symbol
_atom_site_label
_atom_site_fract_x
_atom_site_fract_y
_atom_site_fract_z
Si Si1 0.062688 0.981370 0.863907
Si Si2 0.332966 0.707125 0.755600
Si Si3 0.419560 0.377003 0.720509
Si Si4 0.640196 0.058047 0.027743
Si Si5 0.691667 0.442882 0.605332
Si Si6 0.145299 0.579130 0.146422
Si Si7 0.974390 0.348596 0.703943
O O1 0.857282 0.898600 0.594553
O O2 0.948843 0.958578 0.857407
O O3 0.117592 0.191230 0.897728
O O4 0.340574 0.881334 0.123047
O O5 0.474381 0.536743 0.845349
O O6 0.227171 0.653427 0.755969
O O7 0.098350 0.770492 0.466033
O O8 0.531048 0.869589 0.956609
O O9 0.418766 0.188028 0.772981
O O10 0.846086 0.019870 0.143027
O O11 0.390797 0.487772 0.331698
O O12 0.766065 0.270097 0.735012
O O13 0.726876 0.412431 0.528395
O O14 0.900833 0.592105 0.840208
#
# Coordination Sequence:
#
# PCOD8046977 Si02
#       7
#     2   2   2   2   2   2   2
#     4  10  23  46  69 102 145 190 234 298 360 422
#     4  11  25  46  67 104 146 185 245 302 359 428
#     4  11  24  43  72 101 145 190 238 296 360 426
#     4  12  25  44  72 102 140 192 245 297 365 433
#     4  11  25  45  72 106 147 190 238 296 358 423
#     4  11  24  44  72 105 146 190 237 297 351 429
#     4  10  26  44  72  98 147 189 237 302 361 423
#
# _framework density 25.200369999999999
#
# number of rings (size 3 to 8) (size 9 to 14) (size 15 to 20)
#    0.000    1.143    2.857    1.714    4.000    9.143 
#    0.000    0.000    0.000    0.000    0.000    0.000 
#    0.000    0.000    0.000    0.000    0.000    0.000 
#
# Total GULP energy -173594.609244 kJ/mol
# GULP energy per Si atom -12399.614946 kJ/mol
# Density = 2.514301 g / cm^3
# Si number density = 25.200370 Si / 1000 Ang^3
#
#
#
# Elastic Constant Matrix: (Units=GPa)
#
#
# Indices 1 2 3 4 5 6 
#
# 1 105.3091 38.0803 22.3478 0.0000 8.7180 0.0000
# 2 38.0803 103.0171 11.2214 0.0000 4.0068 0.0000
# 3 22.3478 11.2214 65.3040 0.0000 6.5722 0.0000
# 4 0.0000 0.0000 0.0000 34.7825 0.0000 -1.5940
# 5 8.7180 4.0068 6.5722 0.0000 38.6914 0.0000
# 6 0.0000 0.0000 0.0000 -1.5940 0.0000 34.0671
#
#
#
# Elastic Compliance Matrix: (Units=1/GPa)
#
#
# Indices 1 2 3 4 5 6 
#
# 1 0.011728 -0.003924 -0.003168 0.000000 -0.001698 0.000000
# 2 -0.003924 0.011227 -0.000568 0.000000 -0.000182 0.000000
# 3 -0.003168 -0.000568 0.016703 0.000000 -0.002064 0.000000
# 4 0.000000 0.000000 0.000000 0.028812 0.000000 0.001348
# 5 -0.001698 -0.000182 -0.002064 0.000000 0.026598 0.000000
# 6 0.000000 0.000000 0.000000 0.001348 0.000000 0.029417
#
#
# Mechanical properties :
#
#
# Convention : Reuss Voigt Hill
#
# Bulk Modulus (GPa) = 41.09050 46.32548 43.70799
# Shear Modulus (GPa) = 33.80304 34.97358 34.38831
#
# Velocity S-wave (km/s) = 3.66645 3.72939 3.69805
# Velocity P-wave (km/s) = 5.85360 6.08007 5.96791
#
# Compressibility (1/GPa) = 0.02433653
#
# Stress axis : x y z
#
# Youngs Moduli (GPa) = 85.26831 89.07433 59.87110
#
# Poissons Ratio (x) = 0.34953 0.18968
# Poissons Ratio (y) = 0.33459 0.03400
# Poissons Ratio (z) = 0.27015 0.05059
#
# Static dielectric constant tensor:
#      x y z
#    x 4.701640 0.000000 -0.021190 
#    y 0.000000 4.747050 0.000000 
#    z -0.021190 0.000000 4.214590 
# 
# 
# High freq. dielectric constant tensor:
#      x y z
#    x 2.013390 0.000000 -0.003030 
#    y 0.000000 2.018810 0.000000 
#    z -0.003030 0.000000 1.983200 
# 
# From -- ./inp_files/14194.got.cif
#   From: 2010.03.12/outbox.cif.g09.slc.cpg/sg4_8_cif.got.tgz:14194.got - 2010.03.31 09:31:35.
