data_PCOD8046538
_publ_section_title
;
Structure prediction by ZEFSAII (Michael W. Deem and Ramdas Pophale) SiO2 
 PCOD8046538
Probable space group: P 21
;
_chemical_formula_sum "Si O2"
_cell_formula_units_Z 16
_cell_length_a 8.277520
_cell_length_b 13.533192
_cell_length_c 8.060098
_cell_angle_alpha 90.000000
_cell_angle_beta 118.908952
_cell_angle_gamma 90.000000
_cell_volume 790.390830
_symmetry_space_group_name_H-M "P 21"
_symmetry_group_IT_number 4
_symmetry_cell_setting 'monoclinic'
loop_
_space_group_symop_operation_xyz
x,y,z
-x,1/2+y,-z
loop_
_atom_site_type_symbol
_atom_site_label
_atom_site_fract_x
_atom_site_fract_y
_atom_site_fract_z
Si Si1 0.344480 0.310720 0.379600
Si Si2 0.752606 0.613362 0.813175
Si Si3 0.213076 0.052327 0.795073
Si Si4 0.401440 0.643034 0.454788
Si Si5 0.410173 0.488743 0.181793
Si Si6 0.029880 0.384804 0.442690
Si Si7 0.073258 0.671844 0.530691
Si Si8 0.922506 0.012287 0.216633
O O1 0.213382 0.229345 0.219611
O O2 0.514706 0.251186 0.547872
O O3 0.433979 0.388518 0.297416
O O4 0.232543 0.368137 0.466393
O O5 0.546122 0.584785 0.647032
O O6 0.895300 0.539257 0.797155
O O7 0.764975 0.602319 0.016062
O O8 0.406478 0.010633 0.829127
O O9 0.131955 0.134128 0.625455
O O10 0.074108 0.959190 0.733681
O O11 0.364806 0.583306 0.270465
O O12 0.203941 0.655779 0.439521
O O13 0.237504 0.471032 0.977686
O O14 0.033975 0.427206 0.629690
O O15 0.922143 0.282662 0.402974
O O16 0.148694 0.608995 0.722484
#
# Coordination Sequence:
#
# PCOD8046538 Si02
#       8
#     2   2   2   2   2   2   2   2
#     4  10  23  42  68  93 132 169 219 267 325 392
#     4  10  22  44  64  95 131 172 209 274 326 378
#     4  11  24  40  67  92 136 171 217 274 322 390
#     4  10  22  40  67  90 134 168 212 275 320 386
#     4  12  23  43  64 101 129 174 224 264 330 390
#     4  11  22  41  67  93 130 173 219 265 329 392
#     4  11  21  42  63  98 129 173 215 267 332 382
#     4  11  23  40  68  94 131 172 211 276 322 386
#
# _framework density 20.24315
#
# number of rings (size 3 to 8) (size 9 to 14) (size 15 to 20)
#    0.750    0.500    1.250    6.750    1.750    0.000 
#    0.000    1.250    0.000    0.000    0.000    0.000 
#    0.000    0.000    0.000    0.000    0.000    0.000 
#
# Total GULP energy -198379.637662 kJ/mol
# GULP energy per Si atom -12398.727354 kJ/mol
# Density = 2.019708 g / cm^3
# Si number density = 20.243150 Si / 1000 Ang^3
#
#
#
# Elastic Constant Matrix: (Units=GPa)
#
#
# Indices 1 2 3 4 5 6 
#
# 1 91.6841 12.3394 2.8508 0.0000 -3.6077 0.0000
# 2 12.3394 95.5029 5.4176 0.0000 -9.3091 0.0000
# 3 2.8508 5.4176 41.5414 0.0000 -7.4179 0.0000
# 4 0.0000 0.0000 0.0000 19.6296 0.0000 -5.3765
# 5 -3.6077 -9.3091 -7.4179 0.0000 31.9586 0.0000
# 6 0.0000 0.0000 0.0000 -5.3765 0.0000 37.8055
#
#
#
# Elastic Compliance Matrix: (Units=1/GPa)
#
#
# Indices 1 2 3 4 5 6 
#
# 1 0.011131 -0.001338 -0.000453 0.000000 0.000761 0.000000
# 2 -0.001338 0.010969 -0.000829 0.000000 0.002851 0.000000
# 3 -0.000453 -0.000829 0.025204 0.000000 0.005557 0.000000
# 4 0.000000 0.000000 0.000000 0.053008 0.000000 0.007539
# 5 0.000761 0.002851 0.005557 0.000000 0.033497 0.000000
# 6 0.000000 0.000000 0.000000 0.007539 0.000000 0.027523
#
#
# Mechanical properties :
#
#
# Convention : Reuss Voigt Hill
#
# Bulk Modulus (GPa) = 23.77457 29.99380 26.88418
# Shear Modulus (GPa) = 27.68622 31.75346 29.71984
#
# Velocity S-wave (km/s) = 3.70223 3.96486 3.83579
# Velocity P-wave (km/s) = 5.48137 5.98407 5.73822
#
# Compressibility (1/GPa) = 0.04206175
#
# Stress axis : x y z
#
# Youngs Moduli (GPa) = 89.83770 91.16774 39.67624
#
# Poissons Ratio (x) = 0.12201 0.01799
# Poissons Ratio (y) = 0.12023 0.03291
# Poissons Ratio (z) = 0.04073 0.07562
#
# Static dielectric constant tensor:
#      x y z
#    x 3.712170 0.000000 -0.028650 
#    y 0.000000 3.741330 0.000000 
#    z -0.028650 0.000000 3.514160 
# 
# 
# High freq. dielectric constant tensor:
#      x y z
#    x 1.801520 0.000000 -0.006950 
#    y 0.000000 1.795740 0.000000 
#    z -0.006950 0.000000 1.775930 
# 
# From -- ./inp_files/6202.got.cif
#   From: 2010.03.12/outbox.cif.g09.slc.cpg/sg4_4_cif.got.tgz:6202.got - 2010.03.31 09:31:35.
