data_PCOD8046346
_publ_section_title
;
Structure prediction by ZEFSAII (Michael W. Deem and Ramdas Pophale) SiO2 
 PCOD8046346
Probable space group: P 21
;
_chemical_formula_sum "Si O2"
_cell_formula_units_Z 16
_cell_length_a 10.527439
_cell_length_b 6.772159
_cell_length_c 11.301312
_cell_angle_alpha 90.000000
_cell_angle_beta 115.577223
_cell_angle_gamma 90.000000
_cell_volume 726.753808
_symmetry_space_group_name_H-M "P 21"
_symmetry_group_IT_number 4
_symmetry_cell_setting 'monoclinic'
loop_
_space_group_symop_operation_xyz
x,y,z
-x,1/2+y,-z
loop_
_atom_site_type_symbol
_atom_site_label
_atom_site_fract_x
_atom_site_fract_y
_atom_site_fract_z
Si Si1 0.392641 0.503260 0.306875
Si Si2 0.251172 0.365805 0.594613
Si Si3 0.365810 0.868690 0.981494
Si Si4 0.327943 0.012680 0.455842
Si Si5 0.849306 0.128054 0.630644
Si Si6 0.559879 0.457262 0.739646
Si Si7 0.164218 0.170734 0.802389
Si Si8 0.345665 0.423539 0.029848
O O1 0.528443 0.418839 0.431924
O O2 0.254598 0.493508 0.332376
O O3 0.420815 0.728079 0.283185
O O4 0.371549 0.376217 0.178812
O O5 0.141780 0.523188 0.494562
O O6 0.392191 0.491079 0.678727
O O7 0.187299 0.277000 0.687278
O O8 0.274203 0.193762 0.509414
O O9 0.313046 0.652901 0.994718
O O10 0.257806 0.970611 0.846587
O O11 0.373436 0.002697 0.104495
O O12 0.520029 0.845392 0.988262
O O13 0.205269 0.850670 0.404284
O O14 0.365036 0.083679 0.335210
O O15 0.000874 0.122538 0.753325
O O16 0.207948 0.311971 0.927739
#
# Coordination Sequence:
#
# PCOD8046346 Si02
#       8
#     2   2   2   2   2   2   2   2
#     4   9  20  41  66  96 125 165 220 266 311 390
#     4  11  23  42  64  94 132 166 218 269 322 393
#     4  11  21  42  67  97 130 171 217 268 314 391
#     4  10  21  41  71  98 124 169 217 270 324 379
#     4  11  26  43  64  96 132 169 215 271 333 388
#     4   9  18  38  67  99 125 159 222 268 307 383
#     4  12  27  43  61 100 134 173 219 260 338 394
#     4  11  22  42  70  96 130 172 218 268 319 386
#
# _framework density 22.015709000000001
#
# number of rings (size 3 to 8) (size 9 to 14) (size 15 to 20)
#    0.000    1.500    3.750    1.500    1.750    5.000 
#    6.750    0.000    0.000    0.000    0.000    0.000 
#    0.000    0.000    0.000    0.000    0.000    0.000 
#
# Total GULP energy -198453.377930 kJ/mol
# GULP energy per Si atom -12403.336121 kJ/mol
# Density = 2.196560 g / cm^3
# Si number density = 22.015709 Si / 1000 Ang^3
#
#
#
# Elastic Constant Matrix: (Units=GPa)
#
#
# Indices 1 2 3 4 5 6 
#
# 1 63.9507 7.8897 49.1885 0.0000 12.1320 0.0000
# 2 7.8897 18.6564 22.5666 0.0000 8.9958 0.0000
# 3 49.1885 22.5666 143.2884 0.0000 7.8632 0.0000
# 4 0.0000 0.0000 0.0000 47.2842 0.0000 -3.2017
# 5 12.1320 8.9958 7.8632 0.0000 49.7573 0.0000
# 6 0.0000 0.0000 0.0000 -3.2017 0.0000 25.8094
#
#
#
# Elastic Compliance Matrix: (Units=1/GPa)
#
#
# Indices 1 2 3 4 5 6 
#
# 1 0.022157 0.002140 -0.007692 0.000000 -0.004574 0.000000
# 2 0.002140 0.072240 -0.011466 0.000000 -0.011770 0.000000
# 3 -0.007692 -0.011466 0.011307 0.000000 0.002162 0.000000
# 4 0.000000 0.000000 0.000000 0.021328 0.000000 0.002646
# 5 -0.004574 -0.011770 0.002162 0.000000 0.022999 0.000000
# 6 0.000000 0.000000 0.000000 0.002646 0.000000 0.039074
#
#
# Mechanical properties :
#
#
# Convention : Reuss Voigt Hill
#
# Bulk Modulus (GPa) = 13.95334 42.79837 28.37585
# Shear Modulus (GPa) = 20.24036 34.32022 27.28029
#
# Velocity S-wave (km/s) = 3.03538 3.95257 3.52394
# Velocity P-wave (km/s) = 4.31699 6.34922 5.42904
#
# Compressibility (1/GPa) = 0.07166743
#
# Stress axis : x y z
#
# Youngs Moduli (GPa) = 45.13183 13.84268 88.44334
#
# Poissons Ratio (x) = -0.02962 0.68032
# Poissons Ratio (y) = -0.09656 1.01407
# Poissons Ratio (z) = 0.34716 0.15872
#
# Static dielectric constant tensor:
#      x y z
#    x 3.759200 0.000000 -0.238210 
#    y 0.000000 3.889410 0.000000 
#    z -0.238210 0.000000 4.295770 
# 
# 
# High freq. dielectric constant tensor:
#      x y z
#    x 1.838310 0.000000 -0.018640 
#    y 0.000000 1.879940 0.000000 
#    z -0.018640 0.000000 1.875740 
# 
# From -- ./inp_files/12125.got.cif
#   From: 2010.03.12/outbox.cif.g09.slc.cpg/sg4_7_cif.got.tgz:12125.got - 2010.03.31 09:31:35.
