data_PCOD8046404
_publ_section_title
;
Structure prediction by ZEFSAII (Michael W. Deem and Ramdas Pophale) SiO2 
 PCOD8046404
Probable space group: P 21
;
_chemical_formula_sum "Si O2"
_cell_formula_units_Z 12
_cell_length_a 6.849348
_cell_length_b 9.676561
_cell_length_c 8.910201
_cell_angle_alpha 90.000000
_cell_angle_beta 78.094474
_cell_angle_gamma 90.000000
_cell_volume 577.848195
_symmetry_space_group_name_H-M "P 21"
_symmetry_group_IT_number 4
_symmetry_cell_setting 'monoclinic'
loop_
_space_group_symop_operation_xyz
x,y,z
-x,1/2+y,-z
loop_
_atom_site_type_symbol
_atom_site_label
_atom_site_fract_x
_atom_site_fract_y
_atom_site_fract_z
Si Si1 0.809988 0.440490 0.923651
Si Si2 0.791133 0.812729 0.577931
Si Si3 0.873425 0.510792 0.583377
Si Si4 0.957934 0.143220 0.918272
Si Si5 0.585063 0.995443 0.836068
Si Si6 0.323622 0.128400 0.640167
O O1 0.793506 0.437796 0.746252
O O2 0.909608 0.300519 0.970100
O O3 0.588608 0.451833 0.023816
O O4 0.949314 0.567690 0.951702
O O5 0.917877 0.675310 0.603921
O O6 0.661410 0.857241 0.742122
O O7 0.647923 0.771017 0.458729
O O8 0.926425 0.939671 0.505686
O O9 0.705254 0.503132 0.477391
O O10 0.113752 0.138299 0.759170
O O11 0.755182 0.068377 0.903430
O O12 0.507267 0.102335 0.721224
#
# Coordination Sequence:
#
# PCOD8046404 Si02
#       6
#     2   2   2   2   2   2
#     4  11  26  42  67  97 132 177 217 270 329 387
#     4  10  21  43  69  98 126 173 216 275 320 389
#     4  10  21  43  69  95 129 169 220 263 329 383
#     4  11  24  44  65  94 136 177 212 275 325 391
#     4  11  24  42  67  98 134 167 221 274 324 388
#     4   9  22  42  67  94 129 169 216 265 327 388
#
# _framework density 20.7667
#
# number of rings (size 3 to 8) (size 9 to 14) (size 15 to 20)
#    1.000    0.667    3.333    0.000    4.667    2.667 
#    6.000    0.000    0.000    0.000    0.000    0.000 
#    0.000    0.000    0.000    0.000    0.000    0.000 
#
# Total GULP energy -148716.739127 kJ/mol
# GULP energy per Si atom -12393.061594 kJ/mol
# Density = 2.071943 g / cm^3
# Si number density = 20.766700 Si / 1000 Ang^3
#
#
#
# Elastic Constant Matrix: (Units=GPa)
#
#
# Indices 1 2 3 4 5 6 
#
# 1 72.9202 19.7301 28.7180 0.0000 -14.8995 0.0000
# 2 19.7301 88.1017 4.0050 0.0000 -21.9830 0.0000
# 3 28.7180 4.0050 81.6277 0.0000 -11.8364 0.0000
# 4 0.0000 0.0000 0.0000 37.3367 0.0000 1.8789
# 5 -14.8995 -21.9830 -11.8364 0.0000 21.4198 0.0000
# 6 0.0000 0.0000 0.0000 1.8789 0.0000 22.5527
#
#
#
# Elastic Compliance Matrix: (Units=1/GPa)
#
#
# Indices 1 2 3 4 5 6 
#
# 1 0.017768 -0.001830 -0.005046 0.000000 0.007693 0.000000
# 2 -0.001830 0.015655 0.002197 0.000000 0.016007 0.000000
# 3 -0.005046 0.002197 0.014933 0.000000 0.006997 0.000000
# 4 0.000000 0.000000 0.000000 0.026896 0.000000 -0.002241
# 5 0.007693 0.016007 0.006997 0.000000 0.072331 0.000000
# 6 0.000000 0.000000 0.000000 -0.002241 0.000000 0.044527
#
#
# Mechanical properties :
#
#
# Convention : Reuss Voigt Hill
#
# Bulk Modulus (GPa) = 25.64304 38.61732 32.13018
# Shear Modulus (GPa) = 23.31369 28.94162 26.12765
#
# Velocity S-wave (km/s) = 3.35423 3.73722 3.55089
# Velocity P-wave (km/s) = 5.23222 6.10398 5.68483
#
# Compressibility (1/GPa) = 0.03899694
#
# Stress axis : x y z
#
# Youngs Moduli (GPa) = 56.28163 63.87908 66.96727
#
# Poissons Ratio (x) = 0.11691 0.33790
# Poissons Ratio (y) = 0.10301 -0.14712
# Poissons Ratio (z) = 0.28398 -0.14034
#
# Static dielectric constant tensor:
#      x y z
#    x 3.505060 0.000000 0.037890 
#    y 0.000000 3.753310 0.000000 
#    z 0.037890 0.000000 3.835830 
# 
# 
# High freq. dielectric constant tensor:
#      x y z
#    x 1.794430 0.000000 -0.001070 
#    y 0.000000 1.811490 0.000000 
#    z -0.001070 0.000000 1.824810 
# 
# From -- ./inp_files/4607.got.cif
#   From: 2010.03.12/outbox.cif.g09.slc.cpg/sg4_3_cif.got.tgz:4607.got - 2010.03.31 09:31:35.
