data_PCOD8046585
_publ_section_title
;
Structure prediction by ZEFSAII (Michael W. Deem and Ramdas Pophale) SiO2 
 PCOD8046585
Probable space group: P 21
;
_chemical_formula_sum "Si O2"
_cell_formula_units_Z 14
_cell_length_a 8.537833
_cell_length_b 9.017069
_cell_length_c 8.537810
_cell_angle_alpha 90.000000
_cell_angle_beta 82.325913
_cell_angle_gamma 90.000000
_cell_volume 651.406875
_symmetry_space_group_name_H-M "P 21"
_symmetry_group_IT_number 4
_symmetry_cell_setting 'monoclinic'
loop_
_space_group_symop_operation_xyz
x,y,z
-x,1/2+y,-z
loop_
_atom_site_type_symbol
_atom_site_label
_atom_site_fract_x
_atom_site_fract_y
_atom_site_fract_z
Si Si1 0.386560 0.917780 0.232929
Si Si2 0.732922 0.143177 0.886562
Si Si3 0.507031 0.507734 0.287410
Si Si4 0.613030 0.250267 0.476791
Si Si5 0.976796 0.810689 0.113022
Si Si6 0.212592 0.053236 0.992983
Si Si7 0.732936 0.030472 0.232940
O O1 0.392327 0.780484 0.107666
O O2 0.302952 0.856772 0.404255
O O3 0.559558 0.962536 0.262153
O O4 0.291650 0.048760 0.157309
O O5 0.904255 0.204176 0.802964
O O6 0.657298 0.012209 0.791640
O O7 0.762121 0.098404 0.059563
O O8 0.511899 0.346983 0.367486
O O9 0.505897 0.637827 0.417999
O O10 0.658861 0.530499 0.158857
O O11 0.745914 0.156180 0.365227
O O12 0.867503 0.713980 0.011874
O O13 0.865227 0.904770 0.245906
O O14 0.082013 0.923135 0.994110
#
# Coordination Sequence:
#
# PCOD8046585 Si02
#       7
#     2   2   2   2   2   2   2
#     4  10  22  41  67 104 129 172 235 283 334 409
#     4  10  22  41  67 104 129 172 235 283 334 409
#     4  11  23  42  72 100 139 177 242 291 334 414
#     4  11  23  41  67 108 136 177 224 296 355 400
#     4  11  23  41  67 108 136 177 224 296 355 400
#     4  11  23  42  72 100 139 177 242 291 334 414
#     4  12  22  40  72 100 140 176 218 296 346 410
#
# _framework density 21.491945000000001
#
# number of rings (size 3 to 8) (size 9 to 14) (size 15 to 20)
#    0.000    1.143    4.286    3.429    0.000    0.000 
#    0.000    0.000   28.286    0.000    0.000    0.000 
#    0.000    0.000    0.000    0.000    0.000    0.000 
#
# Total GULP energy -173460.835774 kJ/mol
# GULP energy per Si atom -12390.059698 kJ/mol
# Density = 2.144303 g / cm^3
# Si number density = 21.491945 Si / 1000 Ang^3
#
#
#
# Elastic Constant Matrix: (Units=GPa)
#
#
# Indices 1 2 3 4 5 6 
#
# 1 118.6088 61.2264 70.8795 0.0000 -12.2175 0.0000
# 2 61.2264 96.3643 66.2608 0.0000 -6.9166 0.0000
# 3 70.8795 66.2608 127.5857 0.0000 -0.1203 0.0000
# 4 0.0000 0.0000 0.0000 48.3004 0.0000 -0.3689
# 5 -12.2175 -6.9166 -0.1203 0.0000 11.6894 0.0000
# 6 0.0000 0.0000 0.0000 -0.3689 0.0000 48.0316
#
#
#
# Elastic Compliance Matrix: (Units=1/GPa)
#
#
# Indices 1 2 3 4 5 6 
#
# 1 0.016276 -0.004858 -0.006506 0.000000 0.014070 0.000000
# 2 -0.004858 0.018711 -0.007013 0.000000 0.005922 0.000000
# 3 -0.006506 -0.007013 0.015084 0.000000 -0.010794 0.000000
# 4 0.000000 0.000000 0.000000 0.020705 0.000000 0.000159
# 5 0.014070 0.005922 -0.010794 0.000000 0.103646 0.000000
# 6 0.000000 0.000000 0.000000 0.000159 0.000000 0.020821
#
#
# Mechanical properties :
#
#
# Convention : Reuss Voigt Hill
#
# Bulk Modulus (GPa) = 75.08874 82.14360 78.61617
# Shear Modulus (GPa) = 21.14739 31.21710 26.18224
#
# Velocity S-wave (km/s) = 3.14023 3.81531 3.49411
# Velocity P-wave (km/s) = 6.93988 7.59686 7.27579
#
# Compressibility (1/GPa) = 0.01331758
#
# Stress axis : x y z
#
# Youngs Moduli (GPa) = 61.44106 53.44421 66.29432
#
# Poissons Ratio (x) = 0.25962 0.43130
# Poissons Ratio (y) = 0.29846 0.46494
# Poissons Ratio (z) = 0.39973 0.37482
#
# Static dielectric constant tensor:
#      x y z
#    x 4.028530 0.000000 0.084910 
#    y 0.000000 4.302300 0.000000 
#    z 0.084910 0.000000 3.966570 
# 
# 
# High freq. dielectric constant tensor:
#      x y z
#    x 1.828770 0.000000 0.006670 
#    y 0.000000 1.856940 0.000000 
#    z 0.006670 0.000000 1.823920 
# 
# From -- ./inp_files/5360.got.cif
#   From: 2010.03.12/outbox.cif.g09.slc.cpg/sg4_3_cif.got.tgz:5360.got - 2010.03.31 09:31:35.
