data_PCOD8046392
_publ_section_title
;
Structure prediction by ZEFSAII (Michael W. Deem and Ramdas Pophale) SiO2 
 PCOD8046392
Probable space group: P 21
;
_chemical_formula_sum "Si O2"
_cell_formula_units_Z 12
_cell_length_a 11.980435
_cell_length_b 11.132112
_cell_length_c 7.855247
_cell_angle_alpha 90.000000
_cell_angle_beta 32.380157
_cell_angle_gamma 90.000000
_cell_volume 561.044530
_symmetry_space_group_name_H-M "P 21"
_symmetry_group_IT_number 4
_symmetry_cell_setting 'monoclinic'
loop_
_space_group_symop_operation_xyz
x,y,z
-x,1/2+y,-z
loop_
_atom_site_type_symbol
_atom_site_label
_atom_site_fract_x
_atom_site_fract_y
_atom_site_fract_z
Si Si1 0.725179 0.176610 0.469723
Si Si2 0.119926 0.303260 0.558304
Si Si3 0.487989 0.949403 0.825675
Si Si4 0.081879 0.854296 0.526560
Si Si5 0.293070 0.893887 0.732093
Si Si6 0.937954 0.556744 0.199657
O O1 0.849806 0.231840 0.468368
O O2 0.623415 0.282137 0.487265
O O3 0.543547 0.090254 0.774640
O O4 0.877481 0.094705 0.162129
O O5 0.334625 0.366331 0.325512
O O6 0.138838 0.163791 0.581209
O O7 0.082663 0.316812 0.404827
O O8 0.934250 0.363526 0.901756
O O9 0.461077 0.919481 0.660652
O O10 0.278118 0.924464 0.196694
O O11 0.975614 0.946122 0.796817
O O12 0.261603 0.010555 0.652619
#
# Coordination Sequence:
#
# PCOD8046392 Si02
#       6
#     2   2   2   2   2   2
#     4  10  22  44  65  90 127 165 208 260 309 371
#     4  10  22  40  64  90 125 171 202 254 320 358
#     4  11  23  40  65  91 128 163 209 255 319 358
#     4  10  25  43  61  97 127 158 217 257 303 385
#     4   9  21  42  61  96 123 159 216 255 295 384
#     4  10  21  43  66  86 130 166 206 259 310 364
#
# _framework density 21.388674999999999
#
# number of rings (size 3 to 8) (size 9 to 14) (size 15 to 20)
#    0.000    2.000    1.667    0.000    7.000    0.000 
#    6.000    0.000    0.000    0.000    0.000    0.000 
#    0.000    0.000    0.000    0.000    0.000    0.000 
#
# Total GULP energy -148835.348781 kJ/mol
# GULP energy per Si atom -12402.945732 kJ/mol
# Density = 2.133999 g / cm^3
# Si number density = 21.388675 Si / 1000 Ang^3
#
#
#
# Elastic Constant Matrix: (Units=GPa)
#
#
# Indices 1 2 3 4 5 6 
#
# 1 193.3631 77.7859 29.4423 0.0000 -4.1786 0.0000
# 2 77.7859 141.2126 31.4139 0.0000 -2.2923 0.0000
# 3 29.4423 31.4139 49.5325 0.0000 0.2538 0.0000
# 4 0.0000 0.0000 0.0000 35.9201 0.0000 8.0865
# 5 -4.1786 -2.2923 0.2538 0.0000 27.8895 0.0000
# 6 0.0000 0.0000 0.0000 8.0865 0.0000 37.1206
#
#
#
# Elastic Compliance Matrix: (Units=1/GPa)
#
#
# Indices 1 2 3 4 5 6 
#
# 1 0.006817 -0.003307 -0.001959 0.000000 0.000767 0.000000
# 2 -0.003307 0.009864 -0.004292 0.000000 0.000354 0.000000
# 3 -0.001959 -0.004292 0.024079 0.000000 -0.000865 0.000000
# 4 0.000000 0.000000 0.000000 0.029275 0.000000 -0.006377
# 5 0.000767 0.000354 -0.000865 0.000000 0.036008 0.000000
# 6 0.000000 0.000000 0.000000 -0.006377 0.000000 0.028329
#
#
# Mechanical properties :
#
#
# Convention : Reuss Voigt Hill
#
# Bulk Modulus (GPa) = 46.19970 73.48804 59.84387
# Shear Modulus (GPa) = 31.11382 36.55046 33.83214
#
# Velocity S-wave (km/s) = 3.81817 4.13833 3.98147
# Velocity P-wave (km/s) = 6.40975 7.56752 7.01257
#
# Compressibility (1/GPa) = 0.02164516
#
# Stress axis : x y z
#
# Youngs Moduli (GPa) = 146.69944 101.38377 41.52946
#
# Poissons Ratio (x) = 0.33525 0.08134
# Poissons Ratio (y) = 0.48510 0.17824
# Poissons Ratio (z) = 0.28733 0.43512
#
# Static dielectric constant tensor:
#      x y z
#    x 4.076470 0.000000 0.209040 
#    y 0.000000 4.049430 0.000000 
#    z 0.209040 0.000000 3.523520 
# 
# 
# High freq. dielectric constant tensor:
#      x y z
#    x 1.851260 0.000000 0.014220 
#    y 0.000000 1.853240 0.000000 
#    z 0.014220 0.000000 1.816130 
# 
# From -- ./inp_files/1073.got.cif
#   From: 2010.03.12/outbox.cif.g09.slc.cpg/sg4_1_cif.got.tgz:1073.got - 2010.03.31 09:31:35.
