data_PCOD8046444
_publ_section_title
;
Structure prediction by ZEFSAII (Michael W. Deem and Ramdas Pophale) SiO2 
 PCOD8046444
Probable space group: P 21
;
_chemical_formula_sum "Si O2"
_cell_formula_units_Z 12
_cell_length_a 7.734938
_cell_length_b 9.227891
_cell_length_c 7.424341
_cell_angle_alpha 90.000000
_cell_angle_beta 87.134388
_cell_angle_gamma 90.000000
_cell_volume 529.265758
_symmetry_space_group_name_H-M "P 21"
_symmetry_group_IT_number 4
_symmetry_cell_setting 'monoclinic'
loop_
_space_group_symop_operation_xyz
x,y,z
-x,1/2+y,-z
loop_
_atom_site_type_symbol
_atom_site_label
_atom_site_fract_x
_atom_site_fract_y
_atom_site_fract_z
Si Si1 0.336057 0.479490 0.339027
Si Si2 0.801256 0.032850 0.264229
Si Si3 0.706428 0.435884 0.208000
Si Si4 0.255738 0.703368 0.055391
Si Si5 0.106651 0.223983 0.776289
Si Si6 0.023062 0.273275 0.366216
O O1 0.303531 0.524220 0.545118
O O2 0.522105 0.404931 0.310995
O O3 0.345125 0.629579 0.222749
O O4 0.189733 0.362317 0.282809
O O5 0.988862 0.113469 0.283458
O O6 0.823025 0.879042 0.166164
O O7 0.684335 0.121135 0.129600
O O8 0.741777 0.607685 0.203946
O O9 0.852142 0.365866 0.328772
O O10 0.704212 0.371399 0.000887
O O11 0.050640 0.680061 0.087888
O O12 0.039421 0.246499 0.577034
#
# Coordination Sequence:
#
# PCOD8046444 Si02
#       6
#     2   2   2   2   2   2
#     4  11  24  47  68 105 144 181 250 295 349 436
#     4  10  23  39  72  97 135 190 233 286 366 408
#     4  11  25  43  72 103 144 189 242 293 358 424
#     4  11  23  45  64 103 139 182 239 291 350 427
#     4  11  20  42  70  99 137 188 229 296 348 421
#     4  10  21  46  70  99 137 190 233 291 357 418
#
# _framework density 22.672920000000001
#
# number of rings (size 3 to 8) (size 9 to 14) (size 15 to 20)
#    0.000    1.333    3.333    2.000    2.333    6.667 
#    6.000    0.000    0.000    0.000    0.000    0.000 
#    0.000    0.000    0.000    0.000    0.000    0.000 
#
# Total GULP energy -148667.657453 kJ/mol
# GULP energy per Si atom -12388.971454 kJ/mol
# Density = 2.262132 g / cm^3
# Si number density = 22.672920 Si / 1000 Ang^3
#
#
#
# Elastic Constant Matrix: (Units=GPa)
#
#
# Indices 1 2 3 4 5 6 
#
# 1 136.4653 46.6970 28.3004 0.0000 -25.4895 0.0000
# 2 46.6970 144.5570 29.1879 0.0000 -6.5657 0.0000
# 3 28.3004 29.1879 88.6600 0.0000 -10.2989 0.0000
# 4 0.0000 0.0000 0.0000 39.6304 0.0000 -1.8151
# 5 -25.4895 -6.5657 -10.2989 0.0000 16.0281 0.0000
# 6 0.0000 0.0000 0.0000 -1.8151 0.0000 19.9971
#
#
#
# Elastic Compliance Matrix: (Units=1/GPa)
#
#
# Indices 1 2 3 4 5 6 
#
# 1 0.011592 -0.002817 -0.000827 0.000000 0.016749 0.000000
# 2 -0.002817 0.008132 -0.002066 0.000000 -0.002476 0.000000
# 3 -0.000827 -0.002066 0.012938 0.000000 0.006152 0.000000
# 4 0.000000 0.000000 0.000000 0.025338 0.000000 0.002300
# 5 0.016749 -0.002476 0.006152 0.000000 0.091965 0.000000
# 6 0.000000 0.000000 0.000000 0.002300 0.000000 0.050216
#
#
# Mechanical properties :
#
#
# Convention : Reuss Voigt Hill
#
# Bulk Modulus (GPa) = 47.07564 64.22809 55.65186
# Shear Modulus (GPa) = 22.86430 32.83092 27.84761
#
# Velocity S-wave (km/s) = 3.17904 3.80942 3.50842
# Velocity P-wave (km/s) = 5.85518 6.90931 6.40397
#
# Compressibility (1/GPa) = 0.02124241
#
# Stress axis : x y z
#
# Youngs Moduli (GPa) = 86.26837 122.96719 77.29353
#
# Poissons Ratio (x) = 0.34637 0.06394
# Poissons Ratio (y) = 0.24300 0.15966
# Poissons Ratio (z) = 0.07136 0.25401
#
# Static dielectric constant tensor:
#      x y z
#    x 3.918020 0.000000 -0.070560 
#    y 0.000000 4.764410 0.000000 
#    z -0.070560 0.000000 4.109340 
# 
# 
# High freq. dielectric constant tensor:
#      x y z
#    x 1.865720 0.000000 -0.002520 
#    y 0.000000 1.908470 0.000000 
#    z -0.002520 0.000000 1.896920 
# 
# From -- ./inp_files/5531.got.cif
#   From: 2010.03.12/outbox.cif.g09.slc.cpg/sg4_3_cif.got.tgz:5531.got - 2010.03.31 09:31:35.
