data_PCOD8046126
_publ_section_title
;
Structure prediction by ZEFSAII (Michael W. Deem and Ramdas Pophale) SiO2 
 PCOD8046126
Probable space group: P 21
;
_chemical_formula_sum "Si O2"
_cell_formula_units_Z 16
_cell_length_a 8.542403
_cell_length_b 12.155726
_cell_length_c 13.180017
_cell_angle_alpha 90.000000
_cell_angle_beta 31.706360
_cell_angle_gamma 90.000000
_cell_volume 719.290402
_symmetry_space_group_name_H-M "P 21"
_symmetry_group_IT_number 4
_symmetry_cell_setting 'monoclinic'
loop_
_space_group_symop_operation_xyz
x,y,z
-x,1/2+y,-z
loop_
_atom_site_type_symbol
_atom_site_label
_atom_site_fract_x
_atom_site_fract_y
_atom_site_fract_z
Si Si1 0.370345 0.706730 0.553863
Si Si2 0.917056 0.581423 0.276305
Si Si3 0.913978 0.672979 0.491290
Si Si4 0.106263 0.034608 0.146985
Si Si5 0.240849 0.369619 0.537939
Si Si6 0.076582 0.365129 0.277280
Si Si7 0.630380 0.005789 0.715235
Si Si8 0.458401 0.172065 0.103381
O O1 0.631036 0.623673 0.367903
O O2 0.499010 0.792469 0.563697
O O3 0.125564 0.632416 0.746487
O O4 0.204697 0.779556 0.557400
O O5 0.815870 0.599621 0.448860
O O6 0.008194 0.451563 0.222133
O O7 0.185869 0.660936 0.094808
O O8 0.968863 0.796847 0.420537
O O9 0.655186 0.670554 0.718334
O O10 0.224740 0.627454 0.365203
O O11 0.330661 0.066705 0.114027
O O12 0.941435 0.922175 0.269016
O O13 0.295683 0.009663 0.942109
O O14 0.388504 0.466152 0.389935
O O15 0.147585 0.427781 0.342257
O O16 0.364144 0.286064 0.098606
#
# Coordination Sequence:
#
# PCOD8046126 Si02
#       8
#     2   2   2   2   2   2   2   2
#     4  10  24  41  64  92 136 171 216 266 341 397
#     4  10  22  40  60  90 132 167 207 271 326 389
#     4  10  21  36  61  99 124 156 219 270 314 385
#     4  11  23  41  67  94 131 173 219 272 329 394
#     4  11  23  40  68  92 134 178 210 274 336 387
#     4  10  21  39  64  96 124 169 220 267 322 394
#     4  11  22  40  68  97 130 164 228 276 318 396
#     4  11  20  37  66  94 123 164 219 270 316 386
#
# _framework density 22.244145
#
# number of rings (size 3 to 8) (size 9 to 14) (size 15 to 20)
#    0.000    1.500    5.000    0.750    3.500    0.000 
#    0.000    6.250    2.750    1.500    0.000    0.000 
#    0.000    0.000    0.000    0.000    0.000    0.000 
#
# Total GULP energy -198227.284739 kJ/mol
# GULP energy per Si atom -12389.205296 kJ/mol
# Density = 2.219352 g / cm^3
# Si number density = 22.244145 Si / 1000 Ang^3
#
#
#
# Elastic Constant Matrix: (Units=GPa)
#
#
# Indices 1 2 3 4 5 6 
#
# 1 27.4348 26.5171 42.5291 0.0000 -12.6577 0.0000
# 2 26.5171 113.9897 55.5514 0.0000 -12.1151 0.0000
# 3 42.5291 55.5514 144.8333 0.0000 -15.4718 0.0000
# 4 0.0000 0.0000 0.0000 26.9663 0.0000 -9.8542
# 5 -12.6577 -12.1151 -15.4718 0.0000 34.0755 0.0000
# 6 0.0000 0.0000 0.0000 -9.8542 0.0000 51.5471
#
#
#
# Elastic Compliance Matrix: (Units=1/GPa)
#
#
# Indices 1 2 3 4 5 6 
#
# 1 0.082669 -0.007822 -0.019224 0.000000 0.019199 0.000000
# 2 -0.007822 0.011669 -0.002150 0.000000 0.000267 0.000000
# 3 -0.019224 -0.002150 0.013168 0.000000 -0.001926 0.000000
# 4 0.000000 0.000000 0.000000 0.039868 0.000000 0.007622
# 5 0.019199 0.000267 -0.001926 0.000000 0.035698 0.000000
# 6 0.000000 0.000000 0.000000 0.007622 0.000000 0.020857
#
#
# Mechanical properties :
#
#
# Convention : Reuss Voigt Hill
#
# Bulk Modulus (GPa) = 20.36090 59.49477 39.92783
# Shear Modulus (GPa) = 17.94084 33.29513 25.61798
#
# Velocity S-wave (km/s) = 2.84305 3.87305 3.39731
# Velocity P-wave (km/s) = 4.46660 6.84142 5.77735
#
# Compressibility (1/GPa) = 0.04911375
#
# Stress axis : x y z
#
# Youngs Moduli (GPa) = 12.09637 85.70050 75.93938
#
# Poissons Ratio (x) = 0.67036 1.45987
# Poissons Ratio (y) = 0.09462 0.16328
# Poissons Ratio (z) = 0.23254 0.18427
#
# Static dielectric constant tensor:
#      x y z
#    x 3.898400 0.000000 -0.250620 
#    y 0.000000 4.627100 0.000000 
#    z -0.250620 0.000000 3.874880 
# 
# 
# High freq. dielectric constant tensor:
#      x y z
#    x 1.850640 0.000000 -0.017800 
#    y 0.000000 1.901760 0.000000 
#    z -0.017800 0.000000 1.852440 
# 
# From -- ./inp_files/8247.got.cif
#   From: 2010.03.12/outbox.cif.g09.slc.cpg/sg4_5_cif.got.tgz:8247.got - 2010.03.31 09:31:35.
