data_PCOD8046865
_publ_section_title
;
Structure prediction by ZEFSAII (Michael W. Deem and Ramdas Pophale) SiO2 
 PCOD8046865
Probable space group: P 21
;
_chemical_formula_sum "Si O2"
_cell_formula_units_Z 14
_cell_length_a 16.608660
_cell_length_b 5.476883
_cell_length_c 7.293529
_cell_angle_alpha 90.000000
_cell_angle_beta 78.703312
_cell_angle_gamma 90.000000
_cell_volume 650.592674
_symmetry_space_group_name_H-M "P 21"
_symmetry_group_IT_number 4
_symmetry_cell_setting 'monoclinic'
loop_
_space_group_symop_operation_xyz
x,y,z
-x,1/2+y,-z
loop_
_atom_site_type_symbol
_atom_site_label
_atom_site_fract_x
_atom_site_fract_y
_atom_site_fract_z
Si Si1 0.178695 0.060850 0.472129
Si Si2 0.641781 0.644383 0.546617
Si Si3 0.111186 0.982272 0.105227
Si Si4 0.939919 0.799691 0.189868
Si Si5 0.367679 0.625238 0.656703
Si Si6 0.810059 0.196127 0.236425
Si Si7 0.505264 0.598498 0.890866
O O1 0.262947 0.213734 0.454922
O O2 0.103171 0.154188 0.627407
O O3 0.155986 0.064331 0.269619
O O4 0.198666 0.798422 0.551839
O O5 0.632455 0.393387 0.436374
O O6 0.593393 0.601510 0.754774
O O7 0.602537 0.889297 0.473440
O O8 0.036366 0.804544 0.196870
O O9 0.180970 0.884812 0.936019
O O10 0.067372 0.198465 0.013418
O O11 0.895212 0.056184 0.197442
O O12 0.275130 0.556159 0.766692
O O13 0.428920 0.652809 0.795502
O O14 0.493883 0.323713 0.969194
#
# Coordination Sequence:
#
# PCOD8046865 Si02
#       7
#     2   2   2   2   2   2   2
#     4  10  25  40  65  92 127 171 225 270 329 403
#     4  11  23  46  68  98 131 181 221 265 342 399
#     4  11  24  39  63  91 130 172 216 283 328 392
#     4  11  22  41  58  94 126 170 219 269 335 395
#     4  11  23  45  71  93 138 179 216 274 331 402
#     4  10  23  43  62  92 129 170 221 265 337 392
#     4  12  26  42  69 106 135 169 222 276 328 405
#
# _framework density 21.518839
#
# number of rings (size 3 to 8) (size 9 to 14) (size 15 to 20)
#    0.000    1.143    2.857    2.571    4.000    2.286 
#    0.000    0.000    0.000    0.000    0.000    0.000 
#    0.000    0.000    0.000    0.000    0.000    0.000 
#
# Total GULP energy -173446.504368 kJ/mol
# GULP energy per Si atom -12389.036026 kJ/mol
# Density = 2.146986 g / cm^3
# Si number density = 21.518839 Si / 1000 Ang^3
#
#
#
# Elastic Constant Matrix: (Units=GPa)
#
#
# Indices 1 2 3 4 5 6 
#
# 1 89.4003 5.1095 26.8352 0.0000 -0.8347 0.0000
# 2 5.1095 88.9906 17.8710 0.0000 8.2535 0.0000
# 3 26.8352 17.8710 103.4174 0.0000 13.6304 0.0000
# 4 0.0000 0.0000 0.0000 29.4808 0.0000 -0.8091
# 5 -0.8347 8.2535 13.6304 0.0000 40.4412 0.0000
# 6 0.0000 0.0000 0.0000 -0.8091 0.0000 27.9008
#
#
#
# Elastic Compliance Matrix: (Units=1/GPa)
#
#
# Indices 1 2 3 4 5 6 
#
# 1 0.012206 -0.000164 -0.003324 0.000000 0.001406 0.000000
# 2 -0.000164 0.011767 -0.001752 0.000000 -0.001814 0.000000
# 3 -0.003324 -0.001752 0.011299 0.000000 -0.003519 0.000000
# 4 0.000000 0.000000 0.000000 0.033947 0.000000 0.000984
# 5 0.001406 -0.001814 -0.003519 0.000000 0.026313 0.000000
# 6 0.000000 0.000000 0.000000 0.000984 0.000000 0.035870
#
#
# Mechanical properties :
#
#
# Convention : Reuss Voigt Hill
#
# Bulk Modulus (GPa) = 40.33555 42.38218 41.35886
# Shear Modulus (GPa) = 33.30130 35.03074 34.16602
#
# Velocity S-wave (km/s) = 3.93815 4.03911 3.98895
# Velocity P-wave (km/s) = 6.28201 6.44133 6.36217
#
# Compressibility (1/GPa) = 0.02479202
#
# Stress axis : x y z
#
# Youngs Moduli (GPa) = 81.92722 84.98634 88.50586
#
# Poissons Ratio (x) = 0.01391 0.29422
# Poissons Ratio (y) = 0.01341 0.15504
# Poissons Ratio (z) = 0.27235 0.14887
#
# Static dielectric constant tensor:
#      x y z
#    x 4.378590 0.000000 -0.326780 
#    y 0.000000 3.991040 0.000000 
#    z -0.326780 0.000000 3.863830 
# 
# 
# High freq. dielectric constant tensor:
#      x y z
#    x 1.861990 0.000000 -0.014860 
#    y 0.000000 1.844470 0.000000 
#    z -0.014860 0.000000 1.839740 
# 
# From -- ./inp_files/3850.got.cif
#   From: 2010.03.12/outbox.cif.g09.slc.cpg/sg4_2_cif.got.tgz:3850.got - 2010.03.31 09:31:35.
