data_PCOD8046286
_publ_section_title
;
Structure prediction by ZEFSAII (Michael W. Deem and Ramdas Pophale) SiO2 
 PCOD8046286
Probable space group: P 21
;
_chemical_formula_sum "Si O2"
_cell_formula_units_Z 16
_cell_length_a 13.353054
_cell_length_b 11.315803
_cell_length_c 12.568664
_cell_angle_alpha 90.000000
_cell_angle_beta 157.971244
_cell_angle_gamma 90.000000
_cell_volume 712.310939
_symmetry_space_group_name_H-M "P 21"
_symmetry_group_IT_number 4
_symmetry_cell_setting 'monoclinic'
loop_
_space_group_symop_operation_xyz
x,y,z
-x,1/2+y,-z
loop_
_atom_site_type_symbol
_atom_site_label
_atom_site_fract_x
_atom_site_fract_y
_atom_site_fract_z
Si Si1 0.605848 0.721150 0.716324
Si Si2 0.391094 0.780490 0.872925
Si Si3 0.882963 0.086357 0.844923
Si Si4 0.209562 0.462651 0.035182
Si Si5 0.479831 0.090018 0.159897
Si Si6 0.138105 0.242854 0.521708
Si Si7 0.963341 0.953150 0.713589
Si Si8 0.282126 0.983280 0.594787
O O1 0.376297 0.668592 0.416751
O O2 0.643563 0.860868 0.751981
O O3 0.545342 0.692433 0.778343
O O4 0.876593 0.670292 0.940892
O O5 0.524457 0.661702 0.954313
O O6 0.366324 0.891104 0.768927
O O7 0.097290 0.754706 0.625187
O O8 0.597270 0.807640 0.171100
O O9 0.905940 0.048781 0.989308
O O10 0.898605 0.977514 0.774859
O O11 0.446934 0.519819 0.199933
O O12 0.953814 0.425344 0.710717
O O13 0.765108 0.029006 0.446694
O O14 0.253337 0.992479 0.957091
O O15 0.068134 0.313789 0.343359
O O16 0.169620 0.104909 0.530004
#
# Coordination Sequence:
#
# PCOD8046286 Si02
#       8
#     2   2   2   2   2   2   2   2
#     4  10  21  41  63  99 130 173 233 281 333 402
#     4  12  26  44  70 100 133 187 234 284 349 420
#     4  10  23  40  68 101 133 182 229 273 348 416
#     4  12  24  45  72 100 141 184 228 293 353 411
#     4  10  21  40  67  91 127 174 229 288 316 409
#     4  12  28  45  68 102 144 181 224 293 364 414
#     4  10  23  42  66  99 137 171 229 281 345 403
#     4  12  28  47  68 106 141 178 240 289 358 419
#
# _framework density 22.462101000000001
#
# number of rings (size 3 to 8) (size 9 to 14) (size 15 to 20)
#    0.000    1.000    1.250    4.500    8.750    2.000 
#    0.000    2.500    0.000    0.000    0.000    0.000 
#    0.000    0.000    0.000    0.000    0.000    0.000 
#
# Total GULP energy -198364.162212 kJ/mol
# GULP energy per Si atom -12397.760138 kJ/mol
# Density = 2.241098 g / cm^3
# Si number density = 22.462101 Si / 1000 Ang^3
#
#
#
# Elastic Constant Matrix: (Units=GPa)
#
#
# Indices 1 2 3 4 5 6 
#
# 1 103.8848 41.9636 36.3997 0.0000 23.2352 0.0000
# 2 41.9636 83.5601 17.5802 0.0000 1.2292 0.0000
# 3 36.3997 17.5802 130.6475 0.0000 18.3922 0.0000
# 4 0.0000 0.0000 0.0000 48.6812 0.0000 11.7940
# 5 23.2352 1.2292 18.3922 0.0000 45.7829 0.0000
# 6 0.0000 0.0000 0.0000 11.7940 0.0000 44.5882
#
#
#
# Elastic Compliance Matrix: (Units=1/GPa)
#
#
# Indices 1 2 3 4 5 6 
#
# 1 0.014547 -0.006737 -0.002260 0.000000 -0.006294 0.000000
# 2 -0.006737 0.015442 -0.000661 0.000000 0.003270 0.000000
# 3 -0.002260 -0.000661 0.008701 0.000000 -0.002331 0.000000
# 4 0.000000 0.000000 0.000000 0.021948 0.000000 -0.005806
# 5 -0.006294 0.003270 -0.002331 0.000000 0.025885 0.000000
# 6 0.000000 0.000000 0.000000 -0.005806 0.000000 0.023963
#
#
# Mechanical properties :
#
#
# Convention : Reuss Voigt Hill
#
# Bulk Modulus (GPa) = 51.62018 56.66436 54.14227
# Shear Modulus (GPa) = 36.69402 42.62040 39.65721
#
# Velocity S-wave (km/s) = 4.04616 4.36068 4.20636
# Velocity P-wave (km/s) = 6.69772 7.11586 6.90996
#
# Compressibility (1/GPa) = 0.01937227
#
# Stress axis : x y z
#
# Youngs Moduli (GPa) = 68.74117 64.75856 114.92934
#
# Poissons Ratio (x) = 0.43631 0.25978
# Poissons Ratio (y) = 0.46314 0.07599
# Poissons Ratio (z) = 0.15538 0.04282
#
# Static dielectric constant tensor:
#      x y z
#    x 3.963130 0.000000 0.086860 
#    y 0.000000 3.797260 0.000000 
#    z 0.086860 0.000000 4.162300 
# 
# 
# High freq. dielectric constant tensor:
#      x y z
#    x 1.887580 0.000000 0.014130 
#    y 0.000000 1.880560 0.000000 
#    z 0.014130 0.000000 1.902240 
# 
# From -- ./inp_files/12292.got.cif
#   From: 2010.03.12/outbox.cif.g09.slc.cpg/sg4_7_cif.got.tgz:12292.got - 2010.03.31 09:31:35.
