data_PCOD8046545
_publ_section_title
;
Structure prediction by ZEFSAII (Michael W. Deem and Ramdas Pophale) SiO2 
 PCOD8046545
Probable space group: P 21
;
_chemical_formula_sum "Si O2"
_cell_formula_units_Z 12
_cell_length_a 5.415468
_cell_length_b 7.810128
_cell_length_c 12.420799
_cell_angle_alpha 90.000000
_cell_angle_beta 88.290704
_cell_angle_gamma 90.000000
_cell_volume 525.110122
_symmetry_space_group_name_H-M "P 21"
_symmetry_group_IT_number 4
_symmetry_cell_setting 'monoclinic'
loop_
_space_group_symop_operation_xyz
x,y,z
-x,1/2+y,-z
loop_
_atom_site_type_symbol
_atom_site_label
_atom_site_fract_x
_atom_site_fract_y
_atom_site_fract_z
Si Si1 0.737834 0.087470 0.593735
Si Si2 0.002898 0.192044 0.082011
Si Si3 0.372469 0.516116 0.786020
Si Si4 0.251835 0.299185 0.578287
Si Si5 0.361659 0.931897 0.015249
Si Si6 0.360482 0.373102 0.201648
O O1 0.497769 0.187008 0.549452
O O2 0.994230 0.195534 0.598815
O O3 0.798933 0.922827 0.521141
O O4 0.647184 0.022821 0.711321
O O5 0.079237 0.320897 0.177530
O O6 0.879902 0.032797 0.144386
O O7 0.823054 0.275650 0.998532
O O8 0.237118 0.120637 0.013699
O O9 0.320527 0.414683 0.678962
O O10 0.484264 0.706410 0.760338
O O11 0.540453 0.405287 0.864688
O O12 0.549070 0.944833 0.914294
#
# Coordination Sequence:
#
# PCOD8046545 Si02
#       6
#     2   2   2   2   2   2
#     4  12  29  50  80 110 144 191 245 309 369 440
#     4  10  22  40  68  94 150 190 240 290 352 434
#     4  10  24  44  70 104 148 190 243 297 361 430
#     4  12  29  50  80 110 144 191 245 309 369 440
#     4  10  22  42  64 104 142 196 228 298 350 434
#     4  10  24  44  70 104 148 190 243 297 361 430
#
# _framework density 22.852349
#
# number of rings (size 3 to 8) (size 9 to 14) (size 15 to 20)
#    0.000    1.333    0.000    3.000   11.667    6.667 
#    3.000    0.000    0.000    0.000    0.000    0.000 
#    0.000    0.000    0.000    0.000    0.000    0.000 
#
# Total GULP energy -148698.886629 kJ/mol
# GULP energy per Si atom -12391.573886 kJ/mol
# Density = 2.280034 g / cm^3
# Si number density = 22.852349 Si / 1000 Ang^3
#
#
#
# Elastic Constant Matrix: (Units=GPa)
#
#
# Indices 1 2 3 4 5 6 
#
# 1 124.0679 34.3248 14.5886 0.0000 6.1050 0.0000
# 2 34.3248 73.4026 29.3311 0.0000 -17.0617 0.0000
# 3 14.5886 29.3311 69.2554 0.0000 -5.8127 0.0000
# 4 0.0000 0.0000 0.0000 51.9206 0.0000 -6.8155
# 5 6.1050 -17.0617 -5.8127 0.0000 6.6547 0.0000
# 6 0.0000 0.0000 0.0000 -6.8155 0.0000 23.7041
#
#
#
# Elastic Compliance Matrix: (Units=1/GPa)
#
#
# Indices 1 2 3 4 5 6 
#
# 1 0.029486 -0.050787 0.002265 0.000000 -0.155283 0.000000
# 2 -0.050787 0.125335 -0.012412 0.000000 0.357092 0.000000
# 3 0.002265 -0.012412 0.017669 0.000000 -0.018468 0.000000
# 4 0.000000 0.000000 0.000000 0.020016 0.000000 0.005755
# 5 -0.155283 0.357092 -0.018468 0.000000 1.192131 0.000000
# 6 0.000000 0.000000 0.000000 0.005755 0.000000 0.043842
#
#
# Mechanical properties :
#
#
# Convention : Reuss Voigt Hill
#
# Bulk Modulus (GPa) = 19.75474 47.02389 33.38932
# Shear Modulus (GPa) = 3.19036 29.02129 16.10583
#
# Velocity S-wave (km/s) = 1.18284 3.56750 2.65765
# Velocity P-wave (km/s) = 3.24480 6.13118 4.90510
#
# Compressibility (1/GPa) = 0.05062075
#
# Stress axis : x y z
#
# Youngs Moduli (GPa) = 33.91475 7.97861 56.59638
#
# Poissons Ratio (x) = 0.40521 -0.12820
# Poissons Ratio (y) = 1.72244 0.70249
# Poissons Ratio (z) = -0.07682 0.09903
#
# Static dielectric constant tensor:
#      x y z
#    x 4.445310 0.000000 -0.035010 
#    y 0.000000 4.227640 0.000000 
#    z -0.035010 0.000000 4.101330 
# 
# 
# High freq. dielectric constant tensor:
#      x y z
#    x 1.920310 0.000000 0.005760 
#    y 0.000000 1.908550 0.000000 
#    z 0.005760 0.000000 1.896780 
# 
# From -- ./inp_files/10254.got.cif
#   From: 2010.03.12/outbox.cif.g09.slc.cpg/sg4_6_cif.got.tgz:10254.got - 2010.03.31 09:31:35.
