data_PCOD8046460
_publ_section_title
;
Structure prediction by ZEFSAII (Michael W. Deem and Ramdas Pophale) SiO2 
 PCOD8046460
Probable space group: P 21
;
_chemical_formula_sum "Si O2"
_cell_formula_units_Z 16
_cell_length_a 13.970842
_cell_length_b 9.274707
_cell_length_c 11.435687
_cell_angle_alpha 90.000000
_cell_angle_beta 150.448596
_cell_angle_gamma 90.000000
_cell_volume 730.822352
_symmetry_space_group_name_H-M "P 21"
_symmetry_group_IT_number 4
_symmetry_cell_setting 'monoclinic'
loop_
_space_group_symop_operation_xyz
x,y,z
-x,1/2+y,-z
loop_
_atom_site_type_symbol
_atom_site_label
_atom_site_fract_x
_atom_site_fract_y
_atom_site_fract_z
Si Si1 0.437332 0.081950 0.550488
Si Si2 0.506004 0.617904 0.130120
Si Si3 0.944657 0.698256 0.573969
Si Si4 0.309202 0.768639 0.354109
Si Si5 0.426018 0.937906 0.010829
Si Si6 0.986328 0.007145 0.549727
Si Si7 0.747802 0.049990 0.513383
Si Si8 0.932265 0.776324 0.809857
O O1 0.545163 0.073527 0.791452
O O2 0.575432 0.167526 0.610779
O O3 0.228439 0.158172 0.329760
O O4 0.413522 0.921797 0.474761
O O5 0.736301 0.634329 0.377785
O O6 0.397966 0.765360 0.976775
O O7 0.460281 0.494496 0.984891
O O8 0.076719 0.587751 0.638384
O O9 0.039779 0.735217 0.800729
O O10 0.912137 0.843722 0.464502
O O11 0.302042 0.697892 0.474852
O O12 0.088521 0.785384 0.077698
O O13 0.551600 0.977728 0.257122
O O14 0.219425 0.014948 0.806449
O O15 0.895385 0.088173 0.564740
O O16 0.839014 0.934756 0.699650
#
# Coordination Sequence:
#
# PCOD8046460 Si02
#       8
#     2   2   2   2   2   2   2   2
#     4  11  25  45  67  99 134 170 231 271 327 396
#     4  10  23  42  65  97 131 167 214 274 325 396
#     4   9  20  39  59  95 123 162 212 260 325 390
#     4  12  27  42  69  95 129 181 223 273 329 384
#     4  11  23  40  68  96 133 169 212 270 339 392
#     4  10  22  36  64  92 127 169 204 265 330 390
#     4  11  24  43  63  94 133 169 222 274 322 396
#     4  10  22  45  67  90 130 173 218 281 327 380
#
# _framework density 21.893146000000002
#
# number of rings (size 3 to 8) (size 9 to 14) (size 15 to 20)
#    0.000    1.500    3.750    1.500    7.000    3.000 
#    0.000    0.000    0.000    0.000    0.000    0.000 
#    0.000    0.000    0.000    0.000    0.000    0.000 
#
# Total GULP energy -198426.073322 kJ/mol
# GULP energy per Si atom -12401.629583 kJ/mol
# Density = 2.184332 g / cm^3
# Si number density = 21.893146 Si / 1000 Ang^3
#
#
#
# Elastic Constant Matrix: (Units=GPa)
#
#
# Indices 1 2 3 4 5 6 
#
# 1 92.5030 27.6563 1.8849 0.0000 -3.3789 0.0000
# 2 27.6563 83.0854 16.2147 0.0000 -8.0332 0.0000
# 3 1.8849 16.2147 57.3347 0.0000 -12.6076 0.0000
# 4 0.0000 0.0000 0.0000 27.0183 0.0000 -1.6876
# 5 -3.3789 -8.0332 -12.6076 0.0000 24.5948 0.0000
# 6 0.0000 0.0000 0.0000 -1.6876 0.0000 42.7021
#
#
#
# Elastic Compliance Matrix: (Units=1/GPa)
#
#
# Indices 1 2 3 4 5 6 
#
# 1 0.012052 -0.004119 0.000943 0.000000 0.000794 0.000000
# 2 -0.004119 0.014297 -0.003387 0.000000 0.002367 0.000000
# 3 0.000943 -0.003387 0.020460 0.000000 0.009511 0.000000
# 4 0.000000 0.000000 0.000000 0.037104 0.000000 0.001466
# 5 0.000794 0.002367 0.009511 0.000000 0.046417 0.000000
# 6 0.000000 0.000000 0.000000 0.001466 0.000000 0.023476
#
#
# Mechanical properties :
#
#
# Convention : Reuss Voigt Hill
#
# Bulk Modulus (GPa) = 29.68904 36.04831 32.86867
# Shear Modulus (GPa) = 28.06495 31.34085 29.70290
#
# Velocity S-wave (km/s) = 3.58426 3.78767 3.68737
# Velocity P-wave (km/s) = 5.54252 5.96908 5.75975
#
# Compressibility (1/GPa) = 0.03368247
#
# Stress axis : x y z
#
# Youngs Moduli (GPa) = 82.97576 69.94568 48.87625
#
# Poissons Ratio (x) = 0.28810 -0.04610
# Poissons Ratio (y) = 0.34177 0.16556
# Poissons Ratio (z) = -0.07826 0.23692
#
# Static dielectric constant tensor:
#      x y z
#    x 4.242990 0.000000 -0.097490 
#    y 0.000000 3.986820 0.000000 
#    z -0.097490 0.000000 3.865270 
# 
# 
# High freq. dielectric constant tensor:
#      x y z
#    x 1.869620 0.000000 0.004860 
#    y 0.000000 1.856610 0.000000 
#    z 0.004860 0.000000 1.858580 
# 
# From -- ./inp_files/12687.got.cif
#   From: 2010.03.12/outbox.cif.g09.slc.cpg/sg4_7_cif.got.tgz:12687.got - 2010.03.31 09:31:35.
