data_PCOD8046291
_publ_section_title
;
Structure prediction by ZEFSAII (Michael W. Deem and Ramdas Pophale) SiO2 
 PCOD8046291
Probable space group: P 21
;
_chemical_formula_sum "Si O2"
_cell_formula_units_Z 14
_cell_length_a 10.514320
_cell_length_b 4.959983
_cell_length_c 12.463191
_cell_angle_alpha 90.000000
_cell_angle_beta 107.848027
_cell_angle_gamma 90.000000
_cell_volume 618.684952
_symmetry_space_group_name_H-M "P 21"
_symmetry_group_IT_number 4
_symmetry_cell_setting 'monoclinic'
loop_
_space_group_symop_operation_xyz
x,y,z
-x,1/2+y,-z
loop_
_atom_site_type_symbol
_atom_site_label
_atom_site_fract_x
_atom_site_fract_y
_atom_site_fract_z
Si Si1 0.110678 0.659530 0.140958
Si Si2 0.287491 0.300913 0.690778
Si Si3 0.413990 0.173810 0.500508
Si Si4 0.822170 0.461663 0.043159
Si Si5 0.150372 0.167207 0.292046
Si Si6 0.131149 0.801373 0.711208
Si Si7 0.420417 0.284237 0.950260
O O1 0.164985 0.371020 0.195142
O O2 0.956031 0.639632 0.066384
O O3 0.123033 0.868500 0.241977
O O4 0.195390 0.758097 0.060839
O O5 0.378059 0.259517 0.611024
O O6 0.215254 0.587720 0.665135
O O7 0.387751 0.281784 0.816314
O O8 0.166582 0.088916 0.669875
O O9 0.521896 0.378446 0.479640
O O10 0.283571 0.170886 0.394376
O O11 0.825167 0.283885 0.152480
O O12 0.701703 0.673496 0.010534
O O13 0.027842 0.255829 0.337587
O O14 0.452863 0.587061 0.997481
#
# Coordination Sequence:
#
# PCOD8046291 Si02
#       7
#     2   2   2   2   2   2   2
#     4  11  23  39  67  97 134 171 210 268 324 376
#     4  11  24  44  66  91 124 167 209 267 327 362
#     4  12  28  48  67  91 131 173 216 265 320 388
#     4  10  22  40  62  97 134 167 206 260 326 377
#     4  11  24  42  65  99 127 168 223 266 315 379
#     4  10  21  40  68  95 124 155 210 273 318 375
#     4  11  24  39  61  92 128 167 210 255 310 391
#
# _framework density 22.628640000000001
#
# number of rings (size 3 to 8) (size 9 to 14) (size 15 to 20)
#    0.000    1.143    0.000    7.714    0.000   10.286 
#    0.000    0.000    0.000    0.000    0.000    0.000 
#    0.000    0.000    0.000    0.000    0.000    0.000 
#
# Total GULP energy -173707.700799 kJ/mol
# GULP energy per Si atom -12407.692914 kJ/mol
# Density = 2.257714 g / cm^3
# Si number density = 22.628640 Si / 1000 Ang^3
#
#
#
# Elastic Constant Matrix: (Units=GPa)
#
#
# Indices 1 2 3 4 5 6 
#
# 1 76.2355 -0.4795 35.4566 0.0000 10.4581 0.0000
# 2 -0.4795 65.5753 8.6369 0.0000 6.1403 0.0000
# 3 35.4566 8.6369 74.4823 0.0000 0.0639 0.0000
# 4 0.0000 0.0000 0.0000 28.9430 0.0000 -4.8711
# 5 10.4581 6.1403 0.0639 0.0000 46.8535 0.0000
# 6 0.0000 0.0000 0.0000 -4.8711 0.0000 40.9041
#
#
#
# Elastic Compliance Matrix: (Units=1/GPa)
#
#
# Indices 1 2 3 4 5 6 
#
# 1 0.017705 0.001654 -0.008617 0.000000 -0.004157 0.000000
# 2 0.001654 0.015836 -0.002621 0.000000 -0.002441 0.000000
# 3 -0.008617 -0.002621 0.017830 0.000000 0.002243 0.000000
# 4 0.000000 0.000000 0.000000 0.035257 0.000000 0.004199
# 5 -0.004157 -0.002441 0.002243 0.000000 0.022588 0.000000
# 6 0.000000 0.000000 0.000000 0.004199 0.000000 0.024947
#
#
# Mechanical properties :
#
#
# Convention : Reuss Voigt Hill
#
# Bulk Modulus (GPa) = 31.05390 33.72456 32.38923
# Shear Modulus (GPa) = 30.47547 34.85207 32.66377
#
# Velocity S-wave (km/s) = 3.67381 3.92876 3.80342
# Velocity P-wave (km/s) = 5.63462 5.95954 5.79935
#
# Compressibility (1/GPa) = 0.03220207
#
# Stress axis : x y z
#
# Youngs Moduli (GPa) = 56.47975 63.14904 56.08543
#
# Poissons Ratio (x) = -0.10442 0.48327
# Poissons Ratio (y) = -0.09340 0.14702
# Poissons Ratio (z) = 0.48667 0.16554
#
# Static dielectric constant tensor:
#      x y z
#    x 4.077910 0.000000 -0.021810 
#    y 0.000000 4.228920 0.000000 
#    z -0.021810 0.000000 3.920350 
# 
# 
# High freq. dielectric constant tensor:
#      x y z
#    x 1.897170 0.000000 -0.002500 
#    y 0.000000 1.908960 0.000000 
#    z -0.002500 0.000000 1.878640 
# 
# From -- ./inp_files/10667.got.cif
#   From: 2010.03.12/outbox.cif.g09.slc.cpg/sg4_6_cif.got.tgz:10667.got - 2010.03.31 09:31:35.
