data_PCOD8046181
_publ_section_title
;
Structure prediction by ZEFSAII (Michael W. Deem and Ramdas Pophale) SiO2 
 PCOD8046181
Probable space group: P 21
;
_chemical_formula_sum "Si O2"
_cell_formula_units_Z 12
_cell_length_a 16.082859
_cell_length_b 5.282859
_cell_length_c 8.973381
_cell_angle_alpha 90.000000
_cell_angle_beta 32.379346
_cell_angle_gamma 90.000000
_cell_volume 408.287440
_symmetry_space_group_name_H-M "P 21"
_symmetry_group_IT_number 4
_symmetry_cell_setting 'monoclinic'
loop_
_space_group_symop_operation_xyz
x,y,z
-x,1/2+y,-z
loop_
_atom_site_type_symbol
_atom_site_label
_atom_site_fract_x
_atom_site_fract_y
_atom_site_fract_z
Si Si1 0.550090 0.403090 0.845789
Si Si2 0.819842 0.530853 0.257977
Si Si3 0.126765 0.531053 0.933315
Si Si4 0.180158 0.530853 0.242022
Si Si5 0.126765 0.031054 0.433315
Si Si6 0.449910 0.403090 0.654211
O O1 0.736592 0.483617 0.549432
O O2 0.500000 0.437894 0.750001
O O3 0.467969 0.614401 0.072399
O O4 0.771353 0.291268 0.225376
O O5 0.758575 0.791132 0.272085
O O6 0.007370 0.554997 0.971368
O O7 1.000000 0.499718 0.250000
O O8 0.228647 0.291269 0.274624
O O9 0.992630 0.554997 0.528631
O O10 0.241425 0.791133 0.227915
O O11 0.263407 0.483617 0.950568
O O12 0.532031 0.614401 0.427601
#
# Coordination Sequence:
#
# PCOD8046181 Si02
#       6
#     2   2   2   2   2   2
#     4  12  28  47  73 102 141 188 232 285 342 414
#     4  10  23  39  61  96 124 171 223 273 339 399
#     4  10  21  38  65  90 127 165 217 282 335 396
#     4  10  23  39  61  96 124 171 223 273 339 399
#     4  10  21  38  65  90 127 165 217 282 335 396
#     4  12  28  47  73 102 141 188 232 285 342 414
#
# _framework density 29.391055999999999
#
# number of rings (size 3 to 8) (size 9 to 14) (size 15 to 20)
#    0.000    1.333    0.000    4.000    9.333    0.000 
#    0.000    0.000    0.000    0.000    0.000    0.000 
#    0.000    0.000    0.000    0.000    0.000    0.000 
#
# Total GULP energy -148695.497122 kJ/mol
# GULP energy per Si atom -12391.291427 kJ/mol
# Density = 2.932416 g / cm^3
# Si number density = 29.391056 Si / 1000 Ang^3
#
#
#
# Elastic Constant Matrix: (Units=GPa)
#
#
# Indices 1 2 3 4 5 6 
#
# 1 28.5502 -4.8100 -17.3464 0.0000 0.3768 0.0000
# 2 -4.8100 337.2318 96.5393 0.0000 38.6547 0.0000
# 3 -17.3464 96.5393 160.4717 0.0000 24.8556 0.0000
# 4 0.0000 0.0000 0.0000 74.1179 0.0000 17.8527
# 5 0.3768 38.6547 24.8556 0.0000 49.6171 0.0000
# 6 0.0000 0.0000 0.0000 17.8527 0.0000 13.4919
#
#
#
# Elastic Compliance Matrix: (Units=1/GPa)
#
#
# Indices 1 2 3 4 5 6 
#
# 1 0.037866 -0.000573 0.004785 0.000000 -0.002238 0.000000
# 2 -0.000573 0.003756 -0.002026 0.000000 -0.001907 0.000000
# 3 0.004785 -0.002026 0.008379 0.000000 -0.002655 0.000000
# 4 0.000000 0.000000 0.000000 0.019804 0.000000 -0.026205
# 5 -0.002238 -0.001907 -0.002655 0.000000 0.022987 0.000000
# 6 0.000000 0.000000 0.000000 -0.026205 0.000000 0.108793
#
#
# Mechanical properties :
#
#
# Convention : Reuss Voigt Hill
#
# Bulk Modulus (GPa) = 18.39195 75.00217 46.69706
# Shear Modulus (GPa) = 23.21934 57.57010 40.39472
#
# Velocity S-wave (km/s) = 2.81377 4.43059 3.71130
# Velocity P-wave (km/s) = 4.10215 7.19358 5.85556
#
# Compressibility (1/GPa) = 0.05437162
#
# Stress axis : x y z
#
# Youngs Moduli (GPa) = 26.40889 266.26331 119.34641
#
# Poissons Ratio (x) = 0.15259 -0.57102
# Poissons Ratio (y) = 0.01513 0.24180
# Poissons Ratio (z) = -0.12635 0.53946
#
# Static dielectric constant tensor:
#      x y z
#    x 14.024290 0.000000 -5.073310 
#    y 0.000000 6.157340 0.000000 
#    z -5.073310 0.000000 8.013710 
# 
# 
# High freq. dielectric constant tensor:
#      x y z
#    x 2.238250 0.000000 -0.010800 
#    y 0.000000 2.217000 0.000000 
#    z -0.010800 0.000000 2.195600 
# 
# From -- ./inp_files/9751.got.cif
#   From: 2010.03.12/outbox.cif.g09.slc.cpg/sg4_5_cif.got.tgz:9751.got - 2010.03.31 09:31:35.
