data_PCOD8046787
_publ_section_title
;
Structure prediction by ZEFSAII (Michael W. Deem and Ramdas Pophale) SiO2 
 PCOD8046787
Probable space group: P 21
;
_chemical_formula_sum "Si O2"
_cell_formula_units_Z 16
_cell_length_a 12.585034
_cell_length_b 8.738951
_cell_length_c 11.191513
_cell_angle_alpha 90.000000
_cell_angle_beta 37.876638
_cell_angle_gamma 90.000000
_cell_volume 755.692282
_symmetry_space_group_name_H-M "P 21"
_symmetry_group_IT_number 4
_symmetry_cell_setting 'monoclinic'
loop_
_space_group_symop_operation_xyz
x,y,z
-x,1/2+y,-z
loop_
_atom_site_type_symbol
_atom_site_label
_atom_site_fract_x
_atom_site_fract_y
_atom_site_fract_z
Si Si1 0.805289 0.527050 0.492060
Si Si2 0.866005 0.006374 0.672517
Si Si3 0.523873 0.365507 0.601441
Si Si4 0.549182 0.012295 0.577681
Si Si5 0.123694 0.378059 0.589726
Si Si6 0.353013 0.295844 0.986871
Si Si7 0.757243 0.474485 0.973967
Si Si8 0.693650 0.316243 0.796568
O O1 0.706586 0.449795 0.468305
O O2 0.798773 0.708312 0.480009
O O3 0.726733 0.467553 0.687167
O O4 0.006237 0.480912 0.327306
O O5 0.843416 0.187056 0.667488
O O6 0.938065 0.929075 0.487721
O O7 0.697522 0.918668 0.867621
O O8 0.433856 0.432427 0.564687
O O9 0.388762 0.384388 0.830514
O O10 0.559986 0.190433 0.544307
O O11 0.716269 0.979270 0.509574
O O12 0.366566 0.963323 0.800279
O O13 0.951314 0.405877 0.824683
O O14 0.531788 0.227057 0.881138
O O15 0.223963 0.152926 0.082294
O O16 0.660623 0.374043 0.959628
#
# Coordination Sequence:
#
# PCOD8046787 Si02
#       8
#     2   2   2   2   2   2   2   2
#     4  11  22  40  64  93 134 168 215 266 325 391
#     4  12  22  37  63  99 133 171 213 268 331 388
#     4  10  24  47  68  93 126 173 222 273 330 388
#     4  11  25  47  70  93 129 173 223 277 327 387
#     4  12  24  41  67  96 135 177 212 271 331 387
#     4  10  23  38  66  92 131 175 214 274 326 394
#     4  11  23  41  62 100 130 169 225 262 328 395
#     4  11  21  39  60  98 134 172 218 263 332 394
#
# _framework density 21.172639
#
# number of rings (size 3 to 8) (size 9 to 14) (size 15 to 20)
#    0.000    1.000    2.500    5.250    3.500    4.000 
#    2.250    0.000    0.000    0.000    0.000    0.000 
#    0.000    0.000    0.000    0.000    0.000    0.000 
#
# Total GULP energy -198323.629987 kJ/mol
# GULP energy per Si atom -12395.226874 kJ/mol
# Density = 2.112445 g / cm^3
# Si number density = 21.172639 Si / 1000 Ang^3
#
#
#
# Elastic Constant Matrix: (Units=GPa)
#
#
# Indices 1 2 3 4 5 6 
#
# 1 73.0549 30.5006 29.1100 0.0000 -0.4681 0.0000
# 2 30.5006 110.9708 33.5227 0.0000 1.4034 0.0000
# 3 29.1100 33.5227 80.3249 0.0000 -3.7968 0.0000
# 4 0.0000 0.0000 0.0000 33.1883 0.0000 -1.5742
# 5 -0.4681 1.4034 -3.7968 0.0000 28.5858 0.0000
# 6 0.0000 0.0000 0.0000 -1.5742 0.0000 37.4997
#
#
#
# Elastic Compliance Matrix: (Units=1/GPa)
#
#
# Indices 1 2 3 4 5 6 
#
# 1 0.016941 -0.003199 -0.004814 0.000000 -0.000205 0.000000
# 2 -0.003199 0.010949 -0.003460 0.000000 -0.001049 0.000000
# 3 -0.004814 -0.003460 0.015741 0.000000 0.002182 0.000000
# 4 0.000000 0.000000 0.000000 0.030191 0.000000 0.001267
# 5 -0.000205 -0.001049 0.002182 0.000000 0.035320 0.000000
# 6 0.000000 0.000000 0.000000 0.001267 0.000000 0.026720
#
#
# Mechanical properties :
#
#
# Convention : Reuss Voigt Hill
#
# Bulk Modulus (GPa) = 48.34387 50.06859 49.20623
# Shear Modulus (GPa) = 30.17433 31.26924 30.72179
#
# Velocity S-wave (km/s) = 3.77922 3.84718 3.81335
# Velocity P-wave (km/s) = 6.47504 6.59041 6.53298
#
# Compressibility (1/GPa) = 0.02068515
#
# Stress axis : x y z
#
# Youngs Moduli (GPa) = 59.02837 91.33142 63.52850
#
# Poissons Ratio (x) = 0.29221 0.30582
# Poissons Ratio (y) = 0.18886 0.21978
# Poissons Ratio (z) = 0.28416 0.31597
#
# Static dielectric constant tensor:
#      x y z
#    x 3.820330 0.000000 -0.112240 
#    y 0.000000 3.853350 0.000000 
#    z -0.112240 0.000000 3.681170 
# 
# 
# High freq. dielectric constant tensor:
#      x y z
#    x 1.826320 0.000000 -0.013370 
#    y 0.000000 1.842710 0.000000 
#    z -0.013370 0.000000 1.815820 
# 
# From -- ./inp_files/11844.got.cif
#   From: 2010.03.12/outbox.cif.g09.slc.cpg/sg4_6_cif.got.tgz:11844.got - 2010.03.31 09:31:35.
