data_PCOD8046534
_publ_section_title
;
Structure prediction by ZEFSAII (Michael W. Deem and Ramdas Pophale) SiO2 
 PCOD8046534
Probable space group: P 21
;
_chemical_formula_sum "Si O2"
_cell_formula_units_Z 14
_cell_length_a 13.109492
_cell_length_b 9.635574
_cell_length_c 9.727838
_cell_angle_alpha 90.000000
_cell_angle_beta 32.011650
_cell_angle_gamma 90.000000
_cell_volume 651.374537
_symmetry_space_group_name_H-M "P 21"
_symmetry_group_IT_number 4
_symmetry_cell_setting 'monoclinic'
loop_
_space_group_symop_operation_xyz
x,y,z
-x,1/2+y,-z
loop_
_atom_site_type_symbol
_atom_site_label
_atom_site_fract_x
_atom_site_fract_y
_atom_site_fract_z
Si Si1 0.053926 0.266150 0.808319
Si Si2 0.421455 0.160396 0.226870
Si Si3 0.484647 0.461804 0.103992
Si Si4 0.714124 0.069249 0.121486
Si Si5 0.535560 0.102327 0.601309
Si Si6 0.877975 0.065351 0.375860
Si Si7 0.173696 0.273683 0.984697
O O1 0.224495 0.193077 0.528953
O O2 0.033602 0.428807 0.797743
O O3 0.103134 0.247850 0.911167
O O4 0.852222 0.197224 0.999099
O O5 0.499281 0.298066 0.060120
O O6 0.586891 0.104028 0.136223
O O7 0.381187 0.043790 0.156631
O O8 0.546086 0.489372 0.194141
O O9 0.261483 0.516391 0.339317
O O10 0.569595 0.033588 0.413230
O O11 0.844165 0.932358 0.945871
O O12 0.744913 0.150160 0.418014
O O13 0.396471 0.233245 0.747125
O O14 0.045487 0.172176 0.229083
#
# Coordination Sequence:
#
# PCOD8046534 Si02
#       7
#     2   2   2   2   2   2   2
#     4  11  21  41  63  96 131 164 204 273 314 368
#     4  11  24  45  64  93 132 165 221 256 322 377
#     4   9  23  46  63  90 128 173 203 269 315 373
#     4  12  25  39  66 102 124 169 215 262 316 387
#     4  10  22  40  65  92 128 164 210 261 324 362
#     4   9  22  41  60  88 132 161 207 258 317 370
#     4  12  21  38  67  97 127 166 212 259 320 381
#
# _framework density 21.493010999999999
#
# number of rings (size 3 to 8) (size 9 to 14) (size 15 to 20)
#    0.857    0.571    4.286    0.000    4.000    2.286 
#    2.571    0.000    0.000    0.000    0.000    0.000 
#    0.000    0.000    0.000    0.000    0.000    0.000 
#
# Total GULP energy -173491.768963 kJ/mol
# GULP energy per Si atom -12392.269212 kJ/mol
# Density = 2.144409 g / cm^3
# Si number density = 21.493011 Si / 1000 Ang^3
#
#
#
# Elastic Constant Matrix: (Units=GPa)
#
#
# Indices 1 2 3 4 5 6 
#
# 1 69.7503 34.6648 27.8415 0.0000 2.4701 0.0000
# 2 34.6648 91.0068 30.6903 0.0000 -9.0166 0.0000
# 3 27.8415 30.6903 53.2243 0.0000 -2.1649 0.0000
# 4 0.0000 0.0000 0.0000 35.6808 0.0000 -5.7423
# 5 2.4701 -9.0166 -2.1649 0.0000 25.1543 0.0000
# 6 0.0000 0.0000 0.0000 -5.7423 0.0000 32.6705
#
#
#
# Elastic Compliance Matrix: (Units=1/GPa)
#
#
# Indices 1 2 3 4 5 6 
#
# 1 0.020333 -0.005657 -0.007564 0.000000 -0.004676 0.000000
# 2 -0.005657 0.015678 -0.005850 0.000000 0.005672 0.000000
# 3 -0.007564 -0.005850 0.026155 0.000000 0.000897 0.000000
# 4 0.000000 0.000000 0.000000 0.028842 0.000000 0.005069
# 5 -0.004676 0.005672 0.000897 0.000000 0.042324 0.000000
# 6 0.000000 0.000000 0.000000 0.005069 0.000000 0.031500
#
#
# Mechanical properties :
#
#
# Convention : Reuss Voigt Hill
#
# Bulk Modulus (GPa) = 41.62740 44.48605 43.05673
# Shear Modulus (GPa) = 23.69850 26.75345 25.22598
#
# Velocity S-wave (km/s) = 3.32417 3.53193 3.42962
# Velocity P-wave (km/s) = 5.84323 6.11356 5.97992
#
# Compressibility (1/GPa) = 0.02402264
#
# Stress axis : x y z
#
# Youngs Moduli (GPa) = 49.17996 63.78410 38.23337
#
# Poissons Ratio (x) = 0.36085 0.28921
# Poissons Ratio (y) = 0.27823 0.22367
# Poissons Ratio (z) = 0.37202 0.37315
#
# Static dielectric constant tensor:
#      x y z
#    x 3.605800 0.000000 0.000470 
#    y 0.000000 3.825340 0.000000 
#    z 0.000470 0.000000 3.778490 
# 
# 
# High freq. dielectric constant tensor:
#      x y z
#    x 1.822340 0.000000 -0.001580 
#    y 0.000000 1.843420 0.000000 
#    z -0.001580 0.000000 1.836090 
# 
# From -- ./inp_files/12539.got.cif
#   From: 2010.03.12/outbox.cif.g09.slc.cpg/sg4_7_cif.got.tgz:12539.got - 2010.03.31 09:31:35.
