data_PCOD8046744
_publ_section_title
;
Structure prediction by ZEFSAII (Michael W. Deem and Ramdas Pophale) SiO2 
 PCOD8046744
Probable space group: P 21
;
_chemical_formula_sum "Si O2"
_cell_formula_units_Z 14
_cell_length_a 12.860778
_cell_length_b 4.898224
_cell_length_c 18.040567
_cell_angle_alpha 90.000000
_cell_angle_beta 30.358804
_cell_angle_gamma 90.000000
_cell_volume 574.384733
_symmetry_space_group_name_H-M "P 21"
_symmetry_group_IT_number 4
_symmetry_cell_setting 'monoclinic'
loop_
_space_group_symop_operation_xyz
x,y,z
-x,1/2+y,-z
loop_
_atom_site_type_symbol
_atom_site_label
_atom_site_fract_x
_atom_site_fract_y
_atom_site_fract_z
Si Si1 0.029875 0.400370 0.170110
Si Si2 0.887082 0.054933 0.044283
Si Si3 0.143075 0.994201 0.496385
Si Si4 0.256493 0.396596 0.637880
Si Si5 0.133623 0.997221 0.336002
Si Si6 0.496360 0.569357 0.624030
Si Si7 0.386583 0.240269 0.062453
O O1 0.217162 0.308159 0.105671
O O2 0.939125 0.695084 0.246363
O O3 0.120237 0.409894 0.031324
O O4 0.835725 0.200650 0.301596
O O5 0.669400 0.156403 0.211416
O O6 0.026137 0.325900 0.952630
O O7 0.225155 0.959726 0.361904
O O8 0.321826 0.917458 0.443651
O O9 0.054058 0.295006 0.566067
O O10 0.952970 0.798110 0.625575
O O11 0.397823 0.360943 0.624688
O O12 0.408953 0.338005 0.474824
O O13 0.318897 0.002093 0.164211
O O14 0.440796 0.522312 0.073543
#
# Coordination Sequence:
#
# PCOD8046744 Si02
#       7
#     2   2   2   2   2   2   2
#     4  12  25  50  70 104 152 195 229 309 378 422
#     4  12  26  48  71 106 151 194 236 299 369 443
#     4  10  23  42  73  95 138 179 233 298 349 415
#     4  12  26  44  73 105 150 187 247 300 364 432
#     4  10  22  46  65 103 136 181 229 296 361 404
#     4  12  26  45  74 110 138 191 251 297 352 449
#     4  12  26  43  72 103 137 185 241 287 349 445
#
# _framework density 24.373906999999999
#
# number of rings (size 3 to 8) (size 9 to 14) (size 15 to 20)
#    0.000    0.571    2.857    4.286    2.000    4.571 
#    0.000    0.000    0.000    0.000    0.000    0.000 
#    0.000    0.000    0.000    0.000    0.000    0.000 
#
# Total GULP energy -173531.606665 kJ/mol
# GULP energy per Si atom -12395.114762 kJ/mol
# Density = 2.431843 g / cm^3
# Si number density = 24.373907 Si / 1000 Ang^3
#
#
#
# Elastic Constant Matrix: (Units=GPa)
#
#
# Indices 1 2 3 4 5 6 
#
# 1 131.1588 26.7996 33.9209 0.0000 -23.7719 0.0000
# 2 26.7996 94.7246 25.3378 0.0000 0.7492 0.0000
# 3 33.9209 25.3378 88.3784 0.0000 10.8361 0.0000
# 4 0.0000 0.0000 0.0000 27.7710 0.0000 2.1265
# 5 -23.7719 0.7492 10.8361 0.0000 40.2904 0.0000
# 6 0.0000 0.0000 0.0000 2.1265 0.0000 27.3619
#
#
#
# Elastic Compliance Matrix: (Units=1/GPa)
#
#
# Indices 1 2 3 4 5 6 
#
# 1 0.010482 -0.001847 -0.004401 0.000000 0.007402 0.000000
# 2 -0.001847 0.011778 -0.002593 0.000000 -0.000611 0.000000
# 3 -0.004401 -0.002593 0.014540 0.000000 -0.006459 0.000000
# 4 0.000000 0.000000 0.000000 0.036224 0.000000 -0.002815
# 5 0.007402 -0.000611 -0.006459 0.000000 0.030936 0.000000
# 6 0.000000 0.000000 0.000000 -0.002815 0.000000 0.036766
#
#
# Mechanical properties :
#
#
# Convention : Reuss Voigt Hill
#
# Bulk Modulus (GPa) = 52.30854 54.04203 53.17528
# Shear Modulus (GPa) = 30.34371 34.29824 32.32097
#
# Velocity S-wave (km/s) = 3.53218 3.75530 3.64544
# Velocity P-wave (km/s) = 6.17596 6.40494 6.29149
#
# Compressibility (1/GPa) = 0.01911734
#
# Stress axis : x y z
#
# Youngs Moduli (GPa) = 95.40579 84.90541 68.77814
#
# Poissons Ratio (x) = 0.15680 0.30270
# Poissons Ratio (y) = 0.17619 0.17834
# Poissons Ratio (z) = 0.41989 0.22015
#
# Static dielectric constant tensor:
#      x y z
#    x 4.381990 0.000000 0.227970 
#    y 0.000000 4.245620 0.000000 
#    z 0.227970 0.000000 4.687820 
# 
# 
# High freq. dielectric constant tensor:
#      x y z
#    x 1.965190 0.000000 0.006410 
#    y 0.000000 1.976160 0.000000 
#    z 0.006410 0.000000 1.980710 
# 
# From -- ./inp_files/15019.got.cif
#   From: 2010.03.12/outbox.cif.g09.slc.cpg/sg4_8_cif.got.tgz:15019.got - 2010.03.31 09:31:35.
