data_PCOD8046758
_publ_section_title
;
Structure prediction by ZEFSAII (Michael W. Deem and Ramdas Pophale) SiO2 
 PCOD8046758
Probable space group: P 21
;
_chemical_formula_sum "Si O2"
_cell_formula_units_Z 14
_cell_length_a 7.409016
_cell_length_b 12.033235
_cell_length_c 8.506570
_cell_angle_alpha 90.000000
_cell_angle_beta 52.742531
_cell_angle_gamma 90.000000
_cell_volume 603.626802
_symmetry_space_group_name_H-M "P 21"
_symmetry_group_IT_number 4
_symmetry_cell_setting 'monoclinic'
loop_
_space_group_symop_operation_xyz
x,y,z
-x,1/2+y,-z
loop_
_atom_site_type_symbol
_atom_site_label
_atom_site_fract_x
_atom_site_fract_y
_atom_site_fract_z
Si Si1 0.888705 0.917110 0.295371
Si Si2 0.075687 0.923957 0.851224
Si Si3 0.735870 0.280361 0.495436
Si Si4 0.713153 0.499015 0.694417
Si Si5 0.485091 0.553842 0.368297
Si Si6 0.301897 0.540845 0.127234
Si Si7 0.050710 0.195803 0.579350
O O1 0.826192 0.795875 0.396082
O O2 0.079708 0.977665 0.297141
O O3 0.973927 0.900883 0.074351
O O4 0.659518 0.990744 0.419621
O O5 0.207060 0.815830 0.714155
O O6 0.248415 0.028206 0.764592
O O7 0.875401 0.947258 0.833262
O O8 0.643004 0.385925 0.643155
O O9 0.541352 0.186443 0.598258
O O10 0.966421 0.233456 0.451325
O O11 0.780785 0.591048 0.528696
O O12 0.504940 0.550640 0.898286
O O13 0.389774 0.507291 0.253056
O O14 0.173381 0.659619 0.203284
#
# Coordination Sequence:
#
# PCOD8046758 Si02
#       7
#     2   2   2   2   2   2   2
#     4  11  24  44  70 105 141 184 241 296 353 425
#     4  12  26  45  71 110 144 184 241 295 358 424
#     4  10  23  47  71 102 147 187 237 295 359 423
#     4  11  21  47  73 103 140 191 232 295 354 427
#     4  11  25  50  71 103 145 190 236 296 357 431
#     4  11  23  45  72 102 139 188 234 285 359 424
#     4  10  22  46  72 101 144 188 239 288 360 428
#
# _framework density 23.193138999999999
#
# number of rings (size 3 to 8) (size 9 to 14) (size 15 to 20)
#    0.000    1.143    5.714    0.857    2.000    3.429 
#   12.857    0.000    0.000    0.000    0.000    0.000 
#    0.000    0.000    0.000    0.000    0.000    0.000 
#
# Total GULP energy -173644.630624 kJ/mol
# GULP energy per Si atom -12403.187902 kJ/mol
# Density = 2.314035 g / cm^3
# Si number density = 23.193139 Si / 1000 Ang^3
#
#
#
# Elastic Constant Matrix: (Units=GPa)
#
#
# Indices 1 2 3 4 5 6 
#
# 1 58.1486 21.6119 32.8922 0.0000 -7.0851 0.0000
# 2 21.6119 138.9194 58.0883 0.0000 -3.0104 0.0000
# 3 32.8922 58.0883 154.4733 0.0000 0.9361 0.0000
# 4 0.0000 0.0000 0.0000 29.2933 0.0000 2.7097
# 5 -7.0851 -3.0104 0.9361 0.0000 37.3379 0.0000
# 6 0.0000 0.0000 0.0000 2.7097 0.0000 27.2323
#
#
#
# Elastic Compliance Matrix: (Units=1/GPa)
#
#
# Indices 1 2 3 4 5 6 
#
# 1 0.020370 -0.001498 -0.003797 0.000000 0.003840 0.000000
# 2 -0.001498 0.008674 -0.002946 0.000000 0.000489 0.000000
# 3 -0.003797 -0.002946 0.008397 0.000000 -0.001169 0.000000
# 4 0.000000 0.000000 0.000000 0.034455 0.000000 -0.003428
# 5 0.003840 0.000489 -0.001169 0.000000 0.027580 0.000000
# 6 0.000000 0.000000 0.000000 -0.003428 0.000000 0.037062
#
#
# Mechanical properties :
#
#
# Convention : Reuss Voigt Hill
#
# Bulk Modulus (GPa) = 47.71296 64.08068 55.89682
# Shear Modulus (GPa) = 31.24893 34.70263 32.97578
#
# Velocity S-wave (km/s) = 3.67459 3.87233 3.77475
# Velocity P-wave (km/s) = 6.21451 6.90524 6.56896
#
# Compressibility (1/GPa) = 0.02095867
#
# Stress axis : x y z
#
# Youngs Moduli (GPa) = 49.09197 115.29006 119.09046
#
# Poissons Ratio (x) = 0.17270 0.45223
# Poissons Ratio (y) = 0.07354 0.35081
# Poissons Ratio (z) = 0.18642 0.33961
#
# Static dielectric constant tensor:
#      x y z
#    x 4.197320 0.000000 0.071670 
#    y 0.000000 4.138870 0.000000 
#    z 0.071670 0.000000 4.190340 
# 
# 
# High freq. dielectric constant tensor:
#      x y z
#    x 1.924130 0.000000 0.005820 
#    y 0.000000 1.911050 0.000000 
#    z 0.005820 0.000000 1.915110 
# 
# From -- ./inp_files/6359.got.cif
#   From: 2010.03.12/outbox.cif.g09.slc.cpg/sg4_4_cif.got.tgz:6359.got - 2010.03.31 09:31:35.
