data_PCOD8046803
_publ_section_title
;
Structure prediction by ZEFSAII (Michael W. Deem and Ramdas Pophale) SiO2 
 PCOD8046803
Probable space group: P 21
;
_chemical_formula_sum "Si O2"
_cell_formula_units_Z 16
_cell_length_a 9.396248
_cell_length_b 11.389249
_cell_length_c 11.049857
_cell_angle_alpha 90.000000
_cell_angle_beta 42.554417
_cell_angle_gamma 90.000000
_cell_volume 799.722417
_symmetry_space_group_name_H-M "P 21"
_symmetry_group_IT_number 4
_symmetry_cell_setting 'monoclinic'
loop_
_space_group_symop_operation_xyz
x,y,z
-x,1/2+y,-z
loop_
_atom_site_type_symbol
_atom_site_label
_atom_site_fract_x
_atom_site_fract_y
_atom_site_fract_z
Si Si1 0.978292 0.559630 0.667768
Si Si2 0.591354 0.286263 0.798548
Si Si3 0.520368 0.329950 0.238513
Si Si4 0.774286 0.806092 0.798960
Si Si5 0.306306 0.176897 0.563429
Si Si6 0.119575 0.814941 0.169063
Si Si7 0.457418 0.588990 0.354402
Si Si8 0.853584 0.465190 0.492245
O O1 0.836301 0.671942 0.783967
O O2 0.893113 0.454863 0.804419
O O3 0.963581 0.529496 0.535380
O O4 0.218820 0.584305 0.550973
O O5 0.781152 0.256908 0.772463
O O6 0.525460 0.165236 0.778013
O O7 0.664997 0.380657 0.653406
O O8 0.397263 0.342897 0.993634
O O9 0.318507 0.321382 0.277333
O O10 0.481835 0.242988 0.374230
O O11 0.547723 0.460985 0.270220
O O12 0.733010 0.288989 0.038455
O O13 0.974392 0.889691 0.688133
O O14 0.401363 0.150153 0.633604
O O15 0.107653 0.260730 0.710199
O O16 0.242786 0.056415 0.540226
#
# Coordination Sequence:
#
# PCOD8046803 Si02
#       8
#     2   2   2   2   2   2   2   2
#     4  11  20  41  70  94 124 165 212 269 319 370
#     4  10  23  40  68 100 122 159 217 270 315 376
#     4  11  23  44  67  95 127 170 210 271 320 369
#     4  11  21  40  72  97 123 159 218 276 316 368
#     4  12  26  43  62  92 135 176 206 255 321 387
#     4  10  23  44  69  94 128 163 216 269 319 371
#     4  12  24  41  68  91 132 174 210 258 321 383
#     4  11  22  39  64  95 127 166 211 258 321 376
#
# _framework density 20.006941999999999
#
# number of rings (size 3 to 8) (size 9 to 14) (size 15 to 20)
#    0.000    1.000    5.000    2.250    1.750    1.000 
#    6.750    0.000    0.000    0.000    0.000    0.000 
#    0.000    0.000    0.000    0.000    0.000    0.000 
#
# Total GULP energy -198507.996065 kJ/mol
# GULP energy per Si atom -12406.749754 kJ/mol
# Density = 1.996141 g / cm^3
# Si number density = 20.006942 Si / 1000 Ang^3
#
#
#
# Elastic Constant Matrix: (Units=GPa)
#
#
# Indices 1 2 3 4 5 6 
#
# 1 94.3066 46.7222 40.8810 0.0000 4.1156 0.0000
# 2 46.7222 95.3431 33.4066 0.0000 2.7318 0.0000
# 3 40.8810 33.4066 96.4876 0.0000 -12.5216 0.0000
# 4 0.0000 0.0000 0.0000 23.8067 0.0000 5.7421
# 5 4.1156 2.7318 -12.5216 0.0000 19.4157 0.0000
# 6 0.0000 0.0000 0.0000 5.7421 0.0000 25.0787
#
#
#
# Elastic Compliance Matrix: (Units=1/GPa)
#
#
# Indices 1 2 3 4 5 6 
#
# 1 0.016198 -0.005767 -0.005682 0.000000 -0.006287 0.000000
# 2 -0.005767 0.014403 -0.002890 0.000000 -0.002668 0.000000
# 3 -0.005682 -0.002890 0.015258 0.000000 0.011451 0.000000
# 4 0.000000 0.000000 0.000000 0.044460 0.000000 -0.010180
# 5 -0.006287 -0.002668 0.011451 0.000000 0.060598 0.000000
# 6 0.000000 0.000000 0.000000 -0.010180 0.000000 0.042205
#
#
# Mechanical properties :
#
#
# Convention : Reuss Voigt Hill
#
# Bulk Modulus (GPa) = 58.19975 58.68411 58.44193
# Shear Modulus (GPa) = 21.97525 24.66870 23.32198
#
# Velocity S-wave (km/s) = 3.31778 3.51523 3.41793
# Velocity P-wave (km/s) = 6.62041 6.77284 6.69706
#
# Compressibility (1/GPa) = 0.01718221
#
# Stress axis : x y z
#
# Youngs Moduli (GPa) = 61.73462 69.42837 65.53847
#
# Poissons Ratio (x) = 0.40038 0.37242
# Poissons Ratio (y) = 0.35601 0.18939
# Poissons Ratio (z) = 0.35080 0.20063
#
# Static dielectric constant tensor:
#      x y z
#    x 3.514670 0.000000 -0.102870 
#    y 0.000000 3.705420 0.000000 
#    z -0.102870 0.000000 3.620390 
# 
# 
# High freq. dielectric constant tensor:
#      x y z
#    x 1.763970 0.000000 -0.011220 
#    y 0.000000 1.791380 0.000000 
#    z -0.011220 0.000000 1.786400 
# 
# From -- ./inp_files/6376.got.cif
#   From: 2010.03.12/outbox.cif.g09.slc.cpg/sg4_4_cif.got.tgz:6376.got - 2010.03.31 09:31:35.
