data_PCOD8046243
_publ_section_title
;
Structure prediction by ZEFSAII (Michael W. Deem and Ramdas Pophale) SiO2 
 PCOD8046243
Probable space group: P 21
;
_chemical_formula_sum "Si O2"
_cell_formula_units_Z 14
_cell_length_a 5.462714
_cell_length_b 19.125978
_cell_length_c 5.079761
_cell_angle_alpha 90.000000
_cell_angle_beta 81.672177
_cell_angle_gamma 90.000000
_cell_volume 525.135881
_symmetry_space_group_name_H-M "P 21"
_symmetry_group_IT_number 4
_symmetry_cell_setting 'monoclinic'
loop_
_space_group_symop_operation_xyz
x,y,z
-x,1/2+y,-z
loop_
_atom_site_type_symbol
_atom_site_label
_atom_site_fract_x
_atom_site_fract_y
_atom_site_fract_z
Si Si1 0.904263 0.886150 0.434480
Si Si2 0.219620 0.017735 0.159211
Si Si3 0.421880 0.857647 0.290975
Si Si4 0.246502 0.475954 0.062052
Si Si5 0.585524 0.264157 0.205134
Si Si6 0.067892 0.090105 0.697249
Si Si7 0.941818 0.728624 0.589078
O O1 0.699074 0.893351 0.224170
O O2 0.970208 0.803906 0.449151
O O3 0.191062 0.913641 0.335654
O O4 0.804301 0.913421 0.725295
O O5 0.466469 0.971063 0.071050
O O6 0.223573 0.080622 0.942246
O O7 0.955718 0.974914 0.152242
O O8 0.224971 0.053446 0.441675
O O9 0.376577 0.798479 0.083946
O O10 0.453221 0.824784 0.574758
O O11 0.194251 0.549009 0.225795
O O12 0.331720 0.218574 0.239610
O O13 0.832825 0.219049 0.234366
O O14 0.018124 0.170872 0.643401
#
# Coordination Sequence:
#
# PCOD8046243 Si02
#       7
#     2   2   2   2   2   2   2
#     4  10  21  44  66 100 131 176 219 280 332 397
#     4  10  25  43  71  92 136 174 232 273 338 404
#     4  10  21  40  59  93 128 166 210 264 327 385
#     4  10  24  46  69 100 136 181 226 279 340 404
#     4  10  22  39  60  92 129 167 207 268 325 386
#     4  10  26  45  69  99 135 182 225 279 340 405
#     4  10  23  41  68  96 135 170 225 275 336 393
#
# _framework density 26.659768
#
# number of rings (size 3 to 8) (size 9 to 14) (size 15 to 20)
#    0.857    1.143    0.000    1.714    4.000    4.571 
#   18.000    0.000    0.000    0.000    0.000    0.000 
#    0.000    0.000    0.000    0.000    0.000    0.000 
#
# Total GULP energy -173613.149269 kJ/mol
# GULP energy per Si atom -12400.939233 kJ/mol
# Density = 2.659909 g / cm^3
# Si number density = 26.659768 Si / 1000 Ang^3
#
#
#
# Elastic Constant Matrix: (Units=GPa)
#
#
# Indices 1 2 3 4 5 6 
#
# 1 208.7195 30.5789 24.8022 0.0000 -13.4727 0.0000
# 2 30.5789 99.7202 -1.3930 0.0000 -10.5732 0.0000
# 3 24.8022 -1.3930 71.0965 0.0000 -6.2985 0.0000
# 4 0.0000 0.0000 0.0000 38.0482 0.0000 0.5028
# 5 -13.4727 -10.5732 -6.2985 0.0000 43.3026 0.0000
# 6 0.0000 0.0000 0.0000 0.5028 0.0000 34.4278
#
#
#
# Elastic Compliance Matrix: (Units=1/GPa)
#
#
# Indices 1 2 3 4 5 6 
#
# 1 0.005295 -0.001541 -0.001788 0.000000 0.001011 0.000000
# 2 -0.001541 0.010756 0.000951 0.000000 0.002285 0.000000
# 3 -0.001788 0.000951 0.014871 0.000000 0.001839 0.000000
# 4 0.000000 0.000000 0.000000 0.026288 0.000000 -0.000384
# 5 0.001011 0.002285 0.001839 0.000000 0.024233 0.000000
# 6 0.000000 0.000000 0.000000 -0.000384 0.000000 0.029052
#
#
# Mechanical properties :
#
#
# Convention : Reuss Voigt Hill
#
# Bulk Modulus (GPa) = 38.21877 54.16806 46.19341
# Shear Modulus (GPa) = 40.33161 44.85891 42.59526
#
# Velocity S-wave (km/s) = 3.89373 4.10646 4.00150
# Velocity P-wave (km/s) = 5.88062 6.54571 6.22206
#
# Compressibility (1/GPa) = 0.02616515
#
# Stress axis : x y z
#
# Youngs Moduli (GPa) = 188.87068 92.96892 67.24695
#
# Poissons Ratio (x) = 0.14330 0.12022
# Poissons Ratio (y) = 0.29112 -0.06394
# Poissons Ratio (z) = 0.33764 -0.08840
#
# Static dielectric constant tensor:
#      x y z
#    x 5.827560 0.000000 -0.017740 
#    y 0.000000 4.678730 0.000000 
#    z -0.017740 0.000000 4.631130 
# 
# 
# High freq. dielectric constant tensor:
#      x y z
#    x 2.111370 0.000000 -0.002400 
#    y 0.000000 2.082020 0.000000 
#    z -0.002400 0.000000 2.081170 
# 
# From -- ./inp_files/447.got.cif
#   From: 2010.03.12/outbox.cif.g09.slc.cpg/sg4_1_cif.got.tgz:447.got - 2010.03.31 09:31:35.
