data_PCOD8046279
_publ_section_title
;
Structure prediction by ZEFSAII (Michael W. Deem and Ramdas Pophale) SiO2 
 PCOD8046279
Probable space group: P 21
;
_chemical_formula_sum "Si O2"
_cell_formula_units_Z 16
_cell_length_a 13.644010
_cell_length_b 8.553926
_cell_length_c 17.600950
_cell_angle_alpha 90.000000
_cell_angle_beta 21.746880
_cell_angle_gamma 90.000000
_cell_volume 761.096772
_symmetry_space_group_name_H-M "P 21"
_symmetry_group_IT_number 4
_symmetry_cell_setting 'monoclinic'
loop_
_space_group_symop_operation_xyz
x,y,z
-x,1/2+y,-z
loop_
_atom_site_type_symbol
_atom_site_label
_atom_site_fract_x
_atom_site_fract_y
_atom_site_fract_z
Si Si1 0.056967 0.933030 0.048021
Si Si2 0.932281 0.286901 0.124209
Si Si3 0.923515 0.996623 0.844491
Si Si4 0.919984 0.927293 0.389080
Si Si5 0.452721 0.481451 0.212237
Si Si6 0.253249 0.194344 0.100020
Si Si7 0.328813 0.263828 0.561444
Si Si8 0.586625 0.236394 0.003116
O O1 0.816773 0.864377 0.269526
O O2 0.067225 0.119117 0.031115
O O3 0.046670 0.850056 0.975082
O O4 0.326325 0.892334 0.897212
O O5 0.088763 0.410037 0.065191
O O6 0.632265 0.257532 0.367804
O O7 0.885449 0.862795 0.807737
O O8 0.201540 0.090434 0.642687
O O9 0.680780 0.114130 0.000570
O O10 0.817338 0.988445 0.544738
O O11 0.684101 0.848933 0.510967
O O12 0.159383 0.804065 0.225252
O O13 0.014703 0.071126 0.268834
O O14 0.545406 0.652920 0.114847
O O15 0.413756 0.372112 0.166744
O O16 0.396965 0.162634 0.076741
#
# Coordination Sequence:
#
# PCOD8046279 Si02
#       8
#     2   2   2   2   2   2   2   2
#     4  12  23  43  62  93 128 173 207 262 321 376
#     4  12  25  39  65  94 132 167 217 257 320 389
#     4  11  21  40  65  94 126 169 214 261 321 384
#     4  10  21  40  66  90 124 172 208 262 316 377
#     4  11  21  43  66  87 132 166 207 269 318 376
#     4  11  22  43  64  96 127 168 214 269 320 373
#     4  11  22  42  62  92 129 173 213 258 317 382
#     4  10  23  42  68  90 130 168 214 268 321 371
#
# _framework density 21.022293000000001
#
# number of rings (size 3 to 8) (size 9 to 14) (size 15 to 20)
#    0.000    1.000    6.250    3.000    0.000    1.000 
#    4.500    2.500    0.000    0.000    0.000    0.000 
#    0.000    0.000    0.000    0.000    0.000    0.000 
#
# Total GULP energy -198314.091812 kJ/mol
# GULP energy per Si atom -12394.630738 kJ/mol
# Density = 2.097445 g / cm^3
# Si number density = 21.022293 Si / 1000 Ang^3
#
#
#
# Elastic Constant Matrix: (Units=GPa)
#
#
# Indices 1 2 3 4 5 6 
#
# 1 104.6414 34.0812 19.8170 0.0000 9.2065 0.0000
# 2 34.0812 122.3393 26.2426 0.0000 9.0460 0.0000
# 3 19.8170 26.2426 77.3072 0.0000 23.7248 0.0000
# 4 0.0000 0.0000 0.0000 13.1200 0.0000 5.6129
# 5 9.2065 9.0460 23.7248 0.0000 26.1889 0.0000
# 6 0.0000 0.0000 0.0000 5.6129 0.0000 41.5075
#
#
#
# Elastic Compliance Matrix: (Units=1/GPa)
#
#
# Indices 1 2 3 4 5 6 
#
# 1 0.010808 -0.002592 -0.001384 0.000000 -0.001650 0.000000
# 2 -0.002592 0.009442 -0.002520 0.000000 -0.000067 0.000000
# 3 -0.001384 -0.002520 0.019016 0.000000 -0.015870 0.000000
# 4 0.000000 0.000000 0.000000 0.080900 0.000000 -0.010940
# 5 -0.001650 -0.000067 -0.015870 0.000000 0.053164 0.000000
# 6 0.000000 0.000000 0.000000 -0.010940 0.000000 0.025571
#
#
# Mechanical properties :
#
#
# Convention : Reuss Voigt Hill
#
# Bulk Modulus (GPa) = 38.06171 51.61883 44.84027
# Shear Modulus (GPa) = 22.66029 31.10642 26.88335
#
# Velocity S-wave (km/s) = 3.28673 3.85084 3.57991
# Velocity P-wave (km/s) = 5.70510 6.66180 6.20193
#
# Compressibility (1/GPa) = 0.02627312
#
# Stress axis : x y z
#
# Youngs Moduli (GPa) = 92.52443 105.91461 52.58751
#
# Poissons Ratio (x) = 0.27452 0.07279
# Poissons Ratio (y) = 0.23982 0.13252
# Poissons Ratio (z) = 0.12808 0.26690
#
# Static dielectric constant tensor:
#      x y z
#    x 3.878220 0.000000 0.015400 
#    y 0.000000 3.946250 0.000000 
#    z 0.015400 0.000000 3.525470 
# 
# 
# High freq. dielectric constant tensor:
#      x y z
#    x 1.835680 0.000000 0.001940 
#    y 0.000000 1.832640 0.000000 
#    z 0.001940 0.000000 1.794690 
# 
# From -- ./inp_files/13893.got.cif
#   From: 2010.03.12/outbox.cif.g09.slc.cpg/sg4_7_cif.got.tgz:13893.got - 2010.03.31 09:31:35.
