data_PCOD8046109
_publ_section_title
;
Structure prediction by ZEFSAII (Michael W. Deem and Ramdas Pophale) SiO2 
 PCOD8046109
Probable space group: P 21
;
_chemical_formula_sum "Si O2"
_cell_formula_units_Z 14
_cell_length_a 8.538668
_cell_length_b 13.766013
_cell_length_c 6.350908
_cell_angle_alpha 90.000000
_cell_angle_beta 53.264596
_cell_angle_gamma 90.000000
_cell_volume 598.255675
_symmetry_space_group_name_H-M "P 21"
_symmetry_group_IT_number 4
_symmetry_cell_setting 'monoclinic'
loop_
_space_group_symop_operation_xyz
x,y,z
-x,1/2+y,-z
loop_
_atom_site_type_symbol
_atom_site_label
_atom_site_fract_x
_atom_site_fract_y
_atom_site_fract_z
Si Si1 0.478933 0.287590 0.269020
Si Si2 0.210563 0.032691 0.406201
Si Si3 0.636237 0.686877 0.027141
Si Si4 0.546982 0.094534 0.438412
Si Si5 0.036958 0.574433 0.039452
Si Si6 0.799424 0.434893 0.991885
Si Si7 0.113571 0.281610 0.827489
O O1 0.572346 0.203567 0.335361
O O2 0.253482 0.300690 0.515352
O O3 0.502324 0.256107 0.005053
O O4 0.592765 0.388689 0.228141
O O5 0.386515 0.032585 0.437039
O O6 0.003891 0.027921 0.697194
O O7 0.208963 0.938648 0.255906
O O8 0.230815 0.129029 0.248205
O O9 0.510376 0.608076 0.267782
O O10 0.760886 0.762876 0.063876
O O11 0.757576 0.043048 0.231449
O O12 0.023844 0.688719 0.094190
O O13 0.851938 0.543135 0.037915
O O14 0.974383 0.373859 0.955521
#
# Coordination Sequence:
#
# PCOD8046109 Si02
#       7
#     2   2   2   2   2   2   2
#     4  10  23  44  68  99 136 181 234 281 345 410
#     4  11  23  44  67 101 137 179 230 288 336 411
#     4  10  20  45  72  92 135 185 224 282 345 412
#     4  10  22  42  71  97 131 185 221 280 353 407
#     4  12  24  46  71 104 140 182 233 287 347 407
#     4  12  27  41  68 110 138 179 238 288 338 414
#     4  11  23  46  69 103 141 183 232 284 348 409
#
# _framework density 23.401365999999999
#
# number of rings (size 3 to 8) (size 9 to 14) (size 15 to 20)
#    0.000    1.143    7.143    0.000    0.000   10.286 
#    2.571    0.000    0.000    0.000    0.000    0.000 
#    0.000    0.000    0.000    0.000    0.000    0.000 
#
# Total GULP energy -173447.969989 kJ/mol
# GULP energy per Si atom -12389.140713 kJ/mol
# Density = 2.334810 g / cm^3
# Si number density = 23.401366 Si / 1000 Ang^3
#
#
#
# Elastic Constant Matrix: (Units=GPa)
#
#
# Indices 1 2 3 4 5 6 
#
# 1 77.6143 14.2396 54.4531 0.0000 -5.9844 0.0000
# 2 14.2396 30.3534 5.1073 0.0000 -8.5932 0.0000
# 3 54.4531 5.1073 154.0808 0.0000 -10.5328 0.0000
# 4 0.0000 0.0000 0.0000 17.0784 0.0000 2.5330
# 5 -5.9844 -8.5932 -10.5328 0.0000 39.7228 0.0000
# 6 0.0000 0.0000 0.0000 2.5330 0.0000 47.4465
#
#
#
# Elastic Compliance Matrix: (Units=1/GPa)
#
#
# Indices 1 2 3 4 5 6 
#
# 1 0.018793 -0.007900 -0.006419 0.000000 -0.000580 0.000000
# 2 -0.007900 0.038481 0.002041 0.000000 0.007676 0.000000
# 3 -0.006419 0.002041 0.008815 0.000000 0.001812 0.000000
# 4 0.000000 0.000000 0.000000 0.059021 0.000000 -0.003151
# 5 -0.000580 0.007676 0.001812 0.000000 0.027228 0.000000
# 6 0.000000 0.000000 0.000000 -0.003151 0.000000 0.021245
#
#
# Mechanical properties :
#
#
# Convention : Reuss Voigt Hill
#
# Bulk Modulus (GPa) = 24.07782 45.51650 34.79716
# Shear Modulus (GPa) = 23.58688 33.39944 28.49316
#
# Velocity S-wave (km/s) = 3.17823 3.78199 3.49318
# Velocity P-wave (km/s) = 4.87643 6.20998 5.58316
#
# Compressibility (1/GPa) = 0.04153199
#
# Stress axis : x y z
#
# Youngs Moduli (GPa) = 53.21261 25.98682 113.44461
#
# Poissons Ratio (x) = 0.20530 0.72822
# Poissons Ratio (y) = 0.42039 -0.23156
# Poissons Ratio (z) = 0.34158 -0.05304
#
# Static dielectric constant tensor:
#      x y z
#    x 4.116980 0.000000 0.185640 
#    y 0.000000 4.080220 0.000000 
#    z 0.185640 0.000000 4.591450 
# 
# 
# High freq. dielectric constant tensor:
#      x y z
#    x 1.910260 0.000000 0.006800 
#    y 0.000000 1.917140 0.000000 
#    z 0.006800 0.000000 1.935430 
# 
# From -- ./inp_files/1695.got.cif
#   From: 2010.03.12/outbox.cif.g09.slc.cpg/sg4_1_cif.got.tgz:1695.got - 2010.03.31 09:31:35.
