data_PCOD8046032
_publ_section_title
;
Structure prediction by ZEFSAII (Michael W. Deem and Ramdas Pophale) SiO2 
 PCOD8046032
Probable space group: P 21
;
_chemical_formula_sum "Si O2"
_cell_formula_units_Z 16
_cell_length_a 9.110442
_cell_length_b 13.074386
_cell_length_c 12.203027
_cell_angle_alpha 90.000000
_cell_angle_beta 146.020709
_cell_angle_gamma 90.000000
_cell_volume 812.376147
_symmetry_space_group_name_H-M "P 21"
_symmetry_group_IT_number 4
_symmetry_cell_setting 'monoclinic'
loop_
_space_group_symop_operation_xyz
x,y,z
-x,1/2+y,-z
loop_
_atom_site_type_symbol
_atom_site_label
_atom_site_fract_x
_atom_site_fract_y
_atom_site_fract_z
Si Si1 0.452529 0.931530 0.344722
Si Si2 0.956865 0.799348 0.635033
Si Si3 0.310367 0.656660 0.544678
Si Si4 0.928138 0.417262 0.092705
Si Si5 0.868452 0.448321 0.431326
Si Si6 0.231347 0.614571 0.735517
Si Si7 0.478445 0.873759 0.588889
Si Si8 0.774388 0.583060 0.165719
O O1 0.665458 0.840408 0.472220
O O2 0.322703 0.914709 0.384266
O O3 0.580783 0.044255 0.420983
O O4 0.252893 0.906941 0.125060
O O5 0.125239 0.830801 0.847552
O O6 0.056198 0.843624 0.580765
O O7 0.989479 0.677509 0.640886
O O8 0.335124 0.667661 0.689705
O O9 0.470623 0.749561 0.589054
O O10 0.002324 0.668478 0.319760
O O11 0.860673 0.522954 0.110201
O O12 0.224311 0.413432 0.232531
O O13 0.648663 0.425985 0.384485
O O14 0.761162 0.521814 0.270781
O O15 0.127086 0.499717 0.647779
O O16 0.479452 0.623066 0.969902
#
# Coordination Sequence:
#
# PCOD8046032 Si02
#       8
#     2   2   2   2   2   2   2   2
#     4  11  22  44  64  85 127 172 195 255 315 361
#     4  10  20  40  62  92 119 156 213 253 301 361
#     4  11  21  40  63  89 121 164 204 252 312 366
#     4  10  21  41  62  85 123 168 200 246 307 371
#     4  10  21  39  60  92 127 152 202 268 298 353
#     4  11  21  38  68  92 121 164 209 258 309 364
#     4  11  24  39  61  97 126 161 210 250 306 380
#     4  10  20  41  64  86 118 163 207 254 306 360
#
# _framework density 19.695311
#
# number of rings (size 3 to 8) (size 9 to 14) (size 15 to 20)
#    0.000    1.500    7.500    0.000    0.000    6.000 
#    4.500    0.000    0.000    0.000    0.000    0.000 
#    0.000    0.000    0.000    0.000    0.000    0.000 
#
# Total GULP energy -198238.725357 kJ/mol
# GULP energy per Si atom -12389.920335 kJ/mol
# Density = 1.965048 g / cm^3
# Si number density = 19.695311 Si / 1000 Ang^3
#
#
#
# Elastic Constant Matrix: (Units=GPa)
#
#
# Indices 1 2 3 4 5 6 
#
# 1 105.3687 25.6019 28.9789 0.0000 -4.3065 0.0000
# 2 25.6019 57.4915 27.3729 0.0000 2.9824 0.0000
# 3 28.9789 27.3729 127.7799 0.0000 -8.6956 0.0000
# 4 0.0000 0.0000 0.0000 13.9400 0.0000 6.5708
# 5 -4.3065 2.9824 -8.6956 0.0000 25.0103 0.0000
# 6 0.0000 0.0000 0.0000 6.5708 0.0000 30.1155
#
#
#
# Elastic Compliance Matrix: (Units=1/GPa)
#
#
# Indices 1 2 3 4 5 6 
#
# 1 0.011014 -0.004317 -0.001443 0.000000 0.001910 0.000000
# 2 -0.004317 0.021429 -0.003929 0.000000 -0.004665 0.000000
# 3 -0.001443 -0.003929 0.009228 0.000000 0.003428 0.000000
# 4 0.000000 0.000000 0.000000 0.079960 0.000000 -0.017446
# 5 0.001910 -0.004665 0.003428 0.000000 0.042061 0.000000
# 6 0.000000 0.000000 0.000000 -0.017446 0.000000 0.037012
#
#
# Mechanical properties :
#
#
# Convention : Reuss Voigt Hill
#
# Bulk Modulus (GPa) = 44.85601 50.50527 47.68064
# Shear Modulus (GPa) = 21.97680 27.72558 24.85119
#
# Velocity S-wave (km/s) = 3.34404 3.75604 3.55601
# Velocity P-wave (km/s) = 6.14285 6.67154 6.41264
#
# Compressibility (1/GPa) = 0.02229356
#
# Stress axis : x y z
#
# Youngs Moduli (GPa) = 90.79099 46.66611 108.36318
#
# Poissons Ratio (x) = 0.20145 0.15639
# Poissons Ratio (y) = 0.39192 0.42575
# Poissons Ratio (z) = 0.13103 0.18335
#
# Static dielectric constant tensor:
#      x y z
#    x 3.688680 0.000000 -0.283510 
#    y 0.000000 3.517220 0.000000 
#    z -0.283510 0.000000 3.731680 
# 
# 
# High freq. dielectric constant tensor:
#      x y z
#    x 1.771740 0.000000 -0.017190 
#    y 0.000000 1.753040 0.000000 
#    z -0.017190 0.000000 1.766880 
# 
# From -- ./inp_files/11300.got.cif
#   From: 2010.03.12/outbox.cif.g09.slc.cpg/sg4_6_cif.got.tgz:11300.got - 2010.03.31 09:31:35.
