data_PCOD8046163
_publ_section_title
;
Structure prediction by ZEFSAII (Michael W. Deem and Ramdas Pophale) SiO2 
 PCOD8046163
Probable space group: P 21
;
_chemical_formula_sum "Si O2"
_cell_formula_units_Z 16
_cell_length_a 8.542908
_cell_length_b 12.011489
_cell_length_c 11.935243
_cell_angle_alpha 90.000000
_cell_angle_beta 39.150976
_cell_angle_gamma 90.000000
_cell_volume 773.241291
_symmetry_space_group_name_H-M "P 21"
_symmetry_group_IT_number 4
_symmetry_cell_setting 'monoclinic'
loop_
_space_group_symop_operation_xyz
x,y,z
-x,1/2+y,-z
loop_
_atom_site_type_symbol
_atom_site_label
_atom_site_fract_x
_atom_site_fract_y
_atom_site_fract_z
Si Si1 0.950083 0.010690 0.229343
Si Si2 0.276753 0.394814 0.195438
Si Si3 0.266514 0.702106 0.323886
Si Si4 0.159866 0.052356 0.503820
Si Si5 0.123668 0.747697 0.647708
Si Si6 0.581760 0.457793 0.441625
Si Si7 0.344818 0.942604 0.189694
Si Si8 0.390203 0.998644 0.832299
O O1 0.865398 0.138692 0.282753
O O2 0.702953 0.934965 0.364300
O O3 0.104263 0.978093 0.253380
O O4 0.104088 0.995459 0.029327
O O5 0.475695 0.388944 0.187470
O O6 0.035023 0.452762 0.379969
O O7 0.168465 0.276082 0.214490
O O8 0.403544 0.461702 0.021253
O O9 0.272328 0.728613 0.451360
O O10 0.338292 0.810628 0.214915
O O11 0.468053 0.604695 0.190970
O O12 0.988814 0.665736 0.438573
O O13 0.309680 0.055239 0.537587
O O14 0.349196 0.018436 0.298585
O O15 0.260077 0.845367 0.640283
O O16 0.593255 0.502962 0.309409
#
# Coordination Sequence:
#
# PCOD8046163 Si02
#       8
#     2   2   2   2   2   2   2   2
#     4  11  23  42  63  89 127 166 201 252 307 364
#     4   9  20  37  62  89 116 154 208 251 301 353
#     4  11  20  40  66  88 117 161 210 258 302 349
#     4  10  21  38  59  88 120 154 203 255 298 357
#     4  11  21  40  65  89 121 163 206 257 303 356
#     4  11  23  39  58  91 128 161 198 246 313 373
#     4  11  20  38  65  88 113 159 209 254 297 358
#     4  10  22  42  62  90 130 160 199 253 305 370
#
# _framework density 20.692117
#
# number of rings (size 3 to 8) (size 9 to 14) (size 15 to 20)
#    0.000    1.500    5.000    1.500    0.000    3.000 
#    2.250    1.250    0.000    0.000    0.000    0.000 
#    0.000    0.000    0.000    0.000    0.000    0.000 
#
# Total GULP energy -198338.443343 kJ/mol
# GULP energy per Si atom -12396.152709 kJ/mol
# Density = 2.064502 g / cm^3
# Si number density = 20.692117 Si / 1000 Ang^3
#
#
#
# Elastic Constant Matrix: (Units=GPa)
#
#
# Indices 1 2 3 4 5 6 
#
# 1 90.2902 19.9309 39.1342 0.0000 5.5473 0.0000
# 2 19.9309 57.0943 -2.1645 0.0000 -3.5946 0.0000
# 3 39.1342 -2.1645 113.5780 0.0000 7.8078 0.0000
# 4 0.0000 0.0000 0.0000 25.3363 0.0000 -3.3859
# 5 5.5473 -3.5946 7.8078 0.0000 28.8853 0.0000
# 6 0.0000 0.0000 0.0000 -3.3859 0.0000 27.5739
#
#
#
# Elastic Compliance Matrix: (Units=1/GPa)
#
#
# Indices 1 2 3 4 5 6 
#
# 1 0.014553 -0.005402 -0.004971 0.000000 -0.002123 0.000000
# 2 -0.005402 0.019663 0.002034 0.000000 0.002934 0.000000
# 3 -0.004971 0.002034 0.010671 0.000000 -0.001677 0.000000
# 4 0.000000 0.000000 0.000000 0.040128 0.000000 0.004927
# 5 -0.002123 0.002934 -0.001677 0.000000 0.035846 0.000000
# 6 0.000000 0.000000 0.000000 0.004927 0.000000 0.036871
#
#
# Mechanical properties :
#
#
# Convention : Reuss Voigt Hill
#
# Bulk Modulus (GPa) = 35.45029 41.64041 38.54535
# Shear Modulus (GPa) = 27.20147 29.96323 28.58235
#
# Velocity S-wave (km/s) = 3.62965 3.80945 3.72064
# Velocity P-wave (km/s) = 5.89366 6.28623 6.09311
#
# Compressibility (1/GPa) = 0.02820851
#
# Stress axis : x y z
#
# Youngs Moduli (GPa) = 68.71362 50.85773 93.70763
#
# Poissons Ratio (x) = 0.27476 0.46586
# Poissons Ratio (y) = 0.37122 -0.19064
# Poissons Ratio (z) = 0.34160 -0.10347
#
# Static dielectric constant tensor:
#      x y z
#    x 3.819890 0.000000 -0.130590 
#    y 0.000000 3.761750 0.000000 
#    z -0.130590 0.000000 3.867710 
# 
# 
# High freq. dielectric constant tensor:
#      x y z
#    x 1.800590 0.000000 0.001560 
#    y 0.000000 1.789850 0.000000 
#    z 0.001560 0.000000 1.821130 
# 
# From -- ./inp_files/6153.got.cif
#   From: 2010.03.12/outbox.cif.g09.slc.cpg/sg4_4_cif.got.tgz:6153.got - 2010.03.31 09:31:35.
