data_PCOD8046857
_publ_section_title
;
Structure prediction by ZEFSAII (Michael W. Deem and Ramdas Pophale) SiO2 
 PCOD8046857
Probable space group: P 21
;
_chemical_formula_sum "Si O2"
_cell_formula_units_Z 16
_cell_length_a 9.399410
_cell_length_b 5.377148
_cell_length_c 28.275160
_cell_angle_alpha 90.000000
_cell_angle_beta 27.583579
_cell_angle_gamma 90.000000
_cell_volume 661.725801
_symmetry_space_group_name_H-M "P 21"
_symmetry_group_IT_number 4
_symmetry_cell_setting 'monoclinic'
loop_
_space_group_symop_operation_xyz
x,y,z
-x,1/2+y,-z
loop_
_atom_site_type_symbol
_atom_site_label
_atom_site_fract_x
_atom_site_fract_y
_atom_site_fract_z
Si Si1 0.520465 0.271820 0.114880
Si Si2 0.807237 0.762860 0.378351
Si Si3 0.654505 0.307713 0.234416
Si Si4 0.185681 0.392619 0.450762
Si Si5 0.599069 0.264818 0.413664
Si Si6 0.611544 0.487404 0.759813
Si Si7 0.335476 0.269022 0.066281
Si Si8 0.156784 0.109143 0.911722
O O1 0.321790 0.322471 0.126675
O O2 0.703085 0.511706 0.080157
O O3 0.308372 0.178131 0.220846
O O4 0.790533 0.080169 0.019270
O O5 0.825328 0.506210 0.342886
O O6 0.513162 0.747431 0.499036
O O7 0.117423 0.783874 0.318455
O O8 0.767042 0.999681 0.354472
O O9 0.471603 0.436613 0.330896
O O10 0.698276 0.483141 0.176923
O O11 0.986170 0.212058 0.153976
O O12 0.424305 0.092665 0.282655
O O13 0.313186 0.304404 0.463526
O O14 0.027420 0.662476 0.503423
O O15 0.271982 0.391472 0.873625
O O16 0.468360 0.520936 0.003315
#
# Coordination Sequence:
#
# PCOD8046857 Si02
#       8
#     2   2   2   2   2   2   2   2
#     4  11  24  42  68 101 140 188 236 291 357 425
#     4  10  23  42  70  99 136 177 229 298 354 414
#     4  11  28  46  72 107 147 195 248 302 369 448
#     4  12  28  48  76 105 148 198 246 305 371 442
#     4  10  23  45  67 101 138 176 232 295 357 423
#     4  11  25  42  74  99 138 187 244 294 356 431
#     4  12  28  47  72 106 151 195 239 303 371 434
#     4  11  23  44  69 102 140 186 244 296 353 437
#
# _framework density 24.179196999999998
#
# number of rings (size 3 to 8) (size 9 to 14) (size 15 to 20)
#    0.000    1.000    2.500    2.250   12.250    1.000 
#    0.000    0.000    0.000    0.000    0.000    0.000 
#    0.000    0.000    0.000    0.000    0.000    0.000 
#
# Total GULP energy -198251.710623 kJ/mol
# GULP energy per Si atom -12390.731914 kJ/mol
# Density = 2.412416 g / cm^3
# Si number density = 24.179197 Si / 1000 Ang^3
#
#
#
# Elastic Constant Matrix: (Units=GPa)
#
#
# Indices 1 2 3 4 5 6 
#
# 1 134.6232 21.8386 7.9740 -0.0003 -0.5396 0.0000
# 2 21.8386 113.1833 14.4706 0.0000 1.1963 0.0000
# 3 7.9740 14.4706 61.0566 -0.0027 -2.2568 0.0004
# 4 -0.0003 0.0000 -0.0027 27.8357 0.0000 -8.0404
# 5 -0.5396 1.1963 -2.2568 0.0000 35.8246 0.0005
# 6 0.0000 0.0000 0.0004 -8.0404 0.0005 30.7221
#
#
#
# Elastic Compliance Matrix: (Units=1/GPa)
#
#
# Indices 1 2 3 4 5 6 
#
# 1 0.007695 -0.001401 -0.000669 0.000000 0.000121 0.000000
# 2 -0.001401 0.009373 -0.002056 0.000000 -0.000464 0.000000
# 3 -0.000669 -0.002056 0.016995 0.000002 0.001129 0.000000
# 4 0.000000 0.000000 0.000002 0.038863 0.000000 0.010171
# 5 0.000121 -0.000464 0.001129 0.000000 0.028002 0.000000
# 6 0.000000 0.000000 0.000000 0.010171 0.000000 0.035212
#
#
# Mechanical properties :
#
#
# Convention : Reuss Voigt Hill
#
# Bulk Modulus (GPa) = 38.73975 44.15884 41.44929
# Shear Modulus (GPa) = 32.68093 36.51513 34.59803
#
# Velocity S-wave (km/s) = 3.68042 3.89033 3.78683
# Velocity P-wave (km/s) = 5.84101 6.20341 6.02494
#
# Compressibility (1/GPa) = 0.02581328
#
# Stress axis : x y z
#
# Youngs Moduli (GPa) = 129.94713 106.68718 58.84254
#
# Poissons Ratio (x) = 0.14943 0.03934
# Poissons Ratio (y) = 0.18201 0.12096
# Poissons Ratio (z) = 0.08688 0.21932
#
# Static dielectric constant tensor:
#      x y z
#    x 4.299180 0.000000 -0.031870 
#    y 0.000000 4.529500 0.000000 
#    z -0.031870 0.000000 4.211510 
# 
# 
# High freq. dielectric constant tensor:
#      x y z
#    x 1.962980 0.000000 -0.006740 
#    y 0.000000 1.958630 0.000000 
#    z -0.006740 0.000000 1.957320 
# 
# From -- ./inp_files/7353.got.cif
#   From: 2010.03.12/outbox.cif.g09.slc.cpg/sg4_4_cif.got.tgz:7353.got - 2010.03.31 09:31:35.
