data_PCOD8046082
_publ_section_title
;
Structure prediction by ZEFSAII (Michael W. Deem and Ramdas Pophale) SiO2 
 PCOD8046082
Probable space group: P 21
;
_chemical_formula_sum "Si O2"
_cell_formula_units_Z 16
_cell_length_a 13.512039
_cell_length_b 9.013778
_cell_length_c 11.846660
_cell_angle_alpha 90.000000
_cell_angle_beta 29.954702
_cell_angle_gamma 90.000000
_cell_volume 720.441013
_symmetry_space_group_name_H-M "P 21"
_symmetry_group_IT_number 4
_symmetry_cell_setting 'monoclinic'
loop_
_space_group_symop_operation_xyz
x,y,z
-x,1/2+y,-z
loop_
_atom_site_type_symbol
_atom_site_label
_atom_site_fract_x
_atom_site_fract_y
_atom_site_fract_z
Si Si1 0.174419 0.085610 0.997388
Si Si2 0.407925 0.883557 0.941182
Si Si3 0.038223 0.310987 0.797557
Si Si4 0.693331 0.580502 0.376802
Si Si5 0.695993 0.121854 0.110874
Si Si6 0.978007 0.395848 0.243642
Si Si7 0.161674 0.316818 0.430774
Si Si8 0.846479 0.478208 0.609150
O O1 0.316063 0.097690 0.748709
O O2 0.308379 0.013556 0.963635
O O3 0.059405 0.231527 0.148004
O O4 0.987416 0.982284 0.146606
O O5 0.390122 0.719386 0.906143
O O6 0.642578 0.903623 0.722426
O O7 0.318126 0.891601 0.155493
O O8 0.240839 0.243684 0.644063
O O9 0.021910 0.290818 0.677727
O O10 0.846512 0.222917 0.036903
O O11 0.474166 0.553126 0.641096
O O12 0.847895 0.453515 0.265451
O O13 0.821758 0.988111 0.934635
O O14 0.833705 0.417352 0.493736
O O15 0.061109 0.432483 0.444884
O O16 0.192766 0.155139 0.343401
#
# Coordination Sequence:
#
# PCOD8046082 Si02
#       8
#     2   2   2   2   2   2   2   2
#     4  11  24  44  67 104 140 175 238 287 335 413
#     4  11  24  45  67 101 136 178 228 279 348 412
#     4  10  21  45  66  91 139 181 218 279 350 400
#     4  11  22  44  72  98 134 188 229 284 350 403
#     4  10  20  42  67  92 134 178 220 275 344 405
#     4  11  24  43  66 103 140 174 235 289 338 410
#     4  12  24  45  72  96 138 182 221 284 348 407
#     4  12  23  44  71 103 135 182 227 285 343 414
#
# _framework density 22.208618000000001
#
# number of rings (size 3 to 8) (size 9 to 14) (size 15 to 20)
#    0.000    1.000    6.250    1.500    0.000    5.000 
#    6.750    1.250    0.000    0.000    0.000    0.000 
#    0.000    0.000    0.000    0.000    0.000    0.000 
#
# Total GULP energy -198325.433934 kJ/mol
# GULP energy per Si atom -12395.339621 kJ/mol
# Density = 2.215807 g / cm^3
# Si number density = 22.208618 Si / 1000 Ang^3
#
#
#
# Elastic Constant Matrix: (Units=GPa)
#
#
# Indices 1 2 3 4 5 6 
#
# 1 68.9152 28.4325 32.5979 0.0000 6.8360 0.0000
# 2 28.4325 136.1485 38.2736 0.0000 -1.2507 0.0000
# 3 32.5979 38.2736 118.2153 0.0000 9.3207 0.0000
# 4 0.0000 0.0000 0.0000 25.5853 0.0000 0.1157
# 5 6.8360 -1.2507 9.3207 0.0000 38.1500 0.0000
# 6 0.0000 0.0000 0.0000 0.1157 0.0000 25.0777
#
#
#
# Elastic Compliance Matrix: (Units=1/GPa)
#
#
# Indices 1 2 3 4 5 6 
#
# 1 0.017635 -0.002627 -0.003830 0.000000 -0.002310 0.000000
# 2 -0.002627 0.008504 -0.002129 0.000000 0.001270 0.000000
# 3 -0.003830 -0.002129 0.010355 0.000000 -0.001913 0.000000
# 4 0.000000 0.000000 0.000000 0.039086 0.000000 -0.000180
# 5 -0.002310 0.001270 -0.001913 0.000000 0.027135 0.000000
# 6 0.000000 0.000000 0.000000 -0.000180 0.000000 0.039877
#
#
# Mechanical properties :
#
#
# Convention : Reuss Voigt Hill
#
# Bulk Modulus (GPa) = 51.75477 57.98746 54.87112
# Shear Modulus (GPa) = 30.08315 32.69428 31.38872
#
# Velocity S-wave (km/s) = 3.68444 3.84102 3.76354
# Velocity P-wave (km/s) = 6.43853 6.77039 6.60655
#
# Compressibility (1/GPa) = 0.01932189
#
# Stress axis : x y z
#
# Youngs Moduli (GPa) = 56.70387 117.59576 96.56803
#
# Poissons Ratio (x) = 0.30897 0.36987
# Poissons Ratio (y) = 0.14898 0.20557
# Poissons Ratio (z) = 0.21719 0.25034
#
# Static dielectric constant tensor:
#      x y z
#    x 3.876340 0.000000 0.056000 
#    y 0.000000 3.993330 0.000000 
#    z 0.056000 0.000000 4.060230 
# 
# 
# High freq. dielectric constant tensor:
#      x y z
#    x 1.861070 0.000000 0.003530 
#    y 0.000000 1.871420 0.000000 
#    z 0.003530 0.000000 1.882220 
# 
# From -- ./inp_files/12616.got.cif
#   From: 2010.03.12/outbox.cif.g09.slc.cpg/sg4_7_cif.got.tgz:12616.got - 2010.03.31 09:31:35.
