data_PCOD8046029
_publ_section_title
;
Structure prediction by ZEFSAII (Michael W. Deem and Ramdas Pophale) SiO2 
 PCOD8046029
Probable space group: P 21
;
_chemical_formula_sum "Si O2"
_cell_formula_units_Z 12
_cell_length_a 9.281052
_cell_length_b 8.528283
_cell_length_c 11.898386
_cell_angle_alpha 90.000000
_cell_angle_beta 139.536507
_cell_angle_gamma 90.000000
_cell_volume 611.177102
_symmetry_space_group_name_H-M "P 21"
_symmetry_group_IT_number 4
_symmetry_cell_setting 'monoclinic'
loop_
_space_group_symop_operation_xyz
x,y,z
-x,1/2+y,-z
loop_
_atom_site_type_symbol
_atom_site_label
_atom_site_fract_x
_atom_site_fract_y
_atom_site_fract_z
Si Si1 0.789274 0.503280 0.693775
Si Si2 0.573061 0.001543 0.688796
Si Si3 0.376679 0.169733 0.189151
Si Si4 0.159682 0.176696 0.489595
Si Si5 0.854680 0.043492 0.500961
Si Si6 0.035102 0.668735 0.191481
O O1 0.549320 0.449091 0.500448
O O2 0.753086 0.615533 0.777275
O O3 0.923521 0.602269 0.678402
O O4 0.925177 0.351313 0.811096
O O5 0.586035 0.855658 0.780480
O O6 0.422752 0.136499 0.659572
O O7 0.814778 0.066455 0.803453
O O8 0.608433 0.081064 0.310854
O O9 0.222023 0.132276 0.989471
O O10 0.118085 0.360332 0.462199
O O11 0.028507 0.095928 0.511656
O O12 0.909817 0.136986 0.646728
#
# Coordination Sequence:
#
# PCOD8046029 Si02
#       6
#     2   2   2   2   2   2
#     4  10  20  40  61  93 117 163 201 246 302 350
#     4  10  20  40  61  93 117 163 201 246 302 350
#     4  12  23  38  65  93 124 159 202 253 301 359
#     4  10  23  38  71  82 120 172 196 254 301 364
#     4  12  21  44  61  90 124 158 210 242 313 354
#     4  12  23  38  65  93 124 159 202 253 301 359
#
# _framework density 19.634243999999999
#
# number of rings (size 3 to 8) (size 9 to 14) (size 15 to 20)
#    1.000    0.000    3.333    5.000    0.000    0.000 
#    0.000   10.000    0.000    0.000    0.000    0.000 
#    0.000    0.000    0.000    0.000    0.000    0.000 
#
# Total GULP energy -148794.894351 kJ/mol
# GULP energy per Si atom -12399.574529 kJ/mol
# Density = 1.958956 g / cm^3
# Si number density = 19.634244 Si / 1000 Ang^3
#
#
#
# Elastic Constant Matrix: (Units=GPa)
#
#
# Indices 1 2 3 4 5 6 
#
# 1 75.9675 0.0052 13.5932 0.0000 2.6254 0.0000
# 2 0.0052 77.2622 3.1405 0.0000 -1.1982 0.0000
# 3 13.5932 3.1405 108.5311 0.0000 17.9555 0.0000
# 4 0.0000 0.0000 0.0000 17.1048 0.0000 4.0838
# 5 2.6254 -1.1982 17.9555 0.0000 10.8521 0.0000
# 6 0.0000 0.0000 0.0000 4.0838 0.0000 37.6670
#
#
#
# Elastic Compliance Matrix: (Units=1/GPa)
#
#
# Indices 1 2 3 4 5 6 
#
# 1 0.013469 0.000054 -0.001584 0.000000 -0.000632 0.000000
# 2 0.000054 0.013022 -0.000853 0.000000 0.002836 0.000000
# 3 -0.001584 -0.000853 0.012928 0.000000 -0.021101 0.000000
# 4 0.000000 0.000000 0.000000 0.060017 0.000000 -0.006507
# 5 -0.000632 0.002836 -0.021101 0.000000 0.127527 0.000000
# 6 0.000000 0.000000 0.000000 -0.006507 0.000000 0.027254
#
#
# Mechanical properties :
#
#
# Convention : Reuss Voigt Hill
#
# Bulk Modulus (GPa) = 28.85795 32.80429 30.83112
# Shear Modulus (GPa) = 18.48206 29.45957 23.97082
#
# Velocity S-wave (km/s) = 3.07142 3.87772 3.49788
# Velocity P-wave (km/s) = 5.22569 6.06572 5.66131
#
# Compressibility (1/GPa) = 0.03465249
#
# Stress axis : x y z
#
# Youngs Moduli (GPa) = 74.24579 76.79566 77.35155
#
# Poissons Ratio (x) = -0.00412 0.12252
# Poissons Ratio (y) = -0.00398 0.06595
# Poissons Ratio (z) = 0.11760 0.06548
#
# Static dielectric constant tensor:
#      x y z
#    x 3.519220 0.000000 0.128540 
#    y 0.000000 3.616960 0.000000 
#    z 0.128540 0.000000 3.548130 
# 
# 
# High freq. dielectric constant tensor:
#      x y z
#    x 1.755740 0.000000 0.004180 
#    y 0.000000 1.777910 0.000000 
#    z 0.004180 0.000000 1.749230 
# 
# From -- ./inp_files/5620.got.cif
#   From: 2010.03.12/outbox.cif.g09.slc.cpg/sg4_3_cif.got.tgz:5620.got - 2010.03.31 09:31:35.
