data_PCOD8046781
_publ_section_title
;
Structure prediction by ZEFSAII (Michael W. Deem and Ramdas Pophale) SiO2 
 PCOD8046781
Probable space group: P 21
;
_chemical_formula_sum "Si O2"
_cell_formula_units_Z 16
_cell_length_a 32.184163
_cell_length_b 5.080639
_cell_length_c 10.054815
_cell_angle_alpha 90.000000
_cell_angle_beta 153.417881
_cell_angle_gamma 90.000000
_cell_volume 735.712756
_symmetry_space_group_name_H-M "P 21"
_symmetry_group_IT_number 4
_symmetry_cell_setting 'monoclinic'
loop_
_space_group_symop_operation_xyz
x,y,z
-x,1/2+y,-z
loop_
_atom_site_type_symbol
_atom_site_label
_atom_site_fract_x
_atom_site_fract_y
_atom_site_fract_z
Si Si1 0.264461 0.794060 0.905108
Si Si2 0.543762 0.574005 0.946514
Si Si3 0.779339 0.947796 0.672232
Si Si4 0.061062 0.402055 0.671355
Si Si5 0.368111 0.316044 0.551983
Si Si6 0.270072 0.927034 0.618803
Si Si7 0.524590 0.377204 0.485395
Si Si8 0.213667 0.268373 0.906510
O O1 0.247607 0.843304 0.702700
O O2 0.246240 0.494698 0.896940
O O3 0.193564 0.995990 0.773153
O O4 0.367503 0.880157 0.241008
O O5 0.441593 0.451973 0.664760
O O6 0.531989 0.826511 0.814472
O O7 0.576649 0.620320 0.192417
O O8 0.619710 0.384391 0.094101
O O9 0.693281 0.000619 0.527078
O O10 0.754623 0.727184 0.490950
O O11 0.794203 0.231274 0.649769
O O12 0.873021 0.861998 0.012987
O O13 0.118678 0.360141 0.701740
O O14 0.022737 0.697434 0.558728
O O15 0.292718 0.184897 0.239498
O O16 0.495519 0.657256 0.460673
#
# Coordination Sequence:
#
# PCOD8046781 Si02
#       8
#     2   2   2   2   2   2   2   2
#     4  12  24  41  64  88 133 177 218 267 313 372
#     4  11  23  36  59  87 129 177 226 266 317 358
#     4  10  23  42  64  96 126 163 213 260 324 390
#     4  11  23  45  77 103 128 158 201 266 338 408
#     4  10  23  36  57  88 126 168 211 273 313 366
#     4  11  23  39  63  89 130 179 218 255 307 370
#     4  12  26  40  59  87 126 179 240 276 303 359
#     4  11  25  43  65  98 126 163 213 265 331 389
#
# _framework density 21.747620000000001
#
# number of rings (size 3 to 8) (size 9 to 14) (size 15 to 20)
#    0.000    1.000    2.500    3.750    5.250    5.000 
#    0.000    0.000    0.000   15.000    0.000    0.000 
#    0.000    0.000    0.000    0.000    0.000    0.000 
#
# Total GULP energy -198343.966868 kJ/mol
# GULP energy per Si atom -12396.497929 kJ/mol
# Density = 2.169812 g / cm^3
# Si number density = 21.747620 Si / 1000 Ang^3
#
#
#
# Elastic Constant Matrix: (Units=GPa)
#
#
# Indices 1 2 3 4 5 6 
#
# 1 84.9786 -2.6936 30.5835 0.0000 -8.4479 0.0000
# 2 -2.6936 57.3933 5.7082 0.0000 -0.6267 0.0000
# 3 30.5835 5.7082 72.2457 0.0000 2.8829 0.0000
# 4 0.0000 0.0000 0.0000 32.7683 0.0000 -1.2667
# 5 -8.4479 -0.6267 2.8829 0.0000 29.3159 0.0000
# 6 0.0000 0.0000 0.0000 -1.2667 0.0000 37.1502
#
#
#
# Elastic Compliance Matrix: (Units=1/GPa)
#
#
# Indices 1 2 3 4 5 6 
#
# 1 0.014637 0.001387 -0.006501 0.000000 0.004887 0.000000
# 2 0.001387 0.017701 -0.002025 0.000000 0.000977 0.000000
# 3 -0.006501 -0.002025 0.016896 0.000000 -0.003578 0.000000
# 4 0.000000 0.000000 0.000000 0.030558 0.000000 0.001042
# 5 0.004887 0.000977 -0.003578 0.000000 0.035892 0.000000
# 6 0.000000 0.000000 0.000000 0.001042 0.000000 0.026953
#
#
# Mechanical properties :
#
#
# Convention : Reuss Voigt Hill
#
# Bulk Modulus (GPa) = 28.60657 31.31264 29.95960
# Shear Modulus (GPa) = 29.66181 31.91484 30.78833
#
# Velocity S-wave (km/s) = 3.69712 3.83496 3.76667
# Velocity P-wave (km/s) = 5.60423 5.83427 5.72041
#
# Compressibility (1/GPa) = 0.03495701
#
# Stress axis : x y z
#
# Youngs Moduli (GPa) = 68.31958 56.49474 59.18422
#
# Poissons Ratio (x) = -0.07835 0.38475
# Poissons Ratio (y) = -0.09475 0.11983
# Poissons Ratio (z) = 0.44414 0.11438
#
# Static dielectric constant tensor:
#      x y z
#    x 4.107340 0.000000 -0.102990 
#    y 0.000000 3.756700 0.000000 
#    z -0.102990 0.000000 3.788120 
# 
# 
# High freq. dielectric constant tensor:
#      x y z
#    x 1.865000 0.000000 -0.012850 
#    y 0.000000 1.850330 0.000000 
#    z -0.012850 0.000000 1.838640 
# 
# From -- ./inp_files/9804.got.cif
#   From: 2010.03.12/outbox.cif.g09.slc.cpg/sg4_5_cif.got.tgz:9804.got - 2010.03.31 09:31:35.
