data_PCOD8046235
_publ_section_title
;
Structure prediction by ZEFSAII (Michael W. Deem and Ramdas Pophale) SiO2 
 PCOD8046235
Probable space group: P 21
;
_chemical_formula_sum "Si O2"
_cell_formula_units_Z 16
_cell_length_a 12.229414
_cell_length_b 9.181958
_cell_length_c 10.518122
_cell_angle_alpha 90.000000
_cell_angle_beta 38.059973
_cell_angle_gamma 90.000000
_cell_volume 728.118977
_symmetry_space_group_name_H-M "P 21"
_symmetry_group_IT_number 4
_symmetry_cell_setting 'monoclinic'
loop_
_space_group_symop_operation_xyz
x,y,z
-x,1/2+y,-z
loop_
_atom_site_type_symbol
_atom_site_label
_atom_site_fract_x
_atom_site_fract_y
_atom_site_fract_z
Si Si1 0.036310 0.537910 0.068330
Si Si2 0.106436 0.731077 0.780295
Si Si3 0.324828 0.114672 0.689186
Si Si4 0.803006 0.580419 0.920323
Si Si5 0.526196 0.372548 0.598516
Si Si6 0.897476 0.034046 0.702492
Si Si7 0.416983 0.341515 0.973345
Si Si8 0.183658 0.850389 0.299898
O O1 0.117306 0.557617 0.133078
O O2 0.009377 0.366810 0.059770
O O3 0.847641 0.619112 0.240827
O O4 0.151781 0.617253 0.852473
O O5 0.287553 0.788909 0.552877
O O6 0.992534 0.658836 0.771043
O O7 0.390996 0.277050 0.641870
O O8 0.470088 0.019028 0.485043
O O9 0.283728 0.042740 0.864241
O O10 0.839083 0.430609 0.814231
O O11 0.670206 0.681143 0.958778
O O12 0.442884 0.409760 0.810079
O O13 0.901364 0.189581 0.628961
O O14 0.076106 0.943851 0.504057
O O15 0.720273 0.944697 0.823801
O O16 0.606629 0.335696 0.867360
#
# Coordination Sequence:
#
# PCOD8046235 Si02
#       8
#     2   2   2   2   2   2   2   2
#     4  10  22  40  65  96 130 175 217 273 342 402
#     4  10  21  39  68  95 138 174 217 276 347 409
#     4   9  21  38  60  97 130 170 216 272 339 413
#     4  10  22  44  66  95 137 176 229 282 341 407
#     4  10  22  37  65  94 136 170 216 275 343 403
#     4  12  27  45  71 100 139 183 234 288 340 403
#     4  11  24  46  70  94 134 185 225 297 336 397
#     4  12  27  45  71  99 134 185 240 281 340 406
#
# _framework density 21.974432
#
# number of rings (size 3 to 8) (size 9 to 14) (size 15 to 20)
#    0.000    1.500    1.250    3.000    8.750    0.000 
#    0.000    1.250    0.000    0.000    0.000    0.000 
#    0.000    0.000    0.000    0.000    0.000    0.000 
#
# Total GULP energy -198373.008508 kJ/mol
# GULP energy per Si atom -12398.313032 kJ/mol
# Density = 2.192442 g / cm^3
# Si number density = 21.974432 Si / 1000 Ang^3
#
#
#
# Elastic Constant Matrix: (Units=GPa)
#
#
# Indices 1 2 3 4 5 6 
#
# 1 76.2344 16.4534 11.1513 0.0000 -22.3081 0.0000
# 2 16.4534 62.8263 19.6303 0.0000 -4.5620 0.0000
# 3 11.1513 19.6303 77.5403 0.0000 -13.8590 0.0000
# 4 0.0000 0.0000 0.0000 40.3872 0.0000 2.1525
# 5 -22.3081 -4.5620 -13.8590 0.0000 33.3916 0.0000
# 6 0.0000 0.0000 0.0000 2.1525 0.0000 35.2142
#
#
#
# Elastic Compliance Matrix: (Units=1/GPa)
#
#
# Indices 1 2 3 4 5 6 
#
# 1 0.017127 -0.003832 0.000495 0.000000 0.011124 0.000000
# 2 -0.003832 0.018152 -0.004384 0.000000 -0.001900 0.000000
# 3 0.000495 -0.004384 0.015000 0.000000 0.005958 0.000000
# 4 0.000000 0.000000 0.000000 0.024841 0.000000 -0.001518
# 5 0.011124 -0.001900 0.005958 0.000000 0.039593 0.000000
# 6 0.000000 0.000000 0.000000 -0.001518 0.000000 0.028490
#
#
# Mechanical properties :
#
#
# Convention : Reuss Voigt Hill
#
# Bulk Modulus (GPa) = 28.70449 34.56346 31.63398
# Shear Modulus (GPa) = 29.36704 33.08965 31.22834
#
# Velocity S-wave (km/s) = 3.65967 3.88471 3.77387
# Velocity P-wave (km/s) = 5.56315 5.99035 5.78070
#
# Compressibility (1/GPa) = 0.03483775
#
# Stress axis : x y z
#
# Youngs Moduli (GPa) = 58.38590 55.08913 66.66690
#
# Poissons Ratio (x) = 0.21113 -0.03303
# Poissons Ratio (y) = 0.22376 0.29226
# Poissons Ratio (z) = -0.02892 0.24151
#
# Static dielectric constant tensor:
#      x y z
#    x 3.839600 0.000000 -0.164230 
#    y 0.000000 4.227550 0.000000 
#    z -0.164230 0.000000 4.073220 
# 
# 
# High freq. dielectric constant tensor:
#      x y z
#    x 1.855770 0.000000 -0.012330 
#    y 0.000000 1.864280 0.000000 
#    z -0.012330 0.000000 1.869720 
# 
# From -- ./inp_files/9228.got.cif
#   From: 2010.03.12/outbox.cif.g09.slc.cpg/sg4_5_cif.got.tgz:9228.got - 2010.03.31 09:31:35.
