data_PCOD8046960
_publ_section_title
;
Structure prediction by ZEFSAII (Michael W. Deem and Ramdas Pophale) SiO2 
 PCOD8046960
Probable space group: P 21
;
_chemical_formula_sum "Si O2"
_cell_formula_units_Z 16
_cell_length_a 8.325178
_cell_length_b 8.826986
_cell_length_c 10.637957
_cell_angle_alpha 90.000000
_cell_angle_beta 115.019084
_cell_angle_gamma 90.000000
_cell_volume 708.390005
_symmetry_space_group_name_H-M "P 21"
_symmetry_group_IT_number 4
_symmetry_cell_setting 'monoclinic'
loop_
_space_group_symop_operation_xyz
x,y,z
-x,1/2+y,-z
loop_
_atom_site_type_symbol
_atom_site_label
_atom_site_fract_x
_atom_site_fract_y
_atom_site_fract_z
Si Si1 0.617617 0.040990 0.383409
Si Si2 0.830196 0.132031 0.826116
Si Si3 0.899385 0.906817 0.649552
Si Si4 0.020787 0.663213 0.868258
Si Si5 0.593011 0.120931 0.109025
Si Si6 0.760704 0.438771 0.692606
Si Si7 0.525817 0.942073 0.849318
Si Si8 0.225767 0.871597 0.578017
O O1 0.624567 0.004682 0.235941
O O2 0.701386 0.205766 0.429778
O O3 0.721431 0.920937 0.506153
O O4 0.413424 0.041370 0.355892
O O5 0.717162 0.272456 0.734048
O O6 0.706743 0.001126 0.846353
O O7 0.934182 0.060358 0.741376
O O8 0.965632 0.193265 0.977442
O O9 0.886865 0.775835 0.751028
O O10 0.053227 0.865686 0.605285
O O11 0.216227 0.679322 0.874039
O O12 0.930331 0.499424 0.825314
O O13 0.473061 0.262756 0.116307
O O14 0.488107 0.034303 0.964929
O O15 0.823144 0.447221 0.569208
O O16 0.370377 0.973439 0.698343
#
# Coordination Sequence:
#
# PCOD8046960 Si02
#       8
#     2   2   2   2   2   2   2   2
#     4  11  25  44  72 107 142 184 239 290 356 420
#     4  11  26  47  71 109 142 190 239 289 360 428
#     4  12  24  47  74 101 147 186 237 299 353 420
#     4  11  25  46  70 105 145 186 237 292 351 426
#     4  10  23  47  68 109 145 188 237 289 357 429
#     4  12  27  45  74 103 146 190 239 294 358 423
#     4  10  23  45  72 104 152 178 241 286 353 429
#     4  11  25  47  69 106 143 186 241 291 356 427
#
# _framework density 22.586428000000002
#
# number of rings (size 3 to 8) (size 9 to 14) (size 15 to 20)
#    0.000    1.000    3.750    2.250    8.750    1.000 
#    4.500    0.000    0.000    0.000    0.000    0.000 
#    0.000    0.000    0.000    0.000    0.000    0.000 
#
# Total GULP energy -198333.702148 kJ/mol
# GULP energy per Si atom -12395.856384 kJ/mol
# Density = 2.253502 g / cm^3
# Si number density = 22.586428 Si / 1000 Ang^3
#
#
#
# Elastic Constant Matrix: (Units=GPa)
#
#
# Indices 1 2 3 4 5 6 
#
# 1 72.3872 47.3706 31.9616 0.0000 -5.2097 0.0000
# 2 47.3706 83.5763 51.5893 0.0000 -1.1427 0.0000
# 3 31.9616 51.5893 178.0328 0.0000 -12.1013 0.0000
# 4 0.0000 0.0000 0.0000 47.5745 0.0000 -1.3325
# 5 -5.2097 -1.1427 -12.1013 0.0000 34.6422 0.0000
# 6 0.0000 0.0000 0.0000 -1.3325 0.0000 35.6254
#
#
#
# Elastic Compliance Matrix: (Units=1/GPa)
#
#
# Indices 1 2 3 4 5 6 
#
# 1 0.022259 -0.012459 -0.000191 0.000000 0.002870 0.000000
# 2 -0.012459 0.021581 -0.004195 0.000000 -0.002627 0.000000
# 3 -0.000191 -0.004195 0.007022 0.000000 0.002286 0.000000
# 4 0.000000 0.000000 0.000000 0.021042 0.000000 0.000787
# 5 0.002870 -0.002627 0.002286 0.000000 0.030010 0.000000
# 6 0.000000 0.000000 0.000000 0.000787 0.000000 0.028099
#
#
# Mechanical properties :
#
#
# Convention : Reuss Voigt Hill
#
# Bulk Modulus (GPa) = 58.23676 66.20436 62.22056
# Shear Modulus (GPa) = 29.51130 37.10674 33.30902
#
# Velocity S-wave (km/s) = 3.61861 4.05764 3.84440
# Velocity P-wave (km/s) = 6.58020 7.16434 6.87847
#
# Compressibility (1/GPa) = 0.01717128
#
# Stress axis : x y z
#
# Youngs Moduli (GPa) = 44.92633 46.33775 142.40454
#
# Poissons Ratio (x) = 0.57733 0.02714
# Poissons Ratio (y) = 0.55975 0.59744
# Poissons Ratio (z) = 0.00856 0.19440
#
# Static dielectric constant tensor:
#      x y z
#    x 3.788610 0.000000 -0.184480 
#    y 0.000000 3.986470 0.000000 
#    z -0.184480 0.000000 4.663330 
# 
# 
# High freq. dielectric constant tensor:
#      x y z
#    x 1.876110 0.000000 -0.014870 
#    y 0.000000 1.877390 0.000000 
#    z -0.014870 0.000000 1.920350 
# 
# From -- ./inp_files/11050.got.cif
#   From: 2010.03.12/outbox.cif.g09.slc.cpg/sg4_6_cif.got.tgz:11050.got - 2010.03.31 09:31:35.
