data_PCOD8046177
_publ_section_title
;
Structure prediction by ZEFSAII (Michael W. Deem and Ramdas Pophale) SiO2 
 PCOD8046177
Probable space group: P 21
;
_chemical_formula_sum "Si O2"
_cell_formula_units_Z 16
_cell_length_a 10.953285
_cell_length_b 11.578942
_cell_length_c 9.140200
_cell_angle_alpha 90.000000
_cell_angle_beta 43.737745
_cell_angle_gamma 90.000000
_cell_volume 801.442360
_symmetry_space_group_name_H-M "P 21"
_symmetry_group_IT_number 4
_symmetry_cell_setting 'monoclinic'
loop_
_space_group_symop_operation_xyz
x,y,z
-x,1/2+y,-z
loop_
_atom_site_type_symbol
_atom_site_label
_atom_site_fract_x
_atom_site_fract_y
_atom_site_fract_z
Si Si1 0.735618 0.735680 0.527855
Si Si2 0.070632 0.589776 0.264763
Si Si3 0.333824 0.743004 0.865035
Si Si4 0.131852 0.957679 0.030774
Si Si5 0.658899 0.097822 0.408775
Si Si6 0.862636 0.985115 0.485090
Si Si7 0.279514 0.183930 0.790586
Si Si8 0.164411 0.418959 0.932162
O O1 0.531450 0.703185 0.739084
O O2 0.763077 0.862383 0.570953
O O3 0.762441 0.734849 0.331636
O O4 0.874193 0.640299 0.468339
O O5 0.148114 0.538428 0.346094
O O6 0.197342 0.692530 0.101173
O O7 0.072548 0.486831 0.145113
O O8 0.311686 0.882442 0.880403
O O9 0.284054 0.705477 0.742183
O O10 0.144345 0.085267 0.953603
O O11 0.063459 0.965490 0.257485
O O12 0.985765 0.892837 0.058730
O O13 0.467196 0.122267 0.640504
O O14 0.781249 0.078511 0.442809
O O15 0.673116 0.988532 0.285031
O O16 0.248197 0.297732 0.918824
#
# Coordination Sequence:
#
# PCOD8046177 Si02
#       8
#     2   2   2   2   2   2   2   2
#     4  11  21  43  66  91 127 172 205 271 323 371
#     4  11  23  45  61  91 135 172 206 264 315 393
#     4  10  22  42  69  92 128 164 216 267 323 368
#     4  11  21  37  67  94 120 168 210 265 321 374
#     4   9  21  38  65  94 123 159 213 269 313 371
#     4  11  23  40  63  91 134 169 213 254 322 384
#     4  11  20  37  68  95 122 157 223 275 313 371
#     4  10  21  38  63  94 123 165 214 261 324 376
#
# _framework density 19.964006999999999
#
# number of rings (size 3 to 8) (size 9 to 14) (size 15 to 20)
#    0.000    1.500    5.000    0.750    5.250    1.000 
#    6.750    0.000    0.000    0.000    0.000    0.000 
#    0.000    0.000    0.000    0.000    0.000    0.000 
#
# Total GULP energy -198283.341194 kJ/mol
# GULP energy per Si atom -12392.708825 kJ/mol
# Density = 1.991857 g / cm^3
# Si number density = 19.964007 Si / 1000 Ang^3
#
#
#
# Elastic Constant Matrix: (Units=GPa)
#
#
# Indices 1 2 3 4 5 6 
#
# 1 73.0125 37.1335 41.2290 0.0000 3.3765 0.0000
# 2 37.1335 121.2652 44.1026 0.0000 -12.1409 0.0000
# 3 41.2290 44.1026 82.2284 0.0000 -9.4320 0.0000
# 4 0.0000 0.0000 0.0000 26.0651 0.0000 -3.6863
# 5 3.3765 -12.1409 -9.4320 0.0000 32.6565 0.0000
# 6 0.0000 0.0000 0.0000 -3.6863 0.0000 29.1936
#
#
#
# Elastic Compliance Matrix: (Units=1/GPa)
#
#
# Indices 1 2 3 4 5 6 
#
# 1 0.021139 -0.003707 -0.009329 0.000000 -0.006258 0.000000
# 2 -0.003707 0.011064 -0.003682 0.000000 0.003433 0.000000
# 3 -0.009329 -0.003682 0.019410 0.000000 0.005202 0.000000
# 4 0.000000 0.000000 0.000000 0.039063 0.000000 0.004933
# 5 -0.006258 0.003433 0.005202 0.000000 0.034048 0.000000
# 6 0.000000 0.000000 0.000000 0.004933 0.000000 0.034877
#
#
# Mechanical properties :
#
#
# Convention : Reuss Voigt Hill
#
# Bulk Modulus (GPa) = 55.01031 57.93737 56.47384
# Shear Modulus (GPa) = 25.11373 27.85245 26.48309
#
# Velocity S-wave (km/s) = 3.55061 3.73920 3.64612
# Velocity P-wave (km/s) = 6.66511 6.90841 6.78785
#
# Compressibility (1/GPa) = 0.01817841
#
# Stress axis : x y z
#
# Youngs Moduli (GPa) = 47.30670 90.38107 51.52008
#
# Poissons Ratio (x) = 0.33503 0.48061
# Poissons Ratio (y) = 0.17536 0.18969
# Poissons Ratio (z) = 0.44130 0.33276
#
# Static dielectric constant tensor:
#      x y z
#    x 3.360120 0.000000 -0.158880 
#    y 0.000000 3.707490 0.000000 
#    z -0.158880 0.000000 3.745370 
# 
# 
# High freq. dielectric constant tensor:
#      x y z
#    x 1.741750 0.000000 -0.013230 
#    y 0.000000 1.788900 0.000000 
#    z -0.013230 0.000000 1.782050 
# 
# From -- ./inp_files/5904.got.cif
#   From: 2010.03.12/outbox.cif.g09.slc.cpg/sg4_3_cif.got.tgz:5904.got - 2010.03.31 09:31:35.
