data_PCOD8046422
_publ_section_title
;
Structure prediction by ZEFSAII (Michael W. Deem and Ramdas Pophale) SiO2 
 PCOD8046422
Probable space group: P 21
;
_chemical_formula_sum "Si O2"
_cell_formula_units_Z 14
_cell_length_a 13.107438
_cell_length_b 9.366036
_cell_length_c 9.427505
_cell_angle_alpha 90.000000
_cell_angle_beta 33.840609
_cell_angle_gamma 90.000000
_cell_volume 644.518657
_symmetry_space_group_name_H-M "P 21"
_symmetry_group_IT_number 4
_symmetry_cell_setting 'monoclinic'
loop_
_space_group_symop_operation_xyz
x,y,z
-x,1/2+y,-z
loop_
_atom_site_type_symbol
_atom_site_label
_atom_site_fract_x
_atom_site_fract_y
_atom_site_fract_z
Si Si1 0.901701 0.445050 0.693270
Si Si2 0.779495 0.911065 0.887755
Si Si3 0.837275 0.496823 0.085136
Si Si4 0.106236 0.322578 0.949078
Si Si5 0.427451 0.144514 0.965561
Si Si6 0.458102 0.434999 0.397597
Si Si7 0.631102 0.199038 0.018240
O O1 0.936064 0.481589 0.818655
O O2 0.762694 0.560856 0.787266
O O3 0.814224 0.288869 0.776271
O O4 0.094907 0.446144 0.392669
O O5 0.617514 0.803676 0.033092
O O6 0.685087 0.058514 0.044672
O O7 0.901106 0.846356 0.873671
O O8 0.918297 0.379155 0.098660
O O9 0.867785 0.655135 0.113031
O O10 0.621831 0.462891 0.320023
O O11 0.269450 0.419588 0.697978
O O12 0.542312 0.147922 0.975062
O O13 0.548353 0.067060 0.704729
O O14 0.489069 0.289121 0.275073
#
# Coordination Sequence:
#
# PCOD8046422 Si02
#       7
#     2   2   2   2   2   2   2
#     4  10  23  44  63  95 141 168 221 292 323 396
#     4  12  23  40  68 100 129 173 233 269 336 410
#     4  10  26  48  66 100 136 184 229 276 345 398
#     4  12  27  44  72  99 138 186 223 280 345 404
#     4  10  21  44  65  97 131 176 225 276 341 387
#     4  10  25  48  65  97 147 172 222 292 331 409
#     4  10  23  38  69  98 126 179 223 273 345 396
#
# _framework density 21.721637000000001
#
# number of rings (size 3 to 8) (size 9 to 14) (size 15 to 20)
#    0.000    1.714    2.857    2.571   10.000    1.143 
#    2.571    0.000    0.000    0.000    0.000    0.000 
#    0.000    0.000    0.000    0.000    0.000    0.000 
#
# Total GULP energy -173652.525698 kJ/mol
# GULP energy per Si atom -12403.751836 kJ/mol
# Density = 2.167220 g / cm^3
# Si number density = 21.721637 Si / 1000 Ang^3
#
#
#
# Elastic Constant Matrix: (Units=GPa)
#
#
# Indices 1 2 3 4 5 6 
#
# 1 106.5783 24.6165 -10.5197 0.0000 -6.2720 0.0000
# 2 24.6165 135.2741 4.7607 0.0000 -7.3678 0.0000
# 3 -10.5197 4.7607 50.0721 0.0000 7.7997 0.0000
# 4 0.0000 0.0000 0.0000 19.1882 0.0000 1.5859
# 5 -6.2720 -7.3678 7.7997 0.0000 16.2761 0.0000
# 6 0.0000 0.0000 0.0000 1.5859 0.0000 48.2069
#
#
#
# Elastic Compliance Matrix: (Units=1/GPa)
#
#
# Indices 1 2 3 4 5 6 
#
# 1 0.010117 -0.001793 0.001962 0.000000 0.002147 0.000000
# 2 -0.001793 0.007983 -0.001719 0.000000 0.003747 0.000000
# 3 0.001962 -0.001719 0.022208 0.000000 -0.010665 0.000000
# 4 0.000000 0.000000 0.000000 0.052258 0.000000 -0.001719
# 5 0.002147 0.003747 -0.010665 0.000000 0.069074 0.000000
# 6 0.000000 0.000000 0.000000 -0.001719 0.000000 0.020800
#
#
# Mechanical properties :
#
#
# Convention : Reuss Voigt Hill
#
# Bulk Modulus (GPa) = 26.87721 36.62662 31.75192
# Shear Modulus (GPa) = 25.25970 34.93871 30.09921
#
# Velocity S-wave (km/s) = 3.41381 4.01493 3.72651
# Velocity P-wave (km/s) = 5.28574 6.19607 5.75892
#
# Compressibility (1/GPa) = 0.03720624
#
# Stress axis : x y z
#
# Youngs Moduli (GPa) = 98.84470 125.26175 45.02883
#
# Poissons Ratio (x) = 0.22461 -0.08833
# Poissons Ratio (y) = 0.17724 0.07742
# Poissons Ratio (z) = -0.19389 0.21537
#
# Static dielectric constant tensor:
#      x y z
#    x 3.885310 0.000000 0.015080 
#    y 0.000000 4.122530 0.000000 
#    z 0.015080 0.000000 3.637040 
# 
# 
# High freq. dielectric constant tensor:
#      x y z
#    x 1.855990 0.000000 0.000450 
#    y 0.000000 1.872610 0.000000 
#    z 0.000450 0.000000 1.831180 
# 
# From -- ./inp_files/5630.got.cif
#   From: 2010.03.12/outbox.cif.g09.slc.cpg/sg4_3_cif.got.tgz:5630.got - 2010.03.31 09:31:35.
