data_PCOD8046368
_publ_section_title
;
Structure prediction by ZEFSAII (Michael W. Deem and Ramdas Pophale) SiO2 
 PCOD8046368
Probable space group: P 21
;
_chemical_formula_sum "Si O2"
_cell_formula_units_Z 16
_cell_length_a 17.356628
_cell_length_b 5.413394
_cell_length_c 17.353368
_cell_angle_alpha 90.000000
_cell_angle_beta 155.886941
_cell_angle_gamma 90.000000
_cell_volume 666.118913
_symmetry_space_group_name_H-M "P 21"
_symmetry_group_IT_number 4
_symmetry_cell_setting 'monoclinic'
loop_
_space_group_symop_operation_xyz
x,y,z
-x,1/2+y,-z
loop_
_atom_site_type_symbol
_atom_site_label
_atom_site_fract_x
_atom_site_fract_y
_atom_site_fract_z
Si Si1 0.323493 0.062010 0.611621
Si Si2 0.671614 0.537512 0.558416
Si Si3 0.044355 0.654701 0.132002
Si Si4 0.382366 0.561498 0.888054
Si Si5 0.964895 0.500680 0.222883
Si Si6 0.683906 0.057039 0.343187
Si Si7 0.702350 0.837368 0.733151
Si Si8 0.107385 0.504322 0.777698
O O1 0.310892 0.141209 0.511071
O O2 0.427226 0.292506 0.748960
O O3 0.111287 0.007521 0.448566
O O4 0.428727 0.800275 0.726809
O O5 0.870011 0.409322 0.758897
O O6 0.632661 0.740261 0.586981
O O7 0.484731 0.368672 0.387316
O O8 0.175617 0.575515 0.179890
O O9 0.037631 0.475413 0.200580
O O10 0.833971 0.666334 0.906032
O O11 0.272082 0.592956 0.706476
O O12 0.232388 0.494571 0.815916
O O13 0.477820 0.827102 0.991502
O O14 0.843500 0.253009 0.128533
O O15 0.133074 0.504953 0.438047
O O16 0.849954 0.757570 0.131494
#
# Coordination Sequence:
#
# PCOD8046368 Si02
#       8
#     2   2   2   2   2   2   2   2
#     4  10  22  41  72  97 134 175 238 295 341 436
#     4  12  24  45  68 106 146 188 247 306 367 435
#     4  12  24  45  68 106 146 188 247 306 367 435
#     4  12  26  44  66  98 148 180 226 298 356 432
#     4  10  22  41  72  97 134 175 238 295 341 436
#     4  10  21  42  67  98 125 183 222 284 354 417
#     4  12  26  42  74 102 144 198 248 306 376 438
#     4  10  21  42  67  98 125 183 222 284 354 417
#
# _framework density 24.019734
#
# number of rings (size 3 to 8) (size 9 to 14) (size 15 to 20)
#    0.000    1.000    5.000    3.000    0.000    4.000 
#    6.750    0.000    0.000    0.000    0.000    0.000 
#    0.000    0.000    0.000    0.000    0.000    0.000 
#
# Total GULP energy -198235.441932 kJ/mol
# GULP energy per Si atom -12389.715121 kJ/mol
# Density = 2.396506 g / cm^3
# Si number density = 24.019734 Si / 1000 Ang^3
#
#
#
# Elastic Constant Matrix: (Units=GPa)
#
#
# Indices 1 2 3 4 5 6 
#
# 1 110.4018 7.1712 32.1935 0.0000 -15.4000 0.0000
# 2 7.1712 165.6749 -2.5216 0.0000 -5.8063 0.0000
# 3 32.1935 -2.5216 70.9204 0.0000 0.2567 0.0000
# 4 0.0000 0.0000 0.0000 18.1465 0.0000 -7.6465
# 5 -15.4000 -5.8063 0.2567 0.0000 27.7839 0.0000
# 6 0.0000 0.0000 0.0000 -7.6465 0.0000 38.4764
#
#
#
# Elastic Compliance Matrix: (Units=1/GPa)
#
#
# Indices 1 2 3 4 5 6 
#
# 1 0.011499 -0.000355 -0.005255 0.000000 0.006348 0.000000
# 2 -0.000355 0.006095 0.000374 0.000000 0.001073 0.000000
# 3 -0.005255 0.000374 0.016510 0.000000 -0.002987 0.000000
# 4 0.000000 0.000000 0.000000 0.060143 0.000000 0.011952
# 5 0.006348 0.001073 -0.002987 0.000000 0.039762 0.000000
# 6 0.000000 0.000000 0.000000 0.011952 0.000000 0.028365
#
#
# Mechanical properties :
#
#
# Convention : Reuss Voigt Hill
#
# Bulk Modulus (GPa) = 42.31836 46.74258 44.53047
# Shear Modulus (GPa) = 27.66641 37.55831 32.61236
#
# Velocity S-wave (km/s) = 3.39753 3.95858 3.68874
# Velocity P-wave (km/s) = 5.74868 6.35580 6.05985
#
# Compressibility (1/GPa) = 0.02363040
#
# Stress axis : x y z
#
# Youngs Moduli (GPa) = 86.96526 164.07964 60.56916
#
# Poissons Ratio (x) = 0.05829 0.31831
# Poissons Ratio (y) = 0.03089 -0.02266
# Poissons Ratio (z) = 0.45704 -0.06138
#
# Static dielectric constant tensor:
#      x y z
#    x 4.368790 0.000000 -0.100980 
#    y 0.000000 5.413680 0.000000 
#    z -0.100980 0.000000 4.158390 
# 
# 
# High freq. dielectric constant tensor:
#      x y z
#    x 1.952850 0.000000 -0.015780 
#    y 0.000000 1.973620 0.000000 
#    z -0.015780 0.000000 1.928980 
# 
# From -- ./inp_files/14116.got.cif
#   From: 2010.03.12/outbox.cif.g09.slc.cpg/sg4_8_cif.got.tgz:14116.got - 2010.03.31 09:31:35.
