data_PCOD8046158
_publ_section_title
;
Structure prediction by ZEFSAII (Michael W. Deem and Ramdas Pophale) SiO2 
 PCOD8046158
Probable space group: P 21
;
_chemical_formula_sum "Si O2"
_cell_formula_units_Z 16
_cell_length_a 12.542017
_cell_length_b 12.130443
_cell_length_c 8.850443
_cell_angle_alpha 90.000000
_cell_angle_beta 146.819660
_cell_angle_gamma 90.000000
_cell_volume 736.911808
_symmetry_space_group_name_H-M "P 21"
_symmetry_group_IT_number 4
_symmetry_cell_setting 'monoclinic'
loop_
_space_group_symop_operation_xyz
x,y,z
-x,1/2+y,-z
loop_
_atom_site_type_symbol
_atom_site_label
_atom_site_fract_x
_atom_site_fract_y
_atom_site_fract_z
Si Si1 0.652914 0.387490 0.874931
Si Si2 0.571682 0.044461 0.197026
Si Si3 0.498480 0.753062 0.693918
Si Si4 0.727065 0.843931 0.723032
Si Si5 0.292790 0.660953 0.153005
Si Si6 0.871931 0.637938 0.746931
Si Si7 0.975498 0.992255 0.835917
Si Si8 0.529157 0.497716 0.251974
O O1 0.589563 0.453334 0.948200
O O2 0.480416 0.407391 0.546843
O O3 0.659771 0.256108 0.913886
O O4 0.863502 0.424622 0.064442
O O5 0.490586 0.161994 0.161364
O O6 0.583075 0.037049 0.030980
O O7 0.788914 0.018040 0.512149
O O8 0.709789 0.783958 0.866950
O O9 0.356514 0.704413 0.395206
O O10 0.429989 0.867356 0.687981
O O11 0.754584 0.751962 0.624307
O O12 0.904844 0.928451 0.906762
O O13 0.399053 0.546204 0.236876
O O14 0.062755 0.647947 0.872719
O O15 0.741535 0.550110 0.505632
O O16 0.924945 0.602063 0.982011
#
# Coordination Sequence:
#
# PCOD8046158 Si02
#       8
#     2   2   2   2   2   2   2   2
#     4  10  21  41  68  95 137 179 228 281 348 410
#     4  11  27  45  68 102 145 186 225 290 362 415
#     4  11  23  46  68 100 140 180 233 290 343 418
#     4  10  21  37  67 103 129 174 231 293 336 400
#     4  11  23  42  72 104 134 177 243 291 334 422
#     4  12  21  38  69 102 131 178 233 286 340 410
#     4  11  22  39  71 100 134 182 238 281 347 414
#     4  12  28  44  71 104 144 182 231 292 356 413
#
# _framework density 21.712232
#
# number of rings (size 3 to 8) (size 9 to 14) (size 15 to 20)
#    0.000    1.000    5.000    3.000    5.250    1.000 
#    0.000    0.000    0.000    0.000    0.000    0.000 
#    0.000    0.000    0.000    0.000    0.000    0.000 
#
# Total GULP energy -198259.426278 kJ/mol
# GULP energy per Si atom -12391.214142 kJ/mol
# Density = 2.166281 g / cm^3
# Si number density = 21.712232 Si / 1000 Ang^3
#
#
#
# Elastic Constant Matrix: (Units=GPa)
#
#
# Indices 1 2 3 4 5 6 
#
# 1 77.8981 29.8868 45.6856 0.0000 10.1687 0.0000
# 2 29.8868 98.5100 34.0202 0.0000 -11.5748 0.0000
# 3 45.6856 34.0202 99.0480 0.0000 6.5112 0.0000
# 4 0.0000 0.0000 0.0000 20.5374 0.0000 4.9719
# 5 10.1687 -11.5748 6.5112 0.0000 35.3551 0.0000
# 6 0.0000 0.0000 0.0000 4.9719 0.0000 40.8337
#
#
#
# Elastic Compliance Matrix: (Units=1/GPa)
#
#
# Indices 1 2 3 4 5 6 
#
# 1 0.019308 -0.004041 -0.007152 0.000000 -0.005559 0.000000
# 2 -0.004041 0.013136 -0.003044 0.000000 0.006023 0.000000
# 3 -0.007152 -0.003044 0.014547 0.000000 -0.001619 0.000000
# 4 0.000000 0.000000 0.000000 0.050170 0.000000 -0.006109
# 5 -0.005559 0.006023 -0.001619 0.000000 0.032153 0.000000
# 6 0.000000 0.000000 0.000000 -0.006109 0.000000 0.025233
#
#
# Mechanical properties :
#
#
# Convention : Reuss Voigt Hill
#
# Bulk Modulus (GPa) = 54.00552 54.96014 54.48283
# Shear Modulus (GPa) = 26.42770 30.40282 28.41526
#
# Velocity S-wave (km/s) = 3.49260 3.74607 3.62155
# Velocity P-wave (km/s) = 6.41807 6.63917 6.52956
#
# Compressibility (1/GPa) = 0.01851662
#
# Stress axis : x y z
#
# Youngs Moduli (GPa) = 51.79186 76.12541 68.74237
#
# Poissons Ratio (x) = 0.30762 0.49167
# Poissons Ratio (y) = 0.20929 0.20925
# Poissons Ratio (z) = 0.37044 0.23173
#
# Static dielectric constant tensor:
#      x y z
#    x 3.905800 0.000000 0.279430 
#    y 0.000000 4.284800 0.000000 
#    z 0.279430 0.000000 3.614640 
# 
# 
# High freq. dielectric constant tensor:
#      x y z
#    x 1.845270 0.000000 0.031140 
#    y 0.000000 1.878570 0.000000 
#    z 0.031140 0.000000 1.817920 
# 
# From -- ./inp_files/8483.got.cif
#   From: 2010.03.12/outbox.cif.g09.slc.cpg/sg4_5_cif.got.tgz:8483.got - 2010.03.31 09:31:35.
