data_PCOD8046864
_publ_section_title
;
Structure prediction by ZEFSAII (Michael W. Deem and Ramdas Pophale) SiO2 
 PCOD8046864
Probable space group: P 21
;
_chemical_formula_sum "Si O2"
_cell_formula_units_Z 16
_cell_length_a 18.679205
_cell_length_b 7.126161
_cell_length_c 5.341310
_cell_angle_alpha 90.000000
_cell_angle_beta 96.446522
_cell_angle_gamma 90.000000
_cell_volume 706.491721
_symmetry_space_group_name_H-M "P 21"
_symmetry_group_IT_number 4
_symmetry_cell_setting 'monoclinic'
loop_
_space_group_symop_operation_xyz
x,y,z
-x,1/2+y,-z
loop_
_atom_site_type_symbol
_atom_site_label
_atom_site_fract_x
_atom_site_fract_y
_atom_site_fract_z
Si Si1 0.412880 0.180470 0.013337
Si Si2 0.813814 0.147522 0.202464
Si Si3 0.653854 0.069694 0.117232
Si Si4 0.542575 0.357115 0.303079
Si Si5 0.349569 0.870077 0.269474
Si Si6 0.058174 0.368736 0.745167
Si Si7 0.928383 0.642823 0.751788
Si Si8 0.804934 0.371459 0.680267
O O1 0.465679 0.256662 0.254510
O O2 0.347861 0.043951 0.072522
O O3 0.378176 0.361647 0.869340
O O4 0.461693 0.055026 0.846007
O O5 0.736535 0.056509 0.239303
O O6 0.839414 0.258460 0.461204
O O7 0.872557 0.992440 0.165216
O O8 0.809709 0.275226 0.953960
O O9 0.607923 0.216013 0.259682
O O10 0.653860 0.158087 0.838132
O O11 0.569134 0.403366 0.592151
O O12 0.279904 0.905417 0.417337
O O13 0.064961 0.292849 0.466351
O O14 0.983577 0.477270 0.720274
O O15 0.054119 0.216481 0.963794
O O16 0.846776 0.566999 0.715788
#
# Coordination Sequence:
#
# PCOD8046864 Si02
#       8
#     2   2   2   2   2   2   2   2
#     4  11  24  38  64  90 126 168 224 278 336 411
#     4  11  23  44  69  96 135 176 220 275 339 395
#     4  10  23  43  62  90 129 169 220 274 338 401
#     4  11  22  42  59  92 123 171 214 282 337 399
#     4  10  25  40  63  91 128 169 220 271 347 395
#     4  12  25  43  69 104 135 182 223 271 331 395
#     4  12  25  43  70 101 140 176 226 272 327 398
#     4  11  23  45  68  96 136 175 217 283 331 398
#
# _framework density 22.647119
#
# number of rings (size 3 to 8) (size 9 to 14) (size 15 to 20)
#    0.000    1.000    2.500    3.750    3.500    2.000 
#    0.000    0.000    0.000    0.000    0.000    0.000 
#    0.000    0.000    0.000    0.000    0.000    0.000 
#
# Total GULP energy -198287.326955 kJ/mol
# GULP energy per Si atom -12392.957935 kJ/mol
# Density = 2.259557 g / cm^3
# Si number density = 22.647119 Si / 1000 Ang^3
#
#
#
# Elastic Constant Matrix: (Units=GPa)
#
#
# Indices 1 2 3 4 5 6 
#
# 1 70.2158 20.2399 2.1004 0.0000 3.2890 0.0000
# 2 20.2399 110.6435 14.7781 0.0000 -1.7132 0.0000
# 3 2.1004 14.7781 78.7484 0.0000 -1.4075 0.0000
# 4 0.0000 0.0000 0.0000 30.8823 0.0000 -2.8007
# 5 3.2890 -1.7132 -1.4075 0.0000 32.0664 0.0000
# 6 0.0000 0.0000 0.0000 -2.8007 0.0000 39.2559
#
#
#
# Elastic Compliance Matrix: (Units=1/GPa)
#
#
# Indices 1 2 3 4 5 6 
#
# 1 0.015127 -0.002806 0.000093 0.000000 -0.001697 0.000000
# 2 -0.002806 0.009796 -0.001750 0.000000 0.000734 0.000000
# 3 0.000093 -0.001750 0.013033 0.000000 0.000469 0.000000
# 4 0.000000 0.000000 0.000000 0.032592 0.000000 0.002325
# 5 -0.001697 0.000734 0.000469 0.000000 0.031419 0.000000
# 6 0.000000 0.000000 0.000000 0.002325 0.000000 0.025640
#
#
# Mechanical properties :
#
#
# Convention : Reuss Voigt Hill
#
# Bulk Modulus (GPa) = 34.44751 37.09383 35.77067
# Shear Modulus (GPa) = 34.19700 35.27353 34.73526
#
# Velocity S-wave (km/s) = 3.89008 3.95083 3.92057
# Velocity P-wave (km/s) = 5.95151 6.10137 6.02691
#
# Compressibility (1/GPa) = 0.02902967
#
# Stress axis : x y z
#
# Youngs Moduli (GPa) = 66.10542 102.07740 76.72787
#
# Poissons Ratio (x) = 0.28642 -0.00712
# Poissons Ratio (y) = 0.18548 0.13431
# Poissons Ratio (z) = -0.00613 0.17868
#
# Static dielectric constant tensor:
#      x y z
#    x 4.204590 0.000000 0.031910 
#    y 0.000000 3.997820 0.000000 
#    z 0.031910 0.000000 4.129330 
# 
# 
# High freq. dielectric constant tensor:
#      x y z
#    x 1.903200 0.000000 0.004450 
#    y 0.000000 1.892640 0.000000 
#    z 0.004450 0.000000 1.893880 
# 
# From -- ./inp_files/4011.got.cif
#   From: 2010.03.12/outbox.cif.g09.slc.cpg/sg4_3_cif.got.tgz:4011.got - 2010.03.31 09:31:35.
