data_PCOD8046844
_publ_section_title
;
Structure prediction by ZEFSAII (Michael W. Deem and Ramdas Pophale) SiO2 
 PCOD8046844
Probable space group: P 21
;
_chemical_formula_sum "Si O2"
_cell_formula_units_Z 12
_cell_length_a 8.614304
_cell_length_b 8.778385
_cell_length_c 10.414171
_cell_angle_alpha 90.000000
_cell_angle_beta 41.935257
_cell_angle_gamma 90.000000
_cell_volume 526.289581
_symmetry_space_group_name_H-M "P 21"
_symmetry_group_IT_number 4
_symmetry_cell_setting 'monoclinic'
loop_
_space_group_symop_operation_xyz
x,y,z
-x,1/2+y,-z
loop_
_atom_site_type_symbol
_atom_site_label
_atom_site_fract_x
_atom_site_fract_y
_atom_site_fract_z
Si Si1 0.346528 0.312400 0.084223
Si Si2 0.222122 0.638705 0.250896
Si Si3 0.838279 0.724505 0.070516
Si Si4 0.595690 0.038561 0.598180
Si Si5 0.293606 0.207693 0.396094
Si Si6 0.283564 0.550816 0.761116
O O1 0.310684 0.492881 0.116992
O O2 0.258942 0.227545 0.265668
O O3 0.620905 0.281254 0.891002
O O4 0.196588 0.247424 0.059824
O O5 0.246078 0.612472 0.388471
O O6 0.953922 0.672718 0.385613
O O7 0.668262 0.593519 0.226504
O O8 0.797209 0.877629 0.174842
O O9 0.097796 0.665816 0.937821
O O10 0.695981 0.091462 0.400909
O O11 0.594557 0.856507 0.608672
O O12 0.470114 0.069597 0.317538
#
# Coordination Sequence:
#
# PCOD8046844 Si02
#       6
#     2   2   2   2   2   2
#     4  10  23  43  66  93 127 165 215 262 312 375
#     4  10  23  42  67  96 126 167 213 263 315 372
#     4  11  25  43  65  93 129 171 212 260 316 377
#     4  10  24  43  64  91 128 169 212 259 316 376
#     4  11  24  41  67  96 126 168 213 263 316 371
#     4  12  25  42  65  95 130 168 211 261 319 379
#
# _framework density 22.801134999999999
#
# number of rings (size 3 to 8) (size 9 to 14) (size 15 to 20)
#    0.000    1.333    0.000    4.000    0.000   20.000 
#    0.000    0.000    0.000    0.000    0.000    0.000 
#    0.000    0.000    0.000    0.000    0.000    0.000 
#
# Total GULP energy -148884.312522 kJ/mol
# GULP energy per Si atom -12407.026044 kJ/mol
# Density = 2.274924 g / cm^3
# Si number density = 22.801135 Si / 1000 Ang^3
#
#
#
# Elastic Constant Matrix: (Units=GPa)
#
#
# Indices 1 2 3 4 5 6 
#
# 1 59.5518 40.2395 59.8084 0.0000 -19.6473 0.0000
# 2 40.2395 116.4262 71.9964 0.0000 -9.3878 0.0000
# 3 59.8084 71.9964 142.4556 0.0000 -20.3803 0.0000
# 4 0.0000 0.0000 0.0000 35.4555 0.0000 -3.1357
# 5 -19.6473 -9.3878 -20.3803 0.0000 46.4606 0.0000
# 6 0.0000 0.0000 0.0000 -3.1357 0.0000 32.6563
#
#
#
# Elastic Compliance Matrix: (Units=1/GPa)
#
#
# Indices 1 2 3 4 5 6 
#
# 1 0.032997 -0.004225 -0.010503 0.000000 0.008493 0.000000
# 2 -0.004225 0.013038 -0.005009 0.000000 -0.001349 0.000000
# 3 -0.010503 -0.005009 0.014063 0.000000 0.000715 0.000000
# 4 0.000000 0.000000 0.000000 0.028446 0.000000 0.002731
# 5 0.008493 -0.001349 0.000715 0.000000 0.025156 0.000000
# 6 0.000000 0.000000 0.000000 0.002731 0.000000 0.030884
#
#
# Mechanical properties :
#
#
# Convention : Reuss Voigt Hill
#
# Bulk Modulus (GPa) = 48.48500 73.61359 61.04929
# Shear Modulus (GPa) = 26.18722 32.67376 29.43049
#
# Velocity S-wave (km/s) = 3.39264 3.78959 3.59659
# Velocity P-wave (km/s) = 6.05451 7.17657 6.63929
#
# Compressibility (1/GPa) = 0.02062494
#
# Stress axis : x y z
#
# Youngs Moduli (GPa) = 30.30541 76.70068 71.10808
#
# Poissons Ratio (x) = 0.32403 0.74688
# Poissons Ratio (y) = 0.12803 0.35615
# Poissons Ratio (z) = 0.31831 0.38416
#
# Static dielectric constant tensor:
#      x y z
#    x 3.988390 0.000000 0.099540 
#    y 0.000000 3.999580 0.000000 
#    z 0.099540 0.000000 4.120860 
# 
# 
# High freq. dielectric constant tensor:
#      x y z
#    x 1.898510 0.000000 0.006810 
#    y 0.000000 1.898050 0.000000 
#    z 0.006810 0.000000 1.911200 
# 
# From -- ./inp_files/7451.got.cif
#   From: 2010.03.12/outbox.cif.g09.slc.cpg/sg4_4_cif.got.tgz:7451.got - 2010.03.31 09:31:35.
