data_PCOD8046493
_publ_section_title
;
Structure prediction by ZEFSAII (Michael W. Deem and Ramdas Pophale) SiO2 
 PCOD8046493
Probable space group: P 21
;
_chemical_formula_sum "Si O2"
_cell_formula_units_Z 16
_cell_length_a 6.124885
_cell_length_b 6.987542
_cell_length_c 19.060034
_cell_angle_alpha 90.000000
_cell_angle_beta 69.260434
_cell_angle_gamma 90.000000
_cell_volume 762.869771
_symmetry_space_group_name_H-M "P 21"
_symmetry_group_IT_number 4
_symmetry_cell_setting 'monoclinic'
loop_
_space_group_symop_operation_xyz
x,y,z
-x,1/2+y,-z
loop_
_atom_site_type_symbol
_atom_site_label
_atom_site_fract_x
_atom_site_fract_y
_atom_site_fract_z
Si Si1 0.330989 0.462350 0.599107
Si Si2 0.334099 0.695203 0.948800
Si Si3 0.306075 0.927413 0.164443
Si Si4 0.054703 0.243573 0.405190
Si Si5 0.063743 0.707800 0.844950
Si Si6 0.224210 0.102685 0.531548
Si Si7 0.485025 0.106484 0.281614
Si Si8 0.696897 0.029374 0.898959
O O1 0.264568 0.246560 0.590412
O O2 0.528605 0.523187 0.521617
O O3 0.417806 0.468207 0.668978
O O4 0.102125 0.589194 0.616319
O O5 0.504221 0.525302 0.906851
O O6 0.109771 0.697934 0.923278
O O7 0.461777 0.902638 0.932899
O O8 0.241746 0.640379 0.036098
O O9 0.355440 0.974701 0.239738
O O10 0.054984 0.011838 0.169174
O O11 0.325517 0.697795 0.155766
O O12 0.082471 0.196469 0.483982
O O13 0.302803 0.254263 0.337326
O O14 0.932030 0.445530 0.413025
O O15 0.310676 0.732355 0.777080
O O16 0.903926 0.891961 0.848737
#
# Coordination Sequence:
#
# PCOD8046493 Si02
#       8
#     2   2   2   2   2   2   2   2
#     4  11  22  41  69 100 131 165 218 267 328 381
#     4  10  22  39  64 102 128 164 215 275 332 374
#     4  10  22  45  65  90 135 172 215 267 321 394
#     4  11  22  41  69  97 137 166 216 268 330 379
#     4  10  24  42  65  94 131 172 220 264 323 391
#     4  11  22  39  70 103 128 166 213 277 320 379
#     4  10  24  46  65  89 138 182 209 263 322 397
#     4  11  22  39  69  97 130 167 218 277 328 379
#
# _framework density 20.973434999999998
#
# number of rings (size 3 to 8) (size 9 to 14) (size 15 to 20)
#    0.000    1.500    3.750    0.750    1.750    2.000 
#    0.000   16.250    0.000    0.000    0.000    0.000 
#    0.000    0.000    0.000    0.000    0.000    0.000 
#
# Total GULP energy -198447.255140 kJ/mol
# GULP energy per Si atom -12402.953446 kJ/mol
# Density = 2.092570 g / cm^3
# Si number density = 20.973435 Si / 1000 Ang^3
#
#
#
# Elastic Constant Matrix: (Units=GPa)
#
#
# Indices 1 2 3 4 5 6 
#
# 1 122.7565 63.9792 44.9988 0.0000 23.1110 0.0000
# 2 63.9792 159.9646 49.8379 0.0000 11.7203 0.0000
# 3 44.9988 49.8379 103.7588 0.0000 18.0742 0.0000
# 4 0.0000 0.0000 0.0000 28.9323 0.0000 5.4691
# 5 23.1110 11.7203 18.0742 0.0000 41.1243 0.0000
# 6 0.0000 0.0000 0.0000 5.4691 0.0000 30.7550
#
#
#
# Elastic Compliance Matrix: (Units=1/GPa)
#
#
# Indices 1 2 3 4 5 6 
#
# 1 0.011816 -0.003580 -0.002627 0.000000 -0.004465 0.000000
# 2 -0.003580 0.008450 -0.002639 0.000000 0.000764 0.000000
# 3 -0.002627 -0.002639 0.012623 0.000000 -0.003319 0.000000
# 4 0.000000 0.000000 0.000000 0.035766 0.000000 -0.006360
# 5 -0.004465 0.000764 -0.003319 0.000000 0.028067 0.000000
# 6 0.000000 0.000000 0.000000 -0.006360 0.000000 0.033646
#
#
# Mechanical properties :
#
#
# Convention : Reuss Voigt Hill
#
# Bulk Modulus (GPa) = 65.80607 78.23462 72.02034
# Shear Modulus (GPa) = 32.65324 35.33992 33.99658
#
# Velocity S-wave (km/s) = 3.95002 4.10931 4.03045
# Velocity P-wave (km/s) = 7.22825 7.73938 7.48818
#
# Compressibility (1/GPa) = 0.01519617
#
# Stress axis : x y z
#
# Youngs Moduli (GPa) = 84.63253 118.34979 79.22248
#
# Poissons Ratio (x) = 0.42372 0.20810
# Poissons Ratio (y) = 0.30301 0.20906
# Poissons Ratio (z) = 0.22231 0.31231
#
# Static dielectric constant tensor:
#      x y z
#    x 3.778710 0.000000 0.137280 
#    y 0.000000 3.585490 0.000000 
#    z 0.137280 0.000000 3.708230 
# 
# 
# High freq. dielectric constant tensor:
#      x y z
#    x 1.834320 0.000000 0.004970 
#    y 0.000000 1.810210 0.000000 
#    z 0.004970 0.000000 1.820170 
# 
# From -- ./inp_files/3949.got.cif
#   From: 2010.03.12/outbox.cif.g09.slc.cpg/sg4_2_cif.got.tgz:3949.got - 2010.03.31 09:31:35.
