data_PCOD8046748
_publ_section_title
;
Structure prediction by ZEFSAII (Michael W. Deem and Ramdas Pophale) SiO2 
 PCOD8046748
Probable space group: P 21
;
_chemical_formula_sum "Si O2"
_cell_formula_units_Z 14
_cell_length_a 7.799247
_cell_length_b 9.164411
_cell_length_c 8.882781
_cell_angle_alpha 90.000000
_cell_angle_beta 67.508131
_cell_angle_gamma 90.000000
_cell_volume 586.606751
_symmetry_space_group_name_H-M "P 21"
_symmetry_group_IT_number 4
_symmetry_cell_setting 'monoclinic'
loop_
_space_group_symop_operation_xyz
x,y,z
-x,1/2+y,-z
loop_
_atom_site_type_symbol
_atom_site_label
_atom_site_fract_x
_atom_site_fract_y
_atom_site_fract_z
Si Si1 0.566061 0.391720 0.490867
Si Si2 0.118758 0.107980 0.527207
Si Si3 0.040015 0.138881 0.883518
Si Si4 0.789166 0.917790 0.584027
Si Si5 0.584780 0.788377 0.157156
Si Si6 0.222904 0.843433 0.867840
Si Si7 0.452737 0.503766 0.073657
O O1 0.685600 0.531437 0.500410
O O2 0.370337 0.447092 0.486874
O O3 0.527272 0.288530 0.647209
O O4 0.685529 0.304107 0.325177
O O5 0.021606 0.166393 0.711842
O O6 0.164793 0.247517 0.411027
O O7 0.978300 0.005083 0.479800
O O8 0.208667 0.235402 0.886322
O O9 0.062795 0.966121 0.904254
O O10 0.856272 0.196071 0.030656
O O11 0.729816 0.969246 0.769082
O O12 0.489308 0.676537 0.071285
O O13 0.582403 0.950676 0.085803
O O14 0.375981 0.912743 0.922072
#
# Coordination Sequence:
#
# PCOD8046748 Si02
#       7
#     2   2   2   2   2   2   2
#     4  10  24  49  77 104 148 194 248 302 369 444
#     4  11  26  46  75 111 148 193 245 307 374 437
#     4  10  22  46  68 104 141 183 241 297 360 442
#     4  11  26  48  73 110 148 193 249 307 368 445
#     4  11  24  47  72 103 147 188 244 304 369 437
#     4   9  22  45  69 103 140 186 242 293 368 427
#     4  10  26  43  70 103 146 187 243 302 366 440
#
# _framework density 23.866073
#
# number of rings (size 3 to 8) (size 9 to 14) (size 15 to 20)
#    0.000    1.714    1.429    0.857   10.000    0.000 
#    7.714    0.000    0.000    0.000    0.000    0.000 
#    0.000    0.000    0.000    0.000    0.000    0.000 
#
# Total GULP energy -173599.049248 kJ/mol
# GULP energy per Si atom -12399.932089 kJ/mol
# Density = 2.381175 g / cm^3
# Si number density = 23.866073 Si / 1000 Ang^3
#
#
#
# Elastic Constant Matrix: (Units=GPa)
#
#
# Indices 1 2 3 4 5 6 
#
# 1 105.9115 39.0204 16.4914 0.0000 -15.8346 0.0000
# 2 39.0204 75.0306 17.8646 0.0000 -9.5600 0.0000
# 3 16.4914 17.8646 69.0575 0.0000 0.4262 0.0000
# 4 0.0000 0.0000 0.0000 43.3909 0.0000 1.7025
# 5 -15.8346 -9.5600 0.4262 0.0000 27.5504 0.0000
# 6 0.0000 0.0000 0.0000 1.7025 0.0000 32.4031
#
#
#
# Elastic Compliance Matrix: (Units=1/GPa)
#
#
# Indices 1 2 3 4 5 6 
#
# 1 0.012490 -0.005435 -0.001610 0.000000 0.005318 0.000000
# 2 -0.005435 0.017287 -0.003192 0.000000 0.002924 0.000000
# 3 -0.001610 -0.003192 0.015705 0.000000 -0.002276 0.000000
# 4 0.000000 0.000000 0.000000 0.023094 0.000000 -0.001213
# 5 0.005318 0.002924 -0.002276 0.000000 0.040403 0.000000
# 6 0.000000 0.000000 0.000000 -0.001213 0.000000 0.030925
#
#
# Mechanical properties :
#
#
# Convention : Reuss Voigt Hill
#
# Bulk Modulus (GPa) = 39.98601 44.08361 42.03481
# Shear Modulus (GPa) = 29.63614 32.44375 31.03994
#
# Velocity S-wave (km/s) = 3.52770 3.69102 3.61028
# Velocity P-wave (km/s) = 5.77785 6.05608 5.91860
#
# Compressibility (1/GPa) = 0.02500875
#
# Stress axis : x y z
#
# Youngs Moduli (GPa) = 80.06570 57.84729 63.67438
#
# Poissons Ratio (x) = 0.31438 0.10249
# Poissons Ratio (y) = 0.43513 0.20326
# Poissons Ratio (z) = 0.12887 0.18466
#
# Static dielectric constant tensor:
#      x y z
#    x 4.371860 0.000000 -0.071260 
#    y 0.000000 4.205560 0.000000 
#    z -0.071260 0.000000 4.247100 
# 
# 
# High freq. dielectric constant tensor:
#      x y z
#    x 1.959300 0.000000 -0.004930 
#    y 0.000000 1.939700 0.000000 
#    z -0.004930 0.000000 1.932460 
# 
# From -- ./inp_files/5244.got.cif
#   From: 2010.03.12/outbox.cif.g09.slc.cpg/sg4_3_cif.got.tgz:5244.got - 2010.03.31 09:31:35.
