data_PCOD8046777
_publ_section_title
;
Structure prediction by ZEFSAII (Michael W. Deem and Ramdas Pophale) SiO2 
 PCOD8046777
Probable space group: P 21
;
_chemical_formula_sum "Si O2"
_cell_formula_units_Z 16
_cell_length_a 11.409721
_cell_length_b 8.527832
_cell_length_c 13.816446
_cell_angle_alpha 90.000000
_cell_angle_beta 147.445789
_cell_angle_gamma 90.000000
_cell_volume 723.387266
_symmetry_space_group_name_H-M "P 21"
_symmetry_group_IT_number 4
_symmetry_cell_setting 'monoclinic'
loop_
_space_group_symop_operation_xyz
x,y,z
-x,1/2+y,-z
loop_
_atom_site_type_symbol
_atom_site_label
_atom_site_fract_x
_atom_site_fract_y
_atom_site_fract_z
Si Si1 0.374406 0.750000 0.191955
Si Si2 0.772375 0.587151 0.262553
Si Si3 0.418765 0.102335 0.184451
Si Si4 0.817170 0.210647 0.566864
Si Si5 0.032196 0.767264 0.123023
Si Si6 0.476832 0.299807 0.040708
Si Si7 0.857162 0.036250 0.110458
Si Si8 0.201266 0.076413 0.494556
O O1 0.181095 0.753334 0.133560
O O2 0.586870 0.675038 0.390954
O O3 0.401166 0.917107 0.160860
O O4 0.323520 0.640633 0.065215
O O5 0.689948 0.409790 0.182845
O O6 0.836737 0.611131 0.418939
O O7 0.987954 0.622312 0.352318
O O8 0.574922 0.705265 0.094270
O O9 0.590358 0.126573 0.389400
O O10 0.513933 0.172187 0.151010
O O11 0.194356 0.183006 0.059683
O O12 0.856232 0.184791 0.707551
O O13 0.782291 0.390940 0.511741
O O14 0.000619 0.951568 0.126728
O O15 0.258285 0.396908 0.910919
O O16 0.002376 0.136140 0.288002
#
# Coordination Sequence:
#
# PCOD8046777 Si02
#       8
#     2   2   2   2   2   2   2   2
#     4  12  25  42  72 108 140 189 239 292 367 424
#     4  12  24  45  75 104 136 199 227 294 361 425
#     4  11  24  46  67 104 145 183 236 301 353 424
#     4  11  24  47  71 100 146 184 238 293 358 420
#     4  10  23  46  75  99 140 191 241 296 355 420
#     4  11  24  46  72  97 142 191 235 292 356 423
#     4  10  22  49  66  98 147 181 234 302 348 421
#     4  11  24  45  70 102 142 184 238 290 354 427
#
# _framework density 22.118168000000001
#
# number of rings (size 3 to 8) (size 9 to 14) (size 15 to 20)
#    0.000    1.000    6.250    1.500    1.750    6.000 
#    4.500    0.000    0.000    0.000    0.000    0.000 
#    0.000    0.000    0.000    0.000    0.000    0.000 
#
# Total GULP energy -198395.399848 kJ/mol
# GULP energy per Si atom -12399.712491 kJ/mol
# Density = 2.206783 g / cm^3
# Si number density = 22.118168 Si / 1000 Ang^3
#
#
#
# Elastic Constant Matrix: (Units=GPa)
#
#
# Indices 1 2 3 4 5 6 
#
# 1 69.8139 49.6346 27.9608 0.0000 -5.2640 0.0000
# 2 49.6346 107.1436 40.4381 0.0000 6.2059 0.0000
# 3 27.9608 40.4381 137.2980 0.0000 -7.4887 0.0000
# 4 0.0000 0.0000 0.0000 37.0847 0.0000 4.8942
# 5 -5.2640 6.2059 -7.4887 0.0000 20.1008 0.0000
# 6 0.0000 0.0000 0.0000 4.8942 0.0000 30.0115
#
#
#
# Elastic Compliance Matrix: (Units=1/GPa)
#
#
# Indices 1 2 3 4 5 6 
#
# 1 0.023129 -0.010852 -0.001022 0.000000 0.009027 0.000000
# 2 -0.010852 0.016004 -0.002989 0.000000 -0.008896 0.000000
# 3 -0.001022 -0.002989 0.008582 0.000000 0.003852 0.000000
# 4 0.000000 0.000000 0.000000 0.027558 0.000000 -0.004494
# 5 0.009027 -0.008896 0.003852 0.000000 0.056295 0.000000
# 6 0.000000 0.000000 0.000000 -0.004494 0.000000 0.034054
#
#
# Mechanical properties :
#
#
# Convention : Reuss Voigt Hill
#
# Bulk Modulus (GPa) = 55.58678 61.14694 58.36686
# Shear Modulus (GPa) = 24.83336 30.52087 27.67711
#
# Velocity S-wave (km/s) = 3.35439 3.71873 3.54125
# Velocity P-wave (km/s) = 6.33947 6.79295 6.57013
#
# Compressibility (1/GPa) = 0.01798989
#
# Stress axis : x y z
#
# Youngs Moduli (GPa) = 43.23638 62.48576 116.52416
#
# Poissons Ratio (x) = 0.67807 0.11905
# Poissons Ratio (y) = 0.46919 0.34827
# Poissons Ratio (z) = 0.04418 0.18676
#
# Static dielectric constant tensor:
#      x y z
#    x 3.731030 0.000000 -0.078220 
#    y 0.000000 4.016710 0.000000 
#    z -0.078220 0.000000 4.366540 
# 
# 
# High freq. dielectric constant tensor:
#      x y z
#    x 1.859800 0.000000 -0.003720 
#    y 0.000000 1.869910 0.000000 
#    z -0.003720 0.000000 1.888550 
# 
# From -- ./inp_files/13909.got.cif
#   From: 2010.03.12/outbox.cif.g09.slc.cpg/sg4_7_cif.got.tgz:13909.got - 2010.03.31 09:31:35.
