data_PCOD8046312
_publ_section_title
;
Structure prediction by ZEFSAII (Michael W. Deem and Ramdas Pophale) SiO2 
 PCOD8046312
Probable space group: P 21
;
_chemical_formula_sum "Si O2"
_cell_formula_units_Z 14
_cell_length_a 25.348799
_cell_length_b 5.086135
_cell_length_c 7.574842
_cell_angle_alpha 90.000000
_cell_angle_beta 41.663421
_cell_angle_gamma 90.000000
_cell_volume 649.201498
_symmetry_space_group_name_H-M "P 21"
_symmetry_group_IT_number 4
_symmetry_cell_setting 'monoclinic'
loop_
_space_group_symop_operation_xyz
x,y,z
-x,1/2+y,-z
loop_
_atom_site_type_symbol
_atom_site_label
_atom_site_fract_x
_atom_site_fract_y
_atom_site_fract_z
Si Si1 0.278884 0.169050 0.507661
Si Si2 0.179690 0.681823 0.757676
Si Si3 0.278884 0.169047 0.097919
Si Si4 0.820309 0.181821 0.656130
Si Si5 0.052156 0.679680 0.369610
Si Si6 0.454332 0.163198 0.063948
Si Si7 0.545667 0.663197 0.335611
O O1 0.242135 0.451396 0.637248
O O2 0.287471 0.103397 0.281322
O O3 0.220989 0.945410 0.729466
O O4 0.366879 0.156171 0.372359
O O5 0.155465 0.697306 0.611337
O O6 0.101634 0.631136 0.067320
O O7 0.242134 0.451390 0.152077
O O8 0.220990 0.945405 0.165585
O O9 0.366880 0.156171 0.793244
O O10 0.898366 0.131138 0.575489
O O11 0.980007 0.475680 0.549983
O O12 0.446973 0.264356 0.882567
O O13 0.508998 0.371986 0.027911
O O14 0.508998 0.371984 0.427099
#
# Coordination Sequence:
#
# PCOD8046312 Si02
#       7
#     2   2   2   2   2   2   2
#     4   9  19  38  62  82 117 162 203 248 292 361
#     4  10  21  41  64  88 116 161 206 240 304 368
#     4   9  19  38  62  82 117 162 203 248 292 361
#     4  10  21  41  64  88 116 161 206 240 304 368
#     4  12  26  42  62  94 128 150 192 260 312 368
#     4  11  22  39  58  88 127 164 209 263 317 366
#     4  11  22  39  58  88 127 164 209 263 317 366
#
# _framework density 21.564952999999999
#
# number of rings (size 3 to 8) (size 9 to 14) (size 15 to 20)
#    0.000    1.714    0.000    4.286    0.000    5.714 
#   15.429    0.000    0.000    0.000    0.000    0.000 
#    0.000    0.000    0.000    0.000    0.000    0.000 
#
# Total GULP energy -173641.228077 kJ/mol
# GULP energy per Si atom -12402.944863 kJ/mol
# Density = 2.151587 g / cm^3
# Si number density = 21.564953 Si / 1000 Ang^3
#
#
#
# Elastic Constant Matrix: (Units=GPa)
#
#
# Indices 1 2 3 4 5 6 
#
# 1 85.6518 19.7479 49.1477 0.0000 -8.3394 0.0000
# 2 19.7479 92.9831 19.1586 0.0000 0.5803 0.0000
# 3 49.1477 19.1586 106.3572 0.0000 -11.9936 0.0000
# 4 0.0000 0.0000 0.0000 39.6375 0.0000 -12.6583
# 5 -8.3394 0.5803 -11.9936 0.0000 26.0860 0.0000
# 6 0.0000 0.0000 0.0000 -12.6583 0.0000 26.7471
#
#
#
# Elastic Compliance Matrix: (Units=1/GPa)
#
#
# Indices 1 2 3 4 5 6 
#
# 1 0.016335 -0.002051 -0.006945 0.000000 0.002075 0.000000
# 2 -0.002051 0.011465 -0.001287 0.000000 -0.001502 0.000000
# 3 -0.006945 -0.001287 0.013285 0.000000 0.003916 0.000000
# 4 0.000000 0.000000 0.000000 0.029721 0.000000 0.014066
# 5 0.002075 -0.001502 0.003916 0.000000 0.040832 0.000000
# 6 0.000000 0.000000 0.000000 0.014066 0.000000 0.044044
#
#
# Mechanical properties :
#
#
# Convention : Reuss Voigt Hill
#
# Bulk Modulus (GPa) = 48.73549 51.23340 49.98444
# Shear Modulus (GPa) = 27.30938 31.62331 29.46634
#
# Velocity S-wave (km/s) = 3.56248 3.83354 3.70049
# Velocity P-wave (km/s) = 6.29048 6.58817 6.44105
#
# Compressibility (1/GPa) = 0.02051893
#
# Stress axis : x y z
#
# Youngs Moduli (GPa) = 61.21726 87.22356 75.27274
#
# Poissons Ratio (x) = 0.17892 0.52277
# Poissons Ratio (y) = 0.12557 0.09686
# Poissons Ratio (z) = 0.42516 0.11223
#
# Static dielectric constant tensor:
#      x y z
#    x 3.687140 0.000000 -0.134530 
#    y 0.000000 3.826880 0.000000 
#    z -0.134530 0.000000 3.824130 
# 
# 
# High freq. dielectric constant tensor:
#      x y z
#    x 1.838190 0.000000 -0.007160 
#    y 0.000000 1.859300 0.000000 
#    z -0.007160 0.000000 1.845480 
# 
# From -- ./inp_files/10107.got.cif
#   From: 2010.03.12/outbox.cif.g09.slc.cpg/sg4_6_cif.got.tgz:10107.got - 2010.03.31 09:31:35.
