data_PCOD8046288
_publ_section_title
;
Structure prediction by ZEFSAII (Michael W. Deem and Ramdas Pophale) SiO2 
 PCOD8046288
Probable space group: P 21
;
_chemical_formula_sum "Si O2"
_cell_formula_units_Z 16
_cell_length_a 10.047003
_cell_length_b 8.929130
_cell_length_c 10.824191
_cell_angle_alpha 90.000000
_cell_angle_beta 137.138793
_cell_angle_gamma 90.000000
_cell_volume 660.531516
_symmetry_space_group_name_H-M "P 21"
_symmetry_group_IT_number 4
_symmetry_cell_setting 'monoclinic'
loop_
_space_group_symop_operation_xyz
x,y,z
-x,1/2+y,-z
loop_
_atom_site_type_symbol
_atom_site_label
_atom_site_fract_x
_atom_site_fract_y
_atom_site_fract_z
Si Si1 0.136923 0.292860 0.159771
Si Si2 0.463068 0.280264 0.566557
Si Si3 0.124148 0.630842 0.193622
Si Si4 0.865584 0.903554 0.314228
Si Si5 0.706301 0.063999 0.444257
Si Si6 0.395569 0.160096 0.770980
Si Si7 0.268026 0.839703 0.674528
Si Si8 0.816568 0.186808 0.136460
O O1 0.352280 0.250030 0.360251
O O2 0.133373 0.470353 0.132196
O O3 0.981544 0.240731 0.156225
O O4 0.075046 0.212550 0.988986
O O5 0.686886 0.230857 0.712139
O O6 0.452352 0.458169 0.594524
O O7 0.345693 0.188740 0.592835
O O8 0.124304 0.609319 0.341419
O O9 0.751716 0.744232 0.234711
O O10 0.097613 0.884164 0.463476
O O11 0.815906 0.979488 0.410419
O O12 0.814273 0.008302 0.162587
O O13 0.606201 0.212000 0.313335
O O14 0.397673 0.982592 0.798584
O O15 0.608537 0.229847 0.936965
O O16 0.158272 0.775357 0.719216
#
# Coordination Sequence:
#
# PCOD8046288 Si02
#       8
#     2   2   2   2   2   2   2   2
#     4  11  25  44  70  99 133 183 227 289 346 405
#     4  10  22  45  67  91 138 177 225 280 342 398
#     4  11  24  45  69  98 133 179 237 280 345 406
#     4  10  21  40  67  96 136 181 216 276 338 408
#     4   9  22  41  65  96 129 179 222 273 346 399
#     4  11  21  38  66  99 136 175 223 275 337 405
#     4  11  21  37  67  99 131 175 224 272 339 407
#     4  11  22  42  63  98 140 173 222 275 343 406
#
# _framework density 24.222916000000001
#
# number of rings (size 3 to 8) (size 9 to 14) (size 15 to 20)
#    0.000    1.500    1.250    5.250    0.000    6.000 
#    0.000    0.000    8.250    0.000    0.000    0.000 
#    0.000    0.000    0.000    0.000    0.000    0.000 
#
# Total GULP energy -198313.670609 kJ/mol
# GULP energy per Si atom -12394.604413 kJ/mol
# Density = 2.416778 g / cm^3
# Si number density = 24.222916 Si / 1000 Ang^3
#
#
#
# Elastic Constant Matrix: (Units=GPa)
#
#
# Indices 1 2 3 4 5 6 
#
# 1 46.9779 20.9196 5.6526 0.0000 2.9697 0.0000
# 2 20.9196 148.2576 38.3030 0.0000 -3.3798 0.0000
# 3 5.6526 38.3030 87.2287 0.0000 7.3850 0.0000
# 4 0.0000 0.0000 0.0000 41.3420 0.0000 3.2025
# 5 2.9697 -3.3798 7.3850 0.0000 28.2109 0.0000
# 6 0.0000 0.0000 0.0000 3.2025 0.0000 24.4670
#
#
#
# Elastic Compliance Matrix: (Units=1/GPa)
#
#
# Indices 1 2 3 4 5 6 
#
# 1 0.022938 -0.003363 0.000234 0.000000 -0.002879 0.000000
# 2 -0.003363 0.008194 -0.003573 0.000000 0.002271 0.000000
# 3 0.000234 -0.003573 0.013352 0.000000 -0.003948 0.000000
# 4 0.000000 0.000000 0.000000 0.024436 0.000000 -0.003198
# 5 -0.002879 0.002271 -0.003948 0.000000 0.037056 0.000000
# 6 0.000000 0.000000 0.000000 -0.003198 0.000000 0.041290
#
#
# Mechanical properties :
#
#
# Convention : Reuss Voigt Hill
#
# Bulk Modulus (GPa) = 32.17355 45.80159 38.98757
# Shear Modulus (GPa) = 29.23479 33.30992 31.27236
#
# Velocity S-wave (km/s) = 3.47782 3.71231 3.59698
# Velocity P-wave (km/s) = 5.42569 6.10937 5.77765
#
# Compressibility (1/GPa) = 0.03108144
#
# Stress axis : x y z
#
# Youngs Moduli (GPa) = 43.59607 122.03693 74.89553
#
# Poissons Ratio (x) = 0.41037 -0.01752
# Poissons Ratio (y) = 0.14660 0.26757
# Poissons Ratio (z) = -0.01020 0.43598
#
# Static dielectric constant tensor:
#      x y z
#    x 3.940100 0.000000 -0.260880 
#    y 0.000000 4.693790 0.000000 
#    z -0.260880 0.000000 4.487500 
# 
# 
# High freq. dielectric constant tensor:
#      x y z
#    x 1.935400 0.000000 -0.013190 
#    y 0.000000 1.973500 0.000000 
#    z -0.013190 0.000000 1.961950 
# 
# From -- ./inp_files/11905.got.cif
#   From: 2010.03.12/outbox.cif.g09.slc.cpg/sg4_6_cif.got.tgz:11905.got - 2010.03.31 09:31:35.
