data_PCOD8046785
_publ_section_title
;
Structure prediction by ZEFSAII (Michael W. Deem and Ramdas Pophale) SiO2 
 PCOD8046785
Probable space group: P 21
;
_chemical_formula_sum "Si O2"
_cell_formula_units_Z 14
_cell_length_a 11.643271
_cell_length_b 7.159647
_cell_length_c 11.805195
_cell_angle_alpha 90.000000
_cell_angle_beta 140.349079
_cell_angle_gamma 90.000000
_cell_volume 627.963392
_symmetry_space_group_name_H-M "P 21"
_symmetry_group_IT_number 4
_symmetry_cell_setting 'monoclinic'
loop_
_space_group_symop_operation_xyz
x,y,z
-x,1/2+y,-z
loop_
_atom_site_type_symbol
_atom_site_label
_atom_site_fract_x
_atom_site_fract_y
_atom_site_fract_z
Si Si1 0.665931 0.386590 0.047018
Si Si2 0.565014 0.555680 0.193011
Si Si3 0.925753 0.169460 0.847332
Si Si4 0.668681 0.671508 0.509941
Si Si5 0.425859 0.594184 0.521625
Si Si6 0.033084 0.756431 0.875663
Si Si7 0.322197 0.247185 0.096554
O O1 0.491958 0.254736 0.902310
O O2 0.641152 0.570699 0.954371
O O3 0.688163 0.445315 0.195308
O O4 0.836604 0.268635 0.133613
O O5 0.679864 0.585862 0.393108
O O6 0.386958 0.434917 0.085107
O O7 0.755203 0.220797 0.637126
O O8 0.867174 0.185895 0.934937
O O9 0.957969 0.955765 0.849778
O O10 0.109847 0.282233 0.960430
O O11 0.519388 0.564161 0.470464
O O12 0.862580 0.629327 0.713748
O O13 0.621371 0.892052 0.463027
O O14 0.564411 0.710359 0.703469
#
# Coordination Sequence:
#
# PCOD8046785 Si02
#       7
#     2   2   2   2   2   2   2
#     4  11  24  45  68  94 132 182 235 274 335 402
#     4  12  24  44  71  94 131 183 235 279 333 402
#     4  10  23  38  65 100 140 171 217 276 346 406
#     4  11  23  40  66 102 138 177 223 282 343 407
#     4  11  22  40  65 105 144 172 220 282 347 412
#     4  10  23  41  63 101 139 172 222 282 340 410
#     4  11  23  44  68 100 136 175 224 283 338 407
#
# _framework density 22.294291000000001
#
# number of rings (size 3 to 8) (size 9 to 14) (size 15 to 20)
#    0.000    1.143    4.286    1.714    6.000    1.143 
#    0.000    5.714    0.000    0.000    0.000    0.000 
#    0.000    0.000    0.000    0.000    0.000    0.000 
#
# Total GULP energy -173582.930243 kJ/mol
# GULP energy per Si atom -12398.780732 kJ/mol
# Density = 2.224355 g / cm^3
# Si number density = 22.294291 Si / 1000 Ang^3
#
#
#
# Elastic Constant Matrix: (Units=GPa)
#
#
# Indices 1 2 3 4 5 6 
#
# 1 140.4655 19.6103 54.6759 0.0000 -16.8121 0.0000
# 2 19.6103 27.9131 7.8956 0.0000 0.0278 0.0000
# 3 54.6759 7.8956 125.8492 0.0000 3.5010 0.0000
# 4 0.0000 0.0000 0.0000 17.1065 0.0000 -10.4983
# 5 -16.8121 0.0278 3.5010 0.0000 31.9978 0.0000
# 6 0.0000 0.0000 0.0000 -10.4983 0.0000 39.6657
#
#
#
# Elastic Compliance Matrix: (Units=1/GPa)
#
#
# Indices 1 2 3 4 5 6 
#
# 1 0.010335 -0.006058 -0.004274 0.000000 0.005903 0.000000
# 2 -0.006058 0.040025 0.000211 0.000000 -0.003241 0.000000
# 3 -0.004274 0.000211 0.009882 0.000000 -0.003327 0.000000
# 4 0.000000 0.000000 0.000000 0.069794 0.000000 0.018472
# 5 0.005903 -0.003241 -0.003327 0.000000 0.034721 0.000000
# 6 0.000000 0.000000 0.000000 0.018472 0.000000 0.030100
#
#
# Mechanical properties :
#
#
# Convention : Reuss Voigt Hill
#
# Bulk Modulus (GPa) = 25.00004 50.95460 37.97732
# Shear Modulus (GPa) = 21.88830 31.89040 26.88935
#
# Velocity S-wave (km/s) = 3.13675 3.78620 3.47668
# Velocity P-wave (km/s) = 4.93527 6.48220 5.76089
#
# Compressibility (1/GPa) = 0.03999993
#
# Stress axis : x y z
#
# Youngs Moduli (GPa) = 96.75629 24.98446 101.19026
#
# Poissons Ratio (x) = 0.15135 0.43252
# Poissons Ratio (y) = 0.58613 -0.02134
# Poissons Ratio (z) = 0.41357 -0.00527
#
# Static dielectric constant tensor:
#      x y z
#    x 4.127570 0.000000 0.027520 
#    y 0.000000 4.035860 0.000000 
#    z 0.027520 0.000000 4.926980 
# 
# 
# High freq. dielectric constant tensor:
#      x y z
#    x 1.867710 0.000000 -0.002240 
#    y 0.000000 1.891420 0.000000 
#    z -0.002240 0.000000 1.869580 
# 
# From -- ./inp_files/11831.got.cif
#   From: 2010.03.12/outbox.cif.g09.slc.cpg/sg4_6_cif.got.tgz:11831.got - 2010.03.31 09:31:35.
