data_PCOD8046658
_publ_section_title
;
Structure prediction by ZEFSAII (Michael W. Deem and Ramdas Pophale) SiO2 
 PCOD8046658
Probable space group: P 21
;
_chemical_formula_sum "Si O2"
_cell_formula_units_Z 16
_cell_length_a 8.135750
_cell_length_b 12.473010
_cell_length_c 10.615633
_cell_angle_alpha 90.000000
_cell_angle_beta 138.948555
_cell_angle_gamma 90.000000
_cell_volume 707.466457
_symmetry_space_group_name_H-M "P 21"
_symmetry_group_IT_number 4
_symmetry_cell_setting 'monoclinic'
loop_
_space_group_symop_operation_xyz
x,y,z
-x,1/2+y,-z
loop_
_atom_site_type_symbol
_atom_site_label
_atom_site_fract_x
_atom_site_fract_y
_atom_site_fract_z
Si Si1 0.562733 0.752720 0.551830
Si Si2 0.982188 0.032305 0.408306
Si Si3 0.370132 0.414978 0.627469
Si Si4 0.003364 0.224367 0.815953
Si Si5 0.111225 0.236504 0.599981
Si Si6 0.642810 0.366558 0.338824
Si Si7 0.815928 0.580386 0.855616
Si Si8 0.788152 0.957868 0.051492
O O1 0.680924 0.843431 0.527781
O O2 0.548799 0.809485 0.679218
O O3 0.731100 0.648024 0.682009
O O4 0.296426 0.709946 0.345580
O O5 0.848542 0.001410 0.465308
O O6 0.782087 0.025095 0.179019
O O7 0.193338 0.949328 0.485584
O O8 0.139388 0.141139 0.515881
O O9 0.338234 0.323340 0.719260
O O10 0.628935 0.480063 0.774867
O O11 0.102913 0.189956 0.736033
O O12 0.051770 0.349798 0.856131
O O13 0.155859 0.154275 0.004813
O O14 0.841597 0.282389 0.398464
O O15 0.498305 0.429373 0.145176
O O16 0.088597 0.533037 0.983770
#
# Coordination Sequence:
#
# PCOD8046658 Si02
#       8
#     2   2   2   2   2   2   2   2
#     4  11  22  44  69  99 138 179 224 285 340 401
#     4  11  23  44  68 100 133 184 223 273 342 411
#     4  11  22  41  71  99 134 178 231 277 338 415
#     4  11  23  47  66  98 141 176 221 286 342 401
#     4  10  23  46  70  96 140 184 227 275 347 409
#     4  10  22  43  68  90 138 177 215 285 334 389
#     4  12  26  42  74 102 133 181 233 284 341 403
#     4  12  23  45  68  98 139 173 226 281 336 407
#
# _framework density 22.615912999999999
#
# number of rings (size 3 to 8) (size 9 to 14) (size 15 to 20)
#    0.000    1.000    6.250    2.250    0.000    5.000 
#    0.000    5.000    0.000    0.000    0.000    0.000 
#    0.000    0.000    0.000    0.000    0.000    0.000 
#
# Total GULP energy -198208.998127 kJ/mol
# GULP energy per Si atom -12388.062383 kJ/mol
# Density = 2.256444 g / cm^3
# Si number density = 22.615913 Si / 1000 Ang^3
#
#
#
# Elastic Constant Matrix: (Units=GPa)
#
#
# Indices 1 2 3 4 5 6 
#
# 1 67.8899 36.0860 28.2385 0.0000 -7.0474 0.0000
# 2 36.0860 90.7992 28.4609 0.0000 -14.0572 0.0000
# 3 28.2385 28.4609 106.1753 0.0000 -12.6865 0.0000
# 4 0.0000 0.0000 0.0000 38.0685 0.0000 -6.4084
# 5 -7.0474 -14.0572 -12.6865 0.0000 24.8445 0.0000
# 6 0.0000 0.0000 0.0000 -6.4084 0.0000 24.3971
#
#
#
# Elastic Compliance Matrix: (Units=1/GPa)
#
#
# Indices 1 2 3 4 5 6 
#
# 1 0.019762 -0.006774 -0.003438 0.000000 0.000018 0.000000
# 2 -0.006774 0.015093 -0.001548 0.000000 0.005828 0.000000
# 3 -0.003438 -0.001548 0.011211 0.000000 0.003873 0.000000
# 4 0.000000 0.000000 0.000000 0.027484 0.000000 0.007219
# 5 0.000018 0.005828 0.003873 0.000000 0.045531 0.000000
# 6 0.000000 0.000000 0.000000 0.007219 0.000000 0.042885
#
#
# Mechanical properties :
#
#
# Convention : Reuss Voigt Hill
#
# Bulk Modulus (GPa) = 44.35344 50.04836 47.20090
# Shear Modulus (GPa) = 25.90689 28.93396 27.42043
#
# Velocity S-wave (km/s) = 3.38822 3.58070 3.48579
# Velocity P-wave (km/s) = 5.91277 6.26681 6.09237
#
# Compressibility (1/GPa) = 0.02254617
#
# Stress axis : x y z
#
# Youngs Moduli (GPa) = 50.60206 66.25719 89.20186
#
# Poissons Ratio (x) = 0.44880 0.30669
# Poissons Ratio (y) = 0.34276 0.13807
# Poissons Ratio (z) = 0.17398 0.10256
#
# Static dielectric constant tensor:
#      x y z
#    x 4.067630 0.000000 -0.058530 
#    y 0.000000 4.350740 0.000000 
#    z -0.058530 0.000000 3.983990 
# 
# 
# High freq. dielectric constant tensor:
#      x y z
#    x 1.887870 0.000000 -0.004420 
#    y 0.000000 1.907850 0.000000 
#    z -0.004420 0.000000 1.867940 
# 
# From -- ./inp_files/8303.got.cif
#   From: 2010.03.12/outbox.cif.g09.slc.cpg/sg4_5_cif.got.tgz:8303.got - 2010.03.31 09:31:35.
