data_PCOD8046080
_publ_section_title
;
Structure prediction by ZEFSAII (Michael W. Deem and Ramdas Pophale) SiO2 
 PCOD8046080
Probable space group: P 21
;
_chemical_formula_sum "Si O2"
_cell_formula_units_Z 16
_cell_length_a 18.310213
_cell_length_b 9.694429
_cell_length_c 8.560332
_cell_angle_alpha 90.000000
_cell_angle_beta 30.984908
_cell_angle_gamma 90.000000
_cell_volume 782.267221
_symmetry_space_group_name_H-M "P 21"
_symmetry_group_IT_number 4
_symmetry_cell_setting 'monoclinic'
loop_
_space_group_symop_operation_xyz
x,y,z
-x,1/2+y,-z
loop_
_atom_site_type_symbol
_atom_site_label
_atom_site_fract_x
_atom_site_fract_y
_atom_site_fract_z
Si Si1 0.071843 0.498240 0.160148
Si Si2 0.736049 0.492565 0.216402
Si Si3 0.773182 0.430407 0.803776
Si Si4 0.843095 0.244058 0.203895
Si Si5 0.419272 0.823198 0.096596
Si Si6 0.065322 0.211182 0.046046
Si Si7 0.463604 0.537700 0.890832
Si Si8 0.167918 0.618003 0.302603
O O1 0.121208 0.343418 0.036467
O O2 0.116939 0.529460 0.251958
O O3 0.899321 0.501565 0.472108
O O4 0.148933 0.595138 0.892788
O O5 0.820289 0.354252 0.108810
O O6 0.569419 0.489890 0.559631
O O7 0.747408 0.517962 0.009257
O O8 0.798482 0.612830 0.213800
O O9 0.636447 0.421026 0.942213
O O10 0.806609 0.274783 0.796767
O O11 0.715588 0.260045 0.561881
O O12 0.994968 0.262023 0.012481
O O13 0.525713 0.919183 0.997445
O O14 0.505398 0.690027 0.878055
O O15 0.950761 0.117003 0.346672
O O16 0.305749 0.540844 0.114795
#
# Coordination Sequence:
#
# PCOD8046080 Si02
#       8
#     2   2   2   2   2   2   2   2
#     4  11  21  37  65  95 118 168 207 247 316 365
#     4  11  23  40  62  94 125 163 208 255 309 370
#     4  10  20  42  64  88 126 166 200 258 311 360
#     4  11  21  38  66  88 123 166 200 251 322 360
#     4  10  22  45  64  88 127 166 206 259 309 370
#     4  11  22  39  62  95 127 155 212 262 301 362
#     4  10  23  44  63  89 125 169 205 250 316 369
#     4  10  20  43  64  83 131 167 200 254 310 368
#
# _framework density 20.453368000000001
#
# number of rings (size 3 to 8) (size 9 to 14) (size 15 to 20)
#    0.000    1.500    6.250    0.750    1.750    1.000 
#   11.250    0.000    0.000    0.000    0.000    0.000 
#    0.000    0.000    0.000    0.000    0.000    0.000 
#
# Total GULP energy -198327.165251 kJ/mol
# GULP energy per Si atom -12395.447828 kJ/mol
# Density = 2.040681 g / cm^3
# Si number density = 20.453368 Si / 1000 Ang^3
#
#
#
# Elastic Constant Matrix: (Units=GPa)
#
#
# Indices 1 2 3 4 5 6 
#
# 1 83.8826 38.3828 29.2988 0.0000 -0.6026 0.0000
# 2 38.3828 85.5497 29.2016 0.0000 -12.6227 0.0000
# 3 29.2988 29.2016 43.9985 0.0000 0.3900 0.0000
# 4 0.0000 0.0000 0.0000 29.1062 0.0000 -5.7186
# 5 -0.6026 -12.6227 0.3900 0.0000 24.3495 0.0000
# 6 0.0000 0.0000 0.0000 -5.7186 0.0000 37.8611
#
#
#
# Elastic Compliance Matrix: (Units=1/GPa)
#
#
# Indices 1 2 3 4 5 6 
#
# 1 0.017069 -0.005315 -0.007819 0.000000 -0.002207 0.000000
# 2 -0.005315 0.018503 -0.008827 0.000000 0.009602 0.000000
# 3 -0.007819 -0.008827 0.033840 0.000000 -0.005311 0.000000
# 4 0.000000 0.000000 0.000000 0.035408 0.000000 0.005348
# 5 -0.002207 0.009602 -0.005311 0.000000 0.046077 0.000000
# 6 0.000000 0.000000 0.000000 0.005348 0.000000 0.027220
#
#
# Mechanical properties :
#
#
# Convention : Reuss Voigt Hill
#
# Bulk Modulus (GPa) = 39.22938 45.24414 42.23676
# Shear Modulus (GPa) = 21.68879 26.03320 23.86100
#
# Velocity S-wave (km/s) = 3.25991 3.57151 3.41927
# Velocity P-wave (km/s) = 5.77849 6.25909 6.02359
#
# Compressibility (1/GPa) = 0.02549110
#
# Stress axis : x y z
#
# Youngs Moduli (GPa) = 58.58727 54.04467 29.55083
#
# Poissons Ratio (x) = 0.28723 0.23106
# Poissons Ratio (y) = 0.31138 0.26083
# Poissons Ratio (z) = 0.45810 0.47703
#
# Static dielectric constant tensor:
#      x y z
#    x 3.727760 0.000000 0.040490 
#    y 0.000000 3.669450 0.000000 
#    z 0.040490 0.000000 3.533810 
# 
# 
# High freq. dielectric constant tensor:
#      x y z
#    x 1.805090 0.000000 0.003990 
#    y 0.000000 1.795380 0.000000 
#    z 0.003990 0.000000 1.784260 
# 
# From -- ./inp_files/5740.got.cif
#   From: 2010.03.12/outbox.cif.g09.slc.cpg/sg4_3_cif.got.tgz:5740.got - 2010.03.31 09:31:35.
