data_PCOD8046110
_publ_section_title
;
Structure prediction by ZEFSAII (Michael W. Deem and Ramdas Pophale) SiO2 
 PCOD8046110
Probable space group: P 21
;
_chemical_formula_sum "Si O2"
_cell_formula_units_Z 14
_cell_length_a 7.412092
_cell_length_b 5.625731
_cell_length_c 13.761811
_cell_angle_alpha 90.000000
_cell_angle_beta 106.022610
_cell_angle_gamma 90.000000
_cell_volume 551.553710
_symmetry_space_group_name_H-M "P 21"
_symmetry_group_IT_number 4
_symmetry_cell_setting 'monoclinic'
loop_
_space_group_symop_operation_xyz
x,y,z
-x,1/2+y,-z
loop_
_atom_site_type_symbol
_atom_site_label
_atom_site_fract_x
_atom_site_fract_y
_atom_site_fract_z
Si Si1 0.015753 0.383370 0.118754
Si Si2 0.359467 0.064676 0.188019
Si Si3 0.186784 0.691493 0.294675
Si Si4 0.778129 0.990311 0.023942
Si Si5 0.576836 0.681868 0.126505
Si Si6 0.093419 0.863453 0.487924
Si Si7 0.560640 0.437119 0.325852
O O1 0.223290 0.265946 0.127899
O O2 0.031349 0.513415 0.225582
O O3 0.829929 0.218131 0.101162
O O4 0.037148 0.526630 0.019818
O O5 0.507451 0.169752 0.287674
O O6 0.219078 0.878277 0.214919
O O7 0.476285 0.939602 0.119937
O O8 0.110256 0.828413 0.375916
O O9 0.380067 0.558471 0.349051
O O10 0.764375 0.743828 0.088273
O O11 0.570666 0.006788 0.946212
O O12 0.631117 0.584252 0.241212
O O13 0.027620 0.606154 0.519466
O O14 0.286044 0.929661 0.568279
#
# Coordination Sequence:
#
# PCOD8046110 Si02
#       7
#     2   2   2   2   2   2   2
#     4  11  24  45  69 112 148 209 255 322 384 474
#     4  10  20  46  73 106 146 200 261 318 392 466
#     4  10  25  49  80 107 153 205 263 321 403 482
#     4  12  24  44  71 104 162 198 263 312 392 472
#     4  11  24  45  69 112 148 209 255 322 384 474
#     4  12  32  52  78 126 162 198 268 342 418 470
#     4  10  25  49  80 107 153 205 263 321 403 482
#
# _framework density 25.382840000000002
#
# number of rings (size 3 to 8) (size 9 to 14) (size 15 to 20)
#    0.000    1.143    4.286    1.714   10.000    2.286 
#    0.000    0.000    0.000    0.000    0.000    0.000 
#    0.000    0.000    0.000    0.000    0.000    0.000 
#
# Total GULP energy -173473.951490 kJ/mol
# GULP energy per Si atom -12390.996535 kJ/mol
# Density = 2.532507 g / cm^3
# Si number density = 25.382840 Si / 1000 Ang^3
#
#
#
# Elastic Constant Matrix: (Units=GPa)
#
#
# Indices 1 2 3 4 5 6 
#
# 1 69.3256 8.0462 19.0593 0.0000 -7.4868 0.0000
# 2 8.0462 83.6446 13.1795 0.0000 0.3764 0.0000
# 3 19.0593 13.1795 86.3888 0.0000 4.9752 0.0000
# 4 0.0000 0.0000 0.0000 41.7026 0.0000 4.0634
# 5 -7.4868 0.3764 4.9752 0.0000 36.3821 0.0000
# 6 0.0000 0.0000 0.0000 4.0634 0.0000 49.5136
#
#
#
# Elastic Compliance Matrix: (Units=1/GPa)
#
#
# Indices 1 2 3 4 5 6 
#
# 1 0.015932 -0.000985 -0.003582 0.000000 0.003779 0.000000
# 2 -0.000985 0.012311 -0.001655 0.000000 -0.000104 0.000000
# 3 -0.003582 -0.001655 0.012760 0.000000 -0.002465 0.000000
# 4 0.000000 0.000000 0.000000 0.024173 0.000000 -0.001984
# 5 0.003779 -0.000104 -0.002465 0.000000 0.028602 0.000000
# 6 0.000000 0.000000 0.000000 -0.001984 0.000000 0.020359
#
#
# Mechanical properties :
#
#
# Convention : Reuss Voigt Hill
#
# Bulk Modulus (GPa) = 35.01523 35.54768 35.28146
# Shear Modulus (GPa) = 36.73727 38.79127 37.76427
#
# Velocity S-wave (km/s) = 3.80850 3.91352 3.86137
# Velocity P-wave (km/s) = 5.75885 5.86991 5.81465
#
# Compressibility (1/GPa) = 0.02855900
#
# Stress axis : x y z
#
# Youngs Moduli (GPa) = 62.76695 81.22595 78.36780
#
# Poissons Ratio (x) = 0.08002 0.28073
# Poissons Ratio (y) = 0.06183 0.12969
# Poissons Ratio (z) = 0.22485 0.13442
#
# Static dielectric constant tensor:
#      x y z
#    x 4.476650 0.000000 -0.029350 
#    y 0.000000 5.021430 0.000000 
#    z -0.029350 0.000000 4.332610 
# 
# 
# High freq. dielectric constant tensor:
#      x y z
#    x 2.012200 0.000000 0.003970 
#    y 0.000000 2.033660 0.000000 
#    z 0.003970 0.000000 2.007360 
# 
# From -- ./inp_files/10678.got.cif
#   From: 2010.03.12/outbox.cif.g09.slc.cpg/sg4_6_cif.got.tgz:10678.got - 2010.03.31 09:31:35.
