data_PCOD8046228
_publ_section_title
;
Structure prediction by ZEFSAII (Michael W. Deem and Ramdas Pophale) SiO2 
 PCOD8046228
Probable space group: P 21
;
_chemical_formula_sum "Si O2"
_cell_formula_units_Z 14
_cell_length_a 10.931831
_cell_length_b 12.671449
_cell_length_c 4.939905
_cell_angle_alpha 90.000000
_cell_angle_beta 70.901419
_cell_angle_gamma 90.000000
_cell_volume 646.621052
_symmetry_space_group_name_H-M "P 21"
_symmetry_group_IT_number 4
_symmetry_cell_setting 'monoclinic'
loop_
_space_group_symop_operation_xyz
x,y,z
-x,1/2+y,-z
loop_
_atom_site_type_symbol
_atom_site_label
_atom_site_fract_x
_atom_site_fract_y
_atom_site_fract_z
Si Si1 0.457827 0.223580 0.951379
Si Si2 0.163589 0.805923 0.525056
Si Si3 0.559274 0.114701 0.380744
Si Si4 0.239035 0.075879 0.059782
Si Si5 0.836383 0.161700 0.992924
Si Si6 0.925177 0.527241 0.340859
Si Si7 0.412104 0.925079 0.281081
O O1 0.560103 0.160422 0.684318
O O2 0.475188 0.349017 0.915160
O O3 0.482178 0.195453 0.245164
O O4 0.312949 0.187717 0.970556
O O5 0.178945 0.749740 0.225772
O O6 0.304010 0.853440 0.509796
O O7 0.062255 0.903550 0.587331
O O8 0.112042 0.723061 0.781276
O O9 0.482876 0.003685 0.438036
O O10 0.704117 0.101799 0.162821
O O11 0.124478 0.091080 0.360825
O O12 0.341866 0.988032 0.088339
O O13 0.181722 0.040238 0.815641
O O14 0.935925 0.070346 0.842898
#
# Coordination Sequence:
#
# PCOD8046228 Si02
#       7
#     2   2   2   2   2   2   2
#     4  11  21  38  64  91 128 157 205 258 319 372
#     4  11  22  41  68  90 121 176 210 246 328 379
#     4  11  23  38  61 101 122 159 207 264 307 373
#     4  10  22  40  64  95 121 168 214 258 309 376
#     4  12  23  43  65  94 129 164 215 258 309 378
#     4  11  24  43  65  91 127 168 217 258 298 380
#     4  10  21  39  67  90 126 162 206 260 318 380
#
# _framework density 21.651012000000001
#
# number of rings (size 3 to 8) (size 9 to 14) (size 15 to 20)
#    0.000    1.143    2.857    5.143    0.000    3.429 
#    5.143    0.000    0.000    0.000    0.000    0.000 
#    0.000    0.000    0.000    0.000    0.000    0.000 
#
# Total GULP energy -173597.977296 kJ/mol
# GULP energy per Si atom -12399.855521 kJ/mol
# Density = 2.160173 g / cm^3
# Si number density = 21.651012 Si / 1000 Ang^3
#
#
#
# Elastic Constant Matrix: (Units=GPa)
#
#
# Indices 1 2 3 4 5 6 
#
# 1 53.9766 16.1706 5.4554 0.0000 -10.3666 0.0000
# 2 16.1706 68.8486 9.9061 0.0000 -12.3261 0.0000
# 3 5.4554 9.9061 87.9555 0.0000 -4.4837 0.0000
# 4 0.0000 0.0000 0.0000 33.6251 0.0000 -10.1250
# 5 -10.3666 -12.3261 -4.4837 0.0000 34.6768 0.0000
# 6 0.0000 0.0000 0.0000 -10.1250 0.0000 30.7944
#
#
#
# Elastic Compliance Matrix: (Units=1/GPa)
#
#
# Indices 1 2 3 4 5 6 
#
# 1 0.020667 -0.003925 -0.000600 0.000000 0.004705 0.000000
# 2 -0.003925 0.016450 -0.001380 0.000000 0.004495 0.000000
# 3 -0.000600 -0.001380 0.011604 0.000000 0.000831 0.000000
# 4 0.000000 0.000000 0.000000 0.033008 0.000000 0.010853
# 5 0.004705 0.004495 0.000831 0.000000 0.031950 0.000000
# 6 0.000000 0.000000 0.000000 0.010853 0.000000 0.036042
#
#
# Mechanical properties :
#
#
# Convention : Reuss Voigt Hill
#
# Bulk Modulus (GPa) = 27.09247 30.42721 28.75984
# Shear Modulus (GPa) = 28.76303 31.76917 30.26610
#
# Velocity S-wave (km/s) = 3.64879 3.83473 3.74292
# Velocity P-wave (km/s) = 5.50382 5.80438 5.65610
#
# Compressibility (1/GPa) = 0.03691062
#
# Stress axis : x y z
#
# Youngs Moduli (GPa) = 48.38668 60.79044 86.17447
#
# Poissons Ratio (x) = 0.23862 0.05170
# Poissons Ratio (y) = 0.18993 0.11893
# Poissons Ratio (z) = 0.02903 0.08389
#
# Static dielectric constant tensor:
#      x y z
#    x 3.702390 0.000000 -0.041170 
#    y 0.000000 4.043890 0.000000 
#    z -0.041170 0.000000 3.972730 
# 
# 
# High freq. dielectric constant tensor:
#      x y z
#    x 1.827480 0.000000 0.003440 
#    y 0.000000 1.844300 0.000000 
#    z 0.003440 0.000000 1.864010 
# 
# From -- ./inp_files/2749.got.cif
#   From: 2010.03.12/outbox.cif.g09.slc.cpg/sg4_2_cif.got.tgz:2749.got - 2010.03.31 09:31:35.
