data_PCOD8046949
_publ_section_title
;
Structure prediction by ZEFSAII (Michael W. Deem and Ramdas Pophale) SiO2 
 PCOD8046949
Probable space group: P 21
;
_chemical_formula_sum "Si O2"
_cell_formula_units_Z 16
_cell_length_a 9.785708
_cell_length_b 8.147535
_cell_length_c 11.432045
_cell_angle_alpha 90.000000
_cell_angle_beta 129.737203
_cell_angle_gamma 90.000000
_cell_volume 700.906476
_symmetry_space_group_name_H-M "P 21"
_symmetry_group_IT_number 4
_symmetry_cell_setting 'monoclinic'
loop_
_space_group_symop_operation_xyz
x,y,z
-x,1/2+y,-z
loop_
_atom_site_type_symbol
_atom_site_label
_atom_site_fract_x
_atom_site_fract_y
_atom_site_fract_z
Si Si1 0.233092 0.127040 0.376310
Si Si2 0.208750 0.930248 0.889705
Si Si3 0.411821 0.614771 0.302443
Si Si4 0.154073 0.557294 0.800350
Si Si5 0.827964 0.998675 0.636607
Si Si6 0.325780 0.966317 0.200883
Si Si7 0.523853 0.942902 0.893896
Si Si8 0.339930 0.627588 0.677019
O O1 0.403581 0.058394 0.537236
O O2 0.203819 0.308058 0.411866
O O3 0.054769 0.016275 0.298071
O O4 0.273851 0.115233 0.259594
O O5 0.201516 0.734381 0.878766
O O6 0.380790 0.999766 0.913751
O O7 0.039129 0.025283 0.744964
O O8 0.193341 0.967543 0.019284
O O9 0.254985 0.514051 0.279384
O O10 0.344271 0.800124 0.285223
O O11 0.433147 0.583895 0.176333
O O12 0.185269 0.568978 0.678570
O O13 0.285365 0.421708 0.933741
O O14 0.742006 0.130937 0.499341
O O15 0.516547 0.985428 0.245567
O O16 0.445119 0.789924 0.778038
#
# Coordination Sequence:
#
# PCOD8046949 Si02
#       8
#     2   2   2   2   2   2   2   2
#     4  11  24  43  68  98 139 178 230 285 341 413
#     4  10  24  45  68 101 136 181 232 283 350 412
#     4  12  24  42  66 100 138 182 228 285 344 408
#     4  10  23  45  68 101 136 179 233 287 345 409
#     4  11  25  45  66  99 137 186 231 283 343 416
#     4  12  23  43  68  97 138 182 230 284 348 406
#     4  11  24  43  70  98 136 176 231 288 347 414
#     4  11  23  44  70  94 136 184 225 285 352 408
#
# _framework density 22.827583000000001
#
# number of rings (size 3 to 8) (size 9 to 14) (size 15 to 20)
#    0.000    1.000    5.000    0.750    5.250    0.000 
#    2.250    0.000    0.000    0.000    0.000    0.000 
#    0.000    0.000    0.000    0.000    0.000    0.000 
#
# Total GULP energy -198246.483399 kJ/mol
# GULP energy per Si atom -12390.405212 kJ/mol
# Density = 2.277563 g / cm^3
# Si number density = 22.827583 Si / 1000 Ang^3
#
#
#
# Elastic Constant Matrix: (Units=GPa)
#
#
# Indices 1 2 3 4 5 6 
#
# 1 135.6862 19.3991 54.1766 0.0000 5.7958 0.0000
# 2 19.3991 42.4016 35.7896 0.0000 2.6089 0.0000
# 3 54.1766 35.7896 111.2419 0.0000 0.7208 0.0000
# 4 0.0000 0.0000 0.0000 34.6355 0.0000 -2.2637
# 5 5.7958 2.6089 0.7208 0.0000 45.1218 0.0000
# 6 0.0000 0.0000 0.0000 -2.2637 0.0000 30.2789
#
#
#
# Elastic Compliance Matrix: (Units=1/GPa)
#
#
# Indices 1 2 3 4 5 6 
#
# 1 0.009212 -0.000504 -0.004317 0.000000 -0.001085 0.000000
# 2 -0.000504 0.032535 -0.010211 0.000000 -0.001653 0.000000
# 3 -0.004317 -0.010211 0.014371 0.000000 0.000915 0.000000
# 4 0.000000 0.000000 0.000000 0.029014 0.000000 0.002169
# 5 -0.001085 -0.001653 0.000915 0.000000 0.022383 0.000000
# 6 0.000000 0.000000 0.000000 0.002169 0.000000 0.033189
#
#
# Mechanical properties :
#
#
# Convention : Reuss Voigt Hill
#
# Bulk Modulus (GPa) = 38.38222 56.45116 47.41669
# Shear Modulus (GPa) = 27.86236 34.00486 30.93361
#
# Velocity S-wave (km/s) = 3.49744 3.86377 3.68516
# Velocity P-wave (km/s) = 5.75846 6.68491 6.23891
#
# Compressibility (1/GPa) = 0.02605373
#
# Stress axis : x y z
#
# Youngs Moduli (GPa) = 108.55219 30.73586 69.58257
#
# Poissons Ratio (x) = 0.01548 0.30041
# Poissons Ratio (y) = 0.05468 0.71054
# Poissons Ratio (z) = 0.46866 0.31386
#
# Static dielectric constant tensor:
#      x y z
#    x 4.253020 0.000000 0.063710 
#    y 0.000000 3.763060 0.000000 
#    z 0.063710 0.000000 4.381190 
# 
# 
# High freq. dielectric constant tensor:
#      x y z
#    x 1.914340 0.000000 -0.000740 
#    y 0.000000 1.873610 0.000000 
#    z -0.000740 0.000000 1.907270 
# 
# From -- ./inp_files/9669.got.cif
#   From: 2010.03.12/outbox.cif.g09.slc.cpg/sg4_5_cif.got.tgz:9669.got - 2010.03.31 09:31:35.
