data_PCOD8046659
_publ_section_title
;
Structure prediction by ZEFSAII (Michael W. Deem and Ramdas Pophale) SiO2 
 PCOD8046659
Probable space group: P 21
;
_chemical_formula_sum "Si O2"
_cell_formula_units_Z 14
_cell_length_a 5.583226
_cell_length_b 9.622015
_cell_length_c 12.788227
_cell_angle_alpha 90.000000
_cell_angle_beta 62.703226
_cell_angle_gamma 90.000000
_cell_volume 610.504578
_symmetry_space_group_name_H-M "P 21"
_symmetry_group_IT_number 4
_symmetry_cell_setting 'monoclinic'
loop_
_space_group_symop_operation_xyz
x,y,z
-x,1/2+y,-z
loop_
_atom_site_type_symbol
_atom_site_label
_atom_site_fract_x
_atom_site_fract_y
_atom_site_fract_z
Si Si1 0.958312 0.972400 0.567315
Si Si2 0.475286 0.570984 0.490194
Si Si3 0.504650 0.129962 0.741017
Si Si4 0.067046 0.741250 0.688219
Si Si5 0.573968 0.640733 0.888799
Si Si6 0.656054 0.839101 0.064332
Si Si7 0.783848 0.365331 0.135750
O O1 0.917711 0.817468 0.621251
O O2 0.282430 0.995684 0.494898
O O3 0.788072 0.975577 0.491692
O O4 0.823196 0.090164 0.670337
O O5 0.602450 0.635340 0.357909
O O6 0.354524 0.682681 0.594342
O O7 0.443008 0.279646 0.804166
O O8 0.369023 0.011712 0.841975
O O9 0.114940 0.860464 0.764980
O O10 0.871072 0.626192 0.778358
O O11 0.478283 0.486455 0.931587
O O12 0.390537 0.726242 0.844816
O O13 0.566760 0.728359 0.996265
O O14 0.976840 0.863263 0.997429
#
# Coordination Sequence:
#
# PCOD8046659 Si02
#       7
#     2   2   2   2   2   2   2
#     4  10  22  43  68  98 136 186 223 289 345 412
#     4  10  24  40  70 100 135 181 231 283 349 415
#     4  10  22  43  68  99 136 187 227 289 351 415
#     4  11  23  43  67  99 134 183 233 286 355 415
#     4  11  24  42  67  98 138 180 232 294 347 423
#     4  11  25  41  67 102 136 180 238 287 349 421
#     4  11  22  42  71  94 137 185 230 292 356 411
#
# _framework density 22.931849
#
# number of rings (size 3 to 8) (size 9 to 14) (size 15 to 20)
#    0.857    0.571    2.857    1.714    4.000    3.429 
#    2.571    0.000    0.000    0.000    0.000    0.000 
#    0.000    0.000    0.000    0.000    0.000    0.000 
#
# Total GULP energy -173452.304776 kJ/mol
# GULP energy per Si atom -12389.450341 kJ/mol
# Density = 2.287965 g / cm^3
# Si number density = 22.931849 Si / 1000 Ang^3
#
#
#
# Elastic Constant Matrix: (Units=GPa)
#
#
# Indices 1 2 3 4 5 6 
#
# 1 105.5950 15.0185 16.2668 0.0000 -23.0702 0.0000
# 2 15.0185 98.3659 32.6607 0.0000 -18.4263 0.0000
# 3 16.2668 32.6607 82.9429 0.0000 -24.6483 0.0000
# 4 0.0000 0.0000 0.0000 23.5773 0.0000 -12.3360
# 5 -23.0702 -18.4263 -24.6483 0.0000 27.9027 0.0000
# 6 0.0000 0.0000 0.0000 -12.3360 0.0000 28.7876
#
#
#
# Elastic Compliance Matrix: (Units=1/GPa)
#
#
# Indices 1 2 3 4 5 6 
#
# 1 0.011596 -0.000125 0.000813 0.000000 0.010223 0.000000
# 2 -0.000125 0.012225 -0.003283 0.000000 0.005069 0.000000
# 3 0.000813 -0.003283 0.017282 0.000000 0.013771 0.000000
# 4 0.000000 0.000000 0.000000 0.054671 0.000000 0.023428
# 5 0.010223 0.005069 0.013771 0.000000 0.059804 0.000000
# 6 0.000000 0.000000 0.000000 0.023428 0.000000 0.044776
#
#
# Mechanical properties :
#
#
# Convention : Reuss Voigt Hill
#
# Bulk Modulus (GPa) = 27.84479 46.08842 36.96661
# Shear Modulus (GPa) = 22.98680 30.91738 26.95209
#
# Velocity S-wave (km/s) = 3.16950 3.67581 3.43200
# Velocity P-wave (km/s) = 5.05599 6.17714 5.64447
#
# Compressibility (1/GPa) = 0.03591336
#
# Stress axis : x y z
#
# Youngs Moduli (GPa) = 86.23434 81.80030 57.86378
#
# Poissons Ratio (x) = 0.01026 -0.04706
# Poissons Ratio (y) = 0.01082 0.18995
# Poissons Ratio (z) = -0.07013 0.26853
#
# Static dielectric constant tensor:
#      x y z
#    x 4.100150 0.000000 -0.155470 
#    y 0.000000 3.797390 0.000000 
#    z -0.155470 0.000000 4.058840 
# 
# 
# High freq. dielectric constant tensor:
#      x y z
#    x 1.900090 0.000000 -0.009870 
#    y 0.000000 1.882600 0.000000 
#    z -0.009870 0.000000 1.904850 
# 
# From -- ./inp_files/10287.got.cif
#   From: 2010.03.12/outbox.cif.g09.slc.cpg/sg4_6_cif.got.tgz:10287.got - 2010.03.31 09:31:35.
