data_PCOD8046558
_publ_section_title
;
Structure prediction by ZEFSAII (Michael W. Deem and Ramdas Pophale) SiO2 
 PCOD8046558
Probable space group: P 21
;
_chemical_formula_sum "Si O2"
_cell_formula_units_Z 14
_cell_length_a 6.955104
_cell_length_b 12.601030
_cell_length_c 8.142882
_cell_angle_alpha 90.000000
_cell_angle_beta 83.957287
_cell_angle_gamma 90.000000
_cell_volume 709.688902
_symmetry_space_group_name_H-M "P 21"
_symmetry_group_IT_number 4
_symmetry_cell_setting 'monoclinic'
loop_
_space_group_symop_operation_xyz
x,y,z
-x,1/2+y,-z
loop_
_atom_site_type_symbol
_atom_site_label
_atom_site_fract_x
_atom_site_fract_y
_atom_site_fract_z
Si Si1 0.377166 0.594400 0.744246
Si Si2 0.813285 0.277597 0.030861
Si Si3 0.062773 0.484988 0.565616
Si Si4 0.430352 0.387775 0.942066
Si Si5 0.114145 0.370127 0.233748
Si Si6 0.225962 0.164751 0.417463
Si Si7 0.129578 0.276248 0.749247
O O1 0.254624 0.676617 0.861142
O O2 0.251134 0.548191 0.607354
O O3 0.457053 0.501785 0.854521
O O4 0.548673 0.657627 0.641600
O O5 0.927313 0.363409 0.132609
O O6 0.638186 0.339843 0.963186
O O7 0.961734 0.231002 0.881853
O O8 0.083051 0.461063 0.371056
O O9 0.037203 0.378550 0.670941
O O10 0.872263 0.553318 0.616539
O O11 0.321430 0.305731 0.832660
O O12 0.306707 0.402185 0.118573
O O13 0.135081 0.255671 0.314373
O O14 0.192105 0.188441 0.612351
#
# Coordination Sequence:
#
# PCOD8046558 Si02
#       7
#     2   2   2   2   2   2   2
#     4  11  23  39  66  89 123 163 204 254 308 362
#     4  11  21  42  64  88 121 170 196 250 317 359
#     4  10  22  41  62  89 123 162 206 254 306 363
#     4  10  22  42  61  92 126 158 209 255 297 372
#     4  10  22  41  64  91 124 157 206 259 301 362
#     4  11  21  41  62  93 121 160 205 253 305 371
#     4   9  23  40  61  88 126 158 204 255 304 363
#
# _framework density 19.726952000000001
#
# number of rings (size 3 to 8) (size 9 to 14) (size 15 to 20)
#    0.000    1.714    2.857    0.857    2.000    2.286 
#    5.143    0.000    0.000    0.000    0.000    0.000 
#    0.000    0.000    0.000    0.000    0.000    0.000 
#
# Total GULP energy -173654.914689 kJ/mol
# GULP energy per Si atom -12403.922478 kJ/mol
# Density = 1.968205 g / cm^3
# Si number density = 19.726952 Si / 1000 Ang^3
#
#
#
# Elastic Constant Matrix: (Units=GPa)
#
#
# Indices 1 2 3 4 5 6 
#
# 1 114.6205 37.3440 61.1713 0.0000 -7.8602 0.0000
# 2 37.3440 70.6742 37.9519 0.0000 -8.2705 0.0000
# 3 61.1713 37.9519 131.2755 0.0000 -10.1035 0.0000
# 4 0.0000 0.0000 0.0000 29.9045 0.0000 -2.4727
# 5 -7.8602 -8.2705 -10.1035 0.0000 31.6438 0.0000
# 6 0.0000 0.0000 0.0000 -2.4727 0.0000 31.1701
#
#
#
# Elastic Compliance Matrix: (Units=1/GPa)
#
#
# Indices 1 2 3 4 5 6 
#
# 1 0.012566 -0.004086 -0.004630 0.000000 0.000575 0.000000
# 2 -0.004086 0.018343 -0.003186 0.000000 0.002762 0.000000
# 3 -0.004630 -0.003186 0.010809 0.000000 0.001468 0.000000
# 4 0.000000 0.000000 0.000000 0.033661 0.000000 0.002670
# 5 0.000575 0.002762 0.001468 0.000000 0.032935 0.000000
# 6 0.000000 0.000000 0.000000 0.002670 0.000000 0.032294
#
#
# Mechanical properties :
#
#
# Convention : Reuss Voigt Hill
#
# Bulk Modulus (GPa) = 55.82489 65.50052 60.66270
# Shear Modulus (GPa) = 29.34548 30.55053 29.94801
#
# Velocity S-wave (km/s) = 3.86110 3.93958 3.90054
# Velocity P-wave (km/s) = 6.94534 7.34639 7.14868
#
# Compressibility (1/GPa) = 0.01791316
#
# Stress axis : x y z
#
# Youngs Moduli (GPa) = 79.57894 54.51720 92.51416
#
# Poissons Ratio (x) = 0.22278 0.42833
# Poissons Ratio (y) = 0.32519 0.29477
# Poissons Ratio (z) = 0.36844 0.17370
#
# Static dielectric constant tensor:
#      x y z
#    x 3.516960 0.000000 0.072880 
#    y 0.000000 3.510930 0.000000 
#    z 0.072880 0.000000 3.793700 
# 
# 
# High freq. dielectric constant tensor:
#      x y z
#    x 1.773310 0.000000 0.000510 
#    y 0.000000 1.763460 0.000000 
#    z 0.000510 0.000000 1.782480 
# 
# From -- ./inp_files/1110.got.cif
#   From: 2010.03.12/outbox.cif.g09.slc.cpg/sg4_1_cif.got.tgz:1110.got - 2010.03.31 09:31:35.
