data_PCOD8046059
_publ_section_title
;
Structure prediction by ZEFSAII (Michael W. Deem and Ramdas Pophale) SiO2 
 PCOD8046059
Probable space group: P 21
;
_chemical_formula_sum "Si O2"
_cell_formula_units_Z 10
_cell_length_a 9.247087
_cell_length_b 12.664048
_cell_length_c 5.190010
_cell_angle_alpha 90.000000
_cell_angle_beta 124.044930
_cell_angle_gamma 90.000000
_cell_volume 503.604953
_symmetry_space_group_name_H-M "P 21"
_symmetry_group_IT_number 4
_symmetry_cell_setting 'monoclinic'
loop_
_space_group_symop_operation_xyz
x,y,z
-x,1/2+y,-z
loop_
_atom_site_type_symbol
_atom_site_label
_atom_site_fract_x
_atom_site_fract_y
_atom_site_fract_z
Si Si1 0.345866 0.428910 0.696433
Si Si2 0.567959 0.800154 0.713657
Si Si3 0.207811 0.879104 0.286455
Si Si4 0.340414 0.063658 0.133289
Si Si5 0.954157 0.440729 0.367587
O O1 0.344432 0.368245 0.423700
O O2 0.482937 0.525141 0.833200
O O3 0.154173 0.477347 0.551707
O O4 0.394565 0.347824 0.969417
O O5 0.358089 0.790812 0.466134
O O6 0.649790 0.684437 0.779070
O O7 0.078413 0.879037 0.399183
O O8 0.309865 0.992209 0.359565
O O9 0.094083 0.859443 0.914040
O O10 0.172465 0.043393 0.778622
#
# Coordination Sequence:
#
# PCOD8046059 Si02
#       5
#     2   2   2   2   2
#     4  11  23  40  62  88 119 159 194 246 295 348
#     4  11  21  39  65  85 119 163 194 238 301 350
#     4   9  19  39  59  82 120 155 185 255 280 337
#     4   9  23  39  62  85 125 151 204 235 298 345
#     4  10  20  41  58  82 123 152 189 252 286 334
#
# _framework density 19.856836000000001
#
# number of rings (size 3 to 8) (size 9 to 14) (size 15 to 20)
#    1.200    0.800    2.000    1.200    2.800    0.000 
#    7.200    0.000    0.000    0.000    0.000    0.000 
#    0.000    0.000    0.000    0.000    0.000    0.000 
#
# Total GULP energy -123923.156497 kJ/mol
# GULP energy per Si atom -12392.315650 kJ/mol
# Density = 1.981164 g / cm^3
# Si number density = 19.856836 Si / 1000 Ang^3
#
#
#
# Elastic Constant Matrix: (Units=GPa)
#
#
# Indices 1 2 3 4 5 6 
#
# 1 135.4413 5.7017 42.8195 0.0000 10.1950 0.0000
# 2 5.7017 48.6502 3.5003 0.0000 1.0686 0.0000
# 3 42.8195 3.5003 79.5865 0.0000 2.7910 0.0000
# 4 0.0000 0.0000 0.0000 13.4488 0.0000 -4.2193
# 5 10.1950 1.0686 2.7910 0.0000 55.1084 0.0000
# 6 0.0000 0.0000 0.0000 -4.2193 0.0000 13.3796
#
#
#
# Elastic Compliance Matrix: (Units=1/GPa)
#
#
# Indices 1 2 3 4 5 6 
#
# 1 0.009029 -0.000683 -0.004778 0.000000 -0.001415 0.000000
# 2 -0.000683 0.020679 -0.000533 0.000000 -0.000248 0.000000
# 3 -0.004778 -0.000533 0.015155 0.000000 0.000127 0.000000
# 4 0.000000 0.000000 0.000000 0.082520 0.000000 0.026023
# 5 -0.001415 -0.000248 0.000127 0.000000 0.018406 0.000000
# 6 0.000000 0.000000 0.000000 0.026023 0.000000 0.082947
#
#
# Mechanical properties :
#
#
# Convention : Reuss Voigt Hill
#
# Bulk Modulus (GPa) = 30.41983 40.85789 35.63886
# Shear Modulus (GPa) = 19.86627 30.49781 25.18204
#
# Velocity S-wave (km/s) = 3.16646 3.92329 3.56501
# Velocity P-wave (km/s) = 5.35924 6.41434 5.91038
#
# Compressibility (1/GPa) = 0.03287329
#
# Stress axis : x y z
#
# Youngs Moduli (GPa) = 110.75190 48.35871 65.98587
#
# Poissons Ratio (x) = 0.03304 0.31530
# Poissons Ratio (y) = 0.07568 0.03518
# Poissons Ratio (z) = 0.52920 0.02578
#
# Static dielectric constant tensor:
#      x y z
#    x 3.673920 0.000000 0.024290 
#    y 0.000000 3.046060 0.000000 
#    z 0.024290 0.000000 3.643000 
# 
# 
# High freq. dielectric constant tensor:
#      x y z
#    x 1.788930 0.000000 0.000120 
#    y 0.000000 1.720600 0.000000 
#    z 0.000120 0.000000 1.782740 
# 
# From -- ./inp_files/299.got.cif
#   From: 2010.03.12/outbox.cif.g09.slc.cpg/sg4_1_cif.got.tgz:299.got - 2010.03.31 09:31:35.
