data_PCOD8046948
_publ_section_title
;
Structure prediction by ZEFSAII (Michael W. Deem and Ramdas Pophale) SiO2 
 PCOD8046948
Probable space group: P 21
;
_chemical_formula_sum "Si O2"
_cell_formula_units_Z 16
_cell_length_a 9.906564
_cell_length_b 9.421927
_cell_length_c 7.679200
_cell_angle_alpha 90.000000
_cell_angle_beta 86.791735
_cell_angle_gamma 90.000000
_cell_volume 715.644866
_symmetry_space_group_name_H-M "P 21"
_symmetry_group_IT_number 4
_symmetry_cell_setting 'monoclinic'
loop_
_space_group_symop_operation_xyz
x,y,z
-x,1/2+y,-z
loop_
_atom_site_type_symbol
_atom_site_label
_atom_site_fract_x
_atom_site_fract_y
_atom_site_fract_z
Si Si1 0.403358 0.012970 0.610011
Si Si2 0.358049 0.533866 0.671372
Si Si3 0.591605 0.285473 0.105490
Si Si4 0.914483 0.609003 0.012292
Si Si5 0.101485 0.983122 0.610377
Si Si6 0.878823 0.183668 0.516050
Si Si7 0.866459 0.318295 0.894609
Si Si8 0.647709 0.756931 0.131970
O O1 0.503432 0.014333 0.441825
O O2 0.253425 0.019303 0.538384
O O3 0.426202 0.141158 0.742511
O O4 0.425500 0.867497 0.711975
O O5 0.389011 0.621926 0.844156
O O6 0.252919 0.608314 0.550262
O O7 0.302088 0.383405 0.744816
O O8 0.722117 0.340463 0.994193
O O9 0.460369 0.312541 0.998708
O O10 0.922130 0.524959 0.191124
O O11 0.774664 0.696341 0.015131
O O12 0.038753 0.719126 0.989489
O O13 0.924449 0.480707 0.869036
O O14 0.999087 0.070561 0.497763
O O15 0.073552 0.815324 0.604365
O O16 0.848082 0.244155 0.710205
#
# Coordination Sequence:
#
# PCOD8046948 Si02
#       8
#     2   2   2   2   2   2   2   2
#     4  11  23  47  66  98 137 180 226 285 342 401
#     4  12  26  43  71  99 139 176 232 282 343 414
#     4  12  24  46  69  97 137 181 226 290 338 407
#     4  10  24  46  66 101 137 180 227 283 337 406
#     4  10  23  45  66  98 137 176 228 280 338 403
#     4  11  25  42  72 103 133 185 225 283 348 402
#     4  11  24  44  72 100 138 176 232 283 346 404
#     4  11  25  43  70 100 136 178 230 280 344 407
#
# _framework density 22.357455999999999
#
# number of rings (size 3 to 8) (size 9 to 14) (size 15 to 20)
#    0.000    1.000    3.750    2.250    8.750    1.000 
#    2.250    0.000    0.000    0.000    0.000    0.000 
#    0.000    0.000    0.000    0.000    0.000    0.000 
#
# Total GULP energy -198446.417743 kJ/mol
# GULP energy per Si atom -12402.901109 kJ/mol
# Density = 2.230657 g / cm^3
# Si number density = 22.357456 Si / 1000 Ang^3
#
#
#
# Elastic Constant Matrix: (Units=GPa)
#
#
# Indices 1 2 3 4 5 6 
#
# 1 113.4479 52.6041 42.0641 0.0000 19.8895 0.0000
# 2 52.6041 122.7698 21.6668 0.0000 8.8356 0.0000
# 3 42.0641 21.6668 50.3052 0.0000 9.6028 0.0000
# 4 0.0000 0.0000 0.0000 45.0520 0.0000 4.4538
# 5 19.8895 8.8356 9.6028 0.0000 24.2545 0.0000
# 6 0.0000 0.0000 0.0000 4.4538 0.0000 30.9687
#
#
#
# Elastic Compliance Matrix: (Units=1/GPa)
#
#
# Indices 1 2 3 4 5 6 
#
# 1 0.015900 -0.004525 -0.009922 0.000000 -0.007462 0.000000
# 2 -0.004525 0.010180 -0.000651 0.000000 0.000259 0.000000
# 3 -0.009922 -0.000651 0.029053 0.000000 -0.003129 0.000000
# 4 0.000000 0.000000 0.000000 0.022517 0.000000 -0.003238
# 5 -0.007462 0.000259 -0.003129 0.000000 0.048493 0.000000
# 6 0.000000 0.000000 0.000000 -0.003238 0.000000 0.032756
#
#
# Mechanical properties :
#
#
# Convention : Reuss Voigt Hill
#
# Bulk Modulus (GPa) = 40.09926 57.68808 48.89367
# Shear Modulus (GPa) = 25.32863 31.40090 28.36476
#
# Velocity S-wave (km/s) = 3.36950 3.75172 3.56574
# Velocity P-wave (km/s) = 5.75435 6.68026 6.23452
#
# Compressibility (1/GPa) = 0.02493812
#
# Stress axis : x y z
#
# Youngs Moduli (GPa) = 62.89501 98.22998 34.42026
#
# Poissons Ratio (x) = 0.44445 0.34151
# Poissons Ratio (y) = 0.28457 0.02240
# Poissons Ratio (z) = 0.62402 0.06394
#
# Static dielectric constant tensor:
#      x y z
#    x 4.068760 0.000000 0.185750 
#    y 0.000000 4.411310 0.000000 
#    z 0.185750 0.000000 3.871710 
# 
# 
# High freq. dielectric constant tensor:
#      x y z
#    x 1.881620 0.000000 0.008230 
#    y 0.000000 1.901430 0.000000 
#    z 0.008230 0.000000 1.872990 
# 
# From -- ./inp_files/5661.got.cif
#   From: 2010.03.12/outbox.cif.g09.slc.cpg/sg4_3_cif.got.tgz:5661.got - 2010.03.31 09:31:35.
