data_PCOD8046649
_publ_section_title
;
Structure prediction by ZEFSAII (Michael W. Deem and Ramdas Pophale) SiO2 
 PCOD8046649
Probable space group: P 21
;
_chemical_formula_sum "Si O2"
_cell_formula_units_Z 16
_cell_length_a 11.315922
_cell_length_b 7.962230
_cell_length_c 10.980573
_cell_angle_alpha 90.000000
_cell_angle_beta 50.581501
_cell_angle_gamma 90.000000
_cell_volume 764.300658
_symmetry_space_group_name_H-M "P 21"
_symmetry_group_IT_number 4
_symmetry_cell_setting 'monoclinic'
loop_
_space_group_symop_operation_xyz
x,y,z
-x,1/2+y,-z
loop_
_atom_site_type_symbol
_atom_site_label
_atom_site_fract_x
_atom_site_fract_y
_atom_site_fract_z
Si Si1 0.237237 0.780050 0.018665
Si Si2 0.294160 0.419268 0.211246
Si Si3 0.091419 0.009370 0.928362
Si Si4 0.463716 0.520522 0.758754
Si Si5 0.258041 0.232692 0.482321
Si Si6 0.201755 0.365301 0.781374
Si Si7 0.995984 0.033520 0.737196
Si Si8 0.432386 0.785659 0.103584
O O1 0.352932 0.626283 0.918707
O O2 0.221093 0.903097 0.914577
O O3 0.071010 0.704730 0.157512
O O4 0.308075 0.870188 0.092134
O O5 0.253251 0.355129 0.371231
O O6 0.134583 0.427539 0.242903
O O7 0.380220 0.596716 0.168044
O O8 0.401519 0.286162 0.070875
O O9 0.152839 0.197939 0.885013
O O10 0.070719 0.935591 0.803932
O O11 0.928663 0.005154 0.105984
O O12 0.578597 0.642485 0.612239
O O13 0.365291 0.421921 0.724692
O O14 0.562205 0.392455 0.776571
O O15 0.225854 0.342451 0.622535
O O16 0.126231 0.089503 0.556347
#
# Coordination Sequence:
#
# PCOD8046649 Si02
#       8
#     2   2   2   2   2   2   2   2
#     4  11  21  40  69  97 132 165 225 275 318 394
#     4  11  22  43  71  97 135 175 216 278 332 391
#     4  11  20  42  69  97 127 174 223 272 321 392
#     4  12  24  43  65 102 134 173 223 276 323 396
#     4  11  25  44  63  99 144 168 211 282 339 386
#     4  11  24  42  70  97 135 175 222 275 333 389
#     4  10  22  43  66  96 135 165 221 273 322 395
#     4  11  22  41  69  99 128 173 229 263 322 395
#
# _framework density 20.934168
#
# number of rings (size 3 to 8) (size 9 to 14) (size 15 to 20)
#    0.000    1.000    7.500    0.000    1.750    5.000 
#    2.250    3.750    0.000    0.000    0.000    0.000 
#    0.000    0.000    0.000    0.000    0.000    0.000 
#
# Total GULP energy -198397.397352 kJ/mol
# GULP energy per Si atom -12399.837334 kJ/mol
# Density = 2.088652 g / cm^3
# Si number density = 20.934168 Si / 1000 Ang^3
#
#
#
# Elastic Constant Matrix: (Units=GPa)
#
#
# Indices 1 2 3 4 5 6 
#
# 1 135.6427 43.2648 45.9890 0.0000 3.7339 0.0000
# 2 43.2648 52.5711 39.3815 0.0000 2.1261 0.0000
# 3 45.9890 39.3815 120.7318 0.0000 9.9284 0.0000
# 4 0.0000 0.0000 0.0000 43.7538 0.0000 -3.5472
# 5 3.7339 2.1261 9.9284 0.0000 30.2631 0.0000
# 6 0.0000 0.0000 0.0000 -3.5472 0.0000 38.9544
#
#
#
# Elastic Compliance Matrix: (Units=1/GPa)
#
#
# Indices 1 2 3 4 5 6 
#
# 1 0.010204 -0.007267 -0.001495 0.000000 -0.000258 0.000000
# 2 -0.007267 0.030375 -0.007233 0.000000 0.001136 0.000000
# 3 -0.001495 -0.007233 0.011464 0.000000 -0.003068 0.000000
# 4 0.000000 0.000000 0.000000 0.023025 0.000000 0.002097
# 5 -0.000258 0.001136 -0.003068 0.000000 0.034002 0.000000
# 6 0.000000 0.000000 0.000000 0.002097 0.000000 0.025862
#
#
# Mechanical properties :
#
#
# Convention : Reuss Voigt Hill
#
# Bulk Modulus (GPa) = 49.87031 62.91291 56.39161
# Shear Modulus (GPa) = 28.80034 34.61496 31.70765
#
# Velocity S-wave (km/s) = 3.71314 4.07075 3.89605
# Velocity P-wave (km/s) = 6.50057 7.22584 6.87278
#
# Compressibility (1/GPa) = 0.02005201
#
# Stress axis : x y z
#
# Youngs Moduli (GPa) = 97.99686 32.92142 87.22854
#
# Poissons Ratio (x) = 0.23925 0.13043
# Poissons Ratio (y) = 0.71219 0.63094
# Poissons Ratio (z) = 0.14653 0.23813
#
# Static dielectric constant tensor:
#      x y z
#    x 4.076170 0.000000 -0.093190 
#    y 0.000000 3.570110 0.000000 
#    z -0.093190 0.000000 3.785730 
# 
# 
# High freq. dielectric constant tensor:
#      x y z
#    x 1.842350 0.000000 -0.002120 
#    y 0.000000 1.800180 0.000000 
#    z -0.002120 0.000000 1.813410 
# 
# From -- ./inp_files/11999.got.cif
#   From: 2010.03.12/outbox.cif.g09.slc.cpg/sg4_6_cif.got.tgz:11999.got - 2010.03.31 09:31:35.
