data_PCOD8046709
_publ_section_title
;
Structure prediction by ZEFSAII (Michael W. Deem and Ramdas Pophale) SiO2 
 PCOD8046709
Probable space group: P 21
;
_chemical_formula_sum "Si O2"
_cell_formula_units_Z 16
_cell_length_a 14.480585
_cell_length_b 5.379672
_cell_length_c 8.916477
_cell_angle_alpha 90.000000
_cell_angle_beta 68.076551
_cell_angle_gamma 90.000000
_cell_volume 644.369600
_symmetry_space_group_name_H-M "P 21"
_symmetry_group_IT_number 4
_symmetry_cell_setting 'monoclinic'
loop_
_space_group_symop_operation_xyz
x,y,z
-x,1/2+y,-z
loop_
_atom_site_type_symbol
_atom_site_label
_atom_site_fract_x
_atom_site_fract_y
_atom_site_fract_z
Si Si1 0.214966 0.980430 0.570125
Si Si2 0.354374 0.934184 0.989365
Si Si3 0.545491 0.088235 0.289616
Si Si4 0.003758 0.972649 0.585881
Si Si5 0.405043 0.681841 0.431465
Si Si6 0.272173 0.284936 0.815057
Si Si7 0.330813 0.274883 0.265348
Si Si8 0.194363 0.565757 0.125795
O O1 0.287966 0.742457 0.527462
O O2 0.101865 0.891160 0.617804
O O3 0.215893 0.130546 0.724179
O O4 0.244226 0.157053 0.416140
O O5 0.431527 0.725043 0.883539
O O6 0.354853 0.128767 0.854639
O O7 0.238342 0.839879 0.067733
O O8 0.384708 0.068016 0.126871
O O9 0.524224 0.224685 0.462654
O O10 0.453796 0.904992 0.301548
O O11 0.651875 0.988318 0.294937
O O12 0.916528 0.073067 0.745528
O O13 0.968817 0.716123 0.529421
O O14 0.410977 0.418940 0.329586
O O15 0.190696 0.402206 0.976741
O O16 0.277018 0.473632 0.193837
#
# Coordination Sequence:
#
# PCOD8046709 Si02
#       8
#     2   2   2   2   2   2   2   2
#     4  12  24  44  75 109 145 193 258 311 366 467
#     4  10  22  45  75  99 148 197 236 312 389 449
#     4  11  24  43  73 106 150 193 251 310 387 450
#     4  12  26  46  75 110 152 205 258 319 389 460
#     4  12  25  41  75 112 143 198 259 313 373 465
#     4  10  22  44  72 103 145 191 240 306 385 445
#     4  11  22  43  76 103 145 190 249 307 375 450
#     4  10  23  46  71 104 148 195 239 312 384 454
#
# _framework density 24.830472
#
# number of rings (size 3 to 8) (size 9 to 14) (size 15 to 20)
#    0.000    1.000    3.750    3.000    1.750    0.000 
#    2.250    0.000   46.750    0.000    0.000    0.000 
#    0.000    0.000    0.000    0.000    0.000    0.000 
#
# Total GULP energy -198230.099691 kJ/mol
# GULP energy per Si atom -12389.381231 kJ/mol
# Density = 2.477396 g / cm^3
# Si number density = 24.830472 Si / 1000 Ang^3
#
#
#
# Elastic Constant Matrix: (Units=GPa)
#
#
# Indices 1 2 3 4 5 6 
#
# 1 127.9286 21.1361 48.0856 0.0000 -1.1769 0.0000
# 2 21.1361 86.1260 31.5786 0.0000 8.5068 0.0000
# 3 48.0856 31.5786 127.6475 0.0000 12.6910 0.0000
# 4 0.0000 0.0000 0.0000 42.8568 0.0000 2.4254
# 5 -1.1769 8.5068 12.6910 0.0000 38.1076 0.0000
# 6 0.0000 0.0000 0.0000 2.4254 0.0000 32.5414
#
#
#
# Elastic Compliance Matrix: (Units=1/GPa)
#
#
# Indices 1 2 3 4 5 6 
#
# 1 0.009299 -0.001212 -0.003370 0.000000 0.001680 0.000000
# 2 -0.001212 0.013056 -0.002565 0.000000 -0.002098 0.000000
# 3 -0.003370 -0.002565 0.010023 0.000000 -0.002870 0.000000
# 4 0.000000 0.000000 0.000000 0.023432 0.000000 -0.001746
# 5 0.001680 -0.002098 -0.002870 0.000000 0.027717 0.000000
# 6 0.000000 0.000000 0.000000 -0.001746 0.000000 0.030860
#
#
# Mechanical properties :
#
#
# Convention : Reuss Voigt Hill
#
# Bulk Modulus (GPa) = 55.29664 60.36696 57.83180
# Shear Modulus (GPa) = 37.11636 38.76129 37.93883
#
# Velocity S-wave (km/s) = 3.87045 3.95528 3.91309
# Velocity P-wave (km/s) = 6.50322 6.72484 6.61496
#
# Compressibility (1/GPa) = 0.01808428
#
# Stress axis : x y z
#
# Youngs Moduli (GPa) = 107.53337 76.59327 99.76610
#
# Poissons Ratio (x) = 0.09286 0.33624
# Poissons Ratio (y) = 0.13037 0.25586
# Poissons Ratio (z) = 0.36242 0.19643
#
# Static dielectric constant tensor:
#      x y z
#    x 4.086640 0.000000 0.085940 
#    y 0.000000 4.709390 0.000000 
#    z 0.085940 0.000000 4.669510 
# 
# 
# High freq. dielectric constant tensor:
#      x y z
#    x 1.968470 0.000000 0.004920 
#    y 0.000000 2.002590 0.000000 
#    z 0.004920 0.000000 2.007920 
# 
# From -- ./inp_files/9029.got.cif
#   From: 2010.03.12/outbox.cif.g09.slc.cpg/sg4_5_cif.got.tgz:9029.got - 2010.03.31 09:31:35.
