data_PCOD8046201
_publ_section_title
;
Structure prediction by ZEFSAII (Michael W. Deem and Ramdas Pophale) SiO2 
 PCOD8046201
Probable space group: P 21
;
_chemical_formula_sum "Si O2"
_cell_formula_units_Z 16
_cell_length_a 9.266277
_cell_length_b 8.407414
_cell_length_c 12.443430
_cell_angle_alpha 90.000000
_cell_angle_beta 49.012221
_cell_angle_gamma 90.000000
_cell_volume 731.759201
_symmetry_space_group_name_H-M "P 21"
_symmetry_group_IT_number 4
_symmetry_cell_setting 'monoclinic'
loop_
_space_group_symop_operation_xyz
x,y,z
-x,1/2+y,-z
loop_
_atom_site_type_symbol
_atom_site_label
_atom_site_fract_x
_atom_site_fract_y
_atom_site_fract_z
Si Si1 0.325162 0.385540 0.556386
Si Si2 0.111162 0.598589 0.957230
Si Si3 0.017459 0.401684 0.337647
Si Si4 0.583665 0.287100 0.818391
Si Si5 0.715027 0.235951 0.336314
Si Si6 0.659019 0.044340 0.958106
Si Si7 0.982622 0.748719 0.445300
Si Si8 0.741901 0.760074 0.182777
O O1 0.522806 0.333585 0.404391
O O2 0.335508 0.568503 0.584620
O O3 0.152812 0.362624 0.557889
O O4 0.293023 0.271323 0.673920
O O5 0.177887 0.711770 0.828355
O O6 0.152425 0.416055 0.912518
O O7 0.219169 0.646788 0.014986
O O8 0.883962 0.614638 0.087485
O O9 0.841690 0.341353 0.353488
O O10 0.954988 0.566059 0.425450
O O11 0.202047 0.422164 0.172240
O O12 0.068802 0.272673 0.404323
O O13 0.460767 0.230750 0.775740
O O14 0.801451 0.306787 0.677879
O O15 0.556260 0.159717 0.925455
O O16 0.508880 0.455031 0.897371
#
# Coordination Sequence:
#
# PCOD8046201 Si02
#       8
#     2   2   2   2   2   2   2   2
#     4  11  24  40  62  93 126 167 213 263 318 379
#     4  10  22  40  63  92 124 164 211 260 317 372
#     4  11  23  43  65  93 129 166 213 265 320 382
#     4  10  22  39  61  90 125 165 210 260 314 375
#     4  11  23  41  65  93 126 168 215 265 320 379
#     4  10  23  41  61  92 126 165 210 262 316 377
#     4  11  24  41  63  92 128 168 212 265 320 380
#     4  10  21  39  62  89 124 163 210 262 313 372
#
# _framework density 21.865117000000001
#
# number of rings (size 3 to 8) (size 9 to 14) (size 15 to 20)
#    0.000    1.500    0.000    5.250    0.000   10.000 
#    0.000    0.000    0.000    0.000    0.000    0.000 
#    0.000    0.000    0.000    0.000    0.000    0.000 
#
# Total GULP energy -198487.876163 kJ/mol
# GULP energy per Si atom -12405.492260 kJ/mol
# Density = 2.181535 g / cm^3
# Si number density = 21.865117 Si / 1000 Ang^3
#
#
#
# Elastic Constant Matrix: (Units=GPa)
#
#
# Indices 1 2 3 4 5 6 
#
# 1 175.2368 34.6353 58.3540 0.0000 -2.8032 0.0000
# 2 34.6353 57.4118 22.6801 0.0000 -1.7766 0.0000
# 3 58.3540 22.6801 78.8173 0.0000 10.9205 0.0000
# 4 0.0000 0.0000 0.0000 29.7449 0.0000 0.7034
# 5 -2.8032 -1.7766 10.9205 0.0000 34.9711 0.0000
# 6 0.0000 0.0000 0.0000 0.7034 0.0000 43.4792
#
#
#
# Elastic Compliance Matrix: (Units=1/GPa)
#
#
# Indices 1 2 3 4 5 6 
#
# 1 0.008115 -0.002628 -0.005564 0.000000 0.002255 0.000000
# 2 -0.002628 0.020786 -0.004341 0.000000 0.002201 0.000000
# 3 -0.005564 -0.004341 0.018969 0.000000 -0.006590 0.000000
# 4 0.000000 0.000000 0.000000 0.033632 0.000000 -0.000544
# 5 0.002255 0.002201 -0.006590 0.000000 0.030946 0.000000
# 6 0.000000 0.000000 0.000000 -0.000544 0.000000 0.023008
#
#
# Mechanical properties :
#
#
# Convention : Reuss Voigt Hill
#
# Bulk Modulus (GPa) = 43.85018 60.31161 52.08089
# Shear Modulus (GPa) = 29.74004 34.69214 32.21609
#
# Velocity S-wave (km/s) = 3.69203 3.98759 3.84265
# Velocity P-wave (km/s) = 6.18654 6.98889 6.59991
#
# Compressibility (1/GPa) = 0.02280492
#
# Stress axis : x y z
#
# Youngs Moduli (GPa) = 123.23017 48.10893 52.71642
#
# Poissons Ratio (x) = 0.12641 0.29333
# Poissons Ratio (y) = 0.32380 0.22883
# Poissons Ratio (z) = 0.68569 0.20883
#
# Static dielectric constant tensor:
#      x y z
#    x 4.094170 0.000000 0.143300 
#    y 0.000000 3.815880 0.000000 
#    z 0.143300 0.000000 4.042480 
# 
# 
# High freq. dielectric constant tensor:
#      x y z
#    x 1.871870 0.000000 0.005930 
#    y 0.000000 1.853010 0.000000 
#    z 0.005930 0.000000 1.870130 
# 
# From -- ./inp_files/8007.got.cif
#   From: 2010.03.12/outbox.cif.g09.slc.cpg/sg4_5_cif.got.tgz:8007.got - 2010.03.31 09:31:35.
