data_PCOD8046662
_publ_section_title
;
Structure prediction by ZEFSAII (Michael W. Deem and Ramdas Pophale) SiO2 
 PCOD8046662
Probable space group: P 21
;
_chemical_formula_sum "Si O2"
_cell_formula_units_Z 14
_cell_length_a 14.080993
_cell_length_b 9.720403
_cell_length_c 5.530707
_cell_angle_alpha 90.000000
_cell_angle_beta 59.654069
_cell_angle_gamma 90.000000
_cell_volume 653.287549
_symmetry_space_group_name_H-M "P 21"
_symmetry_group_IT_number 4
_symmetry_cell_setting 'monoclinic'
loop_
_space_group_symop_operation_xyz
x,y,z
-x,1/2+y,-z
loop_
_atom_site_type_symbol
_atom_site_label
_atom_site_fract_x
_atom_site_fract_y
_atom_site_fract_z
Si Si1 0.044975 0.478760 0.974419
Si Si2 0.643157 0.589373 0.737212
Si Si3 0.200047 0.582269 0.159329
Si Si4 0.440724 0.676787 0.746312
Si Si5 0.170089 0.303431 0.429389
Si Si6 0.588275 0.480151 0.316239
Si Si7 0.011564 0.715817 0.690668
O O1 0.111100 0.370187 0.731491
O O2 0.972372 0.592685 0.924540
O O3 0.129433 0.577015 0.006841
O O4 0.973381 0.373595 0.232065
O O5 0.519516 0.653192 0.878752
O O6 0.732620 0.708153 0.606108
O O7 0.662627 0.498073 0.466440
O O8 0.653737 0.510516 0.980779
O O9 0.222819 0.424754 0.202767
O O10 0.131396 0.669496 0.443614
O O11 0.314298 0.657756 0.975356
O O12 0.480574 0.577595 0.477229
O O13 0.458752 0.828471 0.625376
O O14 0.080622 0.214298 0.397859
#
# Coordination Sequence:
#
# PCOD8046662 Si02
#       7
#     2   2   2   2   2   2   2
#     4  10  22  43  69  97 136 186 223 292 345 424
#     4  10  26  43  71 102 139 182 234 286 349 416
#     4  10  23  43  70 101 135 183 230 285 349 415
#     4  10  26  43  72  99 144 177 240 283 351 414
#     4  10  23  42  71  96 138 183 229 287 353 417
#     4  10  26  44  69 103 137 184 230 289 348 407
#     4  10  22  44  68 102 133 181 234 280 359 413
#
# _framework density 21.430074000000001
#
# number of rings (size 3 to 8) (size 9 to 14) (size 15 to 20)
#    0.857    1.143    0.000    0.857   12.000    1.143 
#   12.857    0.000    0.000    0.000    0.000    0.000 
#    0.000    0.000    0.000    0.000    0.000    0.000 
#
# Total GULP energy -173472.456790 kJ/mol
# GULP energy per Si atom -12390.889771 kJ/mol
# Density = 2.138130 g / cm^3
# Si number density = 21.430074 Si / 1000 Ang^3
#
#
#
# Elastic Constant Matrix: (Units=GPa)
#
#
# Indices 1 2 3 4 5 6 
#
# 1 44.1404 16.6650 25.4454 0.0000 0.7777 0.0000
# 2 16.6650 90.5964 7.4704 0.0000 2.3263 0.0000
# 3 25.4454 7.4704 61.3491 0.0000 33.5853 0.0000
# 4 0.0000 0.0000 0.0000 36.6623 0.0000 -4.3268
# 5 0.7777 2.3263 33.5853 0.0000 18.5143 0.0000
# 6 0.0000 0.0000 0.0000 -4.3268 0.0000 34.5833
#
#
#
# Elastic Compliance Matrix: (Units=1/GPa)
#
#
# Indices 1 2 3 4 5 6 
#
# 1 -0.000574 -0.001467 0.043670 0.000000 -0.079010 0.000000
# 2 -0.001467 0.011532 -0.005258 0.000000 0.008150 0.000000
# 3 0.043670 -0.005258 -0.076518 0.000000 0.137631 0.000000
# 4 0.000000 0.000000 0.000000 0.027685 0.000000 0.003464
# 5 -0.079010 0.008150 0.137631 0.000000 -0.193358 0.000000
# 6 0.000000 0.000000 0.000000 0.003464 0.000000 0.029349
#
#
# Mechanical properties :
#
#
# Convention : Reuss Voigt Hill
#
# Bulk Modulus (GPa) = 120.01665 32.80527 76.41096
# Shear Modulus (GPa) = -18.31513 27.71899 4.70193
#
# Velocity S-wave (km/s) = -2.92660 3.60038 1.48285
# Velocity P-wave (km/s) = 6.68621 5.71182 6.21813
#
# Compressibility (1/GPa) = 0.00833218
#
# Stress axis : x y z
#
# Youngs Moduli (GPa) = -1743.62410 86.71525 -13.06882
#
# Poissons Ratio (x) = 0.12718 0.57072
# Poissons Ratio (y) = -2.55723 -0.06871
# Poissons Ratio (z) = 76.14415 0.45591
#
# Static dielectric constant tensor:
#      x y z
#    x 3.609210 0.000000 0.251800 
#    y 0.000000 4.044990 0.000000 
#    z 0.251800 0.000000 3.879960 
# 
# 
# High freq. dielectric constant tensor:
#      x y z
#    x 1.823500 0.000000 0.015000 
#    y 0.000000 1.851320 0.000000 
#    z 0.015000 0.000000 1.841530 
# 
# From -- ./inp_files/3689.got.cif
#   From: 2010.03.12/outbox.cif.g09.slc.cpg/sg4_2_cif.got.tgz:3689.got - 2010.03.31 09:31:35.
