data_PCOD8046670
_publ_section_title
;
Structure prediction by ZEFSAII (Michael W. Deem and Ramdas Pophale) SiO2 
 PCOD8046670
Probable space group: P 21
;
_chemical_formula_sum "Si O2"
_cell_formula_units_Z 12
_cell_length_a 19.610630
_cell_length_b 4.914171
_cell_length_c 13.645263
_cell_angle_alpha 90.000000
_cell_angle_beta 19.678495
_cell_angle_gamma 90.000000
_cell_volume 442.813487
_symmetry_space_group_name_H-M "P 21"
_symmetry_group_IT_number 4
_symmetry_cell_setting 'monoclinic'
loop_
_space_group_symop_operation_xyz
x,y,z
-x,1/2+y,-z
loop_
_atom_site_type_symbol
_atom_site_label
_atom_site_fract_x
_atom_site_fract_y
_atom_site_fract_z
Si Si1 0.906075 0.683910 0.575938
Si Si2 0.678693 0.807121 0.155564
Si Si3 0.958829 0.970761 0.306590
Si Si4 0.514361 0.041364 0.915930
Si Si5 0.556299 0.799938 0.545593
Si Si6 0.086289 0.935585 0.923006
O O1 0.936734 0.737175 0.418414
O O2 0.053335 0.445672 0.412008
O O3 0.666890 0.610814 0.914846
O O4 0.633918 0.792905 0.330498
O O5 0.512517 0.601969 0.328836
O O6 0.645986 0.114883 0.163520
O O7 0.909752 0.715305 0.822070
O O8 0.739573 0.075952 0.565587
O O9 0.083985 0.866430 0.042355
O O10 0.511677 0.229312 0.016186
O O11 0.734654 0.635796 0.360825
O O12 0.102959 0.636514 0.849925
#
# Coordination Sequence:
#
# PCOD8046670 Si02
#       6
#     2   2   2   2   2   2
#     4  11  24  45  70 104 138 172 230 295 347 409
#     4   9  18  34  61  87 118 168 211 260 325 385
#     4  10  24  45  72  97 137 188 221 278 356 402
#     4  10  22  43  72  98 137 180 228 285 350 412
#     4   9  18  35  56  87 127 161 212 270 309 372
#     4  11  24  42  65  97 139 181 230 272 329 416
#
# _framework density 27.099446
#
# number of rings (size 3 to 8) (size 9 to 14) (size 15 to 20)
#    0.000    2.000    0.000    3.000    0.000   12.000 
#    9.000    0.000    0.000    0.000    0.000    0.000 
#    0.000    0.000    0.000    0.000    0.000    0.000 
#
# Total GULP energy -148675.367028 kJ/mol
# GULP energy per Si atom -12389.613919 kJ/mol
# Density = 2.703777 g / cm^3
# Si number density = 27.099446 Si / 1000 Ang^3
#
#
#
# Elastic Constant Matrix: (Units=GPa)
#
#
# Indices 1 2 3 4 5 6 
#
# 1 83.8701 14.2980 9.5200 0.0000 -6.0643 0.0000
# 2 14.2980 95.3234 -33.3664 0.0000 13.1719 0.0000
# 3 9.5200 -33.3664 80.8064 0.0000 -21.3088 0.0000
# 4 0.0000 0.0000 0.0000 25.2791 0.0000 -7.7953
# 5 -6.0643 13.1719 -21.3088 0.0000 27.2813 0.0000
# 6 0.0000 0.0000 0.0000 -7.7953 0.0000 32.6742
#
#
#
# Elastic Compliance Matrix: (Units=1/GPa)
#
#
# Indices 1 2 3 4 5 6 
#
# 1 0.012867 -0.003022 -0.002046 0.000000 0.002721 0.000000
# 2 -0.003022 0.013107 0.004940 0.000000 -0.003142 0.000000
# 3 -0.002046 0.004940 0.017515 0.000000 0.010840 0.000000
# 4 0.000000 0.000000 0.000000 0.042700 0.000000 0.010187
# 5 0.002721 -0.003142 0.010840 0.000000 0.047244 0.000000
# 6 0.000000 0.000000 0.000000 0.010187 0.000000 0.033036
#
#
# Mechanical properties :
#
#
# Convention : Reuss Voigt Hill
#
# Bulk Modulus (GPa) = 23.13135 26.76701 24.94918
# Shear Modulus (GPa) = 27.60333 35.01679 31.31006
#
# Velocity S-wave (km/s) = 3.19500 3.59856 3.40277
# Velocity P-wave (km/s) = 4.70797 5.21200 4.96638
#
# Compressibility (1/GPa) = 0.04323137
#
# Stress axis : x y z
#
# Youngs Moduli (GPa) = 77.71523 76.29408 57.09490
#
# Poissons Ratio (x) = 0.23059 0.11684
# Poissons Ratio (y) = 0.23488 -0.28203
# Poissons Ratio (z) = 0.15903 -0.37687
#
# Static dielectric constant tensor:
#      x y z
#    x 4.583370 0.000000 -0.612550 
#    y 0.000000 5.095450 0.000000 
#    z -0.612550 0.000000 5.207170 
# 
# 
# High freq. dielectric constant tensor:
#      x y z
#    x 2.056590 0.000000 -0.032260 
#    y 0.000000 2.098760 0.000000 
#    z -0.032260 0.000000 2.097210 
# 
# From -- ./inp_files/10691.got.cif
#   From: 2010.03.12/outbox.cif.g09.slc.cpg/sg4_6_cif.got.tgz:10691.got - 2010.03.31 09:31:35.
