data_PCOD8046259
_publ_section_title
;
Structure prediction by ZEFSAII (Michael W. Deem and Ramdas Pophale) SiO2 
 PCOD8046259
Probable space group: P 21
;
_chemical_formula_sum "Si O2"
_cell_formula_units_Z 12
_cell_length_a 5.834055
_cell_length_b 4.719436
_cell_length_c 17.784968
_cell_angle_alpha 90.000000
_cell_angle_beta 107.959857
_cell_angle_gamma 90.000000
_cell_volume 465.820698
_symmetry_space_group_name_H-M "P 21"
_symmetry_group_IT_number 4
_symmetry_cell_setting 'monoclinic'
loop_
_space_group_symop_operation_xyz
x,y,z
-x,1/2+y,-z
loop_
_atom_site_type_symbol
_atom_site_label
_atom_site_fract_x
_atom_site_fract_y
_atom_site_fract_z
Si Si1 0.624349 0.256450 0.220788
Si Si2 0.379020 0.575021 0.323271
Si Si3 0.642216 0.631413 0.488892
Si Si4 0.914928 0.581425 0.653501
Si Si5 0.147307 0.530535 0.991514
Si Si6 0.617217 0.751877 0.119534
O O1 0.428613 0.439143 0.247122
O O2 0.744585 0.496242 0.179125
O O3 0.505438 0.003958 0.159905
O O4 0.808259 0.081965 0.292942
O O5 0.632281 0.574509 0.397508
O O6 0.255260 0.885526 0.309937
O O7 0.177031 0.397988 0.345300
O O8 0.582422 0.960987 0.495930
O O9 0.882916 0.526155 0.559298
O O10 0.179132 0.387890 0.913064
O O11 0.405473 0.612702 0.050193
O O12 0.017891 0.307996 0.034097
#
# Coordination Sequence:
#
# PCOD8046259 Si02
#       6
#     2   2   2   2   2   2
#     4  12  25  42  67 102 144 176 212 284 347 394
#     4  10  21  40  63  93 134 182 231 277 334 392
#     4   8  16  34  60  86 124 176 232 284 316 376
#     4  10  21  40  63  93 134 182 231 277 334 392
#     4  12  26  50  80 102 132 182 222 268 342 406
#     4  12  27  48  71 108 142 164 228 286 319 420
#
# _framework density 25.760981999999998
#
# number of rings (size 3 to 8) (size 9 to 14) (size 15 to 20)
#    0.000    1.333    0.000    6.000    0.000    5.333 
#    0.000   15.000    0.000    0.000    0.000    0.000 
#    0.000    0.000    0.000    0.000    0.000    0.000 
#
# Total GULP energy -148673.215040 kJ/mol
# GULP energy per Si atom -12389.434587 kJ/mol
# Density = 2.570235 g / cm^3
# Si number density = 25.760982 Si / 1000 Ang^3
#
#
#
# Elastic Constant Matrix: (Units=GPa)
#
#
# Indices 1 2 3 4 5 6 
#
# 1 37.4008 1.6315 -2.5369 0.0000 3.7839 0.0000
# 2 1.6315 115.7203 21.8951 0.0000 0.8791 0.0000
# 3 -2.5369 21.8951 71.7662 0.0000 -4.5445 0.0000
# 4 0.0000 0.0000 0.0000 47.0429 0.0000 2.6455
# 5 3.7839 0.8791 -4.5445 0.0000 19.2966 0.0000
# 6 0.0000 0.0000 0.0000 2.6455 0.0000 41.3958
#
#
#
# Elastic Compliance Matrix: (Units=1/GPa)
#
#
# Indices 1 2 3 4 5 6 
#
# 1 0.027334 -0.000496 0.000791 0.000000 -0.005151 0.000000
# 2 -0.000496 0.009203 -0.002889 0.000000 -0.001002 0.000000
# 3 0.000791 -0.002889 0.015067 0.000000 0.003525 0.000000
# 4 0.000000 0.000000 0.000000 0.021334 0.000000 -0.001363
# 5 -0.005151 -0.001002 0.003525 0.000000 0.053709 0.000000
# 6 0.000000 0.000000 0.000000 -0.001363 0.000000 0.024244
#
#
# Mechanical properties :
#
#
# Convention : Reuss Voigt Hill
#
# Bulk Modulus (GPa) = 21.54401 29.65187 25.59794
# Shear Modulus (GPa) = 29.14630 35.14024 32.14327
#
# Velocity S-wave (km/s) = 3.36730 3.69736 3.53618
# Velocity P-wave (km/s) = 4.84762 5.45552 5.16053
#
# Compressibility (1/GPa) = 0.04641661
#
# Stress axis : x y z
#
# Youngs Moduli (GPa) = 36.58471 108.66398 66.37203
#
# Poissons Ratio (x) = 0.05389 -0.05252
# Poissons Ratio (y) = 0.01815 0.19172
# Poissons Ratio (z) = -0.02895 0.31389
#
# Static dielectric constant tensor:
#      x y z
#    x 3.848760 0.000000 0.117340 
#    y 0.000000 4.999280 0.000000 
#    z 0.117340 0.000000 4.986370 
# 
# 
# High freq. dielectric constant tensor:
#      x y z
#    x 1.972130 0.000000 0.006970 
#    y 0.000000 2.061510 0.000000 
#    z 0.006970 0.000000 2.036700 
# 
# From -- ./inp_files/14669.got.cif
#   From: 2010.03.12/outbox.cif.g09.slc.cpg/sg4_8_cif.got.tgz:14669.got - 2010.03.31 09:31:35.
