data_PCOD8046123
_publ_section_title
;
Structure prediction by ZEFSAII (Michael W. Deem and Ramdas Pophale) SiO2 
 PCOD8046123
Probable space group: P 21
;
_chemical_formula_sum "Si O2"
_cell_formula_units_Z 16
_cell_length_a 18.508949
_cell_length_b 9.679042
_cell_length_c 9.027293
_cell_angle_alpha 90.000000
_cell_angle_beta 29.141441
_cell_angle_gamma 90.000000
_cell_volume 787.537812
_symmetry_space_group_name_H-M "P 21"
_symmetry_group_IT_number 4
_symmetry_cell_setting 'monoclinic'
loop_
_space_group_symop_operation_xyz
x,y,z
-x,1/2+y,-z
loop_
_atom_site_type_symbol
_atom_site_label
_atom_site_fract_x
_atom_site_fract_y
_atom_site_fract_z
Si Si1 0.926423 0.290060 0.595212
Si Si2 0.189339 0.956700 0.724631
Si Si3 0.823038 0.184796 0.080639
Si Si4 0.493826 0.404494 0.890118
Si Si5 0.360305 0.624118 0.339261
Si Si6 0.924888 0.084548 0.329393
Si Si7 0.196651 0.323816 0.311888
Si Si8 0.118130 0.029763 0.536048
O O1 0.930940 0.167726 0.469925
O O2 0.863883 0.432351 0.640180
O O3 0.097271 0.314491 0.341558
O O4 0.814750 0.240305 0.926057
O O5 0.132676 0.816049 0.899248
O O6 0.365878 0.977900 0.441916
O O7 0.175181 0.943074 0.572970
O O8 0.089584 0.085277 0.960521
O O9 0.671618 0.118777 0.423682
O O10 0.946356 0.066348 0.867908
O O11 0.539853 0.256931 0.875561
O O12 0.438974 0.489937 0.131949
O O13 0.363992 0.385583 0.998172
O O14 0.197528 0.647997 0.559894
O O15 0.888531 0.923972 0.423009
O O16 0.213275 0.169416 0.347637
#
# Coordination Sequence:
#
# PCOD8046123 Si02
#       8
#     2   2   2   2   2   2   2   2
#     4  11  22  36  64  96 123 160 210 266 312 363
#     4  11  21  38  63  93 121 163 206 264 302 367
#     4  10  21  36  60  92 128 158 202 265 311 357
#     4  10  22  38  63  89 133 166 202 252 325 376
#     4  10  21  42  64  92 123 172 206 264 314 364
#     4  11  21  39  67  90 127 158 215 268 307 361
#     4  10  21  38  61  88 126 168 200 253 318 374
#     4  11  21  35  64  96 119 159 217 262 305 362
#
# _framework density 20.316483999999999
#
# number of rings (size 3 to 8) (size 9 to 14) (size 15 to 20)
#    0.000    1.500    3.750    3.750    0.000    0.000 
#    2.250    0.000   16.500    6.000    0.000    0.000 
#    0.000    0.000    0.000    0.000    0.000    0.000 
#
# Total GULP energy -198211.035545 kJ/mol
# GULP energy per Si atom -12388.189722 kJ/mol
# Density = 2.027024 g / cm^3
# Si number density = 20.316484 Si / 1000 Ang^3
#
#
#
# Elastic Constant Matrix: (Units=GPa)
#
#
# Indices 1 2 3 4 5 6 
#
# 1 91.9282 36.0801 50.9371 0.0000 12.8765 0.0000
# 2 36.0801 88.0175 52.2150 0.0000 6.0525 0.0000
# 3 50.9371 52.2150 133.3210 0.0000 -4.1774 0.0000
# 4 0.0000 0.0000 0.0000 35.7772 0.0000 5.2424
# 5 12.8765 6.0525 -4.1774 0.0000 27.3125 0.0000
# 6 0.0000 0.0000 0.0000 5.2424 0.0000 31.4073
#
#
#
# Elastic Compliance Matrix: (Units=1/GPa)
#
#
# Indices 1 2 3 4 5 6 
#
# 1 0.015988 -0.002943 -0.005197 0.000000 -0.007680 0.000000
# 2 -0.002943 0.015834 -0.005168 0.000000 -0.002912 0.000000
# 3 -0.005197 -0.005168 0.011679 0.000000 0.005381 0.000000
# 4 0.000000 0.000000 0.000000 0.028652 0.000000 -0.004782
# 5 -0.007680 -0.002912 0.005381 0.000000 0.041703 0.000000
# 6 0.000000 0.000000 0.000000 -0.004782 0.000000 0.032638
#
#
# Mechanical properties :
#
#
# Convention : Reuss Voigt Hill
#
# Bulk Modulus (GPa) = 59.22203 65.74791 62.48497
# Shear Modulus (GPa) = 27.97399 30.50167 29.23783
#
# Velocity S-wave (km/s) = 3.71470 3.87890 3.79769
# Velocity P-wave (km/s) = 6.90012 7.24522 7.07478
#
# Compressibility (1/GPa) = 0.01688561
#
# Stress axis : x y z
#
# Youngs Moduli (GPa) = 62.54548 63.15549 85.62480
#
# Poissons Ratio (x) = 0.18587 0.44496
# Poissons Ratio (y) = 0.18407 0.44252
# Poissons Ratio (z) = 0.32502 0.32640
#
# Static dielectric constant tensor:
#      x y z
#    x 3.615730 0.000000 -0.029510 
#    y 0.000000 3.735720 0.000000 
#    z -0.029510 0.000000 3.930120 
# 
# 
# High freq. dielectric constant tensor:
#      x y z
#    x 1.773220 0.000000 -0.000370 
#    y 0.000000 1.801880 0.000000 
#    z -0.000370 0.000000 1.786760 
# 
# From -- ./inp_files/9632.got.cif
#   From: 2010.03.12/outbox.cif.g09.slc.cpg/sg4_5_cif.got.tgz:9632.got - 2010.03.31 09:31:35.
