data_PCOD8046943
_publ_section_title
;
Structure prediction by ZEFSAII (Michael W. Deem and Ramdas Pophale) SiO2 
 PCOD8046943
Probable space group: P 21
;
_chemical_formula_sum "Si O2"
_cell_formula_units_Z 14
_cell_length_a 11.327913
_cell_length_b 7.930968
_cell_length_c 16.582619
_cell_angle_alpha 90.000000
_cell_angle_beta 22.675326
_cell_angle_gamma 90.000000
_cell_volume 574.332554
_symmetry_space_group_name_H-M "P 21"
_symmetry_group_IT_number 4
_symmetry_cell_setting 'monoclinic'
loop_
_space_group_symop_operation_xyz
x,y,z
-x,1/2+y,-z
loop_
_atom_site_type_symbol
_atom_site_label
_atom_site_fract_x
_atom_site_fract_y
_atom_site_fract_z
Si Si1 0.684798 0.975410 0.617546
Si Si2 0.846299 0.610966 0.124362
Si Si3 0.129729 0.764719 0.799230
Si Si4 0.169432 0.375045 0.172473
Si Si5 0.209851 0.808785 0.016322
Si Si6 0.682204 0.595048 0.792835
Si Si7 0.799663 0.717545 0.411079
O O1 0.441446 0.957269 0.844202
O O2 0.735373 0.798346 0.538695
O O3 0.523779 0.109548 0.657258
O O4 0.011149 0.032248 0.445827
O O5 0.930826 0.441022 0.117954
O O6 0.008431 0.616086 0.934218
O O7 0.957046 0.769497 0.107240
O O8 0.484371 0.718388 0.558557
O O9 0.942932 0.767006 0.833678
O O10 0.197073 0.249043 0.229252
O O11 0.932033 0.528975 0.337881
O O12 0.517520 0.444998 0.945516
O O13 0.435678 0.647825 0.881399
O O14 0.038678 0.835878 0.209681
#
# Coordination Sequence:
#
# PCOD8046943 Si02
#       7
#     2   2   2   2   2   2   2
#     4  11  26  45  69 107 140 191 248 296 359 434
#     4  11  22  45  68 103 137 185 239 303 353 422
#     4  11  24  43  75 105 145 188 243 308 361 425
#     4  11  25  45  73 109 146 195 245 300 353 452
#     4  11  23  46  68  99 148 179 239 302 346 440
#     4  11  25  44  71 104 148 193 241 290 373 427
#     4  10  23  44  74 101 142 187 245 301 367 414
#
# _framework density 24.376123
#
# number of rings (size 3 to 8) (size 9 to 14) (size 15 to 20)
#    0.000    1.143    5.714    1.714    2.000    6.857 
#    0.000    0.000    0.000    0.000    0.000    0.000 
#    0.000    0.000    0.000    0.000    0.000    0.000 
#
# Total GULP energy -173472.221116 kJ/mol
# GULP energy per Si atom -12390.872937 kJ/mol
# Density = 2.432064 g / cm^3
# Si number density = 24.376123 Si / 1000 Ang^3
#
#
#
# Elastic Constant Matrix: (Units=GPa)
#
#
# Indices 1 2 3 4 5 6 
#
# 1 52.5537 3.4791 12.4968 0.0000 -6.9831 0.0000
# 2 3.4791 46.8709 32.8124 0.0000 -5.7856 0.0000
# 3 12.4968 32.8124 124.4779 0.0000 -19.3193 0.0000
# 4 0.0000 0.0000 0.0000 51.1991 0.0000 -1.6821
# 5 -6.9831 -5.7856 -19.3193 0.0000 37.3783 0.0000
# 6 0.0000 0.0000 0.0000 -1.6821 0.0000 34.4994
#
#
#
# Elastic Compliance Matrix: (Units=1/GPa)
#
#
# Indices 1 2 3 4 5 6 
#
# 1 0.019779 -0.000043 -0.001524 0.000000 0.002901 0.000000
# 2 -0.000043 0.026173 -0.006814 0.000000 0.000521 0.000000
# 3 -0.001524 -0.006814 0.010627 0.000000 0.004153 0.000000
# 4 0.000000 0.000000 0.000000 0.019563 0.000000 0.000954
# 5 0.002901 0.000521 0.004153 0.000000 0.029523 0.000000
# 6 0.000000 0.000000 0.000000 0.000954 0.000000 0.029033
#
#
# Mechanical properties :
#
#
# Convention : Reuss Voigt Hill
#
# Bulk Modulus (GPa) = 25.11507 35.71990 30.41748
# Shear Modulus (GPa) = 30.35235 36.28965 33.32100
#
# Velocity S-wave (km/s) = 3.53252 3.86260 3.70124
# Velocity P-wave (km/s) = 5.19267 5.88034 5.54717
#
# Compressibility (1/GPa) = 0.03981674
#
# Stress axis : x y z
#
# Youngs Moduli (GPa) = 50.55909 38.20749 94.09697
#
# Poissons Ratio (x) = 0.00165 0.14341
# Poissons Ratio (y) = 0.00218 0.64117
# Poissons Ratio (z) = 0.07706 0.26034
#
# Static dielectric constant tensor:
#      x y z
#    x 4.380220 0.000000 -0.232830 
#    y 0.000000 4.271440 0.000000 
#    z -0.232830 0.000000 4.647340 
# 
# 
# High freq. dielectric constant tensor:
#      x y z
#    x 1.962770 0.000000 -0.016710 
#    y 0.000000 1.954590 0.000000 
#    z -0.016710 0.000000 1.980910 
# 
# From -- ./inp_files/15114.got.cif
#   From: 2010.03.12/outbox.cif.g09.slc.cpg/sg4_8_cif.got.tgz:15114.got - 2010.03.31 09:31:35.
