data_PCOD8046720
_publ_section_title
;
Structure prediction by ZEFSAII (Michael W. Deem and Ramdas Pophale) SiO2 
 PCOD8046720
Probable space group: P 21
;
_chemical_formula_sum "Si O2"
_cell_formula_units_Z 16
_cell_length_a 19.526102
_cell_length_b 4.968180
_cell_length_c 8.798430
_cell_angle_alpha 90.000000
_cell_angle_beta 45.550145
_cell_angle_gamma 90.000000
_cell_volume 609.302980
_symmetry_space_group_name_H-M "P 21"
_symmetry_group_IT_number 4
_symmetry_cell_setting 'monoclinic'
loop_
_space_group_symop_operation_xyz
x,y,z
-x,1/2+y,-z
loop_
_atom_site_type_symbol
_atom_site_label
_atom_site_fract_x
_atom_site_fract_y
_atom_site_fract_z
Si Si1 0.310683 0.158610 0.528067
Si Si2 0.501939 0.970052 0.728317
Si Si3 0.056550 0.701725 0.443956
Si Si4 0.129282 0.479880 0.803069
Si Si5 0.678925 0.500002 0.827299
Si Si6 0.061953 0.975320 0.745766
Si Si7 0.365776 0.779847 0.676155
Si Si8 0.257585 0.500565 0.089308
O O1 0.423512 0.232617 0.350882
O O2 0.240136 0.413886 0.668404
O O3 0.287064 0.030654 0.399468
O O4 0.289233 0.971925 0.709191
O O5 0.566597 0.214350 0.571967
O O6 0.427980 0.922989 0.706950
O O7 0.436713 0.046715 0.975920
O O8 0.090287 0.869022 0.537562
O O9 0.149470 0.584006 0.215275
O O10 0.993632 0.433469 0.581734
O O11 0.121914 0.792610 0.770818
O O12 0.094858 0.283095 0.718245
O O13 0.053080 0.431006 0.057855
O O14 0.700050 0.195623 0.845887
O O15 0.735356 0.700992 0.854145
O O16 0.314700 0.527762 0.840145
#
# Coordination Sequence:
#
# PCOD8046720 Si02
#       8
#     2   2   2   2   2   2   2   2
#     4  12  27  41  73 107 136 185 253 292 353 438
#     4  11  25  44  68  96 144 185 229 297 365 416
#     4  12  25  41  71 102 138 180 233 289 349 430
#     4  10  23  42  70  97 132 183 218 295 339 424
#     4  11  27  46  74  99 144 192 244 294 361 435
#     4  10  22  45  66  96 143 171 225 279 365 395
#     4  11  25  44  69  98 144 187 236 296 363 429
#     4  11  26  49  71 101 147 193 236 296 371 433
#
# _framework density 26.259516999999999
#
# number of rings (size 3 to 8) (size 9 to 14) (size 15 to 20)
#    0.000    1.000    1.250    3.750   10.500    1.000 
#    0.000    0.000    0.000    0.000    0.000    0.000 
#    0.000    0.000    0.000    0.000    0.000    0.000 
#
# Total GULP energy -198302.187650 kJ/mol
# GULP energy per Si atom -12393.886728 kJ/mol
# Density = 2.619975 g / cm^3
# Si number density = 26.259517 Si / 1000 Ang^3
#
#
#
# Elastic Constant Matrix: (Units=GPa)
#
#
# Indices 1 2 3 4 5 6 
#
# 1 77.4947 -0.7391 6.9678 0.0000 2.3586 0.0000
# 2 -0.7391 60.0360 -10.8530 0.0000 -1.8314 0.0000
# 3 6.9678 -10.8530 75.6832 0.0000 -16.8345 0.0000
# 4 0.0000 0.0000 0.0000 33.7122 0.0000 -2.7711
# 5 2.3586 -1.8314 -16.8345 0.0000 29.7271 0.0000
# 6 0.0000 0.0000 0.0000 -2.7711 0.0000 26.0950
#
#
#
# Elastic Compliance Matrix: (Units=1/GPa)
#
#
# Indices 1 2 3 4 5 6 
#
# 1 0.013115 -0.000204 -0.001683 0.000000 -0.002006 0.000000
# 2 -0.000204 0.017308 0.003137 0.000000 0.002859 0.000000
# 3 -0.001683 0.003137 0.015892 0.000000 0.009327 0.000000
# 4 0.000000 0.000000 0.000000 0.029924 0.000000 0.003178
# 5 -0.002006 0.002859 0.009327 0.000000 0.039256 0.000000
# 6 0.000000 0.000000 0.000000 0.003178 0.000000 0.038659
#
#
# Mechanical properties :
#
#
# Convention : Reuss Voigt Hill
#
# Bulk Modulus (GPa) = 20.48553 22.66282 21.57417
# Shear Modulus (GPa) = 29.77494 32.42941 31.10218
#
# Velocity S-wave (km/s) = 3.37096 3.51801 3.44527
# Velocity P-wave (km/s) = 4.79262 5.01507 4.90511
#
# Compressibility (1/GPa) = 0.04881495
#
# Stress axis : x y z
#
# Youngs Moduli (GPa) = 76.25131 57.77542 62.92368
#
# Poissons Ratio (x) = 0.01178 0.10589
# Poissons Ratio (y) = 0.01555 -0.19737
# Poissons Ratio (z) = 0.12832 -0.18123
#
# Static dielectric constant tensor:
#      x y z
#    x 4.653470 0.000000 -0.231190 
#    y 0.000000 4.659320 0.000000 
#    z -0.231190 0.000000 5.031800 
# 
# 
# High freq. dielectric constant tensor:
#      x y z
#    x 2.047760 0.000000 -0.014890 
#    y 0.000000 2.051890 0.000000 
#    z -0.014890 0.000000 2.057430 
# 
# From -- ./inp_files/9495.got.cif
#   From: 2010.03.12/outbox.cif.g09.slc.cpg/sg4_5_cif.got.tgz:9495.got - 2010.03.31 09:31:35.
