data_PCOD8046919
_publ_section_title
;
Structure prediction by ZEFSAII (Michael W. Deem and Ramdas Pophale) SiO2 
 PCOD8046919
Probable space group: P 21
;
_chemical_formula_sum "Si O2"
_cell_formula_units_Z 16
_cell_length_a 9.226214
_cell_length_b 11.724560
_cell_length_c 12.100573
_cell_angle_alpha 90.000000
_cell_angle_beta 37.626372
_cell_angle_gamma 90.000000
_cell_volume 799.132206
_symmetry_space_group_name_H-M "P 21"
_symmetry_group_IT_number 4
_symmetry_cell_setting 'monoclinic'
loop_
_space_group_symop_operation_xyz
x,y,z
-x,1/2+y,-z
loop_
_atom_site_type_symbol
_atom_site_label
_atom_site_fract_x
_atom_site_fract_y
_atom_site_fract_z
Si Si1 0.057265 0.380010 0.377146
Si Si2 0.659967 0.941553 0.586517
Si Si3 0.014769 0.223353 0.087046
Si Si4 0.472995 0.202737 0.409846
Si Si5 0.278052 0.105810 0.744152
Si Si6 0.133601 0.464017 0.094099
Si Si7 0.640165 0.533013 0.709483
Si Si8 0.949313 0.629926 0.701344
O O1 0.274465 0.394004 0.331916
O O2 0.157985 0.446807 0.210248
O O3 0.980883 0.250225 0.397404
O O4 0.817328 0.431755 0.571266
O O5 0.639541 0.829617 0.521577
O O6 0.405508 0.004315 0.735301
O O7 0.851630 0.033107 0.429982
O O8 0.748481 0.194321 0.210880
O O9 0.010320 0.355360 0.115736
O O10 0.101479 0.148205 0.139021
O O11 0.200932 0.201886 0.877170
O O12 0.454044 0.157626 0.546526
O O13 0.339452 0.124176 0.401684
O O14 0.040888 0.068189 0.823890
O O15 0.381206 0.482345 0.883231
O O16 0.711830 0.589093 0.783030
#
# Coordination Sequence:
#
# PCOD8046919 Si02
#       8
#     2   2   2   2   2   2   2   2
#     4  10  23  44  67  93 131 173 220 268 324 383
#     4  11  24  43  68  97 131 174 217 269 322 386
#     4  11  25  41  62  97 134 167 219 264 321 388
#     4  12  23  44  65  96 136 172 213 269 322 391
#     4  12  25  40  67  96 130 174 217 264 326 386
#     4  11  24  41  65  99 126 174 217 266 324 385
#     4  11  23  42  68  93 133 173 213 272 323 385
#     4  10  23  45  66  95 131 171 218 270 322 386
#
# _framework density 20.021719000000001
#
# number of rings (size 3 to 8) (size 9 to 14) (size 15 to 20)
#    0.000    1.000    6.250    0.000    3.500    2.000 
#    0.000    5.000    0.000    0.000    0.000    0.000 
#    0.000    0.000    0.000    0.000    0.000    0.000 
#
# Total GULP energy -198398.230989 kJ/mol
# GULP energy per Si atom -12399.889437 kJ/mol
# Density = 1.997615 g / cm^3
# Si number density = 20.021719 Si / 1000 Ang^3
#
#
#
# Elastic Constant Matrix: (Units=GPa)
#
#
# Indices 1 2 3 4 5 6 
#
# 1 100.8660 27.7925 24.2779 0.0000 1.4594 0.0000
# 2 27.7925 70.4913 17.4909 0.0000 4.0170 0.0000
# 3 24.2779 17.4909 85.8003 0.0000 1.7982 0.0000
# 4 0.0000 0.0000 0.0000 25.8940 0.0000 -3.0026
# 5 1.4594 4.0170 1.7982 0.0000 28.4958 0.0000
# 6 0.0000 0.0000 0.0000 -3.0026 0.0000 34.7688
#
#
#
# Elastic Compliance Matrix: (Units=1/GPa)
#
#
# Indices 1 2 3 4 5 6 
#
# 1 0.011601 -0.003966 -0.002477 0.000000 0.000121 0.000000
# 2 -0.003966 0.016403 -0.002180 0.000000 -0.001972 0.000000
# 3 -0.002477 -0.002180 0.012808 0.000000 -0.000374 0.000000
# 4 0.000000 0.000000 0.000000 0.039010 0.000000 0.003369
# 5 0.000121 -0.001972 -0.000374 0.000000 0.035388 0.000000
# 6 0.000000 0.000000 0.000000 0.003369 0.000000 0.029052
#
#
# Mechanical properties :
#
#
# Convention : Reuss Voigt Hill
#
# Bulk Modulus (GPa) = 42.43393 44.03115 43.23254
# Shear Modulus (GPa) = 29.52201 30.33814 29.93008
#
# Velocity S-wave (km/s) = 3.84409 3.89686 3.87056
# Velocity P-wave (km/s) = 6.39864 6.50283 6.45095
#
# Compressibility (1/GPa) = 0.02356604
#
# Stress axis : x y z
#
# Youngs Moduli (GPa) = 86.19635 60.96322 78.07577
#
# Poissons Ratio (x) = 0.24181 0.19337
# Poissons Ratio (y) = 0.34189 0.17023
# Poissons Ratio (z) = 0.21348 0.13292
#
# Static dielectric constant tensor:
#      x y z
#    x 3.882310 0.000000 0.053860 
#    y 0.000000 3.697190 0.000000 
#    z 0.053860 0.000000 3.339050 
# 
# 
# High freq. dielectric constant tensor:
#      x y z
#    x 1.801120 0.000000 -0.000510 
#    y 0.000000 1.789500 0.000000 
#    z -0.000510 0.000000 1.764490 
# 
# From -- ./inp_files/1353.got.cif
#   From: 2010.03.12/outbox.cif.g09.slc.cpg/sg4_1_cif.got.tgz:1353.got - 2010.03.31 09:31:35.
