data_PCOD8046457
_publ_section_title
;
Structure prediction by ZEFSAII (Michael W. Deem and Ramdas Pophale) SiO2 
 PCOD8046457
Probable space group: P 21
;
_chemical_formula_sum "Si O2"
_cell_formula_units_Z 14
_cell_length_a 12.494029
_cell_length_b 5.068529
_cell_length_c 15.481646
_cell_angle_alpha 90.000000
_cell_angle_beta 38.952602
_cell_angle_gamma 90.000000
_cell_volume 616.352759
_symmetry_space_group_name_H-M "P 21"
_symmetry_group_IT_number 4
_symmetry_cell_setting 'monoclinic'
loop_
_space_group_symop_operation_xyz
x,y,z
-x,1/2+y,-z
loop_
_atom_site_type_symbol
_atom_site_label
_atom_site_fract_x
_atom_site_fract_y
_atom_site_fract_z
Si Si1 0.346163 0.519430 0.137075
Si Si2 0.050785 0.338671 0.699425
Si Si3 0.714090 0.379093 0.678070
Si Si4 0.693494 0.329417 0.992385
Si Si5 0.996749 0.822078 0.624992
Si Si6 0.422722 0.373383 0.507300
Si Si7 0.533355 0.875742 0.719361
O O1 0.284554 0.794106 0.222015
O O2 0.543968 0.492479 0.036563
O O3 0.209762 0.298952 0.257047
O O4 0.323422 0.546850 0.047079
O O5 0.076518 0.547598 0.606643
O O6 0.220859 0.346682 0.650917
O O7 0.033975 0.046903 0.672303
O O8 0.886632 0.430295 0.858827
O O9 0.910697 0.385727 0.523361
O O10 0.641401 0.669098 0.707803
O O11 0.603829 0.168829 0.691321
O O12 0.655459 0.338392 0.118803
O O13 0.480243 0.669029 0.492408
O O14 0.471229 0.305963 0.377995
#
# Coordination Sequence:
#
# PCOD8046457 Si02
#       7
#     2   2   2   2   2   2   2
#     4  10  22  34  62  94 132 184 220 248 280 374
#     4  11  23  42  66  91 128 168 204 267 329 372
#     4  11  21  38  61  92 135 171 219 256 301 360
#     4  10  22  40  60  92 134 176 210 246 312 372
#     4  11  21  38  61  92 135 171 219 256 301 360
#     4  12  24  44  72  98 116 154 218 274 336 398
#     4  11  23  42  66  91 128 168 204 267 329 372
#
# _framework density 22.714264
#
# number of rings (size 3 to 8) (size 9 to 14) (size 15 to 20)
#    0.000    1.143    2.857    3.429    0.000   11.429 
#    0.000    1.429    0.000    0.000    0.000    0.000 
#    0.000    0.000    0.000    0.000    0.000    0.000 
#
# Total GULP energy -173479.135142 kJ/mol
# GULP energy per Si atom -12391.366796 kJ/mol
# Density = 2.266257 g / cm^3
# Si number density = 22.714264 Si / 1000 Ang^3
#
#
#
# Elastic Constant Matrix: (Units=GPa)
#
#
# Indices 1 2 3 4 5 6 
#
# 1 74.6981 6.8008 29.4327 0.0000 -18.3511 0.0000
# 2 6.8008 61.0596 -13.4040 0.0000 -14.0994 0.0000
# 3 29.4327 -13.4040 162.5467 0.0000 -25.5673 0.0000
# 4 0.0000 0.0000 0.0000 25.9987 0.0000 -3.1972
# 5 -18.3511 -14.0994 -25.5673 0.0000 40.1854 0.0000
# 6 0.0000 0.0000 0.0000 -3.1972 0.0000 37.8664
#
#
#
# Elastic Compliance Matrix: (Units=1/GPa)
#
#
# Indices 1 2 3 4 5 6 
#
# 1 0.015629 -0.000913 -0.002037 0.000000 0.005521 0.000000
# 2 -0.000913 0.019032 0.003022 0.000000 0.008183 0.000000
# 3 -0.002037 0.003022 0.007546 0.000000 0.004931 0.000000
# 4 0.000000 0.000000 0.000000 0.038867 0.000000 0.003282
# 5 0.005521 0.008183 0.004931 0.000000 0.033414 0.000000
# 6 0.000000 0.000000 0.000000 0.003282 0.000000 0.026686
#
#
# Mechanical properties :
#
#
# Convention : Reuss Voigt Hill
#
# Bulk Modulus (GPa) = 23.61224 38.21816 30.91520
# Shear Modulus (GPa) = 32.22746 39.17509 35.70128
#
# Velocity S-wave (km/s) = 3.77081 4.15745 3.96884
# Velocity P-wave (km/s) = 5.42002 6.31727 5.88577
#
# Compressibility (1/GPa) = 0.04235091
#
# Stress axis : x y z
#
# Youngs Moduli (GPa) = 63.98246 52.54276 132.52600
#
# Poissons Ratio (x) = 0.04798 0.26995
# Poissons Ratio (y) = 0.05842 -0.40048
# Poissons Ratio (z) = 0.13033 -0.15878
#
# Static dielectric constant tensor:
#      x y z
#    x 3.713560 0.000000 -0.141430 
#    y 0.000000 4.097110 0.000000 
#    z -0.141430 0.000000 4.731090 
# 
# 
# High freq. dielectric constant tensor:
#      x y z
#    x 1.845190 0.000000 -0.009530 
#    y 0.000000 1.907470 0.000000 
#    z -0.009530 0.000000 1.922330 
# 
# From -- ./inp_files/8951.got.cif
#   From: 2010.03.12/outbox.cif.g09.slc.cpg/sg4_5_cif.got.tgz:8951.got - 2010.03.31 09:31:35.
