data_PCOD8046871
_publ_section_title
;
Structure prediction by ZEFSAII (Michael W. Deem and Ramdas Pophale) SiO2 
 PCOD8046871
Probable space group: P 21
;
_chemical_formula_sum "Si O2"
_cell_formula_units_Z 16
_cell_length_a 18.087735
_cell_length_b 9.361623
_cell_length_c 8.466835
_cell_angle_alpha 90.000000
_cell_angle_beta 30.004114
_cell_angle_gamma 90.000000
_cell_volume 716.936089
_symmetry_space_group_name_H-M "P 21"
_symmetry_group_IT_number 4
_symmetry_cell_setting 'monoclinic'
loop_
_space_group_symop_operation_xyz
x,y,z
-x,1/2+y,-z
loop_
_atom_site_type_symbol
_atom_site_label
_atom_site_fract_x
_atom_site_fract_y
_atom_site_fract_z
Si Si1 0.368193 0.631600 0.295549
Si Si2 0.334793 0.952876 0.734570
Si Si3 0.675521 0.608779 0.566618
Si Si4 0.932569 0.319210 0.603440
Si Si5 0.454226 0.650057 0.494659
Si Si6 0.160837 0.526776 0.107042
Si Si7 0.836166 0.902111 0.239130
Si Si8 0.843056 0.378221 0.410350
O O1 0.434077 0.617985 0.348439
O O2 0.259792 0.496074 0.458891
O O3 0.275083 0.774083 0.449805
O O4 0.504971 0.636113 0.923268
O O5 0.446395 0.818342 0.546350
O O6 0.320460 0.995318 0.580600
O O7 0.390617 0.086442 0.735495
O O8 0.172882 0.910401 0.089681
O O9 0.750404 0.754759 0.369971
O O10 0.769708 0.536878 0.535406
O O11 0.943447 0.157816 0.644469
O O12 0.873957 0.331090 0.532268
O O13 0.098194 0.385880 0.310704
O O14 0.329975 0.567734 0.831538
O O15 0.148054 0.501753 0.944152
O O16 0.006054 0.871909 0.974614
#
# Coordination Sequence:
#
# PCOD8046871 Si02
#       8
#     2   2   2   2   2   2   2   2
#     4  11  23  44  68  98 137 174 230 284 338 411
#     4  11  25  40  66  96 131 176 219 277 339 402
#     4  12  25  42  69 101 134 180 230 281 348 411
#     4  10  23  43  69  97 136 177 223 287 337 410
#     4  10  23  43  64  96 133 171 223 279 334 405
#     4   9  22  42  66  99 132 175 225 276 340 400
#     4  10  24  43  69  99 134 184 222 286 345 409
#     4  11  23  45  67  98 137 175 230 282 347 410
#
# _framework density 22.317191999999999
#
# number of rings (size 3 to 8) (size 9 to 14) (size 15 to 20)
#    0.000    1.500    1.250    2.250   10.500    0.000 
#    0.000    0.000    0.000    0.000    0.000    0.000 
#    0.000    0.000    0.000    0.000    0.000    0.000 
#
# Total GULP energy -198354.879822 kJ/mol
# GULP energy per Si atom -12397.179989 kJ/mol
# Density = 2.226640 g / cm^3
# Si number density = 22.317192 Si / 1000 Ang^3
#
#
#
# Elastic Constant Matrix: (Units=GPa)
#
#
# Indices 1 2 3 4 5 6 
#
# 1 59.1465 33.0060 24.9344 0.0000 2.9510 0.0000
# 2 33.0060 110.4278 34.4923 0.0000 -0.7654 0.0000
# 3 24.9344 34.4923 110.6585 0.0000 -7.5722 0.0000
# 4 0.0000 0.0000 0.0000 54.2147 0.0000 -5.8860
# 5 2.9510 -0.7654 -7.5722 0.0000 22.6991 0.0000
# 6 0.0000 0.0000 0.0000 -5.8860 0.0000 33.1571
#
#
#
# Elastic Compliance Matrix: (Units=1/GPa)
#
#
# Indices 1 2 3 4 5 6 
#
# 1 0.021587 -0.005399 -0.003465 0.000000 -0.004144 0.000000
# 2 -0.005399 0.011394 -0.002314 0.000000 0.000314 0.000000
# 3 -0.003465 -0.002314 0.010811 0.000000 0.003979 0.000000
# 4 0.000000 0.000000 0.000000 0.018808 0.000000 0.003339
# 5 -0.004144 0.000314 0.003979 0.000000 0.045931 0.000000
# 6 0.000000 0.000000 0.000000 0.003339 0.000000 0.030752
#
#
# Mechanical properties :
#
#
# Convention : Reuss Voigt Hill
#
# Bulk Modulus (GPa) = 46.64642 51.67756 49.16199
# Shear Modulus (GPa) = 29.62363 34.53421 32.07892
#
# Velocity S-wave (km/s) = 3.64729 3.93800 3.79543
# Velocity P-wave (km/s) = 6.21964 6.62445 6.42523
#
# Compressibility (1/GPa) = 0.02143787
#
# Stress axis : x y z
#
# Youngs Moduli (GPa) = 46.32333 87.76435 92.49846
#
# Poissons Ratio (x) = 0.47381 0.32051
# Poissons Ratio (y) = 0.25009 0.21400
# Poissons Ratio (z) = 0.16051 0.20305
#
# Static dielectric constant tensor:
#      x y z
#    x 3.656780 0.000000 -0.029520 
#    y 0.000000 4.216950 0.000000 
#    z -0.029520 0.000000 4.412190 
# 
# 
# High freq. dielectric constant tensor:
#      x y z
#    x 1.849300 0.000000 -0.001150 
#    y 0.000000 1.892030 0.000000 
#    z -0.001150 0.000000 1.893860 
# 
# From -- ./inp_files/5609.got.cif
#   From: 2010.03.12/outbox.cif.g09.slc.cpg/sg4_3_cif.got.tgz:5609.got - 2010.03.31 09:31:35.
