data_PCOD8046001
_publ_section_title
;
Structure prediction by ZEFSAII (Michael W. Deem and Ramdas Pophale) SiO2 
 PCOD8046001
Probable space group: P 21
;
_chemical_formula_sum "Si O2"
_cell_formula_units_Z 10
_cell_length_a 6.401199
_cell_length_b 11.417374
_cell_length_c 9.585091
_cell_angle_alpha 90.000000
_cell_angle_beta 45.716375
_cell_angle_gamma 90.000000
_cell_volume 501.500643
_symmetry_space_group_name_H-M "P 21"
_symmetry_group_IT_number 4
_symmetry_cell_setting 'monoclinic'
loop_
_space_group_symop_operation_xyz
x,y,z
-x,1/2+y,-z
loop_
_atom_site_type_symbol
_atom_site_label
_atom_site_fract_x
_atom_site_fract_y
_atom_site_fract_z
Si Si1 0.805628 0.463710 0.606795
Si Si2 0.444429 0.321569 0.585872
Si Si3 0.717371 0.134690 0.653382
Si Si4 0.413949 0.379310 0.292288
Si Si5 0.770566 0.313374 0.868961
O O1 0.548009 0.441320 0.616091
O O2 0.704006 0.432475 0.811742
O O3 0.942464 0.594008 0.531806
O O4 0.060611 0.365181 0.455331
O O5 0.604742 0.210186 0.576638
O O6 0.535497 0.329934 0.381887
O O7 0.100234 0.311080 0.770205
O O8 0.695417 0.200747 0.810276
O O9 0.515036 0.018355 0.755014
O O10 0.559542 0.307066 0.100158
#
# Coordination Sequence:
#
# PCOD8046001 Si02
#       5
#     2   2   2   2   2
#     4   8  20  40  58  78 123 150 187 238 289 339
#     4  10  20  39  61  85 116 151 199 237 281 348
#     4   9  21  40  59  83 123 157 183 236 302 334
#     4   9  21  40  57  86 119 151 193 239 281 344
#     4  10  20  39  59  88 115 151 198 238 279 347
#
# _framework density 19.940154
#
# number of rings (size 3 to 8) (size 9 to 14) (size 15 to 20)
#    1.200    1.600    0.000    0.000    2.800    3.200 
#   14.400    0.000    0.000    0.000    0.000    0.000 
#    0.000    0.000    0.000    0.000    0.000    0.000 
#
# Total GULP energy -123917.734288 kJ/mol
# GULP energy per Si atom -12391.773429 kJ/mol
# Density = 1.989477 g / cm^3
# Si number density = 19.940154 Si / 1000 Ang^3
#
#
#
# Elastic Constant Matrix: (Units=GPa)
#
#
# Indices 1 2 3 4 5 6 
#
# 1 120.9179 30.1870 48.1380 0.0000 20.6456 0.0000
# 2 30.1870 55.6114 2.2712 0.0000 7.9243 0.0000
# 3 48.1380 2.2712 94.1038 0.0000 20.0577 0.0000
# 4 0.0000 0.0000 0.0000 26.3030 0.0000 0.5324
# 5 20.6456 7.9243 20.0577 0.0000 22.8017 0.0000
# 6 0.0000 0.0000 0.0000 0.5324 0.0000 28.5607
#
#
#
# Elastic Compliance Matrix: (Units=1/GPa)
#
#
# Indices 1 2 3 4 5 6 
#
# 1 0.012703 -0.006006 -0.005350 0.000000 -0.004709 0.000000
# 2 -0.006006 0.021862 0.003698 0.000000 -0.005413 0.000000
# 3 -0.005350 0.003698 0.015403 0.000000 -0.009991 0.000000
# 4 0.000000 0.000000 0.000000 0.038033 0.000000 -0.000709
# 5 -0.004709 -0.005413 -0.009991 0.000000 0.058790 0.000000
# 6 0.000000 0.000000 0.000000 -0.000709 0.000000 0.035026
#
#
# Mechanical properties :
#
#
# Convention : Reuss Voigt Hill
#
# Bulk Modulus (GPa) = 28.85609 47.98062 38.41835
# Shear Modulus (GPa) = 23.95963 28.20220 26.08091
#
# Velocity S-wave (km/s) = 3.47014 3.76485 3.62050
# Velocity P-wave (km/s) = 5.52798 6.55846 6.06514
#
# Compressibility (1/GPa) = 0.03465473
#
# Stress axis : x y z
#
# Youngs Moduli (GPa) = 78.72058 45.74057 64.92054
#
# Poissons Ratio (x) = 0.27472 0.34730
# Poissons Ratio (y) = 0.47280 -0.24011
# Poissons Ratio (z) = 0.42112 -0.16917
#
# Static dielectric constant tensor:
#      x y z
#    x 3.634250 0.000000 0.063940 
#    y 0.000000 3.456630 0.000000 
#    z 0.063940 0.000000 3.272940 
# 
# 
# High freq. dielectric constant tensor:
#      x y z
#    x 1.782380 0.000000 0.013070 
#    y 0.000000 1.769670 0.000000 
#    z 0.013070 0.000000 1.754510 
# 
# From -- ./inp_files/203.got.cif
#   From: 2010.03.12/outbox.cif.g09.slc.cpg/sg4_1_cif.got.tgz:203.got - 2010.03.31 09:31:35.
