data_PCOD8046618
_publ_section_title
;
Structure prediction by ZEFSAII (Michael W. Deem and Ramdas Pophale) SiO2 
 PCOD8046618
Probable space group: P 21
;
_chemical_formula_sum "Si O2"
_cell_formula_units_Z 14
_cell_length_a 10.479785
_cell_length_b 12.710173
_cell_length_c 5.048845
_cell_angle_alpha 90.000000
_cell_angle_beta 119.938296
_cell_angle_gamma 90.000000
_cell_volume 582.768676
_symmetry_space_group_name_H-M "P 21"
_symmetry_group_IT_number 4
_symmetry_cell_setting 'monoclinic'
loop_
_space_group_symop_operation_xyz
x,y,z
-x,1/2+y,-z
loop_
_atom_site_type_symbol
_atom_site_label
_atom_site_fract_x
_atom_site_fract_y
_atom_site_fract_z
Si Si1 0.895004 0.604420 0.164553
Si Si2 0.882388 0.994018 0.274885
Si Si3 0.266436 0.029858 0.499159
Si Si4 0.131806 0.831687 0.427253
Si Si5 0.205298 0.707748 0.026160
Si Si6 0.713436 0.794853 0.064826
Si Si7 0.452287 0.215146 0.606492
O O1 0.774191 0.552188 0.236183
O O2 0.055687 0.556242 0.402697
O O3 0.862087 0.577464 0.825932
O O4 0.870938 0.730157 0.204881
O O5 0.007919 0.921531 0.276474
O O6 0.822818 0.084100 0.020046
O O7 0.746780 0.914820 0.187140
O O8 0.414782 0.089381 0.557527
O O9 0.277470 0.902087 0.493939
O O10 0.145693 0.777463 0.724155
O O11 0.110633 0.741452 0.185343
O O12 0.375726 0.730221 0.249673
O O13 0.632931 0.783675 0.700049
O O14 0.600577 0.751598 0.161888
#
# Coordination Sequence:
#
# PCOD8046618 Si02
#       7
#     2   2   2   2   2   2   2
#     4   9  19  36  62  94 122 157 213 259 307 371
#     4  11  25  43  68  98 128 170 218 266 327 383
#     4   9  19  39  65  88 123 169 202 252 314 379
#     4  11  25  44  67  96 131 168 211 271 332 372
#     4  12  27  43  66  97 131 166 217 275 310 388
#     4  10  22  42  68  92 132 176 210 265 320 381
#     4  10  23  43  64  97 131 170 219 256 318 386
#
# _framework density 24.023254999999999
#
# number of rings (size 3 to 8) (size 9 to 14) (size 15 to 20)
#    0.000    1.714    0.000    3.429    0.000   16.000 
#    0.000    0.000    0.000    0.000    0.000    0.000 
#    0.000    0.000    0.000    0.000    0.000    0.000 
#
# Total GULP energy -173485.228945 kJ/mol
# GULP energy per Si atom -12391.802067 kJ/mol
# Density = 2.396858 g / cm^3
# Si number density = 24.023255 Si / 1000 Ang^3
#
#
#
# Elastic Constant Matrix: (Units=GPa)
#
#
# Indices 1 2 3 4 5 6 
#
# 1 55.1358 15.0478 29.1408 0.0000 3.8215 0.0000
# 2 15.0478 148.1918 32.3695 0.0000 7.0873 0.0000
# 3 29.1408 32.3695 92.8549 0.0000 -3.8880 0.0000
# 4 0.0000 0.0000 0.0000 33.4343 0.0000 -2.3820
# 5 3.8215 7.0873 -3.8880 0.0000 36.6257 0.0000
# 6 0.0000 0.0000 0.0000 -2.3820 0.0000 30.9008
#
#
#
# Elastic Compliance Matrix: (Units=1/GPa)
#
#
# Indices 1 2 3 4 5 6 
#
# 1 0.022128 -0.000610 -0.006854 0.000000 -0.002918 0.000000
# 2 -0.000610 0.007427 -0.002466 0.000000 -0.001635 0.000000
# 3 -0.006854 -0.002466 0.013892 0.000000 0.002667 0.000000
# 4 0.000000 0.000000 0.000000 0.030075 0.000000 0.002318
# 5 -0.002918 -0.001635 0.002667 0.000000 0.028207 0.000000
# 6 0.000000 0.000000 0.000000 0.002318 0.000000 0.032540
#
#
# Mechanical properties :
#
#
# Convention : Reuss Voigt Hill
#
# Bulk Modulus (GPa) = 42.39711 49.92205 46.15958
# Shear Modulus (GPa) = 30.86572 34.83379 32.84976
#
# Velocity S-wave (km/s) = 3.58834 3.81202 3.70187
# Velocity P-wave (km/s) = 5.90380 6.34044 6.12601
#
# Compressibility (1/GPa) = 0.02358651
#
# Stress axis : x y z
#
# Youngs Moduli (GPa) = 45.19071 134.64704 71.98483
#
# Poissons Ratio (x) = 0.08217 0.49339
# Poissons Ratio (y) = 0.02758 0.17751
# Poissons Ratio (z) = 0.30974 0.33203
#
# Static dielectric constant tensor:
#      x y z
#    x 4.045770 0.000000 -0.009590 
#    y 0.000000 5.013330 0.000000 
#    z -0.009590 0.000000 4.198650 
# 
# 
# High freq. dielectric constant tensor:
#      x y z
#    x 1.937730 0.000000 -0.010290 
#    y 0.000000 1.974920 0.000000 
#    z -0.010290 0.000000 1.947300 
# 
# From -- ./inp_files/2787.got.cif
#   From: 2010.03.12/outbox.cif.g09.slc.cpg/sg4_2_cif.got.tgz:2787.got - 2010.03.31 09:31:35.
