data_PCOD8046725
_publ_section_title
;
Structure prediction by ZEFSAII (Michael W. Deem and Ramdas Pophale) SiO2 
 PCOD8046725
Probable space group: P 21
;
_chemical_formula_sum "Si O2"
_cell_formula_units_Z 16
_cell_length_a 12.233824
_cell_length_b 11.460040
_cell_length_c 9.044723
_cell_angle_alpha 90.000000
_cell_angle_beta 37.613306
_cell_angle_gamma 90.000000
_cell_volume 773.940798
_symmetry_space_group_name_H-M "P 21"
_symmetry_group_IT_number 4
_symmetry_cell_setting 'monoclinic'
loop_
_space_group_symop_operation_xyz
x,y,z
-x,1/2+y,-z
loop_
_atom_site_type_symbol
_atom_site_label
_atom_site_fract_x
_atom_site_fract_y
_atom_site_fract_z
Si Si1 0.095017 0.520720 0.887709
Si Si2 0.650591 0.400457 0.097495
Si Si3 0.954280 0.295222 0.587258
Si Si4 0.893520 0.855287 0.866199
Si Si5 0.740770 0.633399 0.165971
Si Si6 0.601225 0.171046 0.280565
Si Si7 0.738023 0.929938 0.590124
Si Si8 0.251021 0.572108 0.148810
O O1 0.259503 0.593263 0.777435
O O2 0.151451 0.467679 0.671479
O O3 0.033882 0.414697 0.060901
O O4 0.927354 0.605624 0.046022
O O5 0.672242 0.529683 0.135992
O O6 0.669681 0.305675 0.210122
O O7 0.453516 0.377571 0.243995
O O8 0.798731 0.380611 0.812835
O O9 0.918705 0.160603 0.668665
O O10 0.952309 0.307946 0.409915
O O11 0.145207 0.331936 0.451131
O O12 0.786954 0.951440 0.890071
O O13 0.760783 0.748929 0.046047
O O14 0.596740 0.658849 0.446025
O O15 0.593200 0.133092 0.115162
O O16 0.698953 0.043234 0.735705
#
# Coordination Sequence:
#
# PCOD8046725 Si02
#       8
#     2   2   2   2   2   2   2   2
#     4  11  23  41  68  98 133 176 221 275 329 404
#     4  11  24  41  67  99 129 178 220 278 339 395
#     4  10  22  45  68  93 137 172 224 278 336 399
#     4  10  24  40  66  99 130 172 226 272 334 400
#     4  12  24  41  68  96 132 180 220 272 344 392
#     4  10  24  43  63  95 138 164 227 283 327 403
#     4  11  21  43  70  97 138 172 221 272 336 403
#     4   9  22  44  64  97 133 174 217 286 325 394
#
# _framework density 20.673414999999999
#
# number of rings (size 3 to 8) (size 9 to 14) (size 15 to 20)
#    0.000    1.500    2.500    1.500    5.250    5.000 
#    9.000    0.000    0.000    0.000    0.000    0.000 
#    0.000    0.000    0.000    0.000    0.000    0.000 
#
# Total GULP energy -198339.736345 kJ/mol
# GULP energy per Si atom -12396.233522 kJ/mol
# Density = 2.062636 g / cm^3
# Si number density = 20.673415 Si / 1000 Ang^3
#
#
#
# Elastic Constant Matrix: (Units=GPa)
#
#
# Indices 1 2 3 4 5 6 
#
# 1 66.8805 29.5078 44.0490 0.0000 14.3808 0.0000
# 2 29.5078 135.2901 48.0364 0.0000 15.6305 0.0000
# 3 44.0490 48.0364 152.0818 0.0000 17.1610 0.0000
# 4 0.0000 0.0000 0.0000 32.5684 0.0000 4.6554
# 5 14.3808 15.6305 17.1610 0.0000 39.2540 0.0000
# 6 0.0000 0.0000 0.0000 4.6554 0.0000 28.9638
#
#
#
# Elastic Compliance Matrix: (Units=1/GPa)
#
#
# Indices 1 2 3 4 5 6 
#
# 1 0.019879 -0.002206 -0.004563 0.000000 -0.004409 0.000000
# 2 -0.002206 0.008768 -0.001923 0.000000 -0.001843 0.000000
# 3 -0.004563 -0.001923 0.008656 0.000000 -0.001347 0.000000
# 4 0.000000 0.000000 0.000000 0.031427 0.000000 -0.005051
# 5 -0.004409 -0.001843 -0.001347 0.000000 0.028413 0.000000
# 6 0.000000 0.000000 0.000000 -0.005051 0.000000 0.035338
#
#
# Mechanical properties :
#
#
# Convention : Reuss Voigt Hill
#
# Bulk Modulus (GPa) = 50.20210 66.38209 58.29210
# Shear Modulus (GPa) = 31.94781 35.66784 33.80782
#
# Velocity S-wave (km/s) = 3.93537 4.15818 4.04831
# Velocity P-wave (km/s) = 6.70713 7.43193 7.07881
#
# Compressibility (1/GPa) = 0.01991948
#
# Stress axis : x y z
#
# Youngs Moduli (GPa) = 50.30427 114.04821 115.52098
#
# Poissons Ratio (x) = 0.25160 0.52717
# Poissons Ratio (y) = 0.11097 0.22210
# Poissons Ratio (z) = 0.22956 0.21927
#
# Static dielectric constant tensor:
#      x y z
#    x 3.660910 0.000000 0.370100 
#    y 0.000000 4.049540 0.000000 
#    z 0.370100 0.000000 4.127760 
# 
# 
# High freq. dielectric constant tensor:
#      x y z
#    x 1.784690 0.000000 0.019740 
#    y 0.000000 1.824930 0.000000 
#    z 0.019740 0.000000 1.825940 
# 
# From -- ./inp_files/6141.got.cif
#   From: 2010.03.12/outbox.cif.g09.slc.cpg/sg4_4_cif.got.tgz:6141.got - 2010.03.31 09:31:35.
