data_PCOD8046135
_publ_section_title
;
Structure prediction by ZEFSAII (Michael W. Deem and Ramdas Pophale) SiO2 
 PCOD8046135
Probable space group: P 21
;
_chemical_formula_sum "Si O2"
_cell_formula_units_Z 16
_cell_length_a 18.851797
_cell_length_b 4.970339
_cell_length_c 12.786884
_cell_angle_alpha 90.000000
_cell_angle_beta 42.769745
_cell_angle_gamma 90.000000
_cell_volume 813.593839
_symmetry_space_group_name_H-M "P 21"
_symmetry_group_IT_number 4
_symmetry_cell_setting 'monoclinic'
loop_
_space_group_symop_operation_xyz
x,y,z
-x,1/2+y,-z
loop_
_atom_site_type_symbol
_atom_site_label
_atom_site_fract_x
_atom_site_fract_y
_atom_site_fract_z
Si Si1 0.018918 0.515730 0.115594
Si Si2 0.127469 0.025433 0.913874
Si Si3 0.366599 0.263564 0.166634
Si Si4 0.868887 0.882337 0.600417
Si Si5 0.636893 0.638689 0.372724
Si Si6 0.972070 0.392771 0.398259
Si Si7 0.449966 0.648236 0.425699
Si Si8 0.548502 0.253600 0.816850
O O1 0.914906 0.551354 0.158549
O O2 0.984163 0.526969 0.272378
O O3 0.060846 0.216028 0.059978
O O4 0.108961 0.729132 0.983528
O O5 0.243305 0.146228 0.791308
O O6 0.255231 0.390512 0.259254
O O7 0.415652 0.452606 0.200828
O O8 0.372179 0.967438 0.213903
O O9 0.432000 0.289231 0.988545
O O10 0.889623 0.578327 0.545556
O O11 0.916034 0.922043 0.665392
O O12 0.921348 0.093955 0.461317
O O13 0.567046 0.671506 0.344395
O O14 0.626044 0.341788 0.429064
O O15 0.601754 0.854448 0.499790
O O16 0.454287 0.764815 0.304644
#
# Coordination Sequence:
#
# PCOD8046135 Si02
#       8
#     2   2   2   2   2   2   2   2
#     4  10  21  37  56  81 111 143 183 228 273 326
#     4  10  21  37  56  81 111 143 183 228 273 326
#     4  10  21  37  56  81 112 145 185 230 275 328
#     4  10  21  37  56  82 112 144 184 228 274 327
#     4  10  21  37  57  82 112 144 183 228 273 327
#     4  10  21  37  57  82 112 144 183 228 273 327
#     4  10  21  37  56  82 112 144 184 228 274 327
#     4  10  21  37  56  81 112 145 185 230 275 328
#
# _framework density 19.665834
#
# number of rings (size 3 to 8) (size 9 to 14) (size 15 to 20)
#    0.000    2.000    0.000    3.000    0.000    4.000 
#    0.000    3.750    0.000    0.000    0.000    0.000 
#    0.000    0.000    0.000    0.000    0.000    0.000 
#
# Total GULP energy -198293.074770 kJ/mol
# GULP energy per Si atom -12393.317173 kJ/mol
# Density = 1.962107 g / cm^3
# Si number density = 19.665834 Si / 1000 Ang^3
#
#
#
# Elastic Constant Matrix: (Units=GPa)
#
#
# Indices 1 2 3 4 5 6 
#
# 1 54.6361 16.1457 36.6894 0.0000 -16.0737 0.0000
# 2 16.1457 82.2776 10.7776 0.0000 -2.6393 0.0000
# 3 36.6894 10.7776 60.7429 0.0000 -16.0728 0.0000
# 4 0.0000 0.0000 0.0000 20.2295 0.0000 0.0266
# 5 -16.0737 -2.6393 -16.0728 0.0000 33.3112 0.0000
# 6 0.0000 0.0000 0.0000 0.0266 0.0000 23.0067
#
#
#
# Elastic Compliance Matrix: (Units=1/GPa)
#
#
# Indices 1 2 3 4 5 6 
#
# 1 0.033429 -0.004028 -0.017531 0.000000 0.007352 0.000000
# 2 -0.004028 0.012929 -0.000120 0.000000 -0.000977 0.000000
# 3 -0.017531 -0.000120 0.028467 0.000000 0.005266 0.000000
# 4 0.000000 0.000000 0.000000 0.049433 0.000000 -0.000057
# 5 0.007352 -0.000977 0.005266 0.000000 0.036031 0.000000
# 6 0.000000 0.000000 0.000000 -0.000057 0.000000 0.043466
#
#
# Mechanical properties :
#
#
# Convention : Reuss Voigt Hill
#
# Bulk Modulus (GPa) = 31.77933 36.09801 33.93867
# Shear Modulus (GPa) = 19.40992 24.24574 21.82783
#
# Velocity S-wave (km/s) = 3.14504 3.51506 3.33519
# Velocity P-wave (km/s) = 5.42062 5.90506 5.66802
#
# Compressibility (1/GPa) = 0.03146700
#
# Stress axis : x y z
#
# Youngs Moduli (GPa) = 29.91425 77.34744 35.12880
#
# Poissons Ratio (x) = 0.31153 0.61585
# Poissons Ratio (y) = 0.12048 0.00420
# Poissons Ratio (z) = 0.52444 0.00926
#
# Static dielectric constant tensor:
#      x y z
#    x 3.668390 0.000000 -0.052870 
#    y 0.000000 3.793740 0.000000 
#    z -0.052870 0.000000 3.314170 
# 
# 
# High freq. dielectric constant tensor:
#      x y z
#    x 1.759950 0.000000 -0.002230 
#    y 0.000000 1.788160 0.000000 
#    z -0.002230 0.000000 1.754420 
# 
# From -- ./inp_files/11611.got.cif
#   From: 2010.03.12/outbox.cif.g09.slc.cpg/sg4_6_cif.got.tgz:11611.got - 2010.03.31 09:31:35.
