data_PCOD8046192
_publ_section_title
;
Structure prediction by ZEFSAII (Michael W. Deem and Ramdas Pophale) SiO2 
 PCOD8046192
Probable space group: P 21
;
_chemical_formula_sum "Si O2"
_cell_formula_units_Z 16
_cell_length_a 16.347611
_cell_length_b 6.656749
_cell_length_c 7.603162
_cell_angle_alpha 90.000000
_cell_angle_beta 70.314946
_cell_angle_gamma 90.000000
_cell_volume 779.036856
_symmetry_space_group_name_H-M "P 21"
_symmetry_group_IT_number 4
_symmetry_cell_setting 'monoclinic'
loop_
_space_group_symop_operation_xyz
x,y,z
-x,1/2+y,-z
loop_
_atom_site_type_symbol
_atom_site_label
_atom_site_fract_x
_atom_site_fract_y
_atom_site_fract_z
Si Si1 0.105804 0.582480 0.315974
Si Si2 0.899732 0.769324 0.992246
Si Si3 0.547950 0.065947 0.704897
Si Si4 0.449946 0.429310 0.668465
Si Si5 0.404074 0.814125 0.909183
Si Si6 0.989822 0.929262 0.268114
Si Si7 0.699898 0.016197 0.790832
Si Si8 0.295739 0.190078 0.917431
O O1 0.095808 0.450890 0.148335
O O2 0.065048 0.494016 0.522588
O O3 0.206457 0.616156 0.290362
O O4 0.065079 0.793645 0.295579
O O5 0.965782 0.609050 0.866712
O O6 0.928333 0.821471 0.170352
O O7 0.802414 0.687059 0.083375
O O8 0.524698 0.304981 0.720137
O O9 0.513578 0.962103 0.552325
O O10 0.650126 0.994903 0.640841
O O11 0.487162 0.954941 0.896881
O O12 0.430361 0.653721 0.743846
O O13 0.359486 0.304064 0.737662
O O14 0.323606 0.958349 0.913095
O O15 0.371309 0.681544 0.094346
O O16 0.701970 0.809041 0.897161
#
# Coordination Sequence:
#
# PCOD8046192 Si02
#       8
#     2   2   2   2   2   2   2   2
#     4  11  24  44  65 102 136 168 227 278 331 400
#     4  11  23  42  69  98 133 173 221 267 343 402
#     4  11  22  37  60  88 123 166 208 259 317 374
#     4  10  21  39  59  87 123 162 209 259 305 379
#     4  10  21  40  61  86 121 164 205 260 316 375
#     4  12  23  42  71  99 133 181 215 278 338 400
#     4  10  24  39  63  91 125 165 209 267 322 386
#     4   9  22  41  62  91 124 161 208 268 312 388
#
# _framework density 20.538180000000001
#
# number of rings (size 3 to 8) (size 9 to 14) (size 15 to 20)
#    0.000    1.500    3.750    0.750    7.000    0.000 
#    0.000    1.250    0.000    0.000    0.000    0.000 
#    0.000    0.000    0.000    0.000    0.000    0.000 
#
# Total GULP energy -198218.421924 kJ/mol
# GULP energy per Si atom -12388.651370 kJ/mol
# Density = 2.049143 g / cm^3
# Si number density = 20.538180 Si / 1000 Ang^3
#
#
#
# Elastic Constant Matrix: (Units=GPa)
#
#
# Indices 1 2 3 4 5 6 
#
# 1 132.9238 20.6675 13.8271 0.0000 -8.5810 0.0000
# 2 20.6675 78.1477 6.1562 0.0000 1.5045 0.0000
# 3 13.8271 6.1562 52.9537 0.0000 1.7428 0.0000
# 4 0.0000 0.0000 0.0000 11.7706 0.0000 -2.1933
# 5 -8.5810 1.5045 1.7428 0.0000 22.1451 0.0000
# 6 0.0000 0.0000 0.0000 -2.1933 0.0000 30.8902
#
#
#
# Elastic Compliance Matrix: (Units=1/GPa)
#
#
# Indices 1 2 3 4 5 6 
#
# 1 0.008288 -0.002099 -0.002036 0.000000 0.003514 0.000000
# 2 -0.002099 0.013459 -0.000962 0.000000 -0.001652 0.000000
# 3 -0.002036 -0.000962 0.019602 0.000000 -0.002266 0.000000
# 4 0.000000 0.000000 0.000000 0.086097 0.000000 0.006113
# 5 0.003514 -0.001652 -0.002266 0.000000 0.046809 0.000000
# 6 0.000000 0.000000 0.000000 0.006113 0.000000 0.032807
#
#
# Mechanical properties :
#
#
# Convention : Reuss Voigt Hill
#
# Bulk Modulus (GPa) = 32.09730 38.36963 35.23347
# Shear Modulus (GPa) = 21.96435 27.85281 24.90858
#
# Velocity S-wave (km/s) = 3.27378 3.68659 3.48630
# Velocity P-wave (km/s) = 5.47286 6.06992 5.77910
#
# Compressibility (1/GPa) = 0.03115526
#
# Stress axis : x y z
#
# Youngs Moduli (GPa) = 120.65427 74.29943 51.01403
#
# Poissons Ratio (x) = 0.15597 0.10385
# Poissons Ratio (y) = 0.25328 0.04908
# Poissons Ratio (z) = 0.24563 0.07149
#
# Static dielectric constant tensor:
#      x y z
#    x 3.869240 0.000000 0.021190 
#    y 0.000000 3.859540 0.000000 
#    z 0.021190 0.000000 3.825480 
# 
# 
# High freq. dielectric constant tensor:
#      x y z
#    x 1.806440 0.000000 -0.007020 
#    y 0.000000 1.812160 0.000000 
#    z -0.007020 0.000000 1.802020 
# 
# From -- ./inp_files/9026.got.cif
#   From: 2010.03.12/outbox.cif.g09.slc.cpg/sg4_5_cif.got.tgz:9026.got - 2010.03.31 09:31:35.
