data_PCOD8046745
_publ_section_title
;
Structure prediction by ZEFSAII (Michael W. Deem and Ramdas Pophale) SiO2 
 PCOD8046745
Probable space group: P 21
;
_chemical_formula_sum "Si O2"
_cell_formula_units_Z 16
_cell_length_a 7.092981
_cell_length_b 5.373521
_cell_length_c 19.165608
_cell_angle_alpha 90.000000
_cell_angle_beta 76.355784
_cell_angle_gamma 90.000000
_cell_volume 709.868604
_symmetry_space_group_name_H-M "P 21"
_symmetry_group_IT_number 4
_symmetry_cell_setting 'monoclinic'
loop_
_space_group_symop_operation_xyz
x,y,z
-x,1/2+y,-z
loop_
_atom_site_type_symbol
_atom_site_label
_atom_site_fract_x
_atom_site_fract_y
_atom_site_fract_z
Si Si1 0.713486 0.581590 0.283817
Si Si2 0.196448 0.186633 0.869358
Si Si3 0.362063 0.296254 0.348671
Si Si4 0.029532 0.171707 0.120106
Si Si5 0.979341 0.701439 0.722592
Si Si6 0.335103 0.470755 0.610208
Si Si7 0.873231 0.009441 0.514396
Si Si8 0.391594 0.214537 0.993160
O O1 0.714965 0.756462 0.214722
O O2 0.539372 0.386420 0.284446
O O3 0.638372 0.691236 0.364459
O O4 0.931545 0.478825 0.277607
O O5 0.055310 0.413493 0.903686
O O6 0.357774 0.168498 0.914420
O O7 0.112461 0.908154 0.869633
O O8 0.204876 0.171305 0.311483
O O9 0.246553 0.504892 0.403211
O O10 0.458749 0.105207 0.395450
O O11 0.089075 0.111702 0.194862
O O12 0.202152 0.252983 0.055656
O O13 0.157487 0.546274 0.676357
O O14 0.280740 0.497708 0.534838
O O15 0.012083 0.768272 0.499074
O O16 0.504997 0.471690 0.986765
#
# Coordination Sequence:
#
# PCOD8046745 Si02
#       8
#     2   2   2   2   2   2   2   2
#     4  10  24  42  70  98 136 177 226 284 336 409
#     4  11  23  45  70  96 135 181 224 271 337 404
#     4  11  26  42  70 100 134 181 222 287 341 401
#     4  11  23  44  72  94 133 186 221 270 339 403
#     4  10  22  46  66  99 133 178 229 276 342 406
#     4  11  24  44  68  99 136 174 231 279 342 404
#     4  12  28  47  71  97 139 184 227 282 340 408
#     4  12  26  42  65 105 140 173 226 281 329 397
#
# _framework density 22.539386
#
# number of rings (size 3 to 8) (size 9 to 14) (size 15 to 20)
#    0.000    1.000    2.500    3.000    7.000    2.000 
#    0.000    0.000    0.000    0.000    0.000    0.000 
#    0.000    0.000    0.000    0.000    0.000    0.000 
#
# Total GULP energy -198266.431979 kJ/mol
# GULP energy per Si atom -12391.651999 kJ/mol
# Density = 2.248809 g / cm^3
# Si number density = 22.539386 Si / 1000 Ang^3
#
#
#
# Elastic Constant Matrix: (Units=GPa)
#
#
# Indices 1 2 3 4 5 6 
#
# 1 126.2739 29.5295 31.1574 0.0000 27.9034 0.0000
# 2 29.5295 92.8216 9.5632 0.0000 12.5109 0.0000
# 3 31.1574 9.5632 82.4972 0.0000 28.1930 0.0000
# 4 0.0000 0.0000 0.0000 31.0433 0.0000 3.7556
# 5 27.9034 12.5109 28.1930 0.0000 44.9232 0.0000
# 6 0.0000 0.0000 0.0000 3.7556 0.0000 27.3410
#
#
#
# Elastic Compliance Matrix: (Units=1/GPa)
#
#
# Indices 1 2 3 4 5 6 
#
# 1 0.009907 -0.002374 -0.002023 0.000000 -0.004222 0.000000
# 2 -0.002374 0.011768 0.000189 0.000000 -0.001921 0.000000
# 3 -0.002023 0.000189 0.015852 0.000000 -0.008745 0.000000
# 4 0.000000 0.000000 0.000000 0.032757 0.000000 -0.004500
# 5 -0.004222 -0.001921 -0.008745 0.000000 0.030906 0.000000
# 6 0.000000 0.000000 0.000000 -0.004500 0.000000 0.037193
#
#
# Mechanical properties :
#
#
# Convention : Reuss Voigt Hill
#
# Bulk Modulus (GPa) = 34.35190 49.12143 41.73666
# Shear Modulus (GPa) = 31.94808 36.08434 34.01621
#
# Velocity S-wave (km/s) = 3.76897 4.00552 3.88904
# Velocity P-wave (km/s) = 5.84928 6.57520 6.22283
#
# Compressibility (1/GPa) = 0.02911047
#
# Stress axis : x y z
#
# Youngs Moduli (GPa) = 100.94093 84.97535 63.08239
#
# Poissons Ratio (x) = 0.20174 0.12764
# Poissons Ratio (y) = 0.23964 -0.01193
# Poissons Ratio (z) = 0.20424 -0.01607
#
# Static dielectric constant tensor:
#      x y z
#    x 3.984020 0.000000 0.074530 
#    y 0.000000 4.105670 0.000000 
#    z 0.074530 0.000000 4.192280 
# 
# 
# High freq. dielectric constant tensor:
#      x y z
#    x 1.885300 0.000000 0.003820 
#    y 0.000000 1.890720 0.000000 
#    z 0.003820 0.000000 1.901960 
# 
# From -- ./inp_files/3987.got.cif
#   From: 2010.03.12/outbox.cif.g09.slc.cpg/sg4_2_cif.got.tgz:3987.got - 2010.03.31 09:31:35.
