data_PCOD8046643
_publ_section_title
;
Structure prediction by ZEFSAII (Michael W. Deem and Ramdas Pophale) SiO2 
 PCOD8046643
Probable space group: P 21
;
_chemical_formula_sum "Si O2"
_cell_formula_units_Z 12
_cell_length_a 6.517314
_cell_length_b 7.283068
_cell_length_c 13.246117
_cell_angle_alpha 90.000000
_cell_angle_beta 117.602861
_cell_angle_gamma 90.000000
_cell_volume 557.177742
_symmetry_space_group_name_H-M "P 21"
_symmetry_group_IT_number 4
_symmetry_cell_setting 'monoclinic'
loop_
_space_group_symop_operation_xyz
x,y,z
-x,1/2+y,-z
loop_
_atom_site_type_symbol
_atom_site_label
_atom_site_fract_x
_atom_site_fract_y
_atom_site_fract_z
Si Si1 0.268485 0.187110 0.226989
Si Si2 0.488249 0.965934 0.854486
Si Si3 0.837220 0.641167 0.378462
Si Si4 0.745502 0.156456 0.082387
Si Si5 0.101887 0.291019 0.399368
Si Si6 0.710091 0.011596 0.274294
O O1 0.331088 0.324900 0.151475
O O2 0.260331 0.280248 0.336173
O O3 0.018815 0.114454 0.137083
O O4 0.464240 0.025541 0.277748
O O5 0.376135 0.064310 0.732882
O O6 0.307995 0.863085 0.888804
O O7 0.625081 0.121372 0.947876
O O8 0.776188 0.677054 0.482264
O O9 0.059453 0.506249 0.418829
O O10 0.120047 0.345220 0.656613
O O11 0.652078 0.005234 0.141619
O O12 0.847978 0.203534 0.322798
#
# Coordination Sequence:
#
# PCOD8046643 Si02
#       6
#     2   2   2   2   2   2
#     4  10  22  44  63  96 143 166 228 280 328 406
#     4  11  23  41  67  98 135 175 225 274 339 399
#     4  12  22  43  70  93 134 184 219 277 345 387
#     4  10  22  43  65  96 136 174 216 278 334 409
#     4  11  23  44  66  96 133 178 228 279 328 406
#     4  10  22  43  65  95 135 173 220 278 336 395
#
# _framework density 21.537116000000001
#
# number of rings (size 3 to 8) (size 9 to 14) (size 15 to 20)
#    0.000    1.333    6.667    1.000    0.000    5.333 
#    9.000    0.000    0.000    0.000    0.000    0.000 
#    0.000    0.000    0.000    0.000    0.000    0.000 
#
# Total GULP energy -148689.704730 kJ/mol
# GULP energy per Si atom -12390.808727 kJ/mol
# Density = 2.148810 g / cm^3
# Si number density = 21.537116 Si / 1000 Ang^3
#
#
#
# Elastic Constant Matrix: (Units=GPa)
#
#
# Indices 1 2 3 4 5 6 
#
# 1 111.6453 36.6983 32.8809 0.0000 -7.0605 0.0000
# 2 36.6983 103.3974 34.6689 0.0000 -1.0590 0.0000
# 3 32.8809 34.6689 141.6122 0.0000 -1.2478 0.0000
# 4 0.0000 0.0000 0.0000 46.9437 0.0000 3.6259
# 5 -7.0605 -1.0590 -1.2478 0.0000 21.9785 0.0000
# 6 0.0000 0.0000 0.0000 3.6259 0.0000 14.2276
#
#
#
# Elastic Compliance Matrix: (Units=1/GPa)
#
#
# Indices 1 2 3 4 5 6 
#
# 1 0.010705 -0.003206 -0.001673 0.000000 0.003190 0.000000
# 2 -0.003206 0.011499 -0.002076 0.000000 -0.000594 0.000000
# 3 -0.001673 -0.002076 0.007957 0.000000 -0.000186 0.000000
# 4 0.000000 0.000000 0.000000 0.021730 0.000000 -0.005538
# 5 0.003190 -0.000594 -0.000186 0.000000 0.046484 0.000000
# 6 0.000000 0.000000 0.000000 -0.005538 0.000000 0.071697
#
#
# Mechanical properties :
#
#
# Convention : Reuss Voigt Hill
#
# Bulk Modulus (GPa) = 61.53252 62.79458 62.16355
# Shear Modulus (GPa) = 26.39927 33.45708 29.92818
#
# Velocity S-wave (km/s) = 3.50488 3.94567 3.73179
# Velocity P-wave (km/s) = 6.70905 7.06948 6.89162
#
# Compressibility (1/GPa) = 0.01625157
#
# Stress axis : x y z
#
# Youngs Moduli (GPa) = 93.41358 86.96160 125.68311
#
# Poissons Ratio (x) = 0.27880 0.21022
# Poissons Ratio (y) = 0.29948 0.26092
# Poissons Ratio (z) = 0.15625 0.18054
#
# Static dielectric constant tensor:
#      x y z
#    x 3.606010 0.000000 -0.120350 
#    y 0.000000 3.974080 0.000000 
#    z -0.120350 0.000000 4.189660 
# 
# 
# High freq. dielectric constant tensor:
#      x y z
#    x 1.815560 0.000000 -0.003080 
#    y 0.000000 1.835800 0.000000 
#    z -0.003080 0.000000 1.868130 
# 
# From -- ./inp_files/10271.got.cif
#   From: 2010.03.12/outbox.cif.g09.slc.cpg/sg4_6_cif.got.tgz:10271.got - 2010.03.31 09:31:35.
