data_PCOD8046401
_publ_section_title
;
Structure prediction by ZEFSAII (Michael W. Deem and Ramdas Pophale) SiO2 
 PCOD8046401
Probable space group: P 21
;
_chemical_formula_sum "Si O2"
_cell_formula_units_Z 16
_cell_length_a 8.527711
_cell_length_b 7.912074
_cell_length_c 11.543568
_cell_angle_alpha 90.000000
_cell_angle_beta 124.335906
_cell_angle_gamma 90.000000
_cell_volume 643.144890
_symmetry_space_group_name_H-M "P 21"
_symmetry_group_IT_number 4
_symmetry_cell_setting 'monoclinic'
loop_
_space_group_symop_operation_xyz
x,y,z
-x,1/2+y,-z
loop_
_atom_site_type_symbol
_atom_site_label
_atom_site_fract_x
_atom_site_fract_y
_atom_site_fract_z
Si Si1 0.975489 0.342330 0.666705
Si Si2 0.441892 0.761202 0.785405
Si Si3 0.616796 0.212872 0.620042
Si Si4 0.854017 0.285118 0.135905
Si Si5 0.736320 0.653078 0.082516
Si Si6 0.571697 0.128197 0.849594
Si Si7 0.135540 0.563553 0.544872
Si Si8 0.239175 0.349161 0.387990
O O1 0.762569 0.352870 0.628862
O O2 0.999041 0.188003 0.584745
O O3 0.115982 0.306282 0.834045
O O4 0.035575 0.516330 0.626602
O O5 0.264696 0.778744 0.796456
O O6 0.345263 0.653301 0.641682
O O7 0.534360 0.938866 0.785669
O O8 0.614888 0.664921 0.915860
O O9 0.576701 0.249103 0.739498
O O10 0.421119 0.227809 0.467615
O O11 0.710193 0.029120 0.647855
O O12 0.847999 0.482643 0.102630
O O13 0.077516 0.246452 0.248814
O O14 0.768621 0.159182 0.002761
O O15 0.599922 0.670801 0.136785
O O16 0.161389 0.389528 0.484671
#
# Coordination Sequence:
#
# PCOD8046401 Si02
#       8
#     2   2   2   2   2   2   2   2
#     4  11  25  44  69 104 139 183 240 299 350 424
#     4  10  24  40  73 105 130 180 236 291 350 416
#     4  11  26  46  66 103 143 188 234 290 363 430
#     4  10  21  46  67  99 139 176 237 298 335 427
#     4  10  21  43  68  98 135 175 237 292 344 416
#     4  10  24  43  71  99 138 184 229 290 360 420
#     4  11  24  43  71 102 138 187 241 298 352 421
#     4  11  25  47  65 100 144 187 236 294 354 426
#
# _framework density 24.877752000000001
#
# number of rings (size 3 to 8) (size 9 to 14) (size 15 to 20)
#    0.000    1.500    2.500    1.500   14.000    2.000 
#    2.250    0.000    0.000    0.000    0.000    0.000 
#    0.000    0.000    0.000    0.000    0.000    0.000 
#
# Total GULP energy -198286.978499 kJ/mol
# GULP energy per Si atom -12392.936156 kJ/mol
# Density = 2.482113 g / cm^3
# Si number density = 24.877752 Si / 1000 Ang^3
#
#
#
# Elastic Constant Matrix: (Units=GPa)
#
#
# Indices 1 2 3 4 5 6 
#
# 1 89.7487 22.0073 43.6218 0.0000 21.5853 0.0000
# 2 22.0073 52.4983 30.0986 0.0000 8.8959 0.0000
# 3 43.6218 30.0986 141.3734 0.0000 49.6887 0.0000
# 4 0.0000 0.0000 0.0000 43.9502 0.0000 14.4212
# 5 21.5853 8.8959 49.6887 0.0000 42.2854 0.0000
# 6 0.0000 0.0000 0.0000 14.4212 0.0000 35.0982
#
#
#
# Elastic Compliance Matrix: (Units=1/GPa)
#
#
# Indices 1 2 3 4 5 6 
#
# 1 0.014093 -0.004029 -0.002147 0.000000 -0.003824 0.000000
# 2 -0.004029 0.022902 -0.004535 0.000000 0.002568 0.000000
# 3 -0.002147 -0.004535 0.013596 0.000000 -0.013927 0.000000
# 4 0.000000 0.000000 0.000000 0.026299 0.000000 -0.010806
# 5 -0.003824 0.002568 -0.013927 0.000000 0.041426 0.000000
# 6 0.000000 0.000000 0.000000 -0.010806 0.000000 0.032931
#
#
# Mechanical properties :
#
#
# Convention : Reuss Voigt Hill
#
# Bulk Modulus (GPa) = 34.28239 52.78620 43.53430
# Shear Modulus (GPa) = 27.41335 36.79295 32.10315
#
# Velocity S-wave (km/s) = 3.32312 3.84988 3.59616
# Velocity P-wave (km/s) = 5.34176 6.40519 5.89749
#
# Compressibility (1/GPa) = 0.02916949
#
# Stress axis : x y z
#
# Youngs Moduli (GPa) = 70.95560 43.66381 73.54957
#
# Poissons Ratio (x) = 0.17593 0.15790
# Poissons Ratio (y) = 0.28589 0.33356
# Poissons Ratio (z) = 0.15233 0.19803
#
# Static dielectric constant tensor:
#      x y z
#    x 4.408160 0.000000 0.109650 
#    y 0.000000 4.329910 0.000000 
#    z 0.109650 0.000000 4.617350 
# 
# 
# High freq. dielectric constant tensor:
#      x y z
#    x 1.976100 0.000000 0.012480 
#    y 0.000000 1.975450 0.000000 
#    z 0.012480 0.000000 1.998700 
# 
# From -- ./inp_files/11083.got.cif
#   From: 2010.03.12/outbox.cif.g09.slc.cpg/sg4_6_cif.got.tgz:11083.got - 2010.03.31 09:31:35.
