data_PCOD8046362
_publ_section_title
;
Structure prediction by ZEFSAII (Michael W. Deem and Ramdas Pophale) SiO2 
 PCOD8046362
Probable space group: P 21
;
_chemical_formula_sum "Si O2"
_cell_formula_units_Z 16
_cell_length_a 8.247775
_cell_length_b 11.947976
_cell_length_c 8.751348
_cell_angle_alpha 90.000000
_cell_angle_beta 57.941479
_cell_angle_gamma 90.000000
_cell_volume 730.885066
_symmetry_space_group_name_H-M "P 21"
_symmetry_group_IT_number 4
_symmetry_cell_setting 'monoclinic'
loop_
_space_group_symop_operation_xyz
x,y,z
-x,1/2+y,-z
loop_
_atom_site_type_symbol
_atom_site_label
_atom_site_fract_x
_atom_site_fract_y
_atom_site_fract_z
Si Si1 0.681068 0.992260 0.822676
Si Si2 0.946927 0.232163 0.109004
Si Si3 0.688404 0.241445 0.747353
Si Si4 0.687975 0.777234 0.248142
Si Si5 0.637112 0.682444 0.596544
Si Si6 0.365006 0.841128 0.899278
Si Si7 0.317822 0.521656 0.818583
Si Si8 0.955364 0.791606 0.606689
O O1 0.836252 0.905366 0.681196
O O2 0.737300 0.110274 0.723942
O O3 0.464181 0.961834 0.873522
O O4 0.683851 0.989054 0.003297
O O5 0.842177 0.114778 0.131896
O O6 0.938913 0.257840 0.291329
O O7 0.850690 0.335719 0.059777
O O8 0.165447 0.223607 0.946334
O O9 0.524881 0.265426 0.707662
O O10 0.619896 0.275609 0.948931
O O11 0.879021 0.308383 0.602830
O O12 0.714955 0.706426 0.388417
O O13 0.728735 0.909684 0.254358
O O14 0.531363 0.562788 0.663943
O O15 0.814186 0.690943 0.625671
O O16 0.481711 0.776237 0.711561
#
# Coordination Sequence:
#
# PCOD8046362 Si02
#       8
#     2   2   2   2   2   2   2   2
#     4  11  23  46  72  97 140 185 228 280 354 400
#     4  11  23  43  68 102 143 177 234 283 341 413
#     4  12  23  43  71  99 138 179 229 285 340 406
#     4  12  25  45  70 105 139 180 232 290 338 412
#     4  10  23  42  68  98 139 173 231 284 339 408
#     4  10  21  42  66 100 133 177 223 284 335 409
#     4  11  23  46  72  98 137 187 225 285 352 403
#     4  11  25  45  67 105 141 180 232 287 335 417
#
# _framework density 21.891266999999999
#
# number of rings (size 3 to 8) (size 9 to 14) (size 15 to 20)
#    0.000    1.000    5.000    3.000    0.000    6.000 
#    0.000    0.000    0.000    0.000    0.000    0.000 
#    0.000    0.000    0.000    0.000    0.000    0.000 
#
# Total GULP energy -198397.791931 kJ/mol
# GULP energy per Si atom -12399.861996 kJ/mol
# Density = 2.184144 g / cm^3
# Si number density = 21.891267 Si / 1000 Ang^3
#
#
#
# Elastic Constant Matrix: (Units=GPa)
#
#
# Indices 1 2 3 4 5 6 
#
# 1 102.3095 29.4524 17.6151 0.0000 -0.5468 0.0000
# 2 29.4524 88.5479 27.7508 0.0000 -8.0255 0.0000
# 3 17.6151 27.7508 85.6926 0.0000 -8.1337 0.0000
# 4 0.0000 0.0000 0.0000 33.2333 0.0000 -1.3932
# 5 -0.5468 -8.0255 -8.1337 0.0000 35.6382 0.0000
# 6 0.0000 0.0000 0.0000 -1.3932 0.0000 36.3733
#
#
#
# Elastic Compliance Matrix: (Units=1/GPa)
#
#
# Indices 1 2 3 4 5 6 
#
# 1 0.010943 -0.003325 -0.001255 0.000000 -0.000867 0.000000
# 2 -0.003325 0.013712 -0.003546 0.000000 0.002228 0.000000
# 3 -0.001255 -0.003546 0.013286 0.000000 0.002215 0.000000
# 4 0.000000 0.000000 0.000000 0.030139 0.000000 0.001154
# 5 -0.000867 0.002228 0.002215 0.000000 0.029054 0.000000
# 6 0.000000 0.000000 0.000000 0.001154 0.000000 0.027537
#
#
# Mechanical properties :
#
#
# Convention : Reuss Voigt Hill
#
# Bulk Modulus (GPa) = 46.10447 47.35409 46.72928
# Shear Modulus (GPa) = 33.74912 34.49773 34.12342
#
# Velocity S-wave (km/s) = 3.93067 3.97403 3.95241
# Velocity P-wave (km/s) = 6.45807 6.53725 6.49778
#
# Compressibility (1/GPa) = 0.02168987
#
# Stress axis : x y z
#
# Youngs Moduli (GPa) = 91.38333 72.92652 75.26704
#
# Poissons Ratio (x) = 0.24249 0.09446
# Poissons Ratio (y) = 0.30386 0.26687
# Poissons Ratio (z) = 0.11468 0.25858
#
# Static dielectric constant tensor:
#      x y z
#    x 4.134920 0.000000 -0.123420 
#    y 0.000000 3.963370 0.000000 
#    z -0.123420 0.000000 3.946170 
# 
# 
# High freq. dielectric constant tensor:
#      x y z
#    x 1.869590 0.000000 -0.003540 
#    y 0.000000 1.844220 0.000000 
#    z -0.003540 0.000000 1.869360 
# 
# From -- ./inp_files/6062.got.cif
#   From: 2010.03.12/outbox.cif.g09.slc.cpg/sg4_4_cif.got.tgz:6062.got - 2010.03.31 09:31:35.
