data_PCOD8046527
_publ_section_title
;
Structure prediction by ZEFSAII (Michael W. Deem and Ramdas Pophale) SiO2 
 PCOD8046527
Probable space group: P 21
;
_chemical_formula_sum "Si O2"
_cell_formula_units_Z 16
_cell_length_a 22.806780
_cell_length_b 5.027420
_cell_length_c 20.583639
_cell_angle_alpha 90.000000
_cell_angle_beta 17.482182
_cell_angle_gamma 90.000000
_cell_volume 708.997201
_symmetry_space_group_name_H-M "P 21"
_symmetry_group_IT_number 4
_symmetry_cell_setting 'monoclinic'
loop_
_space_group_symop_operation_xyz
x,y,z
-x,1/2+y,-z
loop_
_atom_site_type_symbol
_atom_site_label
_atom_site_fract_x
_atom_site_fract_y
_atom_site_fract_z
Si Si1 0.176640 0.326090 0.470050
Si Si2 0.022530 0.825573 0.933343
Si Si3 0.357859 0.839677 0.483362
Si Si4 0.197848 0.310837 0.961221
Si Si5 0.059169 0.923143 0.399218
Si Si6 0.155974 0.805524 0.085833
Si Si7 0.602462 0.844797 0.639048
Si Si8 0.517698 0.230804 0.023893
O O1 0.308164 0.457623 0.387694
O O2 0.058659 0.507523 0.542081
O O3 0.995481 0.193388 0.699883
O O4 0.341023 0.145821 0.259659
O O5 0.223597 0.907142 0.686313
O O6 0.058352 0.576034 0.941892
O O7 0.868798 0.742992 0.040649
O O8 0.572234 0.825666 0.284611
O O9 0.314687 0.547883 0.501538
O O10 0.325249 0.053864 0.460006
O O11 0.129675 0.602464 0.054492
O O12 0.110360 0.096553 0.104748
O O13 0.283036 0.827037 0.150741
O O14 0.936829 0.678227 0.558785
O O15 0.369385 0.824822 0.892237
O O16 0.432304 0.475879 0.072160
#
# Coordination Sequence:
#
# PCOD8046527 Si02
#       8
#     2   2   2   2   2   2   2   2
#     4  12  24  41  70  90 132 156 220 260 330 378
#     4  12  24  37  60  94 126 166 214 246 302 374
#     4  10  22  42  63  88 129 163 205 260 316 362
#     4  10  22  42  63  88 129 163 205 260 316 362
#     4  12  25  45  64  92 126 170 211 256 321 390
#     4  10  22  40  64  94 118 161 211 264 318 376
#     4  10  22  40  64  94 118 161 211 264 318 376
#     4  12  25  45  64  92 126 170 211 256 321 390
#
# _framework density 22.567087000000001
#
# number of rings (size 3 to 8) (size 9 to 14) (size 15 to 20)
#    0.000    1.000    2.500    3.750    0.000    5.000 
#    0.000    5.000    0.000    0.000    0.000    0.000 
#    0.000    0.000    0.000    0.000    0.000    0.000 
#
# Total GULP energy -198210.322872 kJ/mol
# GULP energy per Si atom -12388.145179 kJ/mol
# Density = 2.251572 g / cm^3
# Si number density = 22.567087 Si / 1000 Ang^3
#
#
#
# Elastic Constant Matrix: (Units=GPa)
#
#
# Indices 1 2 3 4 5 6 
#
# 1 59.3704 29.7916 140.7664 0.0000 29.4666 0.0000
# 2 29.7916 109.0905 30.0560 0.0000 3.2058 0.0000
# 3 140.7664 30.0560 72.2991 0.0000 -31.3866 0.0000
# 4 0.0000 0.0000 0.0000 12.9874 0.0000 -9.9579
# 5 29.4666 3.2058 -31.3866 0.0000 17.3507 0.0000
# 6 0.0000 0.0000 0.0000 -9.9579 0.0000 3.6100
#
#
#
# Elastic Compliance Matrix: (Units=1/GPa)
#
#
# Indices 1 2 3 4 5 6 
#
# 1 -0.000106 -0.001753 0.005378 0.000000 0.010233 0.000000
# 2 -0.001753 0.009997 -0.001170 0.000000 -0.000986 0.000000
# 3 0.005378 -0.001170 -0.000112 0.000000 -0.009119 0.000000
# 4 0.000000 0.000000 0.000000 -0.069057 0.000000 -0.190489
# 5 0.010233 -0.000986 -0.009119 0.000000 0.023943 0.000000
# 6 0.000000 0.000000 0.000000 -0.190489 0.000000 -0.248442
#
#
# Mechanical properties :
#
#
# Convention : Reuss Voigt Hill
#
# Bulk Modulus (GPa) = 68.08232 71.33199 69.70715
# Shear Modulus (GPa) = -17.61866 9.46601 -4.07633
#
# Velocity S-wave (km/s) = -2.79717 2.05030 -1.34545
# Velocity P-wave (km/s) = 4.44996 6.10593 5.34250
#
# Compressibility (1/GPa) = 0.01468810
#
# Stress axis : x y z
#
# Youngs Moduli (GPa) = -9417.84686 100.03184 -8952.71940
#
# Poissons Ratio (x) = 0.17539 48.14634
# Poissons Ratio (y) = -16.51307 -10.47363
# Poissons Ratio (z) = 50.64772 0.11703
#
# Static dielectric constant tensor:
#      x y z
#    x 4.123090 0.000000 -0.210250 
#    y 0.000000 4.107510 0.000000 
#    z -0.210250 0.000000 4.320670 
# 
# 
# High freq. dielectric constant tensor:
#      x y z
#    x 1.894690 0.000000 -0.016660 
#    y 0.000000 1.869740 0.000000 
#    z -0.016660 0.000000 1.910290 
# 
# From -- ./inp_files/15371.got.cif
#   From: 2010.03.12/outbox.cif.g09.slc.cpg/sg4_8_cif.got.tgz:15371.got - 2010.03.31 09:31:35.
