data_PCOD8046969
_publ_section_title
;
Structure prediction by ZEFSAII (Michael W. Deem and Ramdas Pophale) SiO2 
 PCOD8046969
Probable space group: P 21
;
_chemical_formula_sum "Si O2"
_cell_formula_units_Z 14
_cell_length_a 15.030180
_cell_length_b 8.449409
_cell_length_c 7.200880
_cell_angle_alpha 90.000000
_cell_angle_beta 136.215004
_cell_angle_gamma 90.000000
_cell_volume 632.780959
_symmetry_space_group_name_H-M "P 21"
_symmetry_group_IT_number 4
_symmetry_cell_setting 'monoclinic'
loop_
_space_group_symop_operation_xyz
x,y,z
-x,1/2+y,-z
loop_
_atom_site_type_symbol
_atom_site_label
_atom_site_fract_x
_atom_site_fract_y
_atom_site_fract_z
Si Si1 0.947457 0.089580 0.025195
Si Si2 0.110039 0.941676 0.583870
Si Si3 0.319919 0.527876 0.205674
Si Si4 0.070928 0.389167 0.343774
Si Si5 0.646283 0.235161 0.088456
Si Si6 0.275265 0.244653 0.879310
Si Si7 0.517321 0.041177 0.191279
O O1 0.013920 0.258715 0.120495
O O2 0.807503 0.105809 0.903667
O O3 0.036873 0.973212 0.281411
O O4 0.934702 0.045494 0.788908
O O5 0.207544 0.798076 0.689900
O O6 0.007648 0.892746 0.583935
O O7 0.181806 0.095525 0.774831
O O8 0.428316 0.509078 0.523586
O O9 0.379447 0.646463 0.143877
O O10 0.286128 0.353741 0.077712
O O11 0.217983 0.348414 0.621863
O O12 0.628544 0.101969 0.220382
O O13 0.547711 0.378784 0.974432
O O14 0.414593 0.182618 0.035304
#
# Coordination Sequence:
#
# PCOD8046969 Si02
#       7
#     2   2   2   2   2   2   2
#     4  11  26  38  70 102 132 181 219 274 340 408
#     4  10  23  46  66  99 143 173 223 279 344 401
#     4  12  24  42  69 100 133 177 230 275 338 397
#     4  11  24  44  66 102 139 173 224 279 339 405
#     4  11  25  45  70  96 139 180 225 286 335 401
#     4  10  24  46  68  98 137 183 222 281 335 405
#     4  11  26  45  69  99 133 183 231 278 337 401
#
# _framework density 22.124559000000001
#
# number of rings (size 3 to 8) (size 9 to 14) (size 15 to 20)
#    0.000    1.143    2.857    1.714    8.000    0.000 
#    0.000    2.857    0.000    0.000    0.000    0.000 
#    0.000    0.000    0.000    0.000    0.000    0.000 
#
# Total GULP energy -173626.349157 kJ/mol
# GULP energy per Si atom -12401.882083 kJ/mol
# Density = 2.207420 g / cm^3
# Si number density = 22.124559 Si / 1000 Ang^3
#
#
#
# Elastic Constant Matrix: (Units=GPa)
#
#
# Indices 1 2 3 4 5 6 
#
# 1 78.0035 31.3435 23.4552 0.0000 -5.2499 0.0000
# 2 31.3435 60.5533 21.8203 0.0000 1.0926 0.0000
# 3 23.4552 21.8203 85.8541 0.0000 5.5768 0.0000
# 4 0.0000 0.0000 0.0000 40.6550 0.0000 -3.5817
# 5 -5.2499 1.0926 5.5768 0.0000 28.7589 0.0000
# 6 0.0000 0.0000 0.0000 -3.5817 0.0000 36.2219
#
#
#
# Elastic Compliance Matrix: (Units=1/GPa)
#
#
# Indices 1 2 3 4 5 6 
#
# 1 0.017141 -0.007886 -0.002938 0.000000 0.003999 0.000000
# 2 -0.007886 0.021809 -0.003282 0.000000 -0.001632 0.000000
# 3 -0.002938 -0.003282 0.013481 0.000000 -0.003026 0.000000
# 4 0.000000 0.000000 0.000000 0.024813 0.000000 0.002454
# 5 0.003999 -0.001632 -0.003026 0.000000 0.036150 0.000000
# 6 0.000000 0.000000 0.000000 0.002454 0.000000 0.027850
#
#
# Mechanical properties :
#
#
# Convention : Reuss Voigt Hill
#
# Bulk Modulus (GPa) = 41.29230 41.96098 41.62664
# Shear Modulus (GPa) = 28.16406 30.97998 29.57202
#
# Velocity S-wave (km/s) = 3.57175 3.74605 3.65994
# Velocity P-wave (km/s) = 5.97612 6.14146 6.05935
#
# Compressibility (1/GPa) = 0.02421759
#
# Stress axis : x y z
#
# Youngs Moduli (GPa) = 58.33839 45.85365 74.17721
#
# Poissons Ratio (x) = 0.36160 0.21797
# Poissons Ratio (y) = 0.46005 0.24347
# Poissons Ratio (z) = 0.17143 0.15051
#
# Static dielectric constant tensor:
#      x y z
#    x 3.856930 0.000000 0.152980 
#    y 0.000000 4.042920 0.000000 
#    z 0.152980 0.000000 4.004680 
# 
# 
# High freq. dielectric constant tensor:
#      x y z
#    x 1.868460 0.000000 0.009630 
#    y 0.000000 1.883570 0.000000 
#    z 0.009630 0.000000 1.877150 
# 
# From -- ./inp_files/2365.got.cif
#   From: 2010.03.12/outbox.cif.g09.slc.cpg/sg4_2_cif.got.tgz:2365.got - 2010.03.31 09:31:35.
