data_PCOD8046004
_publ_section_title
;
Structure prediction by ZEFSAII (Michael W. Deem and Ramdas Pophale) SiO2 
 PCOD8046004
Probable space group: P 21
;
_chemical_formula_sum "Si O2"
_cell_formula_units_Z 16
_cell_length_a 18.317762
_cell_length_b 8.521895
_cell_length_c 9.706406
_cell_angle_alpha 90.000000
_cell_angle_beta 28.886200
_cell_angle_gamma 90.000000
_cell_volume 731.945033
_symmetry_space_group_name_H-M "P 21"
_symmetry_group_IT_number 4
_symmetry_cell_setting 'monoclinic'
loop_
_space_group_symop_operation_xyz
x,y,z
-x,1/2+y,-z
loop_
_atom_site_type_symbol
_atom_site_label
_atom_site_fract_x
_atom_site_fract_y
_atom_site_fract_z
Si Si1 0.906794 0.030410 0.484144
Si Si2 0.971753 0.871320 0.109403
Si Si3 0.374340 0.313762 0.355821
Si Si4 0.368020 0.489178 0.636766
Si Si5 0.564769 0.009059 0.997581
Si Si6 0.437527 0.276213 0.765790
Si Si7 0.033495 0.563307 0.140673
Si Si8 0.107813 0.195069 0.364941
O O1 0.998776 0.161548 0.415454
O O2 0.974986 0.011714 0.217371
O O3 0.930522 0.870103 0.527326
O O4 0.729745 0.074507 0.769096
O O5 0.803283 0.801201 0.378556
O O6 0.072065 0.725542 0.995769
O O7 0.030139 0.937631 0.866219
O O8 0.412519 0.363814 0.447181
O O9 0.442185 0.143548 0.216875
O O10 0.441725 0.450747 0.148559
O O11 0.431740 0.424615 0.673648
O O12 0.432805 0.659949 0.497257
O O13 0.188474 0.501766 0.948665
O O14 0.521539 0.853575 0.155822
O O15 0.280870 0.178686 0.031217
O O16 0.917877 0.583327 0.458890
#
# Coordination Sequence:
#
# PCOD8046004 Si02
#       8
#     2   2   2   2   2   2   2   2
#     4   9  20  36  57  87 118 150 195 245 293 349
#     4   9  21  37  56  85 118 149 196 248 295 350
#     4  10  21  38  60  89 123 159 199 246 298 354
#     4  11  24  41  60  89 123 158 199 249 301 355
#     4  10  20  39  61  88 124 159 198 247 295 355
#     4  11  24  41  61  89 122 158 201 248 297 357
#     4  10  21  39  60  85 119 155 195 243 295 354
#     4  10  21  39  61  86 117 154 197 244 292 352
#
# _framework density 21.859566999999998
#
# number of rings (size 3 to 8) (size 9 to 14) (size 15 to 20)
#    0.000    2.000    0.000    3.750    0.000    7.000 
#    0.000    3.750    0.000    0.000    0.000    0.000 
#    0.000    0.000    0.000    0.000    0.000    0.000 
#
# Total GULP energy -198434.468348 kJ/mol
# GULP energy per Si atom -12402.154272 kJ/mol
# Density = 2.180981 g / cm^3
# Si number density = 21.859567 Si / 1000 Ang^3
#
#
#
# Elastic Constant Matrix: (Units=GPa)
#
#
# Indices 1 2 3 4 5 6 
#
# 1 67.4130 7.0280 16.9195 0.0000 2.3610 0.0000
# 2 7.0280 57.6624 24.5115 0.0000 -8.3608 0.0000
# 3 16.9195 24.5115 55.3118 0.0000 6.0703 0.0000
# 4 0.0000 0.0000 0.0000 38.8841 0.0000 -3.1744
# 5 2.3610 -8.3608 6.0703 0.0000 15.1432 0.0000
# 6 0.0000 0.0000 0.0000 -3.1744 0.0000 44.7580
#
#
#
# Elastic Compliance Matrix: (Units=1/GPa)
#
#
# Indices 1 2 3 4 5 6 
#
# 1 0.016072 0.000036 -0.004874 0.000000 -0.000533 0.000000
# 2 0.000036 0.026066 -0.013745 0.000000 0.019896 0.000000
# 3 -0.004874 -0.013745 0.027626 0.000000 -0.017903 0.000000
# 4 0.000000 0.000000 0.000000 0.025867 0.000000 0.001835
# 5 -0.000533 0.019896 -0.017903 0.000000 0.084281 0.000000
# 6 0.000000 0.000000 0.000000 0.001835 0.000000 0.022473
#
#
# Mechanical properties :
#
#
# Convention : Reuss Voigt Hill
#
# Bulk Modulus (GPa) = 30.67755 30.81169 30.74462
# Shear Modulus (GPa) = 19.96665 28.55227 24.25946
#
# Velocity S-wave (km/s) = 3.02554 3.61802 3.33496
# Velocity P-wave (km/s) = 5.12538 5.61954 5.37814
#
# Compressibility (1/GPa) = 0.03259713
#
# Stress axis : x y z
#
# Youngs Moduli (GPa) = 62.21968 38.36443 36.19739
#
# Poissons Ratio (x) = -0.00137 0.17642
# Poissons Ratio (y) = -0.00222 0.49755
# Poissons Ratio (z) = 0.30324 0.52734
#
# Static dielectric constant tensor:
#      x y z
#    x 4.068450 0.000000 0.225420 
#    y 0.000000 3.717950 0.000000 
#    z 0.225420 0.000000 3.883040 
# 
# 
# High freq. dielectric constant tensor:
#      x y z
#    x 1.869220 0.000000 0.018440 
#    y 0.000000 1.851410 0.000000 
#    z 0.018440 0.000000 1.849850 
# 
# From -- ./inp_files/5378.got.cif
#   From: 2010.03.12/outbox.cif.g09.slc.cpg/sg4_3_cif.got.tgz:5378.got - 2010.03.31 09:31:35.
