data_PCOD8046817
_publ_section_title
;
Structure prediction by ZEFSAII (Michael W. Deem and Ramdas Pophale) SiO2 
 PCOD8046817
Probable space group: P 21
;
_chemical_formula_sum "Si O2"
_cell_formula_units_Z 16
_cell_length_a 20.203382
_cell_length_b 5.192339
_cell_length_c 9.331937
_cell_angle_alpha 90.000000
_cell_angle_beta 135.391449
_cell_angle_gamma 90.000000
_cell_volume 687.474222
_symmetry_space_group_name_H-M "P 21"
_symmetry_group_IT_number 4
_symmetry_cell_setting 'monoclinic'
loop_
_space_group_symop_operation_xyz
x,y,z
-x,1/2+y,-z
loop_
_atom_site_type_symbol
_atom_site_label
_atom_site_fract_x
_atom_site_fract_y
_atom_site_fract_z
Si Si1 0.026383 0.771800 0.449182
Si Si2 0.039004 0.245614 0.980683
Si Si3 0.450576 0.493400 0.270602
Si Si4 0.580810 0.826121 0.306241
Si Si5 0.654584 0.774658 0.133383
Si Si6 0.226605 0.778248 0.634411
Si Si7 0.769088 0.507068 0.657330
Si Si8 0.367178 0.728285 0.393870
O O1 0.137090 0.813467 0.598089
O O2 0.011521 0.510755 0.516434
O O3 0.979518 0.755376 0.218407
O O4 0.014742 0.510665 0.024121
O O5 0.150777 0.206255 0.174431
O O6 0.481141 0.728287 0.214568
O O7 0.367199 0.547748 0.255768
O O8 0.546181 0.424325 0.503866
O O9 0.400555 0.273895 0.101029
O O10 0.572432 0.837779 0.122257
O O11 0.671186 0.643413 0.469002
O O12 0.604888 0.099816 0.411744
O O13 0.697427 0.491223 0.205580
O O14 0.735320 0.990624 0.280076
O O15 0.196550 0.825035 0.421441
O O16 0.738460 0.340102 0.750372
#
# Coordination Sequence:
#
# PCOD8046817 Si02
#       8
#     2   2   2   2   2   2   2   2
#     4  12  27  50  75 110 155 194 237 312 394 445
#     4  12  27  47  84 112 142 197 256 310 363 469
#     4  11  25  40  68 100 140 191 239 290 361 424
#     4  10  23  41  67  94 143 181 232 295 352 419
#     4  11  26  42  73 102 137 191 244 287 351 439
#     4  11  24  48  71 103 144 186 234 305 361 428
#     4  10  24  44  74 104 134 186 246 297 361 426
#     4  11  22  44  64  99 145 186 232 306 359 424
#
# _framework density 23.273598
#
# number of rings (size 3 to 8) (size 9 to 14) (size 15 to 20)
#    0.000    1.000    3.750    1.500    8.750    1.000 
#    4.500    0.000    0.000    0.000    0.000    0.000 
#    0.000    0.000    0.000    0.000    0.000    0.000 
#
# Total GULP energy -198291.475297 kJ/mol
# GULP energy per Si atom -12393.217206 kJ/mol
# Density = 2.322063 g / cm^3
# Si number density = 23.273598 Si / 1000 Ang^3
#
#
#
# Elastic Constant Matrix: (Units=GPa)
#
#
# Indices 1 2 3 4 5 6 
#
# 1 150.5714 32.5444 31.8190 0.0000 -17.4808 0.0000
# 2 32.5444 86.4202 8.8500 0.0000 -7.4822 0.0000
# 3 31.8190 8.8500 81.2735 0.0000 -23.0529 0.0000
# 4 0.0000 0.0000 0.0000 28.7384 0.0000 -2.2313
# 5 -17.4808 -7.4822 -23.0529 0.0000 34.3849 0.0000
# 6 0.0000 0.0000 0.0000 -2.2313 0.0000 45.5373
#
#
#
# Elastic Compliance Matrix: (Units=1/GPa)
#
#
# Indices 1 2 3 4 5 6 
#
# 1 0.007901 -0.002576 -0.002263 0.000000 0.001939 0.000000
# 2 -0.002576 0.012664 0.000049 0.000000 0.001479 0.000000
# 3 -0.002263 0.000049 0.015882 0.000000 0.009508 0.000000
# 4 0.000000 0.000000 0.000000 0.034930 0.000000 0.001712
# 5 0.001939 0.001479 0.009508 0.000000 0.036765 0.000000
# 6 0.000000 0.000000 0.000000 0.001712 0.000000 0.022044
#
#
# Mechanical properties :
#
#
# Convention : Reuss Voigt Hill
#
# Bulk Modulus (GPa) = 37.21916 51.63244 44.42580
# Shear Modulus (GPa) = 33.61992 38.06890 35.84441
#
# Velocity S-wave (km/s) = 3.80485 4.04878 3.92871
# Velocity P-wave (km/s) = 5.94384 6.64003 6.30156
#
# Compressibility (1/GPa) = 0.02686788
#
# Stress axis : x y z
#
# Youngs Moduli (GPa) = 126.55873 78.96113 62.96592
#
# Poissons Ratio (x) = 0.20340 0.14248
# Poissons Ratio (y) = 0.32601 -0.00308
# Poissons Ratio (z) = 0.28639 -0.00387
#
# Static dielectric constant tensor:
#      x y z
#    x 4.766840 0.000000 -0.149800 
#    y 0.000000 4.327190 0.000000 
#    z -0.149800 0.000000 4.020620 
# 
# 
# High freq. dielectric constant tensor:
#      x y z
#    x 1.941210 0.000000 -0.006080 
#    y 0.000000 1.926530 0.000000 
#    z -0.006080 0.000000 1.903730 
# 
# From -- ./inp_files/8718.got.cif
#   From: 2010.03.12/outbox.cif.g09.slc.cpg/sg4_5_cif.got.tgz:8718.got - 2010.03.31 09:31:35.
