data_PCOD8046249
_publ_section_title
;
Structure prediction by ZEFSAII (Michael W. Deem and Ramdas Pophale) SiO2 
 PCOD8046249
Probable space group: P 21
;
_chemical_formula_sum "Si O2"
_cell_formula_units_Z 16
_cell_length_a 8.286401
_cell_length_b 13.046056
_cell_length_c 6.463101
_cell_angle_alpha 90.000000
_cell_angle_beta 92.437602
_cell_angle_gamma 90.000000
_cell_volume 698.060350
_symmetry_space_group_name_H-M "P 21"
_symmetry_group_IT_number 4
_symmetry_cell_setting 'monoclinic'
loop_
_space_group_symop_operation_xyz
x,y,z
-x,1/2+y,-z
loop_
_atom_site_type_symbol
_atom_site_label
_atom_site_fract_x
_atom_site_fract_y
_atom_site_fract_z
Si Si1 0.485783 0.339340 0.575486
Si Si2 0.820662 0.088267 0.579370
Si Si3 0.008580 0.942117 0.861098
Si Si4 0.183881 0.424087 0.756458
Si Si5 0.512784 0.008271 0.752413
Si Si6 0.325426 0.144024 0.469286
Si Si7 0.669796 0.475908 0.864021
Si Si8 0.995061 0.777438 0.524187
O O1 0.340839 0.354587 0.731850
O O2 0.452416 0.403543 0.366805
O O3 0.479991 0.221614 0.499625
O O4 0.646232 0.379653 0.703840
O O5 0.666499 0.081738 0.722645
O O6 0.853298 0.207717 0.533549
O O7 0.974716 0.034402 0.699040
O O8 0.790017 0.032729 0.357486
O O9 0.028379 0.833581 0.744567
O O10 0.166302 0.963187 0.002983
O O11 0.851988 0.938009 0.003071
O O12 0.030560 0.364243 0.649815
O O13 0.348934 0.062380 0.656591
O O14 0.484445 0.982428 0.990600
O O15 0.158129 0.203058 0.466164
O O16 0.332224 0.083792 0.254168
#
# Coordination Sequence:
#
# PCOD8046249 Si02
#       8
#     2   2   2   2   2   2   2   2
#     4   9  21  41  61  84 122 161 203 252 304 363
#     4  10  21  40  61  86 125 162 200 253 309 366
#     4  11  23  38  63  93 122 158 206 259 310 366
#     4   9  20  39  60  86 117 157 203 251 305 362
#     4  10  22  39  62  91 123 163 206 251 302 364
#     4  10  22  41  63  87 122 166 205 252 308 365
#     4  11  23  39  63  94 123 159 207 255 306 369
#     4  10  22  39  61  89 122 160 202 253 312 365
#
# _framework density 22.920655
#
# number of rings (size 3 to 8) (size 9 to 14) (size 15 to 20)
#    0.000    2.000    0.000    3.000    0.000   10.000 
#    0.000    2.500    0.000    0.000    0.000    0.000 
#    0.000    0.000    0.000    0.000    0.000    0.000 
#
# Total GULP energy -198361.408514 kJ/mol
# GULP energy per Si atom -12397.588032 kJ/mol
# Density = 2.286849 g / cm^3
# Si number density = 22.920655 Si / 1000 Ang^3
#
#
#
# Elastic Constant Matrix: (Units=GPa)
#
#
# Indices 1 2 3 4 5 6 
#
# 1 42.7763 -0.4250 8.1713 0.0000 8.3218 0.0000
# 2 -0.4250 90.4375 33.3445 0.0000 4.4685 0.0000
# 3 8.1713 33.3445 95.6475 0.0000 0.8835 0.0000
# 4 0.0000 0.0000 0.0000 33.3602 0.0000 2.9469
# 5 8.3218 4.4685 0.8835 0.0000 37.4644 0.0000
# 6 0.0000 0.0000 0.0000 2.9469 0.0000 30.9790
#
#
#
# Elastic Compliance Matrix: (Units=1/GPa)
#
#
# Indices 1 2 3 4 5 6 
#
# 1 0.024976 0.001336 -0.002547 0.000000 -0.005647 0.000000
# 2 0.001336 0.012835 -0.004573 0.000000 -0.001720 0.000000
# 3 -0.002547 -0.004573 0.012259 0.000000 0.000822 0.000000
# 4 0.000000 0.000000 0.000000 0.030230 0.000000 -0.002876
# 5 -0.005647 -0.001720 0.000822 0.000000 0.028132 0.000000
# 6 0.000000 0.000000 0.000000 -0.002876 0.000000 0.032553
#
#
# Mechanical properties :
#
#
# Convention : Reuss Voigt Hill
#
# Bulk Modulus (GPa) = 25.97324 34.56032 30.26678
# Shear Modulus (GPa) = 30.23213 32.87877 31.55545
#
# Velocity S-wave (km/s) = 3.63573 3.79154 3.71445
# Velocity P-wave (km/s) = 5.38341 5.85480 5.62404
#
# Compressibility (1/GPa) = 0.03850117
#
# Stress axis : x y z
#
# Youngs Moduli (GPa) = 40.03868 77.91484 81.57173
#
# Poissons Ratio (x) = -0.10406 0.20778
# Poissons Ratio (y) = -0.05347 0.37299
# Poissons Ratio (z) = 0.10198 0.35627
#
# Static dielectric constant tensor:
#      x y z
#    x 4.051350 0.000000 0.026170 
#    y 0.000000 4.167560 0.000000 
#    z 0.026170 0.000000 4.089310 
# 
# 
# High freq. dielectric constant tensor:
#      x y z
#    x 1.908160 0.000000 0.005540 
#    y 0.000000 1.900980 0.000000 
#    z 0.005540 0.000000 1.901250 
# 
# From -- ./inp_files/1444.got.cif
#   From: 2010.03.12/outbox.cif.g09.slc.cpg/sg4_1_cif.got.tgz:1444.got - 2010.03.31 09:31:35.
