data_PCOD8046950
_publ_section_title
;
Structure prediction by ZEFSAII (Michael W. Deem and Ramdas Pophale) SiO2 
 PCOD8046950
Probable space group: P 21
;
_chemical_formula_sum "Si O2"
_cell_formula_units_Z 14
_cell_length_a 4.995065
_cell_length_b 8.237145
_cell_length_c 12.077894
_cell_angle_alpha 90.000000
_cell_angle_beta 77.996397
_cell_angle_gamma 90.000000
_cell_volume 486.079893
_symmetry_space_group_name_H-M "P 21"
_symmetry_group_IT_number 4
_symmetry_cell_setting 'monoclinic'
loop_
_space_group_symop_operation_xyz
x,y,z
-x,1/2+y,-z
loop_
_atom_site_type_symbol
_atom_site_label
_atom_site_fract_x
_atom_site_fract_y
_atom_site_fract_z
Si Si1 0.050441 0.613720 0.218416
Si Si2 0.158095 0.830378 0.637324
Si Si3 0.107482 0.279428 0.559988
Si Si4 0.458971 0.045034 0.403733
Si Si5 0.519699 0.893003 0.922516
Si Si6 0.231902 0.103995 0.211964
Si Si7 0.054427 0.388075 0.931053
O O1 0.823776 0.484553 0.281363
O O2 0.342772 0.525315 0.171068
O O3 0.954563 0.704302 0.114797
O O4 0.070605 0.747825 0.314076
O O5 0.118504 0.855152 0.506210
O O6 0.887923 0.733703 0.692552
O O7 0.417203 0.721278 0.638360
O O8 0.229175 0.103734 0.513099
O O9 0.336963 0.419243 0.555597
O O10 0.371239 0.978966 0.288505
O O11 0.570413 0.704696 0.886459
O O12 0.191970 0.913469 0.958211
O O13 0.653950 0.916104 0.034504
O O14 0.991590 0.016056 0.163854
#
# Coordination Sequence:
#
# PCOD8046950 Si02
#       7
#     2   2   2   2   2   2   2
#     4  11  25  45  75 108 147 203 251 316 393 453
#     4  10  23  45  68 105 154 192 253 306 383 464
#     4  11  24  44  70 114 151 203 254 307 391 465
#     4  11  24  44  73 107 160 202 250 321 371 477
#     4  11  27  49  73 105 149 191 256 317 377 449
#     4  10  25  43  72 102 144 198 244 316 383 445
#     4  12  26  48  73 109 145 191 258 315 378 451
#
# _framework density 28.801849000000001
#
# number of rings (size 3 to 8) (size 9 to 14) (size 15 to 20)
#    0.000    1.143    0.000    4.286    8.000    4.571 
#   10.286    0.000    0.000    0.000    0.000    0.000 
#    0.000    0.000    0.000    0.000    0.000    0.000 
#
# Total GULP energy -173510.857322 kJ/mol
# GULP energy per Si atom -12393.632666 kJ/mol
# Density = 2.873630 g / cm^3
# Si number density = 28.801849 Si / 1000 Ang^3
#
#
#
# Elastic Constant Matrix: (Units=GPa)
#
#
# Indices 1 2 3 4 5 6 
#
# 1 67.3469 4.5171 -0.0623 0.0000 11.5273 0.0000
# 2 4.5171 119.3574 30.1563 0.0000 -1.3712 0.0000
# 3 -0.0623 30.1563 118.7781 0.0000 19.2181 0.0000
# 4 0.0000 0.0000 0.0000 41.7719 0.0000 -5.2341
# 5 11.5273 -1.3712 19.2181 0.0000 32.3006 0.0000
# 6 0.0000 0.0000 0.0000 -5.2341 0.0000 46.9163
#
#
#
# Elastic Compliance Matrix: (Units=1/GPa)
#
#
# Indices 1 2 3 4 5 6 
#
# 1 0.016040 -0.001018 0.001328 0.000000 -0.006558 0.000000
# 2 -0.001018 0.009126 -0.002699 0.000000 0.002356 0.000000
# 3 0.001328 -0.002699 0.010180 0.000000 -0.006645 0.000000
# 4 0.000000 0.000000 0.000000 0.024279 0.000000 0.002709
# 5 -0.006558 0.002356 -0.006645 0.000000 0.037353 0.000000
# 6 0.000000 0.000000 0.000000 0.002709 0.000000 0.021617
#
#
# Mechanical properties :
#
#
# Convention : Reuss Voigt Hill
#
# Bulk Modulus (GPa) = 32.71305 41.63385 37.17345
# Shear Modulus (GPa) = 37.43575 42.25584 39.84579
#
# Velocity S-wave (km/s) = 3.60914 3.83446 3.72351
# Velocity P-wave (km/s) = 5.36195 5.83873 5.60541
#
# Compressibility (1/GPa) = 0.03056884
#
# Stress axis : x y z
#
# Youngs Moduli (GPa) = 62.34241 109.58153 98.23059
#
# Poissons Ratio (x) = 0.11154 -0.13044
# Poissons Ratio (y) = 0.06346 0.26509
# Poissons Ratio (z) = -0.08278 0.29572
#
# Static dielectric constant tensor:
#      x y z
#    x 4.689370 0.000000 0.012750 
#    y 0.000000 5.397460 0.000000 
#    z 0.012750 0.000000 5.848080 
# 
# 
# High freq. dielectric constant tensor:
#      x y z
#    x 2.142660 0.000000 0.003850 
#    y 0.000000 2.197100 0.000000 
#    z 0.003850 0.000000 2.191960 
# 
# From -- ./inp_files/7687.got.cif
#   From: 2010.03.12/outbox.cif.g09.slc.cpg/sg4_4_cif.got.tgz:7687.got - 2010.03.31 09:31:35.
