data_PCOD8046926
_publ_section_title
;
Structure prediction by ZEFSAII (Michael W. Deem and Ramdas Pophale) SiO2 
 PCOD8046926
Probable space group: P 21
;
_chemical_formula_sum "Si O2"
_cell_formula_units_Z 12
_cell_length_a 23.446451
_cell_length_b 4.804296
_cell_length_c 8.510929
_cell_angle_alpha 90.000000
_cell_angle_beta 146.945637
_cell_angle_gamma 90.000000
_cell_volume 522.909424
_symmetry_space_group_name_H-M "P 21"
_symmetry_group_IT_number 4
_symmetry_cell_setting 'monoclinic'
loop_
_space_group_symop_operation_xyz
x,y,z
-x,1/2+y,-z
loop_
_atom_site_type_symbol
_atom_site_label
_atom_site_fract_x
_atom_site_fract_y
_atom_site_fract_z
Si Si1 0.035609 0.419100 0.672847
Si Si2 0.747663 0.936407 0.690773
Si Si3 0.434592 0.746856 0.166781
Si Si4 0.951643 0.490103 0.807634
Si Si5 0.741099 0.416592 0.465226
Si Si6 0.423296 0.733641 0.489852
O O1 0.027585 0.640799 0.514455
O O2 0.980417 0.560059 0.695623
O O3 0.157320 0.335576 0.979751
O O4 0.702588 0.670944 0.489335
O O5 0.797567 0.172765 0.694349
O O6 0.659383 0.105657 0.581311
O O7 0.380318 0.696095 0.211881
O O8 0.536528 0.546454 0.374556
O O9 0.470222 0.064371 0.251691
O O10 0.352242 0.745489 0.835019
O O11 0.826501 0.529627 0.539371
O O12 0.011155 0.677698 0.072108
#
# Coordination Sequence:
#
# PCOD8046926 Si02
#       6
#     2   2   2   2   2   2
#     4  12  26  44  67 103 140 182 230 280 342 407
#     4  12  25  44  68 102 140 178 231 287 341 402
#     4  10  23  44  68  99 131 178 228 277 350 405
#     4  12  23  46  68  97 145 182 219 284 341 408
#     4  12  24  43  70 102 134 184 230 276 348 412
#     4  10  23  45  67  97 138 172 224 292 336 404
#
# _framework density 22.948523000000002
#
# number of rings (size 3 to 8) (size 9 to 14) (size 15 to 20)
#    0.000    0.667    3.333    4.000    2.333    2.667 
#    6.000    0.000    0.000    0.000    0.000    0.000 
#    0.000    0.000    0.000    0.000    0.000    0.000 
#
# Total GULP energy -148752.403389 kJ/mol
# GULP energy per Si atom -12396.033616 kJ/mol
# Density = 2.289629 g / cm^3
# Si number density = 22.948523 Si / 1000 Ang^3
#
#
#
# Elastic Constant Matrix: (Units=GPa)
#
#
# Indices 1 2 3 4 5 6 
#
# 1 83.4853 22.4299 52.1301 0.0000 0.5168 0.0000
# 2 22.4299 108.6284 37.7762 0.0000 -11.5220 0.0000
# 3 52.1301 37.7762 119.7419 0.0000 -8.2465 0.0000
# 4 0.0000 0.0000 0.0000 38.4422 0.0000 -5.4522
# 5 0.5168 -11.5220 -8.2465 0.0000 24.4562 0.0000
# 6 0.0000 0.0000 0.0000 -5.4522 0.0000 36.6312
#
#
#
# Elastic Compliance Matrix: (Units=1/GPa)
#
#
# Indices 1 2 3 4 5 6 
#
# 1 0.016813 -0.001353 -0.007126 0.000000 -0.003396 0.000000
# 2 -0.001353 0.010818 -0.002529 0.000000 0.004272 0.000000
# 3 -0.007126 -0.002529 0.012470 0.000000 0.003164 0.000000
# 4 0.000000 0.000000 0.000000 0.026574 0.000000 0.003955
# 5 -0.003396 0.004272 0.003164 0.000000 0.044041 0.000000
# 6 0.000000 0.000000 0.000000 0.003955 0.000000 0.027888
#
#
# Mechanical properties :
#
#
# Convention : Reuss Voigt Hill
#
# Bulk Modulus (GPa) = 55.30417 59.61424 57.45921
# Shear Modulus (GPa) = 30.00327 33.20720 31.60524
#
# Velocity S-wave (km/s) = 3.61974 3.80811 3.71512
# Velocity P-wave (km/s) = 6.45148 6.73568 6.59511
#
# Compressibility (1/GPa) = 0.01808182
#
# Stress axis : x y z
#
# Youngs Moduli (GPa) = 59.47902 92.43910 80.19495
#
# Poissons Ratio (x) = 0.12512 0.57150
# Poissons Ratio (y) = 0.08050 0.20284
# Poissons Ratio (z) = 0.42387 0.23381
#
# Static dielectric constant tensor:
#      x y z
#    x 4.112220 0.000000 -0.219900 
#    y 0.000000 4.215640 0.000000 
#    z -0.219900 0.000000 3.840740 
# 
# 
# High freq. dielectric constant tensor:
#      x y z
#    x 1.906580 0.000000 -0.007670 
#    y 0.000000 1.923420 0.000000 
#    z -0.007670 0.000000 1.891840 
# 
# From -- ./inp_files/10035.got.cif
#   From: 2010.03.12/outbox.cif.g09.slc.cpg/sg4_6_cif.got.tgz:10035.got - 2010.03.31 09:31:35.
