data_PCOD8046907
_publ_section_title
;
Structure prediction by ZEFSAII (Michael W. Deem and Ramdas Pophale) SiO2 
 PCOD8046907
Probable space group: P 21
;
_chemical_formula_sum "Si O2"
_cell_formula_units_Z 16
_cell_length_a 9.707491
_cell_length_b 5.259937
_cell_length_c 13.527324
_cell_angle_alpha 90.000000
_cell_angle_beta 85.605199
_cell_angle_gamma 90.000000
_cell_volume 688.684960
_symmetry_space_group_name_H-M "P 21"
_symmetry_group_IT_number 4
_symmetry_cell_setting 'monoclinic'
loop_
_space_group_symop_operation_xyz
x,y,z
-x,1/2+y,-z
loop_
_atom_site_type_symbol
_atom_site_label
_atom_site_fract_x
_atom_site_fract_y
_atom_site_fract_z
Si Si1 0.155501 0.157790 0.604076
Si Si2 0.114491 0.364773 0.410959
Si Si3 0.405650 0.939638 0.499728
Si Si4 0.355850 0.691168 0.936549
Si Si5 0.976989 0.474621 0.738155
Si Si6 0.506071 0.690049 0.130801
Si Si7 0.955387 0.153631 0.054707
Si Si8 0.707539 0.246238 0.693876
O O1 0.192860 0.343741 0.511566
O O2 0.291803 0.973315 0.597244
O O3 0.113162 0.291041 0.711277
O O4 0.010175 0.059726 0.569098
O O5 0.039495 0.131053 0.361462
O O6 0.241420 0.466180 0.337758
O O7 0.509968 0.178966 0.489146
O O8 0.317807 0.923458 0.401692
O O9 0.382473 0.414251 0.888510
O O10 0.197229 0.759262 0.941067
O O11 0.429252 0.910446 0.869227
O O12 0.397291 0.707832 0.048339
O O13 0.829298 0.340866 0.760491
O O14 0.000197 0.643549 0.833443
O O15 0.434491 0.731363 0.239587
O O16 0.042263 0.373573 0.994977
#
# Coordination Sequence:
#
# PCOD8046907 Si02
#       8
#     2   2   2   2   2   2   2   2
#     4  11  22  44  69 103 146 182 242 306 346 444
#     4  11  21  41  73 103 137 183 242 305 357 420
#     4  12  28  46  68 102 150 199 236 297 369 428
#     4  10  23  45  68 103 136 181 233 285 366 402
#     4  11  26  42  78 105 136 198 240 299 378 416
#     4  10  23  43  73  95 137 186 231 289 337 438
#     4  12  28  49  73 107 151 180 239 311 360 426
#     4  11  25  44  70 104 137 187 253 290 355 446
#
# _framework density 23.232683000000002
#
# number of rings (size 3 to 8) (size 9 to 14) (size 15 to 20)
#    0.000    1.000    2.500    3.000    8.750    2.000 
#    2.250    0.000    0.000    0.000    0.000    0.000 
#    0.000    0.000    0.000    0.000    0.000    0.000 
#
# Total GULP energy -198254.060647 kJ/mol
# GULP energy per Si atom -12390.878790 kJ/mol
# Density = 2.317980 g / cm^3
# Si number density = 23.232683 Si / 1000 Ang^3
#
#
#
# Elastic Constant Matrix: (Units=GPa)
#
#
# Indices 1 2 3 4 5 6 
#
# 1 90.6187 20.4242 33.8462 0.0000 -10.1593 0.0000
# 2 20.4242 93.0235 18.8234 0.0000 4.6993 0.0000
# 3 33.8462 18.8234 76.9660 0.0000 -13.3912 0.0000
# 4 0.0000 0.0000 0.0000 29.3766 0.0000 0.2089
# 5 -10.1593 4.6993 -13.3912 0.0000 24.9788 0.0000
# 6 0.0000 0.0000 0.0000 0.2089 0.0000 22.9130
#
#
#
# Elastic Compliance Matrix: (Units=1/GPa)
#
#
# Indices 1 2 3 4 5 6 
#
# 1 0.013745 -0.002192 -0.004923 0.000000 0.003363 0.000000
# 2 -0.002192 0.012030 -0.002787 0.000000 -0.004649 0.000000
# 3 -0.004923 -0.002787 0.017185 0.000000 0.007735 0.000000
# 4 0.000000 0.000000 0.000000 0.034043 0.000000 -0.000310
# 5 0.003363 -0.004649 0.007735 0.000000 0.046423 0.000000
# 6 0.000000 0.000000 0.000000 -0.000310 0.000000 0.043646
#
#
# Mechanical properties :
#
#
# Convention : Reuss Voigt Hill
#
# Bulk Modulus (GPa) = 43.18505 45.19955 44.19230
# Shear Modulus (GPa) = 25.69430 27.95464 26.82447
#
# Velocity S-wave (km/s) = 3.32920 3.47255 3.40163
# Velocity P-wave (km/s) = 5.77983 5.96452 5.87290
#
# Compressibility (1/GPa) = 0.02315616
#
# Stress axis : x y z
#
# Youngs Moduli (GPa) = 72.75307 83.12563 58.18928
#
# Poissons Ratio (x) = 0.18217 0.28649
# Poissons Ratio (y) = 0.15944 0.16219
# Poissons Ratio (z) = 0.35819 0.23169
#
# Static dielectric constant tensor:
#      x y z
#    x 4.273580 0.000000 -0.119000 
#    y 0.000000 4.367400 0.000000 
#    z -0.119000 0.000000 3.945450 
# 
# 
# High freq. dielectric constant tensor:
#      x y z
#    x 1.924790 0.000000 -0.012560 
#    y 0.000000 1.924090 0.000000 
#    z -0.012560 0.000000 1.906910 
# 
# From -- ./inp_files/10732.got.cif
#   From: 2010.03.12/outbox.cif.g09.slc.cpg/sg4_6_cif.got.tgz:10732.got - 2010.03.31 09:31:35.
