data_PCOD8046966
_publ_section_title
;
Structure prediction by ZEFSAII (Michael W. Deem and Ramdas Pophale) SiO2 
 PCOD8046966
Probable space group: P 21
;
_chemical_formula_sum "Si O2"
_cell_formula_units_Z 14
_cell_length_a 5.322247
_cell_length_b 11.445036
_cell_length_c 9.521537
_cell_angle_alpha 90.000000
_cell_angle_beta 83.416809
_cell_angle_gamma 90.000000
_cell_volume 576.164134
_symmetry_space_group_name_H-M "P 21"
_symmetry_group_IT_number 4
_symmetry_cell_setting 'monoclinic'
loop_
_space_group_symop_operation_xyz
x,y,z
-x,1/2+y,-z
loop_
_atom_site_type_symbol
_atom_site_label
_atom_site_fract_x
_atom_site_fract_y
_atom_site_fract_z
Si Si1 0.041460 0.171360 0.070729
Si Si2 0.137587 0.273273 0.586006
Si Si3 0.787558 0.077101 0.661526
Si Si4 0.584574 0.225955 0.904982
Si Si5 0.188448 0.942775 0.227205
Si Si6 0.049120 0.859443 0.694203
Si Si7 0.536086 0.442443 0.510602
O O1 0.935117 0.269198 0.181733
O O2 0.073112 0.048217 0.145806
O O3 0.313433 0.207288 0.992525
O O4 0.818714 0.163713 0.970986
O O5 0.430276 0.311235 0.555307
O O6 0.064423 0.139587 0.624677
O O7 0.036168 0.355515 0.717760
O O8 0.001601 0.295537 0.448253
O O9 0.587652 0.161263 0.753003
O O10 0.679831 0.037958 0.514747
O O11 0.839333 0.957654 0.744578
O O12 0.621761 0.365631 0.882375
O O13 0.317969 0.991423 0.362002
O O14 0.310822 0.926706 0.644984
#
# Coordination Sequence:
#
# PCOD8046966 Si02
#       7
#     2   2   2   2   2   2   2
#     4  12  30  47  76 107 152 204 250 306 361 469
#     4   9  22  44  70 108 143 186 239 320 383 433
#     4  10  24  46  73 105 147 191 252 311 384 448
#     4  11  30  48  77 104 152 205 248 306 372 452
#     4  10  26  49  73 110 145 195 255 313 385 439
#     4  10  25  41  71 109 139 189 252 304 379 442
#     4  10  23  45  80 107 148 188 252 330 380 449
#
# _framework density 24.298634
#
# number of rings (size 3 to 8) (size 9 to 14) (size 15 to 20)
#    0.000    1.714    0.000    0.000   22.000    2.286 
#    5.143    0.000    0.000    0.000    0.000    0.000 
#    0.000    0.000    0.000    0.000    0.000    0.000 
#
# Total GULP energy -173488.794253 kJ/mol
# GULP energy per Si atom -12392.056732 kJ/mol
# Density = 2.424333 g / cm^3
# Si number density = 24.298634 Si / 1000 Ang^3
#
#
#
# Elastic Constant Matrix: (Units=GPa)
#
#
# Indices 1 2 3 4 5 6 
#
# 1 106.2963 21.1819 35.6607 0.0000 0.5696 0.0000
# 2 21.1819 127.0295 44.3372 0.0000 10.6698 0.0000
# 3 35.6607 44.3372 89.0514 0.0000 -3.0516 0.0000
# 4 0.0000 0.0000 0.0000 36.5976 0.0000 3.6261
# 5 0.5696 10.6698 -3.0516 0.0000 36.3612 0.0000
# 6 0.0000 0.0000 0.0000 3.6261 0.0000 29.2793
#
#
#
# Elastic Compliance Matrix: (Units=1/GPa)
#
#
# Indices 1 2 3 4 5 6 
#
# 1 0.010888 -0.000305 -0.004223 0.000000 -0.000436 0.000000
# 2 -0.000305 0.009924 -0.004932 0.000000 -0.003321 0.000000
# 3 -0.004223 -0.004932 0.015473 0.000000 0.002812 0.000000
# 4 0.000000 0.000000 0.000000 0.027664 0.000000 -0.003426
# 5 -0.000436 -0.003321 0.002812 0.000000 0.028719 0.000000
# 6 0.000000 0.000000 0.000000 -0.003426 0.000000 0.034578
#
#
# Mechanical properties :
#
#
# Convention : Reuss Voigt Hill
#
# Bulk Modulus (GPa) = 57.59380 58.30409 57.94894
# Shear Modulus (GPa) = 32.90483 35.19410 34.04946
#
# Velocity S-wave (km/s) = 3.68392 3.80991 3.74744
# Velocity P-wave (km/s) = 6.46907 6.58793 6.52877
#
# Compressibility (1/GPa) = 0.01736298
#
# Stress axis : x y z
#
# Youngs Moduli (GPa) = 91.84823 100.77005 64.62972
#
# Poissons Ratio (x) = 0.03073 0.27293
# Poissons Ratio (y) = 0.02801 0.31879
# Poissons Ratio (z) = 0.38788 0.49705
#
# Static dielectric constant tensor:
#      x y z
#    x 4.450190 0.000000 -0.210900 
#    y 0.000000 4.448590 0.000000 
#    z -0.210900 0.000000 4.425590 
# 
# 
# High freq. dielectric constant tensor:
#      x y z
#    x 1.964850 0.000000 -0.000390 
#    y 0.000000 1.971470 0.000000 
#    z -0.000390 0.000000 1.958070 
# 
# From -- ./inp_files/2683.got.cif
#   From: 2010.03.12/outbox.cif.g09.slc.cpg/sg4_2_cif.got.tgz:2683.got - 2010.03.31 09:31:35.
