data_PCOD8046510
_publ_section_title
;
Structure prediction by ZEFSAII (Michael W. Deem and Ramdas Pophale) SiO2 
 PCOD8046510
Probable space group: P 21
;
_chemical_formula_sum "Si O2"
_cell_formula_units_Z 16
_cell_length_a 5.414829
_cell_length_b 8.312691
_cell_length_c 17.333362
_cell_angle_alpha 90.000000
_cell_angle_beta 71.792354
_cell_angle_gamma 90.000000
_cell_volume 741.141206
_symmetry_space_group_name_H-M "P 21"
_symmetry_group_IT_number 4
_symmetry_cell_setting 'monoclinic'
loop_
_space_group_symop_operation_xyz
x,y,z
-x,1/2+y,-z
loop_
_atom_site_type_symbol
_atom_site_label
_atom_site_fract_x
_atom_site_fract_y
_atom_site_fract_z
Si Si1 0.073664 0.825540 0.409475
Si Si2 0.267322 0.192520 0.845130
Si Si3 0.570720 0.016817 0.929289
Si Si4 0.892623 0.707919 0.590439
Si Si5 0.158601 0.766797 0.999961
Si Si6 0.957495 0.341153 0.154920
Si Si7 0.690468 0.204659 0.328324
Si Si8 0.346917 0.328972 0.671761
O O1 0.940087 0.766626 0.499938
O O2 0.888446 0.757525 0.357941
O O3 0.368307 0.755069 0.376687
O O4 0.095172 0.016735 0.404880
O O5 0.308715 0.297037 0.765554
O O6 0.080763 0.293719 0.919202
O O7 0.525045 0.158467 0.870665
O O8 0.168085 0.016874 0.831828
O O9 0.733655 0.875092 0.870723
O O10 0.705125 0.100256 0.989079
O O11 0.316619 0.933411 0.989056
O O12 0.604345 0.776046 0.641935
O O13 0.121696 0.778463 0.623197
O O14 0.081319 0.739841 0.919058
O O15 0.839865 0.236791 0.234553
O O16 0.656130 0.016801 0.343923
#
# Coordination Sequence:
#
# PCOD8046510 Si02
#       8
#     2   2   2   2   2   2   2   2
#     4  10  22  41  63  92 123 161 205 255 316 379
#     4  10  23  39  59  90 123 162 211 256 311 372
#     4  10  22  40  62  86 126 162 220 254 320 372
#     4  10  22  41  63  92 123 161 205 255 316 379
#     4  10  22  40  60  90 122 166 210 264 308 382
#     4  10  23  39  59  90 123 162 211 256 311 372
#     4  10  23  40  63  92 126 163 208 258 312 375
#     4  10  23  40  63  92 126 163 208 258 312 375
#
# _framework density 21.588328000000001
#
# number of rings (size 3 to 8) (size 9 to 14) (size 15 to 20)
#    0.000    2.000    0.000    1.500    7.000    7.000 
#    2.250    0.000    0.000    0.000    0.000    0.000 
#    0.000    0.000    0.000    0.000    0.000    0.000 
#
# Total GULP energy -198278.563191 kJ/mol
# GULP energy per Si atom -12392.410199 kJ/mol
# Density = 2.153919 g / cm^3
# Si number density = 21.588328 Si / 1000 Ang^3
#
#
#
# Elastic Constant Matrix: (Units=GPa)
#
#
# Indices 1 2 3 4 5 6 
#
# 1 179.0680 23.4745 78.0639 0.0000 1.6647 0.0000
# 2 23.4745 13.3117 11.7172 0.0000 0.3051 0.0000
# 3 78.0639 11.7172 157.9864 0.0000 -0.8454 0.0000
# 4 0.0000 0.0000 0.0000 39.1120 0.0000 -0.6557
# 5 1.6647 0.3051 -0.8454 0.0000 21.8498 0.0000
# 6 0.0000 0.0000 0.0000 -0.6557 0.0000 14.5642
#
#
#
# Elastic Compliance Matrix: (Units=1/GPa)
#
#
# Indices 1 2 3 4 5 6 
#
# 1 0.008677 -0.012314 -0.003377 0.000000 -0.000620 0.000000
# 2 -0.012314 0.097884 -0.001178 0.000000 -0.000474 0.000000
# 3 -0.003377 -0.001178 0.008089 0.000000 0.000587 0.000000
# 4 0.000000 0.000000 0.000000 0.025587 0.000000 0.001152
# 5 -0.000620 -0.000474 0.000587 0.000000 0.045843 0.000000
# 6 0.000000 0.000000 0.000000 0.001152 0.000000 0.068714
#
#
# Mechanical properties :
#
#
# Convention : Reuss Voigt Hill
#
# Bulk Modulus (GPa) = 12.35911 64.09745 38.22828
# Shear Modulus (GPa) = 15.84770 30.91257 23.38014
#
# Velocity S-wave (km/s) = 2.71234 3.78817 3.29447
# Velocity P-wave (km/s) = 3.94289 6.99206 5.67606
#
# Compressibility (1/GPa) = 0.08091195
#
# Stress axis : x y z
#
# Youngs Moduli (GPa) = 115.24846 10.21614 123.62489
#
# Poissons Ratio (x) = 0.12580 0.41754
# Poissons Ratio (y) = 1.41919 0.14558
# Poissons Ratio (z) = 0.38925 0.01203
#
# Static dielectric constant tensor:
#      x y z
#    x 4.664040 0.000000 0.021310 
#    y 0.000000 3.557800 0.000000 
#    z 0.021310 0.000000 3.873740 
# 
# 
# High freq. dielectric constant tensor:
#      x y z
#    x 1.869050 0.000000 0.000580 
#    y 0.000000 1.823910 0.000000 
#    z 0.000580 0.000000 1.847830 
# 
# From -- ./inp_files/3566.got.cif
#   From: 2010.03.12/outbox.cif.g09.slc.cpg/sg4_2_cif.got.tgz:3566.got - 2010.03.31 09:31:35.
