data_PCOD8046900
_publ_section_title
;
Structure prediction by ZEFSAII (Michael W. Deem and Ramdas Pophale) SiO2 
 PCOD8046900
Probable space group: P 21
;
_chemical_formula_sum "Si O2"
_cell_formula_units_Z 16
_cell_length_a 11.378256
_cell_length_b 9.148874
_cell_length_c 8.627428
_cell_angle_alpha 90.000000
_cell_angle_beta 134.124588
_cell_angle_gamma 90.000000
_cell_volume 644.680947
_symmetry_space_group_name_H-M "P 21"
_symmetry_group_IT_number 4
_symmetry_cell_setting 'monoclinic'
loop_
_space_group_symop_operation_xyz
x,y,z
-x,1/2+y,-z
loop_
_atom_site_type_symbol
_atom_site_label
_atom_site_fract_x
_atom_site_fract_y
_atom_site_fract_z
Si Si1 0.434223 0.128510 0.477452
Si Si2 0.689288 0.316706 0.583233
Si Si3 0.308478 0.131446 0.012298
Si Si4 0.340360 0.647746 0.763637
Si Si5 0.131715 0.416338 0.730674
Si Si6 0.869735 0.773791 0.729925
Si Si7 0.013645 0.488695 0.939767
Si Si8 0.869042 0.359081 0.262381
O O1 0.615652 0.201548 0.643700
O O2 0.315939 0.224913 0.481607
O O3 0.432694 0.959719 0.532786
O O4 0.364030 0.154660 0.239125
O O5 0.700848 0.230639 0.433156
O O6 0.868105 0.368178 0.797163
O O7 0.208475 0.261992 0.844709
O O8 0.191478 0.990904 0.899878
O O9 0.468385 0.108927 0.050796
O O10 0.239568 0.497671 0.697496
O O11 0.286253 0.754267 0.853706
O O12 0.117313 0.504883 0.877535
O O13 0.944871 0.406235 0.497289
O O14 0.940236 0.647357 0.911372
O O15 0.977550 0.776450 0.674878
O O16 0.869560 0.930910 0.815527
#
# Coordination Sequence:
#
# PCOD8046900 Si02
#       8
#     2   2   2   2   2   2   2   2
#     4  10  23  45  67 103 143 191 232 292 362 427
#     4  10  23  43  70  99 145 183 238 294 355 433
#     4  11  25  45  68 102 142 185 241 295 358 429
#     4  11  24  45  68 101 140 187 235 296 357 425
#     4  12  24  44  70 102 140 184 237 290 356 420
#     4  11  24  41  68  98 138 178 237 290 349 425
#     4  11  23  43  67 101 137 182 235 291 352 423
#     4  12  24  42  70 104 135 186 239 292 353 424
#
# _framework density 24.818479
#
# number of rings (size 3 to 8) (size 9 to 14) (size 15 to 20)
#    0.000    1.000    3.750    3.000    0.000    3.000 
#    0.000    2.500    0.000    0.000    0.000    0.000 
#    0.000    0.000    0.000    0.000    0.000    0.000 
#
# Total GULP energy -198331.409973 kJ/mol
# GULP energy per Si atom -12395.713123 kJ/mol
# Density = 2.476199 g / cm^3
# Si number density = 24.818479 Si / 1000 Ang^3
#
#
#
# Elastic Constant Matrix: (Units=GPa)
#
#
# Indices 1 2 3 4 5 6 
#
# 1 133.6559 25.4768 -5.0996 0.0000 4.8126 0.0000
# 2 25.4768 94.3149 0.5245 0.0000 3.6237 0.0000
# 3 -5.0996 0.5245 33.3636 0.0000 1.1787 0.0000
# 4 0.0000 0.0000 0.0000 37.6524 0.0000 1.2597
# 5 4.8126 3.6237 1.1787 0.0000 28.5393 0.0000
# 6 0.0000 0.0000 0.0000 1.2597 0.0000 56.1505
#
#
#
# Elastic Compliance Matrix: (Units=1/GPa)
#
#
# Indices 1 2 3 4 5 6 
#
# 1 0.007976 -0.002118 0.001292 0.000000 -0.001129 0.000000
# 2 -0.002118 0.011218 -0.000463 0.000000 -0.001048 0.000000
# 3 0.001292 -0.000463 0.030227 0.000000 -0.001408 0.000000
# 4 0.000000 0.000000 0.000000 0.026579 0.000000 -0.000596
# 5 -0.001129 -0.001048 -0.001408 0.000000 0.035421 0.000000
# 6 0.000000 0.000000 0.000000 -0.000596 0.000000 0.017823
#
#
# Mechanical properties :
#
#
# Convention : Reuss Voigt Hill
#
# Bulk Modulus (GPa) = 21.34804 33.68198 27.51501
# Shear Modulus (GPa) = 33.91314 40.49728 37.20521
#
# Velocity S-wave (km/s) = 3.70056 4.04386 3.87601
# Velocity P-wave (km/s) = 5.18452 5.95017 5.58049
#
# Compressibility (1/GPa) = 0.04684270
#
# Stress axis : x y z
#
# Youngs Moduli (GPa) = 125.38189 89.14403 33.08264
#
# Poissons Ratio (x) = 0.18883 -0.04275
# Poissons Ratio (y) = 0.26559 0.01532
# Poissons Ratio (z) = -0.16203 0.04128
#
# Static dielectric constant tensor:
#      x y z
#    x 4.975360 0.000000 0.220480 
#    y 0.000000 4.562040 0.000000 
#    z 0.220480 0.000000 3.912770 
# 
# 
# High freq. dielectric constant tensor:
#      x y z
#    x 2.014130 0.000000 0.006950 
#    y 0.000000 1.997920 0.000000 
#    z 0.006950 0.000000 1.946220 
# 
# From -- ./inp_files/5678.got.cif
#   From: 2010.03.12/outbox.cif.g09.slc.cpg/sg4_3_cif.got.tgz:5678.got - 2010.03.31 09:31:35.
