data_PCOD8046411
_publ_section_title
;
Structure prediction by ZEFSAII (Michael W. Deem and Ramdas Pophale) SiO2 
 PCOD8046411
Probable space group: P 21
;
_chemical_formula_sum "Si O2"
_cell_formula_units_Z 16
_cell_length_a 14.436929
_cell_length_b 4.984205
_cell_length_c 18.437897
_cell_angle_alpha 90.000000
_cell_angle_beta 32.881033
_cell_angle_gamma 90.000000
_cell_volume 720.276298
_symmetry_space_group_name_H-M "P 21"
_symmetry_group_IT_number 4
_symmetry_cell_setting 'monoclinic'
loop_
_space_group_symop_operation_xyz
x,y,z
-x,1/2+y,-z
loop_
_atom_site_type_symbol
_atom_site_label
_atom_site_fract_x
_atom_site_fract_y
_atom_site_fract_z
Si Si1 0.445325 0.435110 0.942917
Si Si2 0.434727 0.480476 0.782284
Si Si3 0.448655 0.378098 0.574668
Si Si4 0.080987 0.602795 0.672392
Si Si5 0.892824 0.132762 0.176504
Si Si6 0.282066 0.937054 0.123584
Si Si7 0.228134 0.978958 0.867702
Si Si8 0.723756 0.593311 0.500859
O O1 0.442560 0.396064 0.859864
O O2 0.638743 0.436688 0.847354
O O3 0.335307 0.684557 0.041389
O O4 0.348102 0.185681 0.036984
O O5 0.303839 0.721747 0.858259
O O6 0.631323 0.581825 0.639729
O O7 0.363369 0.224734 0.782178
O O8 0.490728 0.574795 0.479001
O O9 0.249344 0.396945 0.728018
O O10 0.560334 0.494910 0.564777
O O11 0.054966 0.683720 0.773965
O O12 0.120971 0.882881 0.605853
O O13 0.920945 0.463169 0.738863
O O14 0.230063 0.386395 0.559698
O O15 0.813924 0.398430 0.188881
O O16 0.053927 0.041420 0.024338
#
# Coordination Sequence:
#
# PCOD8046411 Si02
#       8
#     2   2   2   2   2   2   2   2
#     4  10  21  43  72  98 132 166 211 269 338 388
#     4  12  25  45  65  95 134 173 217 268 332 388
#     4  12  24  42  62  84 120 175 222 261 308 367
#     4  12  25  42  65  92 130 165 219 264 317 376
#     4  12  26  42  62  91 127 167 215 268 319 373
#     4  10  22  42  71 103 126 167 216 269 328 399
#     4  12  28  41  64  96 131 172 217 273 328 386
#     4  12  25  41  61  91 124 175 215 262 310 389
#
# _framework density 22.213695999999999
#
# number of rings (size 3 to 8) (size 9 to 14) (size 15 to 20)
#    0.000    0.500    3.750    4.500    1.750    4.000 
#    0.000    1.250    0.000    0.000    0.000    0.000 
#    0.000    0.000    0.000    0.000    0.000    0.000 
#
# Total GULP energy -198315.505621 kJ/mol
# GULP energy per Si atom -12394.719101 kJ/mol
# Density = 2.216314 g / cm^3
# Si number density = 22.213696 Si / 1000 Ang^3
#
#
#
# Elastic Constant Matrix: (Units=GPa)
#
#
# Indices 1 2 3 4 5 6 
#
# 1 83.9365 29.8797 23.9734 0.0000 -12.1928 0.0000
# 2 29.8797 121.9617 30.6846 0.0000 9.7336 0.0000
# 3 23.9734 30.6846 100.3537 0.0000 -11.5528 0.0000
# 4 0.0000 0.0000 0.0000 14.0741 0.0000 -22.5313
# 5 -12.1928 9.7336 -11.5528 0.0000 20.3612 0.0000
# 6 0.0000 0.0000 0.0000 -22.5313 0.0000 13.9881
#
#
#
# Elastic Compliance Matrix: (Units=1/GPa)
#
#
# Indices 1 2 3 4 5 6 
#
# 1 0.015308 -0.004315 -0.001118 0.000000 0.010595 0.000000
# 2 -0.004315 0.010894 -0.003421 0.000000 -0.009732 0.000000
# 3 -0.001118 -0.003421 0.012185 0.000000 0.007879 0.000000
# 4 0.000000 0.000000 0.000000 -0.045008 0.000000 -0.072497
# 5 0.010595 -0.009732 0.007879 0.000000 0.064581 0.000000
# 6 0.000000 0.000000 0.000000 -0.072497 0.000000 -0.045285
#
#
# Mechanical properties :
#
#
# Convention : Reuss Voigt Hill
#
# Bulk Modulus (GPa) = 48.35545 52.81413 50.58479
# Shear Modulus (GPa) = 134.14170 24.46563 79.30367
#
# Velocity S-wave (km/s) = 7.77933 3.32230 5.98146
# Velocity P-wave (km/s) = 10.12454 6.20838 8.39792
#
# Compressibility (1/GPa) = 0.02068019
#
# Stress axis : x y z
#
# Youngs Moduli (GPa) = 65.32496 91.79666 82.06973
#
# Poissons Ratio (x) = 0.39607 0.09175
# Poissons Ratio (y) = 0.28186 0.28072
# Poissons Ratio (z) = 0.07303 0.31399
#
# Static dielectric constant tensor:
#      x y z
#    x 3.763090 0.000000 0.103990 
#    y 0.000000 4.425630 0.000000 
#    z 0.103990 0.000000 5.599240 
# 
# 
# High freq. dielectric constant tensor:
#      x y z
#    x 1.859160 0.000000 -0.005040 
#    y 0.000000 1.892680 0.000000 
#    z -0.005040 0.000000 1.881560 
# 
# From -- ./inp_files/15206.got.cif
#   From: 2010.03.12/outbox.cif.g09.slc.cpg/sg4_8_cif.got.tgz:15206.got - 2010.03.31 09:31:35.
