data_PCOD8046793
_publ_section_title
;
Structure prediction by ZEFSAII (Michael W. Deem and Ramdas Pophale) SiO2 
 PCOD8046793
Probable space group: P 21
;
_chemical_formula_sum "Si O2"
_cell_formula_units_Z 14
_cell_length_a 8.255070
_cell_length_b 12.689540
_cell_length_c 6.429904
_cell_angle_alpha 90.000000
_cell_angle_beta 108.775507
_cell_angle_gamma 90.000000
_cell_volume 637.710232
_symmetry_space_group_name_H-M "P 21"
_symmetry_group_IT_number 4
_symmetry_cell_setting 'monoclinic'
loop_
_space_group_symop_operation_xyz
x,y,z
-x,1/2+y,-z
loop_
_atom_site_type_symbol
_atom_site_label
_atom_site_fract_x
_atom_site_fract_y
_atom_site_fract_z
Si Si1 0.441402 0.519740 0.280223
Si Si2 0.616224 0.657188 0.658316
Si Si3 0.753071 0.182363 0.577203
Si Si4 0.995222 0.014535 0.502951
Si Si5 0.907296 0.387143 0.840471
Si Si6 0.295167 0.021353 0.942696
Si Si7 0.185857 0.353599 0.293933
O O1 0.596049 0.555021 0.499731
O O2 0.289868 0.609062 0.235834
O O3 0.518064 0.503264 0.082164
O O4 0.365826 0.409542 0.320841
O O5 0.427711 0.710749 0.608095
O O6 0.757656 0.735718 0.618380
O O7 0.688673 0.625413 0.911997
O O8 0.866551 0.114049 0.461540
O O9 0.847163 0.289043 0.677797
O O10 0.156589 0.044554 0.709578
O O11 0.908583 0.907488 0.552691
O O12 0.046637 0.987772 0.286971
O O13 0.757394 0.421169 0.937993
O O14 0.073290 0.354082 0.038789
#
# Coordination Sequence:
#
# PCOD8046793 Si02
#       7
#     2   2   2   2   2   2   2
#     4   9  23  41  65  93 133 162 224 281 321 392
#     4  10  23  39  68  92 132 167 220 280 320 397
#     4   9  23  44  62  95 132 173 217 274 332 372
#     4  10  23  43  65  92 138 170 218 277 320 401
#     4  11  24  42  69  96 137 175 223 272 320 416
#     4  11  23  39  66  97 123 180 212 271 337 382
#     4  10  23  42  65  95 123 179 222 265 344 382
#
# _framework density 21.953544000000001
#
# number of rings (size 3 to 8) (size 9 to 14) (size 15 to 20)
#    0.857    1.143    0.000    1.714    6.000    4.571 
#    2.571    0.000    0.000    0.000    0.000    0.000 
#    0.000    0.000    0.000    0.000    0.000    0.000 
#
# Total GULP energy -173512.177179 kJ/mol
# GULP energy per Si atom -12393.726941 kJ/mol
# Density = 2.190358 g / cm^3
# Si number density = 21.953544 Si / 1000 Ang^3
#
#
#
# Elastic Constant Matrix: (Units=GPa)
#
#
# Indices 1 2 3 4 5 6 
#
# 1 98.9789 35.0468 31.7478 0.0000 -17.8817 0.0000
# 2 35.0468 58.2803 25.0198 0.0000 6.7714 0.0000
# 3 31.7478 25.0198 70.5590 0.0000 3.5520 0.0000
# 4 0.0000 0.0000 0.0000 30.1432 0.0000 10.7480
# 5 -17.8817 6.7714 3.5520 0.0000 39.0332 0.0000
# 6 0.0000 0.0000 0.0000 10.7480 0.0000 38.0231
#
#
#
# Elastic Compliance Matrix: (Units=1/GPa)
#
#
# Indices 1 2 3 4 5 6 
#
# 1 0.016548 -0.009036 -0.004724 0.000000 0.009579 0.000000
# 2 -0.009036 0.025499 -0.004566 0.000000 -0.008148 0.000000
# 3 -0.004724 -0.004566 0.018069 0.000000 -0.003016 0.000000
# 4 0.000000 0.000000 0.000000 0.036893 0.000000 -0.010429
# 5 0.009579 -0.008148 -0.003016 0.000000 0.031695 0.000000
# 6 0.000000 0.000000 0.000000 -0.010429 0.000000 0.029248
#
#
# Mechanical properties :
#
#
# Convention : Reuss Voigt Hill
#
# Bulk Modulus (GPa) = 42.61767 45.71635 44.16701
# Shear Modulus (GPa) = 24.70032 30.50682 27.60357
#
# Velocity S-wave (km/s) = 3.35792 3.73179 3.54978
# Velocity P-wave (km/s) = 5.87273 6.27994 6.07975
#
# Compressibility (1/GPa) = 0.02346445
#
# Stress axis : x y z
#
# Youngs Moduli (GPa) = 60.42860 39.21690 55.34372
#
# Poissons Ratio (x) = 0.35438 0.26144
# Poissons Ratio (y) = 0.54605 0.25269
# Poissons Ratio (z) = 0.28546 0.17906
#
# Static dielectric constant tensor:
#      x y z
#    x 4.114130 0.000000 0.009640 
#    y 0.000000 3.701580 0.000000 
#    z 0.009640 0.000000 3.703950 
# 
# 
# High freq. dielectric constant tensor:
#      x y z
#    x 1.878260 0.000000 0.003710 
#    y 0.000000 1.853730 0.000000 
#    z 0.003710 0.000000 1.841420 
# 
# From -- ./inp_files/1670.got.cif
#   From: 2010.03.12/outbox.cif.g09.slc.cpg/sg4_1_cif.got.tgz:1670.got - 2010.03.31 09:31:35.
