data_PCOD8046739
_publ_section_title
;
Structure prediction by ZEFSAII (Michael W. Deem and Ramdas Pophale) SiO2 
 PCOD8046739
Probable space group: P 21
;
_chemical_formula_sum "Si O2"
_cell_formula_units_Z 16
_cell_length_a 7.229233
_cell_length_b 5.121124
_cell_length_c 25.244478
_cell_angle_alpha 90.000000
_cell_angle_beta 137.625497
_cell_angle_gamma 90.000000
_cell_volume 629.893114
_symmetry_space_group_name_H-M "P 21"
_symmetry_group_IT_number 4
_symmetry_cell_setting 'monoclinic'
loop_
_space_group_symop_operation_xyz
x,y,z
-x,1/2+y,-z
loop_
_atom_site_type_symbol
_atom_site_label
_atom_site_fract_x
_atom_site_fract_y
_atom_site_fract_z
Si Si1 0.449518 0.020060 0.690741
Si Si2 0.464221 0.813327 0.805609
Si Si3 0.291025 0.951326 0.399343
Si Si4 0.856661 0.955912 0.568471
Si Si5 0.828050 0.067794 0.957758
Si Si6 0.638189 0.785830 0.015233
Si Si7 0.798065 0.416103 0.824940
Si Si8 0.904597 0.693661 0.743738
O O1 0.558398 0.284273 0.739882
O O2 0.145590 0.028675 0.600297
O O3 0.391651 0.830699 0.728494
O O4 0.672149 0.920452 0.695380
O O5 0.645712 0.061043 0.864704
O O6 0.667787 0.561674 0.848775
O O7 0.195657 0.793881 0.784561
O O8 0.620767 0.975683 0.474176
O O9 0.145631 0.172622 0.404293
O O10 0.209141 0.972917 0.320317
O O11 0.189983 0.667539 0.395288
O O12 0.620463 0.948001 0.956901
O O13 0.080893 0.859816 0.007944
O O14 0.955562 0.736970 0.099552
O O15 0.514128 0.496996 0.979189
O O16 0.946263 0.605184 0.813233
#
# Coordination Sequence:
#
# PCOD8046739 Si02
#       8
#     2   2   2   2   2   2   2   2
#     4  11  25  43  71 103 143 184 231 291 348 414
#     4  11  24  45  70  96 140 182 232 291 343 420
#     4  10  22  45  73 105 141 188 236 280 348 419
#     4  10  22  45  74 102 145 189 228 290 346 407
#     4  12  25  45  70  99 131 182 233 280 351 419
#     4  12  27  47  70  99 142 179 232 298 352 415
#     4  11  26  45  68 100 142 184 232 295 353 412
#     4  11  25  43  70 108 136 186 236 281 349 420
#
# _framework density 25.401133000000002
#
# number of rings (size 3 to 8) (size 9 to 14) (size 15 to 20)
#    0.000    1.000    2.500    3.000    8.750    1.000 
#    2.250    0.000    0.000    0.000    0.000    0.000 
#    0.000    0.000    0.000    0.000    0.000    0.000 
#
# Total GULP energy -198276.596959 kJ/mol
# GULP energy per Si atom -12392.287310 kJ/mol
# Density = 2.534332 g / cm^3
# Si number density = 25.401133 Si / 1000 Ang^3
#
#
#
# Elastic Constant Matrix: (Units=GPa)
#
#
# Indices 1 2 3 4 5 6 
#
# 1 140.3205 7.6931 28.1505 0.0000 40.1201 0.0000
# 2 7.6931 50.4145 -7.3822 0.0000 18.4412 0.0000
# 3 28.1505 -7.3822 85.2889 0.0000 27.7857 0.0000
# 4 0.0000 0.0000 0.0000 34.7940 0.0000 5.9128
# 5 40.1201 18.4412 27.7857 0.0000 43.2566 0.0000
# 6 0.0000 0.0000 0.0000 5.9128 0.0000 22.9207
#
#
#
# Elastic Compliance Matrix: (Units=1/GPa)
#
#
# Indices 1 2 3 4 5 6 
#
# 1 0.009904 0.002333 0.000316 0.000000 -0.010383 0.000000
# 2 0.002333 0.027525 0.007765 0.000000 -0.018886 0.000000
# 3 0.000316 0.007765 0.017031 0.000000 -0.014543 0.000000
# 4 0.000000 0.000000 0.000000 0.030058 0.000000 -0.007754
# 5 -0.010383 -0.018886 -0.014543 0.000000 0.050141 0.000000
# 6 0.000000 0.000000 0.000000 -0.007754 0.000000 0.045629
#
#
# Mechanical properties :
#
#
# Convention : Reuss Voigt Hill
#
# Bulk Modulus (GPa) = 13.28238 36.99408 25.13823
# Shear Modulus (GPa) = 27.09199 36.69842 31.89520
#
# Velocity S-wave (km/s) = 3.26938 3.80512 3.54737
# Velocity P-wave (km/s) = 4.41499 5.82244 5.16686
#
# Compressibility (1/GPa) = 0.07528771
#
# Stress axis : x y z
#
# Youngs Moduli (GPa) = 100.96847 36.33052 58.71796
#
# Poissons Ratio (x) = -0.08476 -0.01854
# Poissons Ratio (y) = -0.23556 -0.45596
# Poissons Ratio (z) = -0.03188 -0.28212
#
# Static dielectric constant tensor:
#      x y z
#    x 4.673280 0.000000 0.062950 
#    y 0.000000 4.490710 0.000000 
#    z 0.062950 0.000000 4.734290 
# 
# 
# High freq. dielectric constant tensor:
#      x y z
#    x 2.017450 0.000000 0.012990 
#    y 0.000000 2.012010 0.000000 
#    z 0.012990 0.000000 2.014690 
# 
# From -- ./inp_files/16005.got.cif
#   From: 2010.03.12/outbox.cif.g09.slc.cpg/sg4_9_cif.got.tgz:16005.got - 2010.03.31 09:31:35.
