data_PCOD8046154
_publ_section_title
;
Structure prediction by ZEFSAII (Michael W. Deem and Ramdas Pophale) SiO2 
 PCOD8046154
Probable space group: P 21
;
_chemical_formula_sum "Si O2"
_cell_formula_units_Z 14
_cell_length_a 11.366316
_cell_length_b 4.965045
_cell_length_c 10.649349
_cell_angle_alpha 90.000000
_cell_angle_beta 113.838672
_cell_angle_gamma 90.000000
_cell_volume 549.716183
_symmetry_space_group_name_H-M "P 21"
_symmetry_group_IT_number 4
_symmetry_cell_setting 'monoclinic'
loop_
_space_group_symop_operation_xyz
x,y,z
-x,1/2+y,-z
loop_
_atom_site_type_symbol
_atom_site_label
_atom_site_fract_x
_atom_site_fract_y
_atom_site_fract_z
Si Si1 0.413287 0.198770 0.967296
Si Si2 0.062856 0.040410 0.471173
Si Si3 0.161328 0.745172 0.099291
Si Si4 0.420149 0.373916 0.481082
Si Si5 0.055938 0.240160 0.184030
Si Si6 0.334937 0.085438 0.672311
Si Si7 0.380091 0.378602 0.202713
O O1 0.314971 0.179514 0.808299
O O2 0.467030 0.501630 0.996237
O O3 0.345940 0.163831 0.075946
O O4 0.206452 0.935510 0.570194
O O5 0.027648 0.280799 0.552686
O O6 0.052148 0.161260 0.327629
O O7 0.152668 0.047908 0.146892
O O8 0.309980 0.661422 0.140606
O O9 0.101746 0.545897 0.180743
O O10 0.087009 0.704175 0.935422
O O11 0.452437 0.685360 0.467780
O O12 0.348137 0.341313 0.582581
O O13 0.334844 0.276726 0.322625
O O14 0.464012 0.906868 0.720205
#
# Coordination Sequence:
#
# PCOD8046154 Si02
#       7
#     2   2   2   2   2   2   2
#     4  10  22  40  61  93 138 171 209 264 334 400
#     4  12  28  46  69  94 134 187 229 270 329 403
#     4  10  22  41  72  97 129 174 214 286 330 394
#     4  10  21  37  63  94 131 165 207 261 334 397
#     4  10  23  46  65  97 134 171 229 270 328 390
#     4  10  24  44  65  98 135 172 218 278 331 397
#     4  10  22  40  67 103 127 170 216 273 342 389
#
# _framework density 25.467689
#
# number of rings (size 3 to 8) (size 9 to 14) (size 15 to 20)
#    0.000    1.714    0.000    2.571    2.000   13.714 
#    5.143    0.000    0.000    0.000    0.000    0.000 
#    0.000    0.000    0.000    0.000    0.000    0.000 
#
# Total GULP energy -173481.080508 kJ/mol
# GULP energy per Si atom -12391.505751 kJ/mol
# Density = 2.540972 g / cm^3
# Si number density = 25.467689 Si / 1000 Ang^3
#
#
#
# Elastic Constant Matrix: (Units=GPa)
#
#
# Indices 1 2 3 4 5 6 
#
# 1 45.7341 -10.8565 24.7035 0.0000 12.2730 0.0000
# 2 -10.8565 52.2148 -6.4342 0.0000 3.9954 0.0000
# 3 24.7035 -6.4342 184.1039 0.0000 -15.8554 0.0000
# 4 0.0000 0.0000 0.0000 30.5525 0.0000 1.0036
# 5 12.2730 3.9954 -15.8554 0.0000 44.9155 0.0000
# 6 0.0000 0.0000 0.0000 1.0036 0.0000 20.0444
#
#
#
# Elastic Compliance Matrix: (Units=1/GPa)
#
#
# Indices 1 2 3 4 5 6 
#
# 1 0.028359 0.006104 -0.004441 0.000000 -0.009860 0.000000
# 2 0.006104 0.020649 -0.000412 0.000000 -0.003650 0.000000
# 3 -0.004441 -0.000412 0.006313 0.000000 0.003479 0.000000
# 4 0.000000 0.000000 0.000000 0.032784 0.000000 -0.001641
# 5 -0.009860 -0.003650 0.003479 0.000000 0.026511 0.000000
# 6 0.000000 0.000000 0.000000 -0.001641 0.000000 0.049971
#
#
# Mechanical properties :
#
#
# Convention : Reuss Voigt Hill
#
# Bulk Modulus (GPa) = 17.29417 32.98652 25.14035
# Shear Modulus (GPa) = 27.56936 37.41181 32.49059
#
# Velocity S-wave (km/s) = 3.29374 3.83690 3.57565
# Velocity P-wave (km/s) = 4.61198 5.71047 5.19037
#
# Compressibility (1/GPa) = 0.05782294
#
# Stress axis : x y z
#
# Youngs Moduli (GPa) = 35.26188 48.42787 158.40742
#
# Poissons Ratio (x) = -0.29559 0.70351
# Poissons Ratio (y) = -0.21523 0.06521
# Poissons Ratio (z) = 0.15660 0.01994
#
# Static dielectric constant tensor:
#      x y z
#    x 4.556550 0.000000 -0.316880 
#    y 0.000000 4.227380 0.000000 
#    z -0.316880 0.000000 5.345720 
# 
# 
# High freq. dielectric constant tensor:
#      x y z
#    x 1.998080 0.000000 -0.008570 
#    y 0.000000 2.000560 0.000000 
#    z -0.008570 0.000000 2.046670 
# 
# From -- ./inp_files/11726.got.cif
#   From: 2010.03.12/outbox.cif.g09.slc.cpg/sg4_6_cif.got.tgz:11726.got - 2010.03.31 09:31:35.
