data_PCOD8046981
_publ_section_title
;
Structure prediction by ZEFSAII (Michael W. Deem and Ramdas Pophale) SiO2 
 PCOD8046981
Probable space group: P 21
;
_chemical_formula_sum "Si O2"
_cell_formula_units_Z 14
_cell_length_a 11.136144
_cell_length_b 9.191092
_cell_length_c 8.499305
_cell_angle_alpha 90.000000
_cell_angle_beta 140.883452
_cell_angle_gamma 90.000000
_cell_volume 548.840101
_symmetry_space_group_name_H-M "P 21"
_symmetry_group_IT_number 4
_symmetry_cell_setting 'monoclinic'
loop_
_space_group_symop_operation_xyz
x,y,z
-x,1/2+y,-z
loop_
_atom_site_type_symbol
_atom_site_label
_atom_site_fract_x
_atom_site_fract_y
_atom_site_fract_z
Si Si1 0.102268 0.514130 0.152388
Si Si2 0.285588 0.184092 0.879941
Si Si3 0.404675 0.660480 0.255310
Si Si4 0.923199 0.981902 0.513881
Si Si5 0.239356 0.219957 0.185601
Si Si6 0.223793 0.756156 0.771455
Si Si7 0.483339 0.458334 0.068470
O O1 0.257406 0.627284 0.244516
O O2 0.149200 0.481239 0.381806
O O3 0.109206 0.363904 0.062939
O O4 0.892390 0.579828 0.915115
O O5 0.335019 0.207491 0.112545
O O6 0.300223 0.352937 0.820035
O O7 0.090012 0.101987 0.662470
O O8 0.460633 0.096107 0.982348
O O9 0.594775 0.732104 0.516938
O O10 0.460767 0.509315 0.225648
O O11 0.312101 0.775773 0.036826
O O12 0.774057 0.077579 0.252156
O O13 0.010408 0.825536 0.550760
O O14 0.344578 0.841183 0.762715
#
# Coordination Sequence:
#
# PCOD8046981 Si02
#       7
#     2   2   2   2   2   2   2
#     4  11  26  47  76 105 150 193 243 305 375 435
#     4  10  23  46  69 106 140 191 243 301 367 431
#     4  12  27  44  75 110 146 194 246 303 374 437
#     4  10  26  45  72 106 143 192 246 304 361 439
#     4  11  27  49  74 110 153 191 244 306 370 447
#     4  11  26  46  73 105 145 193 251 300 372 429
#     4  11  23  45  71 104 143 186 247 299 359 438
#
# _framework density 25.50834
#
# number of rings (size 3 to 8) (size 9 to 14) (size 15 to 20)
#    0.000    1.143    2.857    0.857    4.000   12.571 
#    0.000    0.000    0.000    0.000    0.000    0.000 
#    0.000    0.000    0.000    0.000    0.000    0.000 
#
# Total GULP energy -173591.889901 kJ/mol
# GULP energy per Si atom -12399.420707 kJ/mol
# Density = 2.545028 g / cm^3
# Si number density = 25.508340 Si / 1000 Ang^3
#
#
#
# Elastic Constant Matrix: (Units=GPa)
#
#
# Indices 1 2 3 4 5 6 
#
# 1 127.9821 31.8419 8.1840 0.0000 2.0332 0.0000
# 2 31.8419 158.1721 12.6961 0.0000 2.6546 0.0000
# 3 8.1840 12.6961 71.6379 0.0000 0.9382 0.0000
# 4 0.0000 0.0000 0.0000 36.2655 0.0000 7.0337
# 5 2.0332 2.6546 0.9382 0.0000 30.3303 0.0000
# 6 0.0000 0.0000 0.0000 7.0337 0.0000 37.6804
#
#
#
# Elastic Compliance Matrix: (Units=1/GPa)
#
#
# Indices 1 2 3 4 5 6 
#
# 1 0.008261 -0.001604 -0.000654 0.000000 -0.000393 0.000000
# 2 -0.001604 0.006733 -0.001004 0.000000 -0.000451 0.000000
# 3 -0.000654 -0.001004 0.014216 0.000000 -0.000308 0.000000
# 4 0.000000 0.000000 0.000000 0.028610 0.000000 -0.005341
# 5 -0.000393 -0.000451 -0.000308 0.000000 0.033046 0.000000
# 6 0.000000 0.000000 0.000000 -0.005341 0.000000 0.027536
#
#
# Mechanical properties :
#
#
# Convention : Reuss Voigt Hill
#
# Bulk Modulus (GPa) = 44.08181 51.47070 47.77626
# Shear Modulus (GPa) = 37.73926 41.19325 39.46625
#
# Velocity S-wave (km/s) = 3.85058 4.02293 3.93770
# Velocity P-wave (km/s) = 6.09001 6.46533 6.28047
#
# Compressibility (1/GPa) = 0.02268509
#
# Stress axis : x y z
#
# Youngs Moduli (GPa) = 121.05486 148.51622 70.34410
#
# Poissons Ratio (x) = 0.23820 0.04603
# Poissons Ratio (y) = 0.19416 0.07064
# Poissons Ratio (z) = 0.07921 0.14914
#
# Static dielectric constant tensor:
#      x y z
#    x 4.917000 0.000000 0.343890 
#    y 0.000000 5.042010 0.000000 
#    z 0.343890 0.000000 4.449470 
# 
# 
# High freq. dielectric constant tensor:
#      x y z
#    x 2.036690 0.000000 0.032340 
#    y 0.000000 2.061000 0.000000 
#    z 0.032340 0.000000 2.017090 
# 
# From -- ./inp_files/7594.got.cif
#   From: 2010.03.12/outbox.cif.g09.slc.cpg/sg4_4_cif.got.tgz:7594.got - 2010.03.31 09:31:35.
