data_PCOD8046822
_publ_section_title
;
Structure prediction by ZEFSAII (Michael W. Deem and Ramdas Pophale) SiO2 
 PCOD8046822
Probable space group: P 21
;
_chemical_formula_sum "Si O2"
_cell_formula_units_Z 16
_cell_length_a 14.831021
_cell_length_b 5.115236
_cell_length_c 9.467962
_cell_angle_alpha 90.000000
_cell_angle_beta 101.952882
_cell_angle_gamma 90.000000
_cell_volume 702.705554
_symmetry_space_group_name_H-M "P 21"
_symmetry_group_IT_number 4
_symmetry_cell_setting 'monoclinic'
loop_
_space_group_symop_operation_xyz
x,y,z
-x,1/2+y,-z
loop_
_atom_site_type_symbol
_atom_site_label
_atom_site_fract_x
_atom_site_fract_y
_atom_site_fract_z
Si Si1 0.395095 0.735570 0.726867
Si Si2 0.108598 0.235404 0.429354
Si Si3 0.008747 0.735307 0.327855
Si Si4 0.403141 0.290407 0.285354
Si Si5 0.660236 0.078003 0.994606
Si Si6 0.255497 0.078707 0.058712
Si Si7 0.679230 0.758330 0.441411
Si Si8 0.947970 0.612807 0.018850
O O1 0.495031 0.672358 0.695138
O O2 0.403741 0.691723 0.900016
O O3 0.321316 0.520512 0.652167
O O4 0.363214 0.021301 0.664373
O O5 0.087958 0.513250 0.351662
O O6 0.216937 0.189837 0.481653
O O7 0.056809 0.224210 0.560563
O O8 0.064553 0.004113 0.321290
O O9 0.937933 0.696699 0.177937
O O10 0.325638 0.080021 0.213982
O O11 0.382756 0.339830 0.443089
O O12 0.395780 0.540881 0.173519
O O13 0.741522 0.291647 0.006975
O O14 0.710723 0.800822 0.043570
O O15 0.153127 0.134743 0.082823
O O16 0.982804 0.314695 0.031756
#
# Coordination Sequence:
#
# PCOD8046822 Si02
#       8
#     2   2   2   2   2   2   2   2
#     4  12  27  44  71 106 139 183 236 290 360 407
#     4  10  23  44  66  96 126 183 217 280 335 413
#     4  10  23  41  68  92 134 168 230 269 340 404
#     4  10  28  44  75  96 148 179 238 286 354 428
#     4  10  25  43  73  97 139 184 233 286 344 423
#     4  10  25  44  69 102 133 184 230 281 351 415
#     4  12  27  44  72 101 143 180 236 292 355 422
#     4  12  26  42  68 102 140 175 222 290 341 414
#
# _framework density 22.76914
#
# number of rings (size 3 to 8) (size 9 to 14) (size 15 to 20)
#    0.750    0.500    0.000    3.750   12.250    0.000 
#    0.000    0.000    0.000    0.000    0.000    0.000 
#    0.000    0.000    0.000    0.000    0.000    0.000 
#
# Total GULP energy -198284.493546 kJ/mol
# GULP energy per Si atom -12392.780847 kJ/mol
# Density = 2.271732 g / cm^3
# Si number density = 22.769140 Si / 1000 Ang^3
#
#
#
# Elastic Constant Matrix: (Units=GPa)
#
#
# Indices 1 2 3 4 5 6 
#
# 1 105.4285 17.1143 2.0328 0.0000 10.5278 0.0000
# 2 17.1143 129.4024 28.2079 0.0000 -6.7087 0.0000
# 3 2.0328 28.2079 74.3776 0.0000 -10.4260 0.0000
# 4 0.0000 0.0000 0.0000 36.6509 0.0000 0.3712
# 5 10.5278 -6.7087 -10.4260 0.0000 26.6191 0.0000
# 6 0.0000 0.0000 0.0000 0.3712 0.0000 27.6496
#
#
#
# Elastic Compliance Matrix: (Units=1/GPa)
#
#
# Indices 1 2 3 4 5 6 
#
# 1 0.010190 -0.001508 -0.000344 0.000000 -0.004545 0.000000
# 2 -0.001508 0.008669 -0.003023 0.000000 0.001598 0.000000
# 3 -0.000344 -0.003023 0.015356 0.000000 0.005389 0.000000
# 4 0.000000 0.000000 0.000000 0.027288 0.000000 -0.000366
# 5 -0.004545 0.001598 0.005389 0.000000 0.041878 0.000000
# 6 0.000000 0.000000 0.000000 -0.000366 0.000000 0.036172
#
#
# Mechanical properties :
#
#
# Convention : Reuss Voigt Hill
#
# Bulk Modulus (GPa) = 40.87262 44.87984 42.87623
# Shear Modulus (GPa) = 31.75453 35.64082 33.69768
#
# Velocity S-wave (km/s) = 3.73853 3.96070 3.85121
# Velocity P-wave (km/s) = 6.05188 6.37728 6.21671
#
# Compressibility (1/GPa) = 0.02446626
#
# Stress axis : x y z
#
# Youngs Moduli (GPa) = 98.13110 115.35290 65.12122
#
# Poissons Ratio (x) = 0.17401 0.02237
# Poissons Ratio (y) = 0.14803 0.19683
# Poissons Ratio (z) = 0.03371 0.34866
#
# Static dielectric constant tensor:
#      x y z
#    x 3.822780 0.000000 0.000600 
#    y 0.000000 4.142630 0.000000 
#    z 0.000600 0.000000 4.107130 
# 
# 
# High freq. dielectric constant tensor:
#      x y z
#    x 1.891630 0.000000 -0.001820 
#    y 0.000000 1.903770 0.000000 
#    z -0.001820 0.000000 1.899140 
# 
# From -- ./inp_files/8870.got.cif
#   From: 2010.03.12/outbox.cif.g09.slc.cpg/sg4_5_cif.got.tgz:8870.got - 2010.03.31 09:31:35.
