data_PCOD8046860
_publ_section_title
;
Structure prediction by ZEFSAII (Michael W. Deem and Ramdas Pophale) SiO2 
 PCOD8046860
Probable space group: P 21
;
_chemical_formula_sum "Si O2"
_cell_formula_units_Z 14
_cell_length_a 10.074714
_cell_length_b 5.114353
_cell_length_c 11.578046
_cell_angle_alpha 90.000000
_cell_angle_beta 84.193987
_cell_angle_gamma 90.000000
_cell_volume 593.505947
_symmetry_space_group_name_H-M "P 21"
_symmetry_group_IT_number 4
_symmetry_cell_setting 'monoclinic'
loop_
_space_group_symop_operation_xyz
x,y,z
-x,1/2+y,-z
loop_
_atom_site_type_symbol
_atom_site_label
_atom_site_fract_x
_atom_site_fract_y
_atom_site_fract_z
Si Si1 0.015560 0.863660 0.349217
Si Si2 0.207670 0.609026 0.169061
Si Si3 0.074031 0.254175 0.026097
Si Si4 0.546337 0.798226 0.808615
Si Si5 0.447910 0.742333 0.567601
Si Si6 0.137231 0.861248 0.590358
Si Si7 0.666806 0.487102 0.004811
O O1 0.906767 0.633032 0.348188
O O2 0.134184 0.837194 0.245548
O O3 0.092023 0.853695 0.462772
O O4 0.936876 0.130469 0.334146
O O5 0.097913 0.383813 0.150003
O O6 0.328727 0.486548 0.231603
O O7 0.262869 0.717712 0.041358
O O8 0.220740 0.190714 0.962181
O O9 0.004872 0.478119 0.952767
O O10 0.497861 0.676074 0.692688
O O11 0.587059 0.577673 0.897305
O O12 0.427611 0.962824 0.877008
O O13 0.464802 0.479129 0.492113
O O14 0.295066 0.829905 0.584070
#
# Coordination Sequence:
#
# PCOD8046860 Si02
#       7
#     2   2   2   2   2   2   2
#     4  10  23  42  71  96 142 177 241 291 353 435
#     4  11  24  44  73 103 137 197 240 297 368 440
#     4  11  24  45  67 102 142 185 240 294 364 444
#     4  11  26  45  75 107 152 192 256 307 362 450
#     4  12  28  49  76 108 147 193 245 303 374 434
#     4  10  23  45  67 105 135 185 233 298 358 417
#     4  11  24  46  73 109 147 197 247 302 375 432
#
# _framework density 23.588643999999999
#
# number of rings (size 3 to 8) (size 9 to 14) (size 15 to 20)
#    0.000    1.143    2.857    1.714    8.000    2.286 
#    2.571    0.000    0.000    0.000    0.000    0.000 
#    0.000    0.000    0.000    0.000    0.000    0.000 
#
# Total GULP energy -173572.754666 kJ/mol
# GULP energy per Si atom -12398.053905 kJ/mol
# Density = 2.353496 g / cm^3
# Si number density = 23.588644 Si / 1000 Ang^3
#
#
#
# Elastic Constant Matrix: (Units=GPa)
#
#
# Indices 1 2 3 4 5 6 
#
# 1 115.3496 23.5299 33.9061 0.0000 5.6573 0.0000
# 2 23.5299 98.7217 18.7717 0.0000 13.6175 0.0000
# 3 33.9061 18.7717 82.4713 0.0000 -2.9937 0.0000
# 4 0.0000 0.0000 0.0000 29.7695 0.0000 -0.3555
# 5 5.6573 13.6175 -2.9937 0.0000 22.6738 0.0000
# 6 0.0000 0.0000 0.0000 -0.3555 0.0000 38.8347
#
#
#
# Elastic Compliance Matrix: (Units=1/GPa)
#
#
# Indices 1 2 3 4 5 6 
#
# 1 0.010228 -0.001371 -0.003975 0.000000 -0.002253 0.000000
# 2 -0.001371 0.011895 -0.002402 0.000000 -0.007119 0.000000
# 3 -0.003975 -0.002402 0.014464 0.000000 0.004344 0.000000
# 4 0.000000 0.000000 0.000000 0.033595 0.000000 0.000308
# 5 -0.002253 -0.007119 0.004344 0.000000 0.049515 0.000000
# 6 0.000000 0.000000 0.000000 0.000308 0.000000 0.025753
#
#
# Mechanical properties :
#
#
# Convention : Reuss Voigt Hill
#
# Bulk Modulus (GPa) = 47.41387 49.88421 48.64904
# Shear Modulus (GPa) = 29.76612 32.94461 31.35536
#
# Velocity S-wave (km/s) = 3.55615 3.74121 3.64985
# Velocity P-wave (km/s) = 6.08322 6.31313 6.19924
#
# Compressibility (1/GPa) = 0.02109087
#
# Stress axis : x y z
#
# Youngs Moduli (GPa) = 97.77260 84.06860 69.13737
#
# Poissons Ratio (x) = 0.11527 0.27479
# Poissons Ratio (y) = 0.13406 0.16608
# Poissons Ratio (z) = 0.38861 0.20195
#
# Static dielectric constant tensor:
#      x y z
#    x 4.533650 0.000000 -0.042590 
#    y 0.000000 4.416360 0.000000 
#    z -0.042590 0.000000 3.923460 
# 
# 
# High freq. dielectric constant tensor:
#      x y z
#    x 1.951920 0.000000 -0.002150 
#    y 0.000000 1.946160 0.000000 
#    z -0.002150 0.000000 1.910820 
# 
# From -- ./inp_files/10725.got.cif
#   From: 2010.03.12/outbox.cif.g09.slc.cpg/sg4_6_cif.got.tgz:10725.got - 2010.03.31 09:31:35.
