data_PCOD8046589
_publ_section_title
;
Structure prediction by ZEFSAII (Michael W. Deem and Ramdas Pophale) SiO2 
 PCOD8046589
Probable space group: P 21
;
_chemical_formula_sum "Si O2"
_cell_formula_units_Z 10
_cell_length_a 13.694245
_cell_length_b 5.110252
_cell_length_c 9.045890
_cell_angle_alpha 90.000000
_cell_angle_beta 40.805442
_cell_angle_gamma 90.000000
_cell_volume 413.687426
_symmetry_space_group_name_H-M "P 21"
_symmetry_group_IT_number 4
_symmetry_cell_setting 'monoclinic'
loop_
_space_group_symop_operation_xyz
x,y,z
-x,1/2+y,-z
loop_
_atom_site_type_symbol
_atom_site_label
_atom_site_fract_x
_atom_site_fract_y
_atom_site_fract_z
Si Si1 0.163038 0.324140 0.894471
Si Si2 0.567632 0.076418 1.000000
Si Si3 0.534271 0.684283 0.550856
Si Si4 0.085126 0.468550 0.449145
Si Si5 0.057512 0.828706 0.105524
O O1 0.300663 0.311350 0.624058
O O2 0.007109 0.326429 0.985781
O O3 0.165548 0.576425 0.999992
O O4 0.166554 0.076425 0.000001
O O5 0.532010 0.144345 0.210788
O O6 0.528957 0.326422 0.942090
O O7 0.742796 0.008483 0.789210
O O8 0.551544 0.403088 0.449047
O O9 0.000592 0.749747 0.550952
O O10 0.075274 0.341482 0.624062
#
# Coordination Sequence:
#
# PCOD8046589 Si02
#       5
#     2   2   2   2   2
#     4  10  22  41  68  97 135 183 232 287 356 439
#     4  12  28  52  78 108 154 208 254 300 380 470
#     4  12  27  44  74 108 150 187 246 311 371 434
#     4  12  27  44  74 108 150 187 246 311 371 434
#     4  10  22  41  68  97 135 183 232 287 356 439
#
# _framework density 24.172841999999999
#
# number of rings (size 3 to 8) (size 9 to 14) (size 15 to 20)
#    0.000    0.800    0.000    6.000    8.400    4.800 
#    0.000    0.000    0.000    0.000    0.000    0.000 
#    0.000    0.000    0.000    0.000    0.000    0.000 
#
# Total GULP energy -123898.507690 kJ/mol
# GULP energy per Si atom -12389.850769 kJ/mol
# Density = 2.411782 g / cm^3
# Si number density = 24.172842 Si / 1000 Ang^3
#
#
#
# Elastic Constant Matrix: (Units=GPa)
#
#
# Indices 1 2 3 4 5 6 
#
# 1 71.4689 50.3298 47.8989 0.0000 -2.7069 0.0000
# 2 50.3298 215.7289 82.6575 0.0000 -1.5960 0.0000
# 3 47.8989 82.6575 210.2916 0.0000 -4.1567 0.0000
# 4 0.0000 0.0000 0.0000 50.2299 0.0000 -0.7682
# 5 -2.7069 -1.5960 -4.1567 0.0000 39.2224 0.0000
# 6 0.0000 0.0000 0.0000 -0.7682 0.0000 34.7401
#
#
#
# Elastic Compliance Matrix: (Units=1/GPa)
#
#
# Indices 1 2 3 4 5 6 
#
# 1 0.018161 -0.003122 -0.002893 0.000000 0.000820 0.000000
# 2 -0.003122 0.005994 -0.001648 0.000000 -0.000146 0.000000
# 3 -0.002893 -0.001648 0.006069 0.000000 0.000377 0.000000
# 4 0.000000 0.000000 0.000000 0.019915 0.000000 0.000440
# 5 0.000820 -0.000146 0.000377 0.000000 0.025586 0.000000
# 6 0.000000 0.000000 0.000000 0.000440 0.000000 0.028795
#
#
# Mechanical properties :
#
#
# Convention : Reuss Voigt Hill
#
# Bulk Modulus (GPa) = 67.12306 95.47353 81.29829
# Shear Modulus (GPa) = 40.05981 45.94535 43.00258
#
# Velocity S-wave (km/s) = 4.07532 4.36443 4.22235
# Velocity P-wave (km/s) = 7.06913 8.06100 7.58130
#
# Compressibility (1/GPa) = 0.01489801
#
# Stress axis : x y z
#
# Youngs Moduli (GPa) = 55.06309 166.82858 164.76128
#
# Poissons Ratio (x) = 0.52091 0.47667
# Poissons Ratio (y) = 0.17193 0.27149
# Poissons Ratio (z) = 0.15930 0.27489
#
# Static dielectric constant tensor:
#      x y z
#    x 4.102900 0.000000 -0.007940 
#    y 0.000000 5.245170 0.000000 
#    z -0.007940 0.000000 4.263040 
# 
# 
# High freq. dielectric constant tensor:
#      x y z
#    x 1.939030 0.000000 -0.001540 
#    y 0.000000 1.993760 0.000000 
#    z -0.001540 0.000000 1.970090 
# 
# From -- ./inp_files/5146.got.cif
#   From: 2010.03.12/outbox.cif.g09.slc.cpg/sg4_3_cif.got.tgz:5146.got - 2010.03.31 09:31:35.
