data_PCOD8046402
_publ_section_title
;
Structure prediction by ZEFSAII (Michael W. Deem and Ramdas Pophale) SiO2 
 PCOD8046402
Probable space group: P 21
;
_chemical_formula_sum "Si O2"
_cell_formula_units_Z 16
_cell_length_a 11.679985
_cell_length_b 9.292498
_cell_length_c 7.979588
_cell_angle_alpha 90.000000
_cell_angle_beta 45.359303
_cell_angle_gamma 90.000000
_cell_volume 616.235472
_symmetry_space_group_name_H-M "P 21"
_symmetry_group_IT_number 4
_symmetry_cell_setting 'monoclinic'
loop_
_space_group_symop_operation_xyz
x,y,z
-x,1/2+y,-z
loop_
_atom_site_type_symbol
_atom_site_label
_atom_site_fract_x
_atom_site_fract_y
_atom_site_fract_z
Si Si1 0.299126 0.790540 0.935053
Si Si2 0.619435 0.771898 0.027073
Si Si3 0.002905 0.903114 0.112809
Si Si4 0.870737 0.678416 0.508459
Si Si5 0.279259 0.884526 0.311559
Si Si6 0.266378 0.487760 0.834149
Si Si7 0.124314 0.606925 0.508275
Si Si8 0.568454 0.998021 0.680923
O O1 0.213739 0.853216 0.190785
O O2 0.189117 0.855770 0.896104
O O3 0.284188 0.618027 0.947867
O O4 0.485302 0.841367 0.740462
O O5 0.472047 0.863108 0.099627
O O6 0.569118 0.607759 0.117147
O O7 0.661332 0.844920 0.159746
O O8 0.772298 0.771506 0.746438
O O9 0.905632 0.772954 0.307584
O O10 0.917982 0.945034 0.024943
O O11 0.002404 0.046841 0.227435
O O12 0.763830 0.539342 0.568143
O O13 0.037515 0.619552 0.417424
O O14 0.193013 0.759516 0.508793
O O15 0.359860 0.540025 0.573033
O O16 0.282178 0.499938 0.340036
#
# Coordination Sequence:
#
# PCOD8046402 Si02
#       8
#     2   2   2   2   2   2   2   2
#     4  12  24  46  73 103 149 188 250 307 368 447
#     4  11  26  42  71 108 143 192 248 306 375 441
#     4  11  26  46  73 105 146 196 242 310 376 447
#     4  12  23  44  74 108 146 190 248 316 366 443
#     4  11  25  41  70 109 139 192 242 309 372 429
#     4  11  28  45  70 104 145 205 237 305 373 453
#     4  10  21  43  69 103 142 182 241 302 372 431
#     4  10  23  45  68  98 142 189 244 303 368 447
#
# _framework density 25.964102
#
# number of rings (size 3 to 8) (size 9 to 14) (size 15 to 20)
#    0.000    1.000    3.750    0.750    7.000    5.000 
#    0.000    1.250    0.000    0.000    0.000    0.000 
#    0.000    0.000    0.000    0.000    0.000    0.000 
#
# Total GULP energy -198317.825063 kJ/mol
# GULP energy per Si atom -12394.864066 kJ/mol
# Density = 2.590501 g / cm^3
# Si number density = 25.964102 Si / 1000 Ang^3
#
#
#
# Elastic Constant Matrix: (Units=GPa)
#
#
# Indices 1 2 3 4 5 6 
#
# 1 125.8081 50.5230 10.8940 0.0000 -19.8524 0.0000
# 2 50.5230 118.0827 15.7984 0.0000 -3.2412 0.0000
# 3 10.8940 15.7984 48.9581 0.0000 -20.9228 0.0000
# 4 0.0000 0.0000 0.0000 27.6046 0.0000 -5.3900
# 5 -19.8524 -3.2412 -20.9228 0.0000 33.1636 0.0000
# 6 0.0000 0.0000 0.0000 -5.3900 0.0000 50.9069
#
#
#
# Elastic Compliance Matrix: (Units=1/GPa)
#
#
# Indices 1 2 3 4 5 6 
#
# 1 0.010832 -0.004739 0.002317 0.000000 0.007483 0.000000
# 2 -0.004739 0.010964 -0.004433 0.000000 -0.004562 0.000000
# 3 0.002317 -0.004433 0.029777 0.000000 0.019740 0.000000
# 4 0.000000 0.000000 0.000000 0.036991 0.000000 0.003917
# 5 0.007483 -0.004562 0.019740 0.000000 0.046641 0.000000
# 6 0.000000 0.000000 0.000000 0.003917 0.000000 0.020058
#
#
# Mechanical properties :
#
#
# Convention : Reuss Voigt Hill
#
# Bulk Modulus (GPa) = 26.41199 49.69776 38.05487
# Shear Modulus (GPa) = 27.53391 36.71058 32.12224
#
# Velocity S-wave (km/s) = 3.26000 3.76426 3.52117
# Velocity P-wave (km/s) = 4.93607 6.17053 5.58749
#
# Compressibility (1/GPa) = 0.03786159
#
# Stress axis : x y z
#
# Youngs Moduli (GPa) = 92.31947 91.20549 33.58335
#
# Poissons Ratio (x) = 0.43224 -0.07781
# Poissons Ratio (y) = 0.43752 0.14889
# Poissons Ratio (z) = -0.21389 0.40434
#
# Static dielectric constant tensor:
#      x y z
#    x 4.747930 0.000000 -0.272340 
#    y 0.000000 4.744480 0.000000 
#    z -0.272340 0.000000 4.316240 
# 
# 
# High freq. dielectric constant tensor:
#      x y z
#    x 2.040320 0.000000 -0.019470 
#    y 0.000000 2.049570 0.000000 
#    z -0.019470 0.000000 2.015830 
# 
# From -- ./inp_files/7989.got.cif
#   From: 2010.03.12/outbox.cif.g09.slc.cpg/sg4_4_cif.got.tgz:7989.got - 2010.03.31 09:31:35.
