data_PCOD8046975
_publ_section_title
;
Structure prediction by ZEFSAII (Michael W. Deem and Ramdas Pophale) SiO2 
 PCOD8046975
Probable space group: P 21
;
_chemical_formula_sum "Si O2"
_cell_formula_units_Z 16
_cell_length_a 5.681542
_cell_length_b 10.058728
_cell_length_c 12.701092
_cell_angle_alpha 90.000000
_cell_angle_beta 74.785594
_cell_angle_gamma 90.000000
_cell_volume 700.414941
_symmetry_space_group_name_H-M "P 21"
_symmetry_group_IT_number 4
_symmetry_cell_setting 'monoclinic'
loop_
_space_group_symop_operation_xyz
x,y,z
-x,1/2+y,-z
loop_
_atom_site_type_symbol
_atom_site_label
_atom_site_fract_x
_atom_site_fract_y
_atom_site_fract_z
Si Si1 0.142319 0.235770 0.974405
Si Si2 0.651158 0.829014 0.260882
Si Si3 0.073041 0.790690 0.375175
Si Si4 0.414487 0.625030 0.693435
Si Si5 0.875485 0.545428 0.507852
Si Si6 0.195173 0.947131 0.911676
Si Si7 0.364886 0.301958 0.167045
Si Si8 0.893063 0.367076 0.313503
O O1 0.325512 0.283102 0.862227
O O2 0.074769 0.083006 0.963530
O O3 0.246706 0.238373 0.079190
O O4 0.906767 0.329609 0.001817
O O5 0.365421 0.795156 0.317464
O O6 0.871084 0.762369 0.305908
O O7 0.706585 0.984569 0.266450
O O8 0.053216 0.668323 0.459671
O O9 0.994535 0.932946 0.434887
O O10 0.644424 0.608007 0.591456
O O11 0.464887 0.690021 0.801497
O O12 0.229117 0.722877 0.655068
O O13 0.793072 0.468688 0.411641
O O14 0.487774 0.933946 0.887909
O O15 0.144325 0.932372 0.795064
O O16 0.183716 0.343772 0.283262
#
# Coordination Sequence:
#
# PCOD8046975 Si02
#       8
#     2   2   2   2   2   2   2   2
#     4  11  26  43  75  99 145 192 242 308 377 446
#     4  11  28  46  74 108 153 189 257 312 376 445
#     4  11  28  47  72 113 146 198 249 316 370 455
#     4  10  25  43  70 106 147 193 248 311 373 447
#     4  11  25  46  77 102 150 198 251 308 385 440
#     4  10  25  44  68 103 137 188 246 304 373 447
#     4  10  24  43  69 104 141 192 240 309 369 457
#     4  10  23  46  69 101 147 190 249 306 377 445
#
# _framework density 22.843602000000001
#
# number of rings (size 3 to 8) (size 9 to 14) (size 15 to 20)
#    0.000    1.500    0.000    1.500   19.250    2.000 
#    0.000    0.000    0.000    0.000    0.000    0.000 
#    0.000    0.000    0.000    0.000    0.000    0.000 
#
# Total GULP energy -198239.935411 kJ/mol
# GULP energy per Si atom -12389.995963 kJ/mol
# Density = 2.279161 g / cm^3
# Si number density = 22.843602 Si / 1000 Ang^3
#
#
#
# Elastic Constant Matrix: (Units=GPa)
#
#
# Indices 1 2 3 4 5 6 
#
# 1 104.5606 41.5360 28.6309 0.0000 -11.0172 0.0000
# 2 41.5360 146.0306 40.3383 0.0000 -25.1350 0.0000
# 3 28.6309 40.3383 101.6910 0.0000 -15.4695 0.0000
# 4 0.0000 0.0000 0.0000 42.6463 0.0000 -6.7993
# 5 -11.0172 -25.1350 -15.4695 0.0000 23.0354 0.0000
# 6 0.0000 0.0000 0.0000 -6.7993 0.0000 31.3549
#
#
#
# Elastic Compliance Matrix: (Units=1/GPa)
#
#
# Indices 1 2 3 4 5 6 
#
# 1 0.011209 -0.002396 -0.001991 0.000000 0.001410 0.000000
# 2 -0.002396 0.009395 -0.001857 0.000000 0.007858 0.000000
# 3 -0.001991 -0.001857 0.011893 0.000000 0.005008 0.000000
# 4 0.000000 0.000000 0.000000 0.024288 0.000000 0.005267
# 5 0.001410 0.007858 0.005008 0.000000 0.056024 0.000000
# 6 0.000000 0.000000 0.000000 0.005267 0.000000 0.033035
#
#
# Mechanical properties :
#
#
# Convention : Reuss Voigt Hill
#
# Bulk Modulus (GPa) = 49.97574 63.69915 56.83745
# Shear Modulus (GPa) = 30.30284 35.52579 32.91431
#
# Velocity S-wave (km/s) = 3.64611 3.94785 3.79998
# Velocity P-wave (km/s) = 6.29685 6.98041 6.64742
#
# Compressibility (1/GPa) = 0.02000971
#
# Stress axis : x y z
#
# Youngs Moduli (GPa) = 89.21200 106.44229 84.08498
#
# Poissons Ratio (x) = 0.25499 0.16743
# Poissons Ratio (y) = 0.21371 0.15612
# Poissons Ratio (z) = 0.17764 0.19764
#
# Static dielectric constant tensor:
#      x y z
#    x 4.543850 0.000000 -0.234520 
#    y 0.000000 4.324040 0.000000 
#    z -0.234520 0.000000 4.243440 
# 
# 
# High freq. dielectric constant tensor:
#      x y z
#    x 1.892440 0.000000 -0.007570 
#    y 0.000000 1.911750 0.000000 
#    z -0.007570 0.000000 1.913390 
# 
# From -- ./inp_files/2633.got.cif
#   From: 2010.03.12/outbox.cif.g09.slc.cpg/sg4_2_cif.got.tgz:2633.got - 2010.03.31 09:31:35.
