data_PCOD8046839
_publ_section_title
;
Structure prediction by ZEFSAII (Michael W. Deem and Ramdas Pophale) SiO2 
 PCOD8046839
Probable space group: P 21
;
_chemical_formula_sum "Si O2"
_cell_formula_units_Z 16
_cell_length_a 11.281197
_cell_length_b 7.547078
_cell_length_c 11.197881
_cell_angle_alpha 90.000000
_cell_angle_beta 43.707993
_cell_angle_gamma 90.000000
_cell_volume 658.775435
_symmetry_space_group_name_H-M "P 21"
_symmetry_group_IT_number 4
_symmetry_cell_setting 'monoclinic'
loop_
_space_group_symop_operation_xyz
x,y,z
-x,1/2+y,-z
loop_
_atom_site_type_symbol
_atom_site_label
_atom_site_fract_x
_atom_site_fract_y
_atom_site_fract_z
Si Si1 0.131370 0.799130 0.629796
Si Si2 0.304907 0.424316 0.448942
Si Si3 0.252070 0.324377 0.747700
Si Si4 0.076314 0.695807 0.926067
Si Si5 0.633159 0.296894 0.118540
Si Si6 0.543238 0.423589 0.704131
Si Si7 0.751064 0.343959 0.765160
Si Si8 0.076233 0.214558 0.430814
O O1 0.223416 0.613113 0.532579
O O2 0.064710 0.809856 0.812691
O O3 0.275917 0.949952 0.499703
O O4 0.970600 0.822524 0.657280
O O5 0.305502 0.309248 0.570850
O O6 0.503121 0.445650 0.263498
O O7 0.209249 0.323598 0.412305
O O8 0.153099 0.506268 0.844262
O O9 0.417708 0.308373 0.711825
O O10 0.114994 0.172077 0.881039
O O11 0.191584 0.804211 0.935617
O O12 0.537812 0.110057 0.202946
O O13 0.678929 0.336997 0.949503
O O14 0.589368 0.318721 0.793281
O O15 0.844934 0.528968 0.666691
O O16 0.896223 0.193146 0.636484
#
# Coordination Sequence:
#
# PCOD8046839 Si02
#       8
#     2   2   2   2   2   2   2   2
#     4  10  23  42  66  98 136 178 230 274 338 402
#     4  11  22  42  69  96 135 180 221 281 344 400
#     4  10  23  43  67  96 137 177 230 276 338 398
#     4  10  23  42  65  98 134 178 229 278 333 403
#     4  11  24  42  69  98 136 176 225 279 344 401
#     4  10  23  45  63 102 132 174 226 277 335 404
#     4  11  24  44  70 101 138 179 226 278 345 402
#     4  11  22  44  67  99 138 176 225 281 337 406
#
# _framework density 24.287488
#
# number of rings (size 3 to 8) (size 9 to 14) (size 15 to 20)
#    0.000    1.500    2.500    1.500    1.750    5.000 
#    9.000    0.000    0.000    0.000    0.000    0.000 
#    0.000    0.000    0.000    0.000    0.000    0.000 
#
# Total GULP energy -198343.158265 kJ/mol
# GULP energy per Si atom -12396.447392 kJ/mol
# Density = 2.423221 g / cm^3
# Si number density = 24.287488 Si / 1000 Ang^3
#
#
#
# Elastic Constant Matrix: (Units=GPa)
#
#
# Indices 1 2 3 4 5 6 
#
# 1 185.6607 18.4563 55.8954 0.0000 2.1526 0.0000
# 2 18.4563 53.6450 20.8126 0.0000 0.1442 0.0000
# 3 55.8954 20.8126 141.9301 0.0000 23.0193 0.0000
# 4 0.0000 0.0000 0.0000 36.2349 0.0000 -3.1407
# 5 2.1526 0.1442 23.0193 0.0000 45.5430 0.0000
# 6 0.0000 0.0000 0.0000 -3.1407 0.0000 26.3000
#
#
#
# Elastic Compliance Matrix: (Units=1/GPa)
#
#
# Indices 1 2 3 4 5 6 
#
# 1 0.006226 -0.001203 -0.002427 0.000000 0.000936 0.000000
# 2 -0.001203 0.020096 -0.002693 0.000000 0.001354 0.000000
# 3 -0.002427 -0.002693 0.009125 0.000000 -0.004489 0.000000
# 4 0.000000 0.000000 0.000000 0.027886 0.000000 0.003330
# 5 0.000936 0.001354 -0.004489 0.000000 0.024177 0.000000
# 6 0.000000 0.000000 0.000000 0.003330 0.000000 0.038421
#
#
# Mechanical properties :
#
#
# Convention : Reuss Voigt Hill
#
# Bulk Modulus (GPa) = 43.85889 63.50714 53.68301
# Shear Modulus (GPa) = 34.20525 40.68702 37.44613
#
# Velocity S-wave (km/s) = 3.75687 4.09739 3.93082
# Velocity P-wave (km/s) = 6.07587 6.97063 6.53857
#
# Compressibility (1/GPa) = 0.02280039
#
# Stress axis : x y z
#
# Youngs Moduli (GPa) = 160.62597 49.76124 109.59455
#
# Poissons Ratio (x) = 0.05985 0.26602
# Poissons Ratio (y) = 0.19318 0.29512
# Poissons Ratio (z) = 0.38989 0.13400
#
# Static dielectric constant tensor:
#      x y z
#    x 4.923540 0.000000 -0.070940 
#    y 0.000000 4.208140 0.000000 
#    z -0.070940 0.000000 4.618370 
# 
# 
# High freq. dielectric constant tensor:
#      x y z
#    x 1.990050 0.000000 0.001630 
#    y 0.000000 1.951010 0.000000 
#    z 0.001630 0.000000 1.961500 
# 
# From -- ./inp_files/11903.got.cif
#   From: 2010.03.12/outbox.cif.g09.slc.cpg/sg4_6_cif.got.tgz:11903.got - 2010.03.31 09:31:35.
