data_PCOD8046835
_publ_section_title
;
Structure prediction by ZEFSAII (Michael W. Deem and Ramdas Pophale) SiO2 
 PCOD8046835
Probable space group: P 21
;
_chemical_formula_sum "Si O2"
_cell_formula_units_Z 16
_cell_length_a 9.574772
_cell_length_b 8.850572
_cell_length_c 11.812683
_cell_angle_alpha 90.000000
_cell_angle_beta 52.621988
_cell_angle_gamma 90.000000
_cell_volume 795.468403
_symmetry_space_group_name_H-M "P 21"
_symmetry_group_IT_number 4
_symmetry_cell_setting 'monoclinic'
loop_
_space_group_symop_operation_xyz
x,y,z
-x,1/2+y,-z
loop_
_atom_site_type_symbol
_atom_site_label
_atom_site_fract_x
_atom_site_fract_y
_atom_site_fract_z
Si Si1 0.970433 0.325530 0.145695
Si Si2 0.544604 0.011150 0.357684
Si Si3 0.772509 0.604546 0.630141
Si Si4 0.821995 0.093955 0.044890
Si Si5 0.318226 0.262565 0.100013
Si Si6 0.337394 0.614922 0.111615
Si Si7 0.879086 0.261305 0.588266
Si Si8 0.315840 0.746419 0.540321
O O1 0.901110 0.233509 0.073093
O O2 0.820213 0.341105 0.314908
O O3 0.141237 0.244555 0.114518
O O4 0.018459 0.491597 0.078564
O O5 0.377934 0.101686 0.390761
O O6 0.692864 0.994551 0.187807
O O7 0.622525 0.096335 0.427317
O O8 0.486350 0.846196 0.427388
O O9 0.688071 0.655886 0.788540
O O10 0.858245 0.440746 0.605668
O O11 0.915212 0.726265 0.520857
O O12 0.714517 0.158255 0.991160
O O13 0.352560 0.435099 0.118730
O O14 0.480522 0.198696 0.946236
O O15 0.189744 0.677707 0.267139
O O16 0.779924 0.195335 0.527276
#
# Coordination Sequence:
#
# PCOD8046835 Si02
#       8
#     2   2   2   2   2   2   2   2
#     4  10  23  42  64  89 126 162 205 256 305 366
#     4  10  23  42  64  89 126 162 205 256 305 366
#     4  11  22  42  63  93 127 161 207 259 305 372
#     4  10  23  43  62  91 124 163 206 254 308 364
#     4  11  22  42  63  93 127 161 207 259 305 372
#     4  11  24  40  65  94 125 164 207 255 313 367
#     4  11  24  40  65  94 125 164 207 255 313 367
#     4  10  23  43  62  91 124 163 206 254 308 364
#
# _framework density 20.113935999999999
#
# number of rings (size 3 to 8) (size 9 to 14) (size 15 to 20)
#    0.000    1.500    2.500    1.500   10.500    5.000 
#    0.000    0.000    0.000    0.000    0.000    0.000 
#    0.000    0.000    0.000    0.000    0.000    0.000 
#
# Total GULP energy -198477.503760 kJ/mol
# GULP energy per Si atom -12404.843985 kJ/mol
# Density = 2.006816 g / cm^3
# Si number density = 20.113936 Si / 1000 Ang^3
#
#
#
# Elastic Constant Matrix: (Units=GPa)
#
#
# Indices 1 2 3 4 5 6 
#
# 1 62.6027 19.6752 15.9039 0.0000 7.9896 0.0000
# 2 19.6752 52.8240 6.4013 0.0000 2.2449 0.0000
# 3 15.9039 6.4013 79.3403 0.0000 4.0801 0.0000
# 4 0.0000 0.0000 0.0000 39.4571 0.0000 -7.8203
# 5 7.9896 2.2449 4.0801 0.0000 37.4759 0.0000
# 6 0.0000 0.0000 0.0000 -7.8203 0.0000 31.5930
#
#
#
# Elastic Compliance Matrix: (Units=1/GPa)
#
#
# Indices 1 2 3 4 5 6 
#
# 1 0.019300 -0.006663 -0.003158 0.000000 -0.003372 0.000000
# 2 -0.006663 0.021454 -0.000405 0.000000 0.000179 0.000000
# 3 -0.003158 -0.000405 0.013308 0.000000 -0.000751 0.000000
# 4 0.000000 0.000000 0.000000 0.026652 0.000000 0.006597
# 5 -0.003372 0.000179 -0.000751 0.000000 0.027474 0.000000
# 6 0.000000 0.000000 0.000000 0.006597 0.000000 0.033286
#
#
# Mechanical properties :
#
#
# Convention : Reuss Voigt Hill
#
# Bulk Modulus (GPa) = 29.75126 30.96975 30.36051
# Shear Modulus (GPa) = 28.88043 31.89098 30.38571
#
# Velocity S-wave (km/s) = 3.79336 3.98617 3.89096
# Velocity P-wave (km/s) = 5.83178 6.05117 5.94249
#
# Compressibility (1/GPa) = 0.03361202
#
# Stress axis : x y z
#
# Youngs Moduli (GPa) = 51.81254 46.61166 75.14159
#
# Poissons Ratio (x) = 0.31056 0.23728
# Poissons Ratio (y) = 0.34522 0.03040
# Poissons Ratio (z) = 0.16362 0.01886
#
# Static dielectric constant tensor:
#      x y z
#    x 3.718270 0.000000 -0.031910 
#    y 0.000000 3.441040 0.000000 
#    z -0.031910 0.000000 3.855810 
# 
# 
# High freq. dielectric constant tensor:
#      x y z
#    x 1.791030 0.000000 -0.002180 
#    y 0.000000 1.773940 0.000000 
#    z -0.002180 0.000000 1.803340 
# 
# From -- ./inp_files/5428.got.cif
#   From: 2010.03.12/outbox.cif.g09.slc.cpg/sg4_3_cif.got.tgz:5428.got - 2010.03.31 09:31:35.
