data_PCOD8046031
_publ_section_title
;
Structure prediction by ZEFSAII (Michael W. Deem and Ramdas Pophale) SiO2 
 PCOD8046031
Probable space group: P 21
;
_chemical_formula_sum "Si O2"
_cell_formula_units_Z 14
_cell_length_a 13.750838
_cell_length_b 8.728220
_cell_length_c 10.989223
_cell_angle_alpha 90.000000
_cell_angle_beta 150.100552
_cell_angle_gamma 90.000000
_cell_volume 657.459555
_symmetry_space_group_name_H-M "P 21"
_symmetry_group_IT_number 4
_symmetry_cell_setting 'monoclinic'
loop_
_space_group_symop_operation_xyz
x,y,z
-x,1/2+y,-z
loop_
_atom_site_type_symbol
_atom_site_label
_atom_site_fract_x
_atom_site_fract_y
_atom_site_fract_z
Si Si1 0.168188 0.335120 0.592667
Si Si2 0.419948 0.172872 0.343710
Si Si3 0.680219 0.060384 0.421968
Si Si4 0.328905 0.935739 0.437476
Si Si5 0.527639 0.348664 0.145731
Si Si6 0.892339 0.485463 0.457518
Si Si7 0.991201 0.791249 0.187957
O O1 0.275847 0.392626 0.586361
O O2 0.989701 0.449715 0.432039
O O3 0.088612 0.164025 0.486636
O O4 0.309106 0.350217 0.861787
O O5 0.522472 0.052422 0.361144
O O6 0.577832 0.303505 0.546201
O O7 0.357881 0.096793 0.402989
O O8 0.232102 0.255280 0.081410
O O9 0.593102 0.171421 0.223234
O O10 0.886530 0.133311 0.686810
O O11 0.445078 0.928463 0.692217
O O12 0.097160 0.906036 0.205677
O O13 0.664558 0.441051 0.199934
O O14 0.996776 0.376156 0.669440
#
# Coordination Sequence:
#
# PCOD8046031 Si02
#       7
#     2   2   2   2   2   2   2
#     4  12  21  35  59  87 121 156 192 239 294 353
#     4  10  20  40  62  82 118 154 192 250 294 336
#     4   9  21  36  55  86 117 153 198 235 289 359
#     4   9  21  37  61  87 111 154 201 238 294 355
#     4   9  20  39  57  81 117 154 193 244 290 340
#     4  10  21  35  57  86 118 156 196 237 292 356
#     4   9  20  40  57  83 122 155 194 245 293 343
#
# _framework density 21.294087000000001
#
# number of rings (size 3 to 8) (size 9 to 14) (size 15 to 20)
#    0.000    2.857    0.000    4.286    0.000    5.714 
#    0.000    2.857    0.000    0.000    0.000    0.000 
#    0.000    0.000    0.000    0.000    0.000    0.000 
#
# Total GULP energy -173472.135386 kJ/mol
# GULP energy per Si atom -12390.866813 kJ/mol
# Density = 2.124562 g / cm^3
# Si number density = 21.294087 Si / 1000 Ang^3
#
#
#
# Elastic Constant Matrix: (Units=GPa)
#
#
# Indices 1 2 3 4 5 6 
#
# 1 90.7947 19.7090 28.6987 0.0000 20.4560 0.0000
# 2 19.7090 51.5895 17.8822 0.0000 2.1175 0.0000
# 3 28.6987 17.8822 54.3630 0.0000 9.2058 0.0000
# 4 0.0000 0.0000 0.0000 16.4606 0.0000 1.6504
# 5 20.4560 2.1175 9.2058 0.0000 26.2001 0.0000
# 6 0.0000 0.0000 0.0000 1.6504 0.0000 50.9268
#
#
#
# Elastic Compliance Matrix: (Units=1/GPa)
#
#
# Indices 1 2 3 4 5 6 
#
# 1 0.015823 -0.003757 -0.005398 0.000000 -0.010154 0.000000
# 2 -0.003757 0.022787 -0.006057 0.000000 0.003220 0.000000
# 3 -0.005398 -0.006057 0.023860 0.000000 -0.003680 0.000000
# 4 0.000000 0.000000 0.000000 0.060949 0.000000 -0.001975
# 5 -0.010154 0.003220 -0.003680 0.000000 0.047128 0.000000
# 6 0.000000 0.000000 0.000000 -0.001975 0.000000 0.019700
#
#
# Mechanical properties :
#
#
# Convention : Reuss Voigt Hill
#
# Bulk Modulus (GPa) = 31.20596 36.59189 33.89893
# Shear Modulus (GPa) = 21.61192 27.41466 24.51329
#
# Velocity S-wave (km/s) = 3.18925 3.59197 3.39658
# Velocity P-wave (km/s) = 5.31491 5.86723 5.59789
#
# Compressibility (1/GPa) = 0.03204516
#
# Stress axis : x y z
#
# Youngs Moduli (GPa) = 63.19794 43.88540 41.91114
#
# Poissons Ratio (x) = 0.16489 0.22623
# Poissons Ratio (y) = 0.23745 0.25387
# Poissons Ratio (z) = 0.34114 0.26582
#
# Static dielectric constant tensor:
#      x y z
#    x 3.942990 0.000000 0.343270 
#    y 0.000000 3.646760 0.000000 
#    z 0.343270 0.000000 3.532020 
# 
# 
# High freq. dielectric constant tensor:
#      x y z
#    x 1.845130 0.000000 0.029600 
#    y 0.000000 1.820640 0.000000 
#    z 0.029600 0.000000 1.808100 
# 
# From -- ./inp_files/12661.got.cif
#   From: 2010.03.12/outbox.cif.g09.slc.cpg/sg4_7_cif.got.tgz:12661.got - 2010.03.31 09:31:35.
