data_PCOD8046303
_publ_section_title
;
Structure prediction by ZEFSAII (Michael W. Deem and Ramdas Pophale) SiO2 
 PCOD8046303
Probable space group: P 21
;
_chemical_formula_sum "Si O2"
_cell_formula_units_Z 16
_cell_length_a 14.354073
_cell_length_b 9.292741
_cell_length_c 15.232892
_cell_angle_alpha 90.000000
_cell_angle_beta 160.019452
_cell_angle_gamma 90.000000
_cell_volume 694.300885
_symmetry_space_group_name_H-M "P 21"
_symmetry_group_IT_number 4
_symmetry_cell_setting 'monoclinic'
loop_
_space_group_symop_operation_xyz
x,y,z
-x,1/2+y,-z
loop_
_atom_site_type_symbol
_atom_site_label
_atom_site_fract_x
_atom_site_fract_y
_atom_site_fract_z
Si Si1 0.665753 0.300230 0.780380
Si Si2 0.622237 0.607804 0.763558
Si Si3 0.300761 0.384469 0.756928
Si Si4 0.977534 0.203164 0.736367
Si Si5 0.784143 0.674461 0.719976
Si Si6 0.981963 0.530231 0.715235
Si Si7 0.482591 0.171545 0.785103
Si Si8 0.183649 0.074902 0.744478
O O1 0.586045 0.444607 0.761777
O O2 0.481936 0.272597 0.532223
O O3 0.588628 0.176191 0.779909
O O4 0.986669 0.288731 0.046336
O O5 0.341688 0.691870 0.525446
O O6 0.716407 0.581789 0.745848
O O7 0.854911 0.683808 0.025904
O O8 0.411074 0.327350 0.761197
O O9 0.233372 0.235858 0.750252
O O10 0.037839 0.486003 0.508775
O O11 0.536667 0.482344 0.010189
O O12 0.030396 0.362424 0.750275
O O13 0.074671 0.091371 0.747840
O O14 0.873350 0.577736 0.715730
O O15 0.785827 0.572480 0.460365
O O16 0.271530 0.598855 0.943498
#
# Coordination Sequence:
#
# PCOD8046303 Si02
#       8
#     2   2   2   2   2   2   2   2
#     4  10  21  41  59  90 122 168 222 275 333 415
#     4  12  25  40  67  90 133 182 219 293 348 413
#     4  12  27  48  78 109 148 188 239 294 362 434
#     4  12  26  44  67 100 140 179 235 287 362 408
#     4  10  23  38  62  93 127 171 226 277 338 413
#     4  10  23  41  66 100 134 180 226 289 340 423
#     4  10  21  41  71  91 134 177 229 272 354 408
#     4  12  28  47  76 111 150 185 246 293 365 432
#
# _framework density 23.044765000000002
#
# number of rings (size 3 to 8) (size 9 to 14) (size 15 to 20)
#    0.000    1.000    0.000    6.000    7.000    2.000 
#    0.000    0.000    0.000    0.000    0.000    0.000 
#    0.000    0.000    0.000    0.000    0.000    0.000 
#
# Total GULP energy -198289.694134 kJ/mol
# GULP energy per Si atom -12393.105883 kJ/mol
# Density = 2.299231 g / cm^3
# Si number density = 23.044765 Si / 1000 Ang^3
#
#
#
# Elastic Constant Matrix: (Units=GPa)
#
#
# Indices 1 2 3 4 5 6 
#
# 1 84.7461 12.2946 21.0148 0.0000 9.4521 0.0000
# 2 12.2946 116.8261 37.8171 0.0000 -0.3234 0.0000
# 3 21.0148 37.8171 163.2951 0.0000 23.3592 0.0000
# 4 0.0000 0.0000 0.0000 43.4248 0.0000 1.2536
# 5 9.4521 -0.3234 23.3592 0.0000 49.0818 0.0000
# 6 0.0000 0.0000 0.0000 1.2536 0.0000 28.1311
#
#
#
# Elastic Compliance Matrix: (Units=1/GPa)
#
#
# Indices 1 2 3 4 5 6 
#
# 1 0.012422 -0.000953 -0.001110 0.000000 -0.001870 0.000000
# 2 -0.000953 0.009388 -0.002239 0.000000 0.001311 0.000000
# 3 -0.001110 -0.002239 0.007250 0.000000 -0.003252 0.000000
# 4 0.000000 0.000000 0.000000 0.023058 0.000000 -0.001028
# 5 -0.001870 0.001311 -0.003252 0.000000 0.022290 0.000000
# 6 0.000000 0.000000 0.000000 -0.001028 0.000000 0.035594
#
#
# Mechanical properties :
#
#
# Convention : Reuss Voigt Hill
#
# Bulk Modulus (GPa) = 48.88560 56.34670 52.61615
# Shear Modulus (GPa) = 39.86382 43.71026 41.78704
#
# Velocity S-wave (km/s) = 4.16365 4.35990 4.26290
# Velocity P-wave (km/s) = 6.66138 7.06038 6.86378
#
# Compressibility (1/GPa) = 0.02045592
#
# Stress axis : x y z
#
# Youngs Moduli (GPa) = 80.50149 106.51352 137.92184
#
# Poissons Ratio (x) = 0.10151 0.15315
# Poissons Ratio (y) = 0.07672 0.30883
# Poissons Ratio (z) = 0.08939 0.23850
#
# Static dielectric constant tensor:
#      x y z
#    x 4.037680 0.000000 0.029030 
#    y 0.000000 3.923980 0.000000 
#    z 0.029030 0.000000 4.525340 
# 
# 
# High freq. dielectric constant tensor:
#      x y z
#    x 1.911530 0.000000 0.002310 
#    y 0.000000 1.908720 0.000000 
#    z 0.002310 0.000000 1.931210 
# 
# From -- ./inp_files/14183.got.cif
#   From: 2010.03.12/outbox.cif.g09.slc.cpg/sg4_8_cif.got.tgz:14183.got - 2010.03.31 09:31:35.
