data_PCOD8046676
_publ_section_title
;
Structure prediction by ZEFSAII (Michael W. Deem and Ramdas Pophale) SiO2 
 PCOD8046676
Probable space group: P 21
;
_chemical_formula_sum "Si O2"
_cell_formula_units_Z 16
_cell_length_a 12.002509
_cell_length_b 7.971793
_cell_length_c 14.471312
_cell_angle_alpha 90.000000
_cell_angle_beta 30.406842
_cell_angle_gamma 90.000000
_cell_volume 700.815727
_symmetry_space_group_name_H-M "P 21"
_symmetry_group_IT_number 4
_symmetry_cell_setting 'monoclinic'
loop_
_space_group_symop_operation_xyz
x,y,z
-x,1/2+y,-z
loop_
_atom_site_type_symbol
_atom_site_label
_atom_site_fract_x
_atom_site_fract_y
_atom_site_fract_z
Si Si1 0.257192 0.989180 0.509039
Si Si2 0.997582 0.805063 0.354053
Si Si3 0.097382 0.727814 0.753836
Si Si4 0.650535 0.397620 0.750808
Si Si5 0.647470 0.204447 0.256495
Si Si6 0.380553 0.096291 0.915081
Si Si7 0.362367 0.725722 0.950282
Si Si8 0.613137 0.021590 0.569667
O O1 0.094194 0.911161 0.704745
O O2 0.295240 0.862388 0.396133
O O3 0.492906 0.041377 0.385109
O O4 0.165944 0.148489 0.514540
O O5 0.130764 0.868842 0.347225
O O6 0.851735 0.967524 0.437905
O O7 0.146405 0.727702 0.166524
O O8 0.129842 0.719301 0.841660
O O9 0.328347 0.653566 0.551399
O O10 0.881751 0.619012 0.886284
O O11 0.487417 0.246541 0.897928
O O12 0.533750 0.578006 0.854792
O O13 0.716133 0.207432 0.099693
O O14 0.505730 0.363446 0.389912
O O15 0.464286 0.913891 0.891923
O O16 0.451374 0.110195 0.758053
#
# Coordination Sequence:
#
# PCOD8046676 Si02
#       8
#     2   2   2   2   2   2   2   2
#     4  10  23  44  66 103 139 175 245 282 334 439
#     4  11  24  44  70  96 137 191 218 287 360 396
#     4  12  21  43  71 100 136 191 220 284 365 394
#     4  11  25  44  70  99 139 185 225 292 346 406
#     4   9  22  43  68  98 139 184 226 288 348 406
#     4  11  24  45  67 104 138 169 241 285 327 431
#     4  10  23  47  63 103 143 169 235 289 324 428
#     4  10  22  44  63  99 141 168 234 285 328 424
#
# _framework density 22.830535999999999
#
# number of rings (size 3 to 8) (size 9 to 14) (size 15 to 20)
#    0.000    1.500    2.500    2.250    3.500    0.000 
#   20.250    0.000    0.000    0.000    0.000    0.000 
#    0.000    0.000    0.000    0.000    0.000    0.000 
#
# Total GULP energy -198210.795713 kJ/mol
# GULP energy per Si atom -12388.174732 kJ/mol
# Density = 2.277857 g / cm^3
# Si number density = 22.830536 Si / 1000 Ang^3
#
#
#
# Elastic Constant Matrix: (Units=GPa)
#
#
# Indices 1 2 3 4 5 6 
#
# 1 65.1865 34.2238 8.6246 0.0000 -13.9786 0.0000
# 2 34.2238 120.5970 8.0938 0.0000 -6.3211 0.0000
# 3 8.6246 8.0938 75.1481 0.0000 5.0818 0.0000
# 4 0.0000 0.0000 0.0000 37.5062 0.0000 1.3255
# 5 -13.9786 -6.3211 5.0818 0.0000 28.3542 0.0000
# 6 0.0000 0.0000 0.0000 1.3255 0.0000 23.7070
#
#
#
# Elastic Compliance Matrix: (Units=1/GPa)
#
#
# Indices 1 2 3 4 5 6 
#
# 1 0.020349 -0.005124 -0.002414 0.000000 0.009322 0.000000
# 2 -0.005124 0.009762 -0.000445 0.000000 -0.000270 0.000000
# 3 -0.002414 -0.000445 0.013888 0.000000 -0.003778 0.000000
# 4 0.000000 0.000000 0.000000 0.026715 0.000000 -0.001494
# 5 0.009322 -0.000270 -0.003778 0.000000 0.040481 0.000000
# 6 0.000000 0.000000 0.000000 -0.001494 0.000000 0.042265
#
#
# Mechanical properties :
#
#
# Convention : Reuss Voigt Hill
#
# Bulk Modulus (GPa) = 35.67299 40.31287 37.99293
# Shear Modulus (GPa) = 27.96880 31.91279 29.94080
#
# Velocity S-wave (km/s) = 3.50388 3.74279 3.62530
# Velocity P-wave (km/s) = 5.65939 6.03106 5.84818
#
# Compressibility (1/GPa) = 0.02803241
#
# Stress axis : x y z
#
# Youngs Moduli (GPa) = 49.14159 102.43832 72.00698
#
# Poissons Ratio (x) = 0.52492 0.17382
# Poissons Ratio (y) = 0.25181 0.03205
# Poissons Ratio (z) = 0.11863 0.04559
#
# Static dielectric constant tensor:
#      x y z
#    x 3.813130 0.000000 0.138790 
#    y 0.000000 4.355850 0.000000 
#    z 0.138790 0.000000 4.139340 
# 
# 
# High freq. dielectric constant tensor:
#      x y z
#    x 1.875520 0.000000 0.005950 
#    y 0.000000 1.917420 0.000000 
#    z 0.005950 0.000000 1.900860 
# 
# From -- ./inp_files/12596.got.cif
#   From: 2010.03.12/outbox.cif.g09.slc.cpg/sg4_7_cif.got.tgz:12596.got - 2010.03.31 09:31:35.
