data_PCOD8046848
_publ_section_title
;
Structure prediction by ZEFSAII (Michael W. Deem and Ramdas Pophale) SiO2 
 PCOD8046848
Probable space group: P 21
;
_chemical_formula_sum "Si O2"
_cell_formula_units_Z 16
_cell_length_a 13.041030
_cell_length_b 11.696019
_cell_length_c 9.397153
_cell_angle_alpha 90.000000
_cell_angle_beta 29.698072
_cell_angle_gamma 90.000000
_cell_volume 710.113986
_symmetry_space_group_name_H-M "P 21"
_symmetry_group_IT_number 4
_symmetry_cell_setting 'monoclinic'
loop_
_space_group_symop_operation_xyz
x,y,z
-x,1/2+y,-z
loop_
_atom_site_type_symbol
_atom_site_label
_atom_site_fract_x
_atom_site_fract_y
_atom_site_fract_z
Si Si1 0.703858 0.461090 0.362256
Si Si2 0.894441 0.253842 0.541186
Si Si3 0.864229 0.218021 0.121555
Si Si4 0.094584 0.329271 0.589416
Si Si5 0.039828 0.075099 0.168496
Si Si6 0.677213 0.083018 0.115856
Si Si7 0.460273 0.180253 0.120722
Si Si8 0.122997 0.003878 0.555572
O O1 0.745377 0.328388 0.317600
O O2 0.460783 0.469811 0.692309
O O3 0.851522 0.519918 0.304492
O O4 0.751203 0.521455 0.152115
O O5 0.066747 0.166148 0.266358
O O6 0.876991 0.371650 0.479056
O O7 0.941259 0.284065 0.649370
O O8 0.673248 0.191534 0.775937
O O9 0.933063 0.146750 0.173658
O O10 0.696921 0.141422 0.243875
O O11 0.043252 0.257478 0.794319
O O12 0.087980 0.465358 0.619408
O O13 0.330271 0.297822 0.264581
O O14 0.540469 0.166539 0.184720
O O15 0.899442 0.053275 0.777039
O O16 0.311095 0.073862 0.252574
#
# Coordination Sequence:
#
# PCOD8046848 Si02
#       8
#     2   2   2   2   2   2   2   2
#     4  10  23  42  68 102 138 181 237 290 354 412
#     4  12  27  45  72 105 145 188 234 289 359 418
#     4  11  20  46  66 103 139 183 231 298 345 417
#     4  11  26  46  73 100 147 185 237 295 349 421
#     4  11  25  46  72 105 143 181 240 294 351 419
#     4  11  22  42  72  99 136 186 236 287 354 413
#     4  11  24  45  70 100 138 190 232 289 354 426
#     4  11  23  44  73  98 140 186 235 294 348 416
#
# _framework density 22.531596
#
# number of rings (size 3 to 8) (size 9 to 14) (size 15 to 20)
#    0.000    1.000    5.000    0.750    5.250    3.000 
#    2.250    0.000    0.000    0.000    0.000    0.000 
#    0.000    0.000    0.000    0.000    0.000    0.000 
#
# Total GULP energy -198239.542820 kJ/mol
# GULP energy per Si atom -12389.971426 kJ/mol
# Density = 2.248031 g / cm^3
# Si number density = 22.531596 Si / 1000 Ang^3
#
#
#
# Elastic Constant Matrix: (Units=GPa)
#
#
# Indices 1 2 3 4 5 6 
#
# 1 71.3309 42.8532 32.5572 0.0000 -1.8935 0.0000
# 2 42.8532 147.9634 41.3819 0.0000 4.6470 0.0000
# 3 32.5572 41.3819 85.2808 0.0000 -18.8376 0.0000
# 4 0.0000 0.0000 0.0000 34.3246 0.0000 8.1718
# 5 -1.8935 4.6470 -18.8376 0.0000 35.0709 0.0000
# 6 0.0000 0.0000 0.0000 8.1718 0.0000 30.2175
#
#
#
# Elastic Compliance Matrix: (Units=1/GPa)
#
#
# Indices 1 2 3 4 5 6 
#
# 1 0.018873 -0.003828 -0.005685 0.000000 -0.001527 0.000000
# 2 -0.003828 0.008991 -0.003642 0.000000 -0.003354 0.000000
# 3 -0.005685 -0.003642 0.017816 0.000000 0.009745 0.000000
# 4 0.000000 0.000000 0.000000 0.031138 0.000000 -0.008421
# 5 -0.001527 -0.003354 0.009745 0.000000 0.034110 0.000000
# 6 0.000000 0.000000 0.000000 -0.008421 0.000000 0.035371
#
#
# Mechanical properties :
#
#
# Convention : Reuss Voigt Hill
#
# Bulk Modulus (GPa) = 51.62678 59.79552 55.71115
# Shear Modulus (GPa) = 27.92241 32.44147 30.18194
#
# Velocity S-wave (km/s) = 3.52413 3.79861 3.66394
# Velocity P-wave (km/s) = 6.28666 6.77019 6.53290
#
# Compressibility (1/GPa) = 0.01936979
#
# Stress axis : x y z
#
# Youngs Moduli (GPa) = 52.98523 111.21996 56.12806
#
# Poissons Ratio (x) = 0.42577 0.31908
# Poissons Ratio (y) = 0.20284 0.20444
# Poissons Ratio (z) = 0.30122 0.40511
#
# Static dielectric constant tensor:
#      x y z
#    x 4.060150 0.000000 0.091990 
#    y 0.000000 4.275860 0.000000 
#    z 0.091990 0.000000 4.166650 
# 
# 
# High freq. dielectric constant tensor:
#      x y z
#    x 1.879950 0.000000 0.006000 
#    y 0.000000 1.905710 0.000000 
#    z 0.006000 0.000000 1.874980 
# 
# From -- ./inp_files/2918.got.cif
#   From: 2010.03.12/outbox.cif.g09.slc.cpg/sg4_2_cif.got.tgz:2918.got - 2010.03.31 09:31:35.
