data_PCOD8046536
_publ_section_title
;
Structure prediction by ZEFSAII (Michael W. Deem and Ramdas Pophale) SiO2 
 PCOD8046536
Probable space group: P 21
;
_chemical_formula_sum "Si O2"
_cell_formula_units_Z 16
_cell_length_a 12.676247
_cell_length_b 4.979746
_cell_length_c 20.553847
_cell_angle_alpha 90.000000
_cell_angle_beta 31.068927
_cell_angle_gamma 90.000000
_cell_volume 669.574140
_symmetry_space_group_name_H-M "P 21"
_symmetry_group_IT_number 4
_symmetry_cell_setting 'monoclinic'
loop_
_space_group_symop_operation_xyz
x,y,z
-x,1/2+y,-z
loop_
_atom_site_type_symbol
_atom_site_label
_atom_site_fract_x
_atom_site_fract_y
_atom_site_fract_z
Si Si1 0.721223 0.881940 0.643094
Si Si2 0.726736 0.571652 0.841503
Si Si3 0.262484 0.573019 0.082726
Si Si4 0.837472 0.383653 0.650894
Si Si5 0.078640 0.444528 0.920714
Si Si6 0.080395 0.784563 0.802211
Si Si7 0.569087 0.607632 0.308495
Si Si8 0.389814 0.751260 0.533974
O O1 0.690593 0.590270 0.689996
O O2 0.538521 0.933859 0.689891
O O3 0.933872 0.898498 0.494214
O O4 0.729887 0.096321 0.697715
O O5 0.775183 0.877397 0.835082
O O6 0.867316 0.467752 0.709537
O O7 0.773736 0.382891 0.879144
O O8 0.495363 0.530404 0.937706
O O9 0.108024 0.489340 0.107025
O O10 0.003605 0.537355 0.887954
O O11 0.315995 0.356008 0.787595
O O12 0.058422 0.693598 0.981909
O O13 0.262902 0.927684 0.744436
O O14 0.167934 0.690979 0.684641
O O15 0.399054 0.708239 0.450977
O O16 0.444558 0.061167 0.518312
#
# Coordination Sequence:
#
# PCOD8046536 Si02
#       8
#     2   2   2   2   2   2   2   2
#     4  10  24  41  69  98 132 178 226 279 337 414
#     4  10  22  45  66  97 130 169 227 282 341 392
#     4  10  24  41  70  98 128 173 224 281 338 413
#     4  10  22  45  67  98 134 175 227 282 342 394
#     4  12  26  46  67  96 146 193 230 280 340 430
#     4  11  25  46  69 106 142 180 236 282 360 422
#     4  11  25  46  68 106 144 180 237 283 358 426
#     4  10  22  40  66  95 138 178 219 285 342 407
#
# _framework density 23.895785
#
# number of rings (size 3 to 8) (size 9 to 14) (size 15 to 20)
#    0.000    1.500    2.500    0.750    5.250    1.000 
#    6.750    0.000    0.000    0.000    0.000    0.000 
#    0.000    0.000    0.000    0.000    0.000    0.000 
#
# Total GULP energy -198356.262738 kJ/mol
# GULP energy per Si atom -12397.266421 kJ/mol
# Density = 2.384140 g / cm^3
# Si number density = 23.895785 Si / 1000 Ang^3
#
#
#
# Elastic Constant Matrix: (Units=GPa)
#
#
# Indices 1 2 3 4 5 6 
#
# 1 63.6664 -10.5850 23.7822 0.0000 -10.3509 0.0000
# 2 -10.5850 68.1432 27.1387 0.0000 1.6780 0.0000
# 3 23.7822 27.1387 66.6326 0.0000 23.4134 0.0000
# 4 0.0000 0.0000 0.0000 29.4789 0.0000 -1.5098
# 5 -10.3509 1.6780 23.4134 0.0000 43.4679 0.0000
# 6 0.0000 0.0000 0.0000 -1.5098 0.0000 17.1189
#
#
#
# Elastic Compliance Matrix: (Units=1/GPa)
#
#
# Indices 1 2 3 4 5 6 
#
# 1 0.029027 0.012821 -0.022001 0.000000 0.018268 0.000000
# 2 0.012821 0.023734 -0.018494 0.000000 0.012098 0.000000
# 3 -0.022001 -0.018494 0.039449 0.000000 -0.025774 0.000000
# 4 0.000000 0.000000 0.000000 0.034076 0.000000 0.003005
# 5 0.018268 0.012098 -0.025774 0.000000 0.040771 0.000000
# 6 0.000000 0.000000 0.000000 0.003005 0.000000 0.058680
#
#
# Mechanical properties :
#
#
# Convention : Reuss Voigt Hill
#
# Bulk Modulus (GPa) = 27.12785 31.01266 29.07025
# Shear Modulus (GPa) = 17.04325 28.55354 22.79840
#
# Velocity S-wave (km/s) = 2.67354 3.46051 3.09216
# Velocity P-wave (km/s) = 4.57249 5.38269 4.99404
#
# Compressibility (1/GPa) = 0.03686248
#
# Stress axis : x y z
#
# Youngs Moduli (GPa) = 34.45110 42.13376 25.34938
#
# Poissons Ratio (x) = -0.54020 0.55771
# Poissons Ratio (y) = -0.44170 0.46880
# Poissons Ratio (z) = 0.75795 0.77921
#
# Static dielectric constant tensor:
#      x y z
#    x 4.044490 0.000000 0.333600 
#    y 0.000000 4.501490 0.000000 
#    z 0.333600 0.000000 4.527200 
# 
# 
# High freq. dielectric constant tensor:
#      x y z
#    x 1.929480 0.000000 0.013030 
#    y 0.000000 1.958280 0.000000 
#    z 0.013030 0.000000 1.944680 
# 
# From -- ./inp_files/12456.got.cif
#   From: 2010.03.12/outbox.cif.g09.slc.cpg/sg4_7_cif.got.tgz:12456.got - 2010.03.31 09:31:35.
