data_PCOD8046172
_publ_section_title
;
Structure prediction by ZEFSAII (Michael W. Deem and Ramdas Pophale) SiO2 
 PCOD8046172
Probable space group: P 21
;
_chemical_formula_sum "Si O2"
_cell_formula_units_Z 14
_cell_length_a 11.057119
_cell_length_b 8.925497
_cell_length_c 14.539483
_cell_angle_alpha 90.000000
_cell_angle_beta 29.521532
_cell_angle_gamma 90.000000
_cell_volume 707.050649
_symmetry_space_group_name_H-M "P 21"
_symmetry_group_IT_number 4
_symmetry_cell_setting 'monoclinic'
loop_
_space_group_symop_operation_xyz
x,y,z
-x,1/2+y,-z
loop_
_atom_site_type_symbol
_atom_site_label
_atom_site_fract_x
_atom_site_fract_y
_atom_site_fract_z
Si Si1 0.722199 0.943200 0.896496
Si Si2 0.009536 0.703875 0.940636
Si Si3 0.527884 0.235595 0.701020
Si Si4 0.109578 0.629421 0.387517
Si Si5 0.056755 0.664297 0.705776
Si Si6 0.212504 0.499403 0.949471
Si Si7 0.149030 0.946871 0.295253
O O1 0.829601 0.776822 0.839042
O O2 0.825696 0.014506 0.735803
O O3 0.801610 0.042344 0.933087
O O4 0.431425 0.926278 0.082837
O O5 0.100535 0.633203 0.784261
O O6 0.189545 0.648110 0.902676
O O7 0.729538 0.650224 0.146869
O O8 0.010340 0.885479 0.931773
O O9 0.654796 0.156269 0.703819
O O10 0.471151 0.411044 0.762554
O O11 0.694356 0.233217 0.500343
O O12 0.024133 0.787919 0.402342
O O13 0.888342 0.561414 0.594605
O O14 0.993599 0.507298 0.699563
#
# Coordination Sequence:
#
# PCOD8046172 Si02
#       7
#     2   2   2   2   2   2   2
#     4  11  21  36  61  87 114 158 189 236 294 351
#     4   9  19  39  57  82 111 154 189 243 281 344
#     4   9  19  39  57  79 116 148 187 241 283 341
#     4  11  21  36  59  85 121 153 190 236 295 344
#     4  10  21  38  62  83 115 156 193 234 302 331
#     4   9  20  38  59  79 117 146 193 236 290 330
#     4  11  21  36  57  89 118 153 193 238 285 355
#
# _framework density 19.800560999999998
#
# number of rings (size 3 to 8) (size 9 to 14) (size 15 to 20)
#    0.857    1.143    1.429    3.429    0.000    1.143 
#    5.143    4.286    0.000    0.000    0.000    0.000 
#    0.000    0.000    0.000    0.000    0.000    0.000 
#
# Total GULP energy -173525.068647 kJ/mol
# GULP energy per Si atom -12394.647761 kJ/mol
# Density = 1.975549 g / cm^3
# Si number density = 19.800561 Si / 1000 Ang^3
#
#
#
# Elastic Constant Matrix: (Units=GPa)
#
#
# Indices 1 2 3 4 5 6 
#
# 1 43.0835 -10.1775 14.9971 0.0000 7.7814 0.0000
# 2 -10.1775 35.6222 -6.5327 0.0000 -1.2016 0.0000
# 3 14.9971 -6.5327 93.6332 0.0000 13.9919 0.0000
# 4 0.0000 0.0000 0.0000 21.4675 0.0000 3.2332
# 5 7.7814 -1.2016 13.9919 0.0000 23.2846 0.0000
# 6 0.0000 0.0000 0.0000 3.2332 0.0000 40.9017
#
#
#
# Elastic Compliance Matrix: (Units=1/GPa)
#
#
# Indices 1 2 3 4 5 6 
#
# 1 0.027106 0.006993 -0.002806 0.000000 -0.007011 0.000000
# 2 0.006993 0.030242 0.001215 0.000000 -0.001506 0.000000
# 3 -0.002806 0.001215 0.012156 0.000000 -0.006304 0.000000
# 4 0.000000 0.000000 0.000000 0.047143 0.000000 -0.003727
# 5 -0.007011 -0.001506 -0.006304 0.000000 0.049000 0.000000
# 6 0.000000 0.000000 0.000000 -0.003727 0.000000 0.024743
#
#
# Mechanical properties :
#
#
# Convention : Reuss Voigt Hill
#
# Bulk Modulus (GPa) = 12.45187 18.76808 15.60998
# Shear Modulus (GPa) = 24.22991 28.73425 26.48208
#
# Velocity S-wave (km/s) = 3.50194 3.81357 3.66107
# Velocity P-wave (km/s) = 4.75959 5.37497 5.07661
#
# Compressibility (1/GPa) = 0.08030919
#
# Stress axis : x y z
#
# Youngs Moduli (GPa) = 36.89252 33.06617 82.26234
#
# Poissons Ratio (x) = -0.23124 0.23082
# Poissons Ratio (y) = -0.25800 -0.09995
# Poissons Ratio (z) = 0.10351 -0.04018
#
# Static dielectric constant tensor:
#      x y z
#    x 3.416470 0.000000 0.238550 
#    y 0.000000 3.461200 0.000000 
#    z 0.238550 0.000000 3.665210 
# 
# 
# High freq. dielectric constant tensor:
#      x y z
#    x 1.759680 0.000000 0.019280 
#    y 0.000000 1.750590 0.000000 
#    z 0.019280 0.000000 1.775470 
# 
# From -- ./inp_files/10078.got.cif
#   From: 2010.03.12/outbox.cif.g09.slc.cpg/sg4_6_cif.got.tgz:10078.got - 2010.03.31 09:31:35.
