data_PCOD8046944
_publ_section_title
;
Structure prediction by ZEFSAII (Michael W. Deem and Ramdas Pophale) SiO2 
 PCOD8046944
Probable space group: P 21
;
_chemical_formula_sum "Si O2"
_cell_formula_units_Z 16
_cell_length_a 15.262365
_cell_length_b 4.981611
_cell_length_c 8.611056
_cell_angle_alpha 90.000000
_cell_angle_beta 79.644037
_cell_angle_gamma 90.000000
_cell_volume 644.043371
_symmetry_space_group_name_H-M "P 21"
_symmetry_group_IT_number 4
_symmetry_cell_setting 'monoclinic'
loop_
_space_group_symop_operation_xyz
x,y,z
-x,1/2+y,-z
loop_
_atom_site_type_symbol
_atom_site_label
_atom_site_fract_x
_atom_site_fract_y
_atom_site_fract_z
Si Si1 0.401455 0.561130 0.243034
Si Si2 0.296410 0.641275 0.008535
Si Si3 0.164331 0.794290 0.661981
Si Si4 0.249270 0.163529 0.845221
Si Si5 0.351101 0.501734 0.595045
Si Si6 0.990529 0.007527 0.113768
Si Si7 0.519466 0.085122 0.200669
Si Si8 0.049833 0.952957 0.426316
O O1 0.373140 0.429299 0.414116
O O2 0.465709 0.336670 0.148225
O O3 0.454081 0.835944 0.238437
O O4 0.304722 0.614319 0.191362
O O5 0.225955 0.434152 0.952078
O O6 0.397060 0.539251 0.939304
O O7 0.278261 0.941179 0.960662
O O8 0.264706 0.690582 0.637869
O O9 0.098396 0.578871 0.761214
O O10 0.138741 0.864104 0.492099
O O11 0.163898 0.061237 0.772643
O O12 0.329584 0.229371 0.698902
O O13 0.436369 0.648195 0.644588
O O14 0.061991 0.946526 0.232753
O O15 0.022981 0.251969 0.993995
O O16 0.971964 0.752071 0.507383
#
# Coordination Sequence:
#
# PCOD8046944 Si02
#       8
#     2   2   2   2   2   2   2   2
#     4  12  25  41  66 100 135 181 241 297 330 403
#     4  11  23  43  67  95 136 179 233 286 351 408
#     4  11  25  47  76  96 142 185 224 281 348 406
#     4  11  23  44  68  94 133 184 220 277 354 408
#     4  11  26  43  69  99 138 180 240 279 348 408
#     4  11  25  47  75 110 139 175 230 279 342 422
#     4  11  22  41  66  94 137 185 232 286 352 399
#     4  10  23  44  75 104 138 179 226 269 339 422
#
# _framework density 24.843045
#
# number of rings (size 3 to 8) (size 9 to 14) (size 15 to 20)
#    0.000    1.000    2.500    5.250    7.000    0.000 
#    2.250    0.000    0.000    0.000    0.000    0.000 
#    0.000    0.000    0.000    0.000    0.000    0.000 
#
# Total GULP energy -198248.980260 kJ/mol
# GULP energy per Si atom -12390.561266 kJ/mol
# Density = 2.478650 g / cm^3
# Si number density = 24.843045 Si / 1000 Ang^3
#
#
#
# Elastic Constant Matrix: (Units=GPa)
#
#
# Indices 1 2 3 4 5 6 
#
# 1 51.0907 27.5026 11.8652 0.0000 30.3008 0.0000
# 2 27.5026 137.9593 38.0080 0.0000 23.3868 0.0000
# 3 11.8652 38.0080 102.2669 0.0000 38.1866 0.0000
# 4 0.0000 0.0000 0.0000 34.0107 0.0000 5.1781
# 5 30.3008 23.3868 38.1866 0.0000 43.7086 0.0000
# 6 0.0000 0.0000 0.0000 5.1781 0.0000 33.8499
#
#
#
# Elastic Compliance Matrix: (Units=1/GPa)
#
#
# Indices 1 2 3 4 5 6 
#
# 1 0.039803 -0.004941 0.009698 0.000000 -0.033422 0.000000
# 2 -0.004941 0.008880 -0.003313 0.000000 0.001568 0.000000
# 3 0.009698 -0.003313 0.017414 0.000000 -0.020165 0.000000
# 4 0.000000 0.000000 0.000000 0.030104 0.000000 -0.004605
# 5 -0.033422 0.001568 -0.020165 0.000000 0.062827 0.000000
# 6 0.000000 0.000000 0.000000 -0.004605 0.000000 0.030247
#
#
# Mechanical properties :
#
#
# Convention : Reuss Voigt Hill
#
# Bulk Modulus (GPa) = 14.49562 49.56315 32.02938
# Shear Modulus (GPa) = 23.88003 36.57657 30.22830
#
# Velocity S-wave (km/s) = 3.10374 3.84123 3.49201
# Velocity P-wave (km/s) = 4.32341 6.29819 5.40181
#
# Compressibility (1/GPa) = 0.06898637
#
# Stress axis : x y z
#
# Youngs Moduli (GPa) = 25.12399 112.60819 57.42573
#
# Poissons Ratio (x) = 0.55639 -0.55693
# Poissons Ratio (y) = 0.12414 0.19023
# Poissons Ratio (z) = -0.24366 0.37303
#
# Static dielectric constant tensor:
#      x y z
#    x 4.384990 0.000000 0.598430 
#    y 0.000000 4.489730 0.000000 
#    z 0.598430 0.000000 4.984640 
# 
# 
# High freq. dielectric constant tensor:
#      x y z
#    x 1.968380 0.000000 0.037610 
#    y 0.000000 1.997860 0.000000 
#    z 0.037610 0.000000 1.998920 
# 
# From -- ./inp_files/8842.got.cif
#   From: 2010.03.12/outbox.cif.g09.slc.cpg/sg4_5_cif.got.tgz:8842.got - 2010.03.31 09:31:35.
