data_PCOD8046113
_publ_section_title
;
Structure prediction by ZEFSAII (Michael W. Deem and Ramdas Pophale) SiO2 
 PCOD8046113
Probable space group: P 21
;
_chemical_formula_sum "Si O2"
_cell_formula_units_Z 14
_cell_length_a 24.184077
_cell_length_b 5.209487
_cell_length_c 15.246077
_cell_angle_alpha 90.000000
_cell_angle_beta 19.507397
_cell_angle_gamma 90.000000
_cell_volume 641.410611
_symmetry_space_group_name_H-M "P 21"
_symmetry_group_IT_number 4
_symmetry_cell_setting 'monoclinic'
loop_
_space_group_symop_operation_xyz
x,y,z
-x,1/2+y,-z
loop_
_atom_site_type_symbol
_atom_site_label
_atom_site_fract_x
_atom_site_fract_y
_atom_site_fract_z
Si Si1 0.977369 0.911440 0.634527
Si Si2 0.699951 0.532111 0.257282
Si Si3 0.337694 0.484974 0.330304
Si Si4 0.674621 0.031787 0.186549
Si Si5 0.119472 0.410296 0.411522
Si Si6 0.002316 0.970584 0.056903
Si Si7 0.460622 0.485080 0.950310
O O1 0.994684 0.879969 0.504215
O O2 0.044729 0.649965 0.578860
O O3 0.786654 0.969955 0.936224
O O4 0.092905 0.139702 0.501514
O O5 0.721094 0.820189 0.190227
O O6 0.510757 0.506486 0.572994
O O7 0.722578 0.313810 0.149672
O O8 0.825360 0.489662 0.149007
O O9 0.149634 0.465254 0.646269
O O10 0.411404 0.753803 0.253136
O O11 0.443743 0.248873 0.210373
O O12 0.355549 0.472733 0.198544
O O13 0.313210 0.456770 0.100016
O O14 0.009857 0.709615 0.990400
#
# Coordination Sequence:
#
# PCOD8046113 Si02
#       7
#     2   2   2   2   2   2   2
#     4  10  21  34  57  90 120 154 190 243 303 365
#     4  10  23  42  61  92 118 159 213 255 301 370
#     4  10  23  39  62  90 118 160 207 251 296 366
#     4  10  21  39  64  90 121 159 206 251 310 364
#     4  10  21  37  55  90 123 151 197 240 304 363
#     4  12  26  44  64  95 129 168 213 260 322 377
#     4  10  21  41  61  89 121 159 206 246 304 357
#
# _framework density 21.826889999999999
#
# number of rings (size 3 to 8) (size 9 to 14) (size 15 to 20)
#    0.000    1.714    0.000    3.429    4.000    2.286 
#    0.000    0.000    0.000    0.000    0.000    0.000 
#    0.000    0.000    0.000    0.000    0.000    0.000 
#
# Total GULP energy -173519.167092 kJ/mol
# GULP energy per Si atom -12394.226221 kJ/mol
# Density = 2.177721 g / cm^3
# Si number density = 21.826890 Si / 1000 Ang^3
#
#
#
# Elastic Constant Matrix: (Units=GPa)
#
#
# Indices 1 2 3 4 5 6 
#
# 1 56.8642 14.9908 25.6301 0.0000 -25.0442 0.0000
# 2 14.9908 135.6387 16.4589 0.0000 -2.2454 0.0000
# 3 25.6301 16.4589 95.1470 0.0000 -5.7778 0.0000
# 4 0.0000 0.0000 0.0000 37.9797 0.0000 -3.9772
# 5 -25.0442 -2.2454 -5.7778 0.0000 35.4902 0.0000
# 6 0.0000 0.0000 0.0000 -3.9772 0.0000 20.3057
#
#
#
# Elastic Compliance Matrix: (Units=1/GPa)
#
#
# Indices 1 2 3 4 5 6 
#
# 1 0.029808 -0.002184 -0.006447 0.000000 0.019847 0.000000
# 2 -0.002184 0.007693 -0.000815 0.000000 -0.001187 0.000000
# 3 -0.006447 -0.000815 0.012229 0.000000 -0.002610 0.000000
# 4 0.000000 0.000000 0.000000 0.026881 0.000000 0.005265
# 5 0.019847 -0.001187 -0.002610 0.000000 0.041682 0.000000
# 6 0.000000 0.000000 0.000000 0.005265 0.000000 0.050279
#
#
# Mechanical properties :
#
#
# Convention : Reuss Voigt Hill
#
# Bulk Modulus (GPa) = 32.42488 44.64548 38.53518
# Shear Modulus (GPa) = 25.28552 34.12645 29.70598
#
# Velocity S-wave (km/s) = 3.40730 3.95841 3.69315
# Velocity P-wave (km/s) = 5.51066 6.43356 5.98991
#
# Compressibility (1/GPa) = 0.03084051
#
# Stress axis : x y z
#
# Youngs Moduli (GPa) = 33.54805 129.98718 81.77269
#
# Poissons Ratio (x) = 0.28384 0.52715
# Poissons Ratio (y) = 0.07326 0.06662
# Poissons Ratio (z) = 0.21627 0.10589
#
# Static dielectric constant tensor:
#      x y z
#    x 3.527570 0.000000 -0.110370 
#    y 0.000000 4.493330 0.000000 
#    z -0.110370 0.000000 3.954990 
# 
# 
# High freq. dielectric constant tensor:
#      x y z
#    x 1.825180 0.000000 -0.017490 
#    y 0.000000 1.890010 0.000000 
#    z -0.017490 0.000000 1.863560 
# 
# From -- ./inp_files/13823.got.cif
#   From: 2010.03.12/outbox.cif.g09.slc.cpg/sg4_7_cif.got.tgz:13823.got - 2010.03.31 09:31:35.
