data_PCOD8046681
_publ_section_title
;
Structure prediction by ZEFSAII (Michael W. Deem and Ramdas Pophale) SiO2 
 PCOD8046681
Probable space group: P 21
;
_chemical_formula_sum "Si O2"
_cell_formula_units_Z 12
_cell_length_a 9.681150
_cell_length_b 9.140982
_cell_length_c 11.642091
_cell_angle_alpha 90.000000
_cell_angle_beta 32.330335
_cell_angle_gamma 90.000000
_cell_volume 550.987853
_symmetry_space_group_name_H-M "P 21"
_symmetry_group_IT_number 4
_symmetry_cell_setting 'monoclinic'
loop_
_space_group_symop_operation_xyz
x,y,z
-x,1/2+y,-z
loop_
_atom_site_type_symbol
_atom_site_label
_atom_site_fract_x
_atom_site_fract_y
_atom_site_fract_z
Si Si1 0.024232 0.144990 0.385546
Si Si2 0.288712 0.934252 0.364182
Si Si3 0.735534 0.752558 0.999269
Si Si4 0.675827 0.019840 0.281414
Si Si5 0.898750 0.313796 0.079655
Si Si6 0.521372 0.045041 0.641898
O O1 0.934451 0.312240 0.466810
O O2 0.787977 0.035140 0.525916
O O3 0.173350 0.081873 0.390756
O O4 0.217942 0.146208 0.140539
O O5 0.513152 0.869276 0.123062
O O6 0.418538 0.971220 0.394924
O O7 0.652076 0.666619 0.174126
O O8 0.998412 0.831075 0.859541
O O9 0.835693 0.143526 0.097516
O O10 0.588889 0.089104 0.463576
O O11 0.877129 0.884524 0.158955
O O12 0.623748 0.391339 0.256002
#
# Coordination Sequence:
#
# PCOD8046681 Si02
#       6
#     2   2   2   2   2   2
#     4  11  23  47  65  96 133 175 221 271 324 393
#     4  10  26  43  68  95 132 175 220 270 329 383
#     4  10  22  44  65  94 135 170 217 274 324 387
#     4  11  24  42  67 100 128 171 222 274 329 389
#     4  11  21  39  65  99 127 167 217 275 327 379
#     4  11  22  39  70  92 133 170 215 274 329 383
#
# _framework density 21.779066
#
# number of rings (size 3 to 8) (size 9 to 14) (size 15 to 20)
#    0.000    1.333    3.333    1.000    7.000    2.667 
#    3.000    0.000    0.000    0.000    0.000    0.000 
#    0.000    0.000    0.000    0.000    0.000    0.000 
#
# Total GULP energy -148711.726361 kJ/mol
# GULP energy per Si atom -12392.643863 kJ/mol
# Density = 2.172950 g / cm^3
# Si number density = 21.779066 Si / 1000 Ang^3
#
#
#
# Elastic Constant Matrix: (Units=GPa)
#
#
# Indices 1 2 3 4 5 6 
#
# 1 82.4877 32.4859 36.5572 0.0000 -6.4055 0.0000
# 2 32.4859 93.6040 34.9753 0.0000 -4.1251 0.0000
# 3 36.5572 34.9753 89.2384 0.0000 3.2920 0.0000
# 4 0.0000 0.0000 0.0000 37.2947 0.0000 -11.6899
# 5 -6.4055 -4.1251 3.2920 0.0000 29.0778 0.0000
# 6 0.0000 0.0000 0.0000 -11.6899 0.0000 46.4287
#
#
#
# Elastic Compliance Matrix: (Units=1/GPa)
#
#
# Indices 1 2 3 4 5 6 
#
# 1 0.016156 -0.003422 -0.005413 0.000000 0.003686 0.000000
# 2 -0.003422 0.013402 -0.003909 0.000000 0.001590 0.000000
# 3 -0.005413 -0.003909 0.015083 0.000000 -0.003455 0.000000
# 4 0.000000 0.000000 0.000000 0.029111 0.000000 0.007330
# 5 0.003686 0.001590 -0.003455 0.000000 0.035819 0.000000
# 6 0.000000 0.000000 0.000000 0.007330 0.000000 0.023384
#
#
# Mechanical properties :
#
#
# Convention : Reuss Voigt Hill
#
# Bulk Modulus (GPa) = 52.21456 52.59634 52.40545
# Shear Modulus (GPa) = 30.33468 33.31436 31.82452
#
# Velocity S-wave (km/s) = 3.73612 3.91532 3.82677
# Velocity P-wave (km/s) = 6.52979 6.68147 6.60606
#
# Compressibility (1/GPa) = 0.01915175
#
# Stress axis : x y z
#
# Youngs Moduli (GPa) = 61.89652 74.61726 66.29904
#
# Poissons Ratio (x) = 0.25533 0.35889
# Poissons Ratio (y) = 0.21180 0.25919
# Poissons Ratio (z) = 0.33506 0.29171
#
# Static dielectric constant tensor:
#      x y z
#    x 3.766610 0.000000 -0.266800 
#    y 0.000000 3.829440 0.000000 
#    z -0.266800 0.000000 4.081250 
# 
# 
# High freq. dielectric constant tensor:
#      x y z
#    x 1.838200 0.000000 -0.024400 
#    y 0.000000 1.848940 0.000000 
#    z -0.024400 0.000000 1.859400 
# 
# From -- ./inp_files/2357.got.cif
#   From: 2010.03.12/outbox.cif.g09.slc.cpg/sg4_2_cif.got.tgz:2357.got - 2010.03.31 09:31:35.
