data_PCOD8046195
_publ_section_title
;
Structure prediction by ZEFSAII (Michael W. Deem and Ramdas Pophale) SiO2 
 PCOD8046195
Probable space group: P 21
;
_chemical_formula_sum "Si O2"
_cell_formula_units_Z 16
_cell_length_a 8.954017
_cell_length_b 7.431909
_cell_length_c 23.467789
_cell_angle_alpha 90.000000
_cell_angle_beta 28.928922
_cell_angle_gamma 90.000000
_cell_volume 755.419734
_symmetry_space_group_name_H-M "P 21"
_symmetry_group_IT_number 4
_symmetry_cell_setting 'monoclinic'
loop_
_space_group_symop_operation_xyz
x,y,z
-x,1/2+y,-z
loop_
_atom_site_type_symbol
_atom_site_label
_atom_site_fract_x
_atom_site_fract_y
_atom_site_fract_z
Si Si1 0.719423 0.505380 0.388658
Si Si2 0.558899 0.914381 0.626178
Si Si3 0.711356 0.422293 0.862224
Si Si4 0.387064 0.406050 0.611677
Si Si5 0.401265 0.572191 0.169192
Si Si6 0.649998 0.635877 0.207173
Si Si7 0.184408 0.773934 0.443725
Si Si8 0.314926 0.776476 0.004410
O O1 0.629022 0.359708 0.368669
O O2 0.488721 0.493410 0.518510
O O3 0.694205 0.697392 0.367573
O O4 0.070231 0.477540 0.291267
O O5 0.815638 0.771986 0.559427
O O6 0.330586 0.964813 0.755180
O O7 0.769413 0.086207 0.538508
O O8 0.501526 0.597887 0.925182
O O9 0.065973 0.493395 0.740201
O O10 0.628713 0.280049 0.840029
O O11 0.648191 0.316032 0.941447
O O12 0.660294 0.428619 0.567731
O O13 0.593786 0.563639 0.162951
O O14 0.576641 0.453519 0.064481
O O15 0.366517 0.765143 0.322216
O O16 0.960960 0.748283 0.106049
#
# Coordination Sequence:
#
# PCOD8046195 Si02
#       8
#     2   2   2   2   2   2   2   2
#     4  10  22  38  63  92 133 164 214 272 329 392
#     4   9  20  38  61  90 126 170 207 266 328 389
#     4  11  24  44  69  97 133 179 226 275 329 397
#     4  10  21  39  60  96 129 168 215 269 334 394
#     4  11  25  44  68  98 134 180 220 280 332 399
#     4  10  23  43  63  92 140 172 221 277 329 403
#     4   9  19  38  60  86 129 167 203 265 331 383
#     4  12  24  46  70  97 136 178 228 274 334 397
#
# _framework density 21.18028
#
# number of rings (size 3 to 8) (size 9 to 14) (size 15 to 20)
#    0.750    1.000    2.500    1.500    7.000    0.000 
#    0.000    1.250    0.000    0.000    0.000    0.000 
#    0.000    0.000    0.000    0.000    0.000    0.000 
#
# Total GULP energy -198284.666365 kJ/mol
# GULP energy per Si atom -12392.791648 kJ/mol
# Density = 2.113207 g / cm^3
# Si number density = 21.180280 Si / 1000 Ang^3
#
#
#
# Elastic Constant Matrix: (Units=GPa)
#
#
# Indices 1 2 3 4 5 6 
#
# 1 88.7691 16.4568 2.4754 0.0000 18.3397 0.0000
# 2 16.4568 34.3523 15.6846 0.0000 -1.6002 0.0000
# 3 2.4754 15.6846 69.0382 0.0000 17.2452 0.0000
# 4 0.0000 0.0000 0.0000 34.0897 0.0000 0.4059
# 5 18.3397 -1.6002 17.2452 0.0000 31.6258 0.0000
# 6 0.0000 0.0000 0.0000 0.4059 0.0000 23.8805
#
#
#
# Elastic Compliance Matrix: (Units=1/GPa)
#
#
# Indices 1 2 3 4 5 6 
#
# 1 0.015527 -0.010190 0.004788 0.000000 -0.012131 0.000000
# 2 -0.010190 0.040386 -0.012499 0.000000 0.014768 0.000000
# 3 0.004788 -0.012499 0.020843 0.000000 -0.014775 0.000000
# 4 0.000000 0.000000 0.000000 0.029340 0.000000 -0.000499
# 5 -0.012131 0.014768 -0.014775 0.000000 0.047458 0.000000
# 6 0.000000 0.000000 0.000000 -0.000499 0.000000 0.041884
#
#
# Mechanical properties :
#
#
# Convention : Reuss Voigt Hill
#
# Bulk Modulus (GPa) = 24.41635 29.04370 26.73002
# Shear Modulus (GPa) = 20.41729 28.42207 24.41968
#
# Velocity S-wave (km/s) = 3.10817 3.66719 3.39919
# Velocity P-wave (km/s) = 4.94306 5.62791 5.29656
#
# Compressibility (1/GPa) = 0.04095616
#
# Stress axis : x y z
#
# Youngs Moduli (GPa) = 64.40444 24.76091 47.97722
#
# Poissons Ratio (x) = 0.25231 -0.22973
# Poissons Ratio (y) = 0.65626 0.59966
# Poissons Ratio (z) = -0.30839 0.30948
#
# Static dielectric constant tensor:
#      x y z
#    x 3.922140 0.000000 -0.161730 
#    y 0.000000 3.574080 0.000000 
#    z -0.161730 0.000000 3.838680 
# 
# 
# High freq. dielectric constant tensor:
#      x y z
#    x 1.835210 0.000000 -0.004840 
#    y 0.000000 1.811380 0.000000 
#    z -0.004840 0.000000 1.829590 
# 
# From -- ./inp_files/16088.got.cif
#   From: 2010.03.12/outbox.cif.g09.slc.cpg/sg4_9_cif.got.tgz:16088.got - 2010.03.31 09:31:35.
