data_PCOD8046361
_publ_section_title
;
Structure prediction by ZEFSAII (Michael W. Deem and Ramdas Pophale) SiO2 
 PCOD8046361
Probable space group: P 21
;
_chemical_formula_sum "Si O2"
_cell_formula_units_Z 16
_cell_length_a 13.172462
_cell_length_b 7.563459
_cell_length_c 8.960449
_cell_angle_alpha 90.000000
_cell_angle_beta 120.357823
_cell_angle_gamma 90.000000
_cell_volume 770.318941
_symmetry_space_group_name_H-M "P 21"
_symmetry_group_IT_number 4
_symmetry_cell_setting 'monoclinic'
loop_
_space_group_symop_operation_xyz
x,y,z
-x,1/2+y,-z
loop_
_atom_site_type_symbol
_atom_site_label
_atom_site_fract_x
_atom_site_fract_y
_atom_site_fract_z
Si Si1 0.290785 0.182050 0.737429
Si Si2 0.919071 0.574558 0.592347
Si Si3 0.129773 0.547985 0.214451
Si Si4 0.106178 0.930869 0.100391
Si Si5 0.327140 0.074107 0.099971
Si Si6 0.886150 0.946429 0.486910
Si Si7 0.626400 0.899044 0.677844
Si Si8 0.508330 0.253939 0.705790
O O1 0.234321 0.380411 0.683644
O O2 0.421506 0.184660 0.769557
O O3 0.207987 0.044720 0.583035
O O4 0.291124 0.116055 0.905713
O O5 0.024976 0.501969 0.573236
O O6 0.923079 0.485371 0.754004
O O7 0.941143 0.783991 0.623443
O O8 0.144208 0.726554 0.131007
O O9 0.134579 0.592164 0.397843
O O10 0.235211 0.415682 0.251907
O O11 0.008632 0.451874 0.084811
O O12 0.210972 0.046410 0.111916
O O13 0.395404 0.243455 0.218255
O O14 0.405592 0.898441 0.159166
O O15 0.561982 0.846347 0.478773
O O16 0.578856 0.084853 0.701019
#
# Coordination Sequence:
#
# PCOD8046361 Si02
#       8
#     2   2   2   2   2   2   2   2
#     4  10  26  44  67  98 148 183 234 288 349 433
#     4  10  22  41  66  99 139 183 227 284 354 416
#     4  12  24  43  69 107 141 185 239 293 360 422
#     4  12  25  42  71 107 145 182 237 299 355 425
#     4  12  26  47  73 104 145 186 238 298 352 432
#     4  10  21  42  65  97 142 180 229 281 354 418
#     4  12  25  46  74 104 140 190 244 298 351 420
#     4  12  25  49  71 106 140 191 244 291 359 416
#
# _framework density 20.770617999999999
#
# number of rings (size 3 to 8) (size 9 to 14) (size 15 to 20)
#    0.750    0.000    3.750    4.500    5.250    0.000 
#    0.000    1.250    0.000    0.000    0.000    0.000 
#    0.000    0.000    0.000    0.000    0.000    0.000 
#
# Total GULP energy -198378.843294 kJ/mol
# GULP energy per Si atom -12398.677706 kJ/mol
# Density = 2.072334 g / cm^3
# Si number density = 20.770618 Si / 1000 Ang^3
#
#
#
# Elastic Constant Matrix: (Units=GPa)
#
#
# Indices 1 2 3 4 5 6 
#
# 1 90.4440 15.3372 8.8421 0.0000 -3.0420 0.0000
# 2 15.3372 81.1334 31.4853 0.0000 -0.9367 0.0000
# 3 8.8421 31.4853 82.3386 0.0000 -8.2810 0.0000
# 4 0.0000 0.0000 0.0000 38.1608 0.0000 2.7018
# 5 -3.0420 -0.9367 -8.2810 0.0000 35.4481 0.0000
# 6 0.0000 0.0000 0.0000 2.7018 0.0000 32.7977
#
#
#
# Elastic Compliance Matrix: (Units=1/GPa)
#
#
# Indices 1 2 3 4 5 6 
#
# 1 0.011463 -0.002011 -0.000377 0.000000 0.000842 0.000000
# 2 -0.002011 0.014856 -0.005574 0.000000 -0.001082 0.000000
# 3 -0.000377 -0.005574 0.014643 0.000000 0.003241 0.000000
# 4 0.000000 0.000000 0.000000 0.026359 0.000000 -0.002171
# 5 0.000842 -0.001082 0.003241 0.000000 0.029011 0.000000
# 6 0.000000 0.000000 0.000000 -0.002171 0.000000 0.030669
#
#
# Mechanical properties :
#
#
# Convention : Reuss Voigt Hill
#
# Bulk Modulus (GPa) = 39.93926 40.58281 40.26103
# Shear Modulus (GPa) = 33.05361 34.49807 33.77584
#
# Velocity S-wave (km/s) = 3.99352 4.07984 4.03691
# Velocity P-wave (km/s) = 6.36669 6.46332 6.41519
#
# Compressibility (1/GPa) = 0.02503802
#
# Stress axis : x y z
#
# Youngs Moduli (GPa) = 87.23903 67.31315 68.29323
#
# Poissons Ratio (x) = 0.13535 0.02577
# Poissons Ratio (y) = 0.17541 0.38064
# Poissons Ratio (z) = 0.03292 0.37518
#
# Static dielectric constant tensor:
#      x y z
#    x 3.737510 0.000000 0.040870 
#    y 0.000000 3.851300 0.000000 
#    z 0.040870 0.000000 3.732370 
# 
# 
# High freq. dielectric constant tensor:
#      x y z
#    x 1.819570 0.000000 -0.003780 
#    y 0.000000 1.814350 0.000000 
#    z -0.003780 0.000000 1.817000 
# 
# From -- ./inp_files/8035.got.cif
#   From: 2010.03.12/outbox.cif.g09.slc.cpg/sg4_5_cif.got.tgz:8035.got - 2010.03.31 09:31:35.
