data_PCOD8046064
_publ_section_title
;
Structure prediction by ZEFSAII (Michael W. Deem and Ramdas Pophale) SiO2 
 PCOD8046064
Probable space group: P 21
;
_chemical_formula_sum "Si O2"
_cell_formula_units_Z 16
_cell_length_a 9.263165
_cell_length_b 13.136635
_cell_length_c 9.844655
_cell_angle_alpha 90.000000
_cell_angle_beta 138.042957
_cell_angle_gamma 90.000000
_cell_volume 800.927180
_symmetry_space_group_name_H-M "P 21"
_symmetry_group_IT_number 4
_symmetry_cell_setting 'monoclinic'
loop_
_space_group_symop_operation_xyz
x,y,z
-x,1/2+y,-z
loop_
_atom_site_type_symbol
_atom_site_label
_atom_site_fract_x
_atom_site_fract_y
_atom_site_fract_z
Si Si1 0.980354 0.787490 0.962602
Si Si2 0.643688 0.150758 0.323062
Si Si3 0.528840 0.032792 0.976815
Si Si4 0.663812 0.121339 0.802360
Si Si5 0.338446 0.124258 0.351559
Si Si6 0.965405 0.506568 0.037905
Si Si7 0.118125 0.125482 0.746956
Si Si8 0.669616 0.811215 0.990693
O O1 0.802654 0.727085 0.752021
O O2 0.868802 0.822345 0.025023
O O3 0.196690 0.721411 0.137141
O O4 0.057407 0.888672 0.935611
O O5 0.545785 0.119660 0.398953
O O6 0.550818 0.263483 0.226338
O O7 0.900501 0.146372 0.513844
O O8 0.580495 0.068616 0.165161
O O9 0.640389 0.109115 0.947572
O O10 0.268088 0.042128 0.774805
O O11 0.609531 0.918122 0.015269
O O12 0.427484 0.119604 0.567215
O O13 0.786563 0.022233 0.831382
O O14 0.185143 0.030849 0.198817
O O15 0.908538 0.586425 0.116670
O O16 0.247241 0.232320 0.837386
#
# Coordination Sequence:
#
# PCOD8046064 Si02
#       8
#     2   2   2   2   2   2   2   2
#     4  10  21  38  63  93 125 159 208 253 300 361
#     4  10  21  42  65  84 126 167 198 248 309 370
#     4  11  24  40  62  95 128 156 202 262 305 355
#     4  11  22  40  62  93 126 157 206 257 297 358
#     4  10  20  41  63  89 123 165 202 249 306 359
#     4  11  20  38  64  90 119 163 206 246 299 367
#     4  11  22  42  64  89 124 166 205 246 312 370
#     4  10  20  41  63  91 123 163 203 253 308 362
#
# _framework density 19.976846999999999
#
# number of rings (size 3 to 8) (size 9 to 14) (size 15 to 20)
#    0.000    1.500    7.500    0.000    0.000    6.000 
#    2.250    0.000    0.000    0.000    0.000    0.000 
#    0.000    0.000    0.000    0.000    0.000    0.000 
#
# Total GULP energy -198300.004683 kJ/mol
# GULP energy per Si atom -12393.750293 kJ/mol
# Density = 1.993138 g / cm^3
# Si number density = 19.976847 Si / 1000 Ang^3
#
#
#
# Elastic Constant Matrix: (Units=GPa)
#
#
# Indices 1 2 3 4 5 6 
#
# 1 60.1959 27.8644 19.3193 0.0000 12.1674 0.0000
# 2 27.8644 121.5972 40.2739 0.0000 9.0683 0.0000
# 3 19.3193 40.2739 98.5531 0.0000 24.6894 0.0000
# 4 0.0000 0.0000 0.0000 13.6645 0.0000 2.3296
# 5 12.1674 9.0683 24.6894 0.0000 33.3647 0.0000
# 6 0.0000 0.0000 0.0000 2.3296 0.0000 33.3728
#
#
#
# Elastic Compliance Matrix: (Units=1/GPa)
#
#
# Indices 1 2 3 4 5 6 
#
# 1 0.019789 -0.003812 -0.000949 0.000000 -0.005478 0.000000
# 2 -0.003812 0.010249 -0.003795 0.000000 0.001413 0.000000
# 3 -0.000949 -0.003795 0.014164 0.000000 -0.009104 0.000000
# 4 0.000000 0.000000 0.000000 0.074064 0.000000 -0.005170
# 5 -0.005478 0.001413 -0.009104 0.000000 0.038322 0.000000
# 6 0.000000 0.000000 0.000000 -0.005170 0.000000 0.030325
#
#
# Mechanical properties :
#
#
# Convention : Reuss Voigt Hill
#
# Bulk Modulus (GPa) = 36.91334 50.58461 43.74897
# Shear Modulus (GPa) = 23.46808 28.93965 26.20386
#
# Velocity S-wave (km/s) = 3.43120 3.81026 3.62569
# Velocity P-wave (km/s) = 5.84942 6.68835 6.28290
#
# Compressibility (1/GPa) = 0.02709048
#
# Stress axis : x y z
#
# Youngs Moduli (GPa) = 50.53362 97.57139 70.59974
#
# Poissons Ratio (x) = 0.37192 0.06701
# Poissons Ratio (y) = 0.19262 0.26792
# Poissons Ratio (z) = 0.04796 0.37028
#
# Static dielectric constant tensor:
#      x y z
#    x 3.770690 0.000000 0.199740 
#    y 0.000000 3.564670 0.000000 
#    z 0.199740 0.000000 3.462870 
# 
# 
# High freq. dielectric constant tensor:
#      x y z
#    x 1.781220 0.000000 0.015590 
#    y 0.000000 1.771990 0.000000 
#    z 0.015590 0.000000 1.766930 
# 
# From -- ./inp_files/6669.got.cif
#   From: 2010.03.12/outbox.cif.g09.slc.cpg/sg4_4_cif.got.tgz:6669.got - 2010.03.31 09:31:35.
