data_PCOD8046486
_publ_section_title
;
Structure prediction by ZEFSAII (Michael W. Deem and Ramdas Pophale) SiO2 
 PCOD8046486
Probable space group: P 21
;
_chemical_formula_sum "Si O2"
_cell_formula_units_Z 14
_cell_length_a 14.068948
_cell_length_b 5.066659
_cell_length_c 20.673022
_cell_angle_alpha 90.000000
_cell_angle_beta 155.253905
_cell_angle_gamma 90.000000
_cell_volume 616.856652
_symmetry_space_group_name_H-M "P 21"
_symmetry_group_IT_number 4
_symmetry_cell_setting 'monoclinic'
loop_
_space_group_symop_operation_xyz
x,y,z
-x,1/2+y,-z
loop_
_atom_site_type_symbol
_atom_site_label
_atom_site_fract_x
_atom_site_fract_y
_atom_site_fract_z
Si Si1 0.216496 0.915900 0.299682
Si Si2 0.754886 0.179844 0.269525
Si Si3 0.835014 0.995326 0.449281
Si Si4 0.377674 0.691257 0.941626
Si Si5 0.561081 0.501960 0.311218
Si Si6 0.302447 0.448778 0.023254
Si Si7 0.563775 0.920594 0.622407
O O1 0.318342 0.891566 0.435451
O O2 0.343163 0.710622 0.332486
O O3 0.952335 0.837440 0.135297
O O4 0.260117 0.204640 0.296276
O O5 0.797491 0.076943 0.222040
O O6 0.903086 0.445922 0.371407
O O7 0.818583 0.952858 0.360889
O O8 0.484808 0.235173 0.111744
O O9 0.679763 0.785862 0.391993
O O10 0.755217 0.292915 0.412437
O O11 0.296569 0.686489 0.965984
O O12 0.589809 0.491731 0.062491
O O13 0.453989 0.397993 0.311439
O O14 0.367413 0.535208 0.136323
#
# Coordination Sequence:
#
# PCOD8046486 Si02
#       7
#     2   2   2   2   2   2   2
#     4  10  23  43  67  91 125 162 210 264 328 381
#     4  10  22  42  61  95 136 172 217 258 311 380
#     4  11  23  39  64  94 131 176 208 258 310 376
#     4  10  22  39  59  87 131 170 206 260 312 370
#     4  11  24  41  67  95 128 165 218 261 318 378
#     4  10  23  41  63  98 125 166 212 263 314 378
#     4  10  23  45  65  92 124 163 209 268 323 389
#
# _framework density 22.695709000000001
#
# number of rings (size 3 to 8) (size 9 to 14) (size 15 to 20)
#    0.000    1.714    0.000    3.429    2.000    9.143 
#    5.143    0.000    0.000    0.000    0.000    0.000 
#    0.000    0.000    0.000    0.000    0.000    0.000 
#
# Total GULP energy -173438.227331 kJ/mol
# GULP energy per Si atom -12388.444809 kJ/mol
# Density = 2.264405 g / cm^3
# Si number density = 22.695709 Si / 1000 Ang^3
#
#
#
# Elastic Constant Matrix: (Units=GPa)
#
#
# Indices 1 2 3 4 5 6 
#
# 1 132.2064 11.3781 75.3340 0.0000 -38.2986 0.0000
# 2 11.3781 62.8451 9.6694 0.0000 -1.0863 0.0000
# 3 75.3340 9.6694 135.9922 0.0000 -1.8222 0.0000
# 4 0.0000 0.0000 0.0000 25.8652 0.0000 -6.0773
# 5 -38.2986 -1.0863 -1.8222 0.0000 45.3667 0.0000
# 6 0.0000 0.0000 0.0000 -6.0773 0.0000 27.2756
#
#
#
# Elastic Compliance Matrix: (Units=1/GPa)
#
#
# Indices 1 2 3 4 5 6 
#
# 1 0.016844 -0.001419 -0.009045 0.000000 0.013823 0.000000
# 2 -0.001419 0.016213 -0.000378 0.000000 -0.000825 0.000000
# 3 -0.009045 -0.000378 0.012295 0.000000 -0.007151 0.000000
# 4 0.000000 0.000000 0.000000 0.040798 0.000000 0.009090
# 5 0.013823 -0.000825 -0.007151 0.000000 0.033405 0.000000
# 6 0.000000 0.000000 0.000000 0.009090 0.000000 0.038688
#
#
# Mechanical properties :
#
#
# Convention : Reuss Voigt Hill
#
# Bulk Modulus (GPa) = 42.24991 58.20075 50.22533
# Shear Modulus (GPa) = 26.62180 35.34566 30.98373
#
# Velocity S-wave (km/s) = 3.42861 3.95064 3.69884
# Velocity P-wave (km/s) = 5.85918 6.81980 6.35766
#
# Compressibility (1/GPa) = 0.02366869
#
# Stress axis : x y z
#
# Youngs Moduli (GPa) = 59.36711 61.67923 81.33433
#
# Poissons Ratio (x) = 0.08753 0.73567
# Poissons Ratio (y) = 0.08425 0.03072
# Poissons Ratio (z) = 0.53697 0.02330
#
# Static dielectric constant tensor:
#      x y z
#    x 4.165160 0.000000 -0.510590 
#    y 0.000000 3.862230 0.000000 
#    z -0.510590 0.000000 4.317530 
# 
# 
# High freq. dielectric constant tensor:
#      x y z
#    x 1.889090 0.000000 -0.027710 
#    y 0.000000 1.889460 0.000000 
#    z -0.027710 0.000000 1.896180 
# 
# From -- ./inp_files/15753.got.cif
#   From: 2010.03.12/outbox.cif.g09.slc.cpg/sg4_8_cif.got.tgz:15753.got - 2010.03.31 09:31:35.
