data_PCOD8046089
_publ_section_title
;
Structure prediction by ZEFSAII (Michael W. Deem and Ramdas Pophale) SiO2 
 PCOD8046089
Probable space group: P 21
;
_chemical_formula_sum "Si O2"
_cell_formula_units_Z 16
_cell_length_a 5.163690
_cell_length_b 11.999996
_cell_length_c 11.489172
_cell_angle_alpha 90.000000
_cell_angle_beta 92.734325
_cell_angle_gamma 90.000000
_cell_volume 711.107497
_symmetry_space_group_name_H-M "P 21"
_symmetry_group_IT_number 4
_symmetry_cell_setting 'monoclinic'
loop_
_space_group_symop_operation_xyz
x,y,z
-x,1/2+y,-z
loop_
_atom_site_type_symbol
_atom_site_label
_atom_site_fract_x
_atom_site_fract_y
_atom_site_fract_z
Si Si1 0.013262 0.438660 0.856102
Si Si2 0.700565 0.765276 0.262247
Si Si3 0.640911 0.272142 0.943782
Si Si4 0.717852 0.947579 0.661212
Si Si5 0.217581 0.805674 0.632034
Si Si6 0.048160 0.687277 0.850806
Si Si7 0.220534 0.692559 0.392146
Si Si8 0.285380 0.390838 0.091506
O O1 0.228145 0.394572 0.767793
O O2 0.934312 0.564153 0.819527
O O3 0.793511 0.342704 0.847808
O O4 0.098317 0.443646 0.992427
O O5 0.595188 0.714889 0.134531
O O6 0.467677 0.762316 0.350281
O O7 0.958173 0.700057 0.308859
O O8 0.796035 0.180395 0.022228
O O9 0.558498 0.364873 0.037282
O O10 0.494055 0.863311 0.616467
O O11 0.684925 0.973274 0.798831
O O12 0.998931 0.899408 0.638455
O O13 0.688262 0.064967 0.596836
O O14 0.227242 0.727503 0.746797
O O15 0.148881 0.732168 0.518939
O O16 0.812551 0.772026 0.859978
#
# Coordination Sequence:
#
# PCOD8046089 Si02
#       8
#     2   2   2   2   2   2   2   2
#     4  10  22  40  66 106 137 181 215 292 346 407
#     4  11  24  45  65 104 142 168 238 277 335 412
#     4  10  20  43  63 101 143 178 228 285 337 417
#     4  11  24  47  70 102 133 183 228 281 345 403
#     4  11  25  47  70 100 139 175 238 284 328 424
#     4  10  22  41  67  99 138 183 225 280 356 397
#     4  12  26  46  74 101 135 189 224 287 344 398
#     4   9  21  37  63  97 139 173 226 276 329 430
#
# _framework density 22.500115000000001
#
# number of rings (size 3 to 8) (size 9 to 14) (size 15 to 20)
#    0.000    1.500    2.500    1.500    1.750    4.000 
#    4.500    1.250    0.000    0.000    0.000    0.000 
#    0.000    0.000    0.000    0.000    0.000    0.000 
#
# Total GULP energy -198275.311219 kJ/mol
# GULP energy per Si atom -12392.206951 kJ/mol
# Density = 2.244890 g / cm^3
# Si number density = 22.500115 Si / 1000 Ang^3
#
#
#
# Elastic Constant Matrix: (Units=GPa)
#
#
# Indices 1 2 3 4 5 6 
#
# 1 94.4814 15.5837 25.9225 0.0000 2.0123 0.0000
# 2 15.5837 103.0259 40.9664 0.0000 -0.2076 0.0000
# 3 25.9225 40.9664 100.1617 0.0000 -4.5727 0.0000
# 4 0.0000 0.0000 0.0000 19.7565 0.0000 -3.3718
# 5 2.0123 -0.2076 -4.5727 0.0000 34.7336 0.0000
# 6 0.0000 0.0000 0.0000 -3.3718 0.0000 22.3063
#
#
#
# Elastic Compliance Matrix: (Units=1/GPa)
#
#
# Indices 1 2 3 4 5 6 
#
# 1 0.011467 -0.000642 -0.002752 0.000000 -0.001031 0.000000
# 2 -0.000642 0.011638 -0.004617 0.000000 -0.000501 0.000000
# 3 -0.002752 -0.004617 0.012667 0.000000 0.001799 0.000000
# 4 0.000000 0.000000 0.000000 0.051957 0.000000 0.007854
# 5 -0.001031 -0.000501 0.001799 0.000000 0.029084 0.000000
# 6 0.000000 0.000000 0.000000 0.007854 0.000000 0.046018
#
#
# Mechanical properties :
#
#
# Convention : Reuss Voigt Hill
#
# Bulk Modulus (GPa) = 50.63388 51.40156 51.01772
# Shear Modulus (GPa) = 26.96357 29.70572 28.33465
#
# Velocity S-wave (km/s) = 3.46551 3.63746 3.55253
# Velocity P-wave (km/s) = 6.21013 6.36680 6.28895
#
# Compressibility (1/GPa) = 0.01974962
#
# Stress axis : x y z
#
# Youngs Moduli (GPa) = 87.20629 85.92412 78.94838
#
# Poissons Ratio (x) = 0.05518 0.21728
# Poissons Ratio (y) = 0.05601 0.36448
# Poissons Ratio (z) = 0.24000 0.39669
#
# Static dielectric constant tensor:
#      x y z
#    x 4.155980 0.000000 -0.052870 
#    y 0.000000 3.646650 0.000000 
#    z -0.052870 0.000000 4.147490 
# 
# 
# High freq. dielectric constant tensor:
#      x y z
#    x 1.891530 0.000000 -0.006200 
#    y 0.000000 1.860230 0.000000 
#    z -0.006200 0.000000 1.887930 
# 
# From -- ./inp_files/2763.got.cif
#   From: 2010.03.12/outbox.cif.g09.slc.cpg/sg4_2_cif.got.tgz:2763.got - 2010.03.31 09:31:35.
