data_PCOD8046309
_publ_section_title
;
Structure prediction by ZEFSAII (Michael W. Deem and Ramdas Pophale) SiO2 
 PCOD8046309
Probable space group: P 21
;
_chemical_formula_sum "Si O2"
_cell_formula_units_Z 16
_cell_length_a 5.185450
_cell_length_b 19.879689
_cell_length_c 9.188141
_cell_angle_alpha 90.000000
_cell_angle_beta 123.692725
_cell_angle_gamma 90.000000
_cell_volume 788.061003
_symmetry_space_group_name_H-M "P 21"
_symmetry_group_IT_number 4
_symmetry_cell_setting 'monoclinic'
loop_
_space_group_symop_operation_xyz
x,y,z
-x,1/2+y,-z
loop_
_atom_site_type_symbol
_atom_site_label
_atom_site_fract_x
_atom_site_fract_y
_atom_site_fract_z
Si Si1 0.701794 0.991710 0.395850
Si Si2 0.832443 0.726879 0.619438
Si Si3 0.769622 0.298794 0.469100
Si Si4 0.284640 0.825236 0.866863
Si Si5 0.042314 0.965849 0.788352
Si Si6 0.106222 0.071494 0.308531
Si Si7 0.208721 0.383335 0.798287
Si Si8 0.265093 0.501421 0.024053
O O1 0.605545 0.929073 0.261888
O O2 0.817190 0.960955 0.581614
O O3 0.410560 0.039013 0.333195
O O4 0.986314 0.033675 0.414904
O O5 0.490206 0.755889 0.531515
O O6 0.820610 0.647693 0.630289
O O7 0.953928 0.748688 0.497083
O O8 0.070701 0.758506 0.815125
O O9 0.903170 0.352792 0.626273
O O10 0.628797 0.334990 0.279312
O O11 0.583749 0.822810 0.067045
O O12 0.091335 0.889927 0.857611
O O13 0.365320 0.001278 0.850941
O O14 0.873184 0.008848 0.859035
O O15 0.837272 0.066460 0.101951
O O16 0.122820 0.434426 0.902019
#
# Coordination Sequence:
#
# PCOD8046309 Si02
#       8
#     2   2   2   2   2   2   2   2
#     4  11  22  38  65  91 122 162 200 262 311 364
#     4  10  23  41  60  82 125 169 207 245 308 357
#     4  10  22  39  62  91 120 165 196 261 302 366
#     4   9  22  37  63  88 123 155 198 253 306 358
#     4  11  21  39  60  95 125 150 203 258 318 359
#     4  11  22  41  61  86 120 170 210 244 305 372
#     4  10  21  41  63 101 120 159 205 257 322 365
#     4  10  23  36  64  90 125 158 199 258 306 367
#
# _framework density 20.302996
#
# number of rings (size 3 to 8) (size 9 to 14) (size 15 to 20)
#    0.750    1.000    1.250    3.750    3.500    6.000 
#    0.000    3.750    0.000    0.000    0.000    0.000 
#    0.000    0.000    0.000    0.000    0.000    0.000 
#
# Total GULP energy -198292.209345 kJ/mol
# GULP energy per Si atom -12393.263084 kJ/mol
# Density = 2.025679 g / cm^3
# Si number density = 20.302996 Si / 1000 Ang^3
#
#
#
# Elastic Constant Matrix: (Units=GPa)
#
#
# Indices 1 2 3 4 5 6 
#
# 1 116.2318 21.2984 25.9348 0.0000 -3.0258 0.0000
# 2 21.2984 50.2632 18.4248 0.0000 10.0313 0.0000
# 3 25.9348 18.4248 110.8473 0.0000 2.8236 0.0000
# 4 0.0000 0.0000 0.0000 18.1632 0.0000 4.4946
# 5 -3.0258 10.0313 2.8236 0.0000 23.8386 0.0000
# 6 0.0000 0.0000 0.0000 4.4946 0.0000 27.9494
#
#
#
# Elastic Compliance Matrix: (Units=1/GPa)
#
#
# Indices 1 2 3 4 5 6 
#
# 1 0.009831 -0.004188 -0.001686 0.000000 0.003210 0.000000
# 2 -0.004188 0.024851 -0.002879 0.000000 -0.010648 0.000000
# 3 -0.001686 -0.002879 0.009899 0.000000 -0.000175 0.000000
# 4 0.000000 0.000000 0.000000 0.057338 0.000000 -0.009221
# 5 0.003210 -0.010648 -0.000175 0.000000 0.046858 0.000000
# 6 0.000000 0.000000 0.000000 -0.009221 0.000000 0.037262
#
#
# Mechanical properties :
#
#
# Convention : Reuss Voigt Hill
#
# Bulk Modulus (GPa) = 36.93682 45.40648 41.17165
# Shear Modulus (GPa) = 23.52180 28.10252 25.81216
#
# Velocity S-wave (km/s) = 3.40742 3.72446 3.56946
# Velocity P-wave (km/s) = 5.80629 6.39597 6.10825
#
# Compressibility (1/GPa) = 0.02707326
#
# Stress axis : x y z
#
# Youngs Moduli (GPa) = 101.72266 40.24051 101.02159
#
# Poissons Ratio (x) = 0.16854 0.17029
# Poissons Ratio (y) = 0.42605 0.29088
# Poissons Ratio (z) = 0.17147 0.11587
#
# Static dielectric constant tensor:
#      x y z
#    x 3.696420 0.000000 0.028070 
#    y 0.000000 3.464870 0.000000 
#    z 0.028070 0.000000 3.840070 
# 
# 
# High freq. dielectric constant tensor:
#      x y z
#    x 1.798860 0.000000 -0.001270 
#    y 0.000000 1.760600 0.000000 
#    z -0.001270 0.000000 1.793010 
# 
# From -- ./inp_files/5005.got.cif
#   From: 2010.03.12/outbox.cif.g09.slc.cpg/sg4_3_cif.got.tgz:5005.got - 2010.03.31 09:31:35.
