data_PCOD8046683
_publ_section_title
;
Structure prediction by ZEFSAII (Michael W. Deem and Ramdas Pophale) SiO2 
 PCOD8046683
Probable space group: P 21
;
_chemical_formula_sum "Si O2"
_cell_formula_units_Z 14
_cell_length_a 18.923265
_cell_length_b 7.185728
_cell_length_c 9.934275
_cell_angle_alpha 90.000000
_cell_angle_beta 152.026673
_cell_angle_gamma 90.000000
_cell_volume 633.624351
_symmetry_space_group_name_H-M "P 21"
_symmetry_group_IT_number 4
_symmetry_cell_setting 'monoclinic'
loop_
_space_group_symop_operation_xyz
x,y,z
-x,1/2+y,-z
loop_
_atom_site_type_symbol
_atom_site_label
_atom_site_fract_x
_atom_site_fract_y
_atom_site_fract_z
Si Si1 0.390645 0.595590 0.677913
Si Si2 0.824939 0.612139 0.571955
Si Si3 0.697484 0.629351 0.067617
Si Si4 0.301480 0.385923 0.169664
Si Si5 0.875089 0.922849 0.868046
Si Si6 0.479017 0.168279 0.835042
Si Si7 0.387624 0.750789 0.200614
O O1 0.222714 0.611954 0.331459
O O2 0.418148 0.375108 0.718454
O O3 0.524993 0.687805 0.816908
O O4 0.392026 0.663202 0.834030
O O5 0.802264 0.651373 0.375262
O O6 0.664053 0.537813 0.362973
O O7 0.877854 0.794527 0.740690
O O8 0.952625 0.459043 0.804654
O O9 0.760129 0.770668 0.061374
O O10 0.708367 0.419015 0.026486
O O11 0.202364 0.326748 0.131860
O O12 0.287312 0.610255 0.122177
O O13 0.476661 0.337342 0.485652
O O14 0.550438 0.111747 0.813081
#
# Coordination Sequence:
#
# PCOD8046683 Si02
#       7
#     2   2   2   2   2   2   2
#     4   9  18  36  63  92 120 156 213 264 321 379
#     4  10  23  44  63  90 134 169 216 271 312 395
#     4  10  22  44  65  98 131 163 220 273 323 383
#     4  12  22  42  66  97 134 167 216 269 330 390
#     4  11  23  45  60  94 128 171 220 261 326 393
#     4   9  19  35  61  96 120 156 212 270 319 375
#     4  11  21  38  70 101 127 166 213 274 329 383
#
# _framework density 22.095109000000001
#
# number of rings (size 3 to 8) (size 9 to 14) (size 15 to 20)
#    0.000    1.714    5.714    0.000    6.000    3.429 
#    7.714    0.000    0.000    0.000    0.000    0.000 
#    0.000    0.000    0.000    0.000    0.000    0.000 
#
# Total GULP energy -173496.530975 kJ/mol
# GULP energy per Si atom -12392.609355 kJ/mol
# Density = 2.204482 g / cm^3
# Si number density = 22.095109 Si / 1000 Ang^3
#
#
#
# Elastic Constant Matrix: (Units=GPa)
#
#
# Indices 1 2 3 4 5 6 
#
# 1 81.7575 38.0497 51.0692 0.0000 -29.3104 0.0000
# 2 38.0497 61.1234 31.3787 0.0000 -11.2170 0.0000
# 3 51.0692 31.3787 112.5730 0.0000 -23.2487 0.0000
# 4 0.0000 0.0000 0.0000 29.3720 0.0000 -10.1768
# 5 -29.3104 -11.2170 -23.2487 0.0000 36.2284 0.0000
# 6 0.0000 0.0000 0.0000 -10.1768 0.0000 31.2625
#
#
#
# Elastic Compliance Matrix: (Units=1/GPa)
#
#
# Indices 1 2 3 4 5 6 
#
# 1 0.025732 -0.010453 -0.005912 0.000000 0.013788 0.000000
# 2 -0.010453 0.023602 -0.002391 0.000000 -0.002684 0.000000
# 3 -0.005912 -0.002391 0.012786 0.000000 0.002681 0.000000
# 4 0.000000 0.000000 0.000000 0.038374 0.000000 0.012492
# 5 0.013788 -0.002684 0.002681 0.000000 0.039647 0.000000
# 6 0.000000 0.000000 0.000000 0.012492 0.000000 0.036054
#
#
# Mechanical properties :
#
#
# Convention : Reuss Voigt Hill
#
# Bulk Modulus (GPa) = 40.63854 55.16102 47.89978
# Shear Modulus (GPa) = 22.53156 28.36966 25.45061
#
# Velocity S-wave (km/s) = 3.19682 3.58715 3.39760
# Velocity P-wave (km/s) = 5.66204 6.49433 6.09242
#
# Compressibility (1/GPa) = 0.02460718
#
# Stress axis : x y z
#
# Youngs Moduli (GPa) = 38.86167 42.36842 78.21357
#
# Poissons Ratio (x) = 0.44288 0.46243
# Poissons Ratio (y) = 0.40622 0.18702
# Poissons Ratio (z) = 0.22976 0.10131
#
# Static dielectric constant tensor:
#      x y z
#    x 4.380320 0.000000 -0.237750 
#    y 0.000000 3.740040 0.000000 
#    z -0.237750 0.000000 4.301170 
# 
# 
# High freq. dielectric constant tensor:
#      x y z
#    x 1.863190 0.000000 -0.031980 
#    y 0.000000 1.847810 0.000000 
#    z -0.031980 0.000000 1.860150 
# 
# From -- ./inp_files/9646.got.cif
#   From: 2010.03.12/outbox.cif.g09.slc.cpg/sg4_5_cif.got.tgz:9646.got - 2010.03.31 09:31:35.
