data_PCOD8046229
_publ_section_title
;
Structure prediction by ZEFSAII (Michael W. Deem and Ramdas Pophale) SiO2 
 PCOD8046229
Probable space group: P 21
;
_chemical_formula_sum "Si O2"
_cell_formula_units_Z 12
_cell_length_a 8.264514
_cell_length_b 5.237542
_cell_length_c 15.427877
_cell_angle_alpha 90.000000
_cell_angle_beta 138.204918
_cell_angle_gamma 90.000000
_cell_volume 445.072356
_symmetry_space_group_name_H-M "P 21"
_symmetry_group_IT_number 4
_symmetry_cell_setting 'monoclinic'
loop_
_space_group_symop_operation_xyz
x,y,z
-x,1/2+y,-z
loop_
_atom_site_type_symbol
_atom_site_label
_atom_site_fract_x
_atom_site_fract_y
_atom_site_fract_z
Si Si1 0.008076 0.619700 0.949980
Si Si2 0.738209 0.953108 0.314975
Si Si3 0.816629 0.010128 0.604312
Si Si4 0.521395 0.322741 0.956726
Si Si5 0.799609 0.462655 0.395831
Si Si6 0.723836 0.511538 0.670744
O O1 0.796096 0.534155 0.800200
O O2 0.240961 0.725460 0.994418
O O3 0.085279 0.358540 0.030051
O O4 0.679604 0.926072 0.191103
O O5 0.629063 0.715056 0.328283
O O6 0.035129 0.957333 0.451317
O O7 0.634334 0.213927 0.315289
O O8 0.841345 0.752212 0.668815
O O9 0.566273 0.022474 0.451246
O O10 0.037269 0.007970 0.624868
O O11 0.834410 0.251692 0.675645
O O12 0.589484 0.574459 0.039605
#
# Coordination Sequence:
#
# PCOD8046229 Si02
#       6
#     2   2   2   2   2   2
#     4  12  28  50  74 104 146 198 241 296 358 432
#     4  10  23  41  62 101 132 176 234 284 356 418
#     4  10  21  39  67  97 130 175 224 297 351 414
#     4  12  28  48  75 106 146 196 243 297 356 430
#     4  10  21  39  67  94 132 174 223 296 353 412
#     4  10  23  41  65 100 132 175 237 284 356 418
#
# _framework density 26.96191
#
# number of rings (size 3 to 8) (size 9 to 14) (size 15 to 20)
#    0.000    1.333    0.000    4.000    9.333    0.000 
#    6.000    0.000    0.000    0.000    0.000    0.000 
#    0.000    0.000    0.000    0.000    0.000    0.000 
#
# Total GULP energy -148705.534798 kJ/mol
# GULP energy per Si atom -12392.127900 kJ/mol
# Density = 2.690054 g / cm^3
# Si number density = 26.961910 Si / 1000 Ang^3
#
#
#
# Elastic Constant Matrix: (Units=GPa)
#
#
# Indices 1 2 3 4 5 6 
#
# 1 38.5994 16.6512 23.7050 0.0000 0.7369 0.0000
# 2 16.6512 265.4752 69.8190 0.0000 -20.2694 0.0000
# 3 23.7050 69.8190 147.1111 0.0000 -28.2616 0.0000
# 4 0.0000 0.0000 0.0000 23.2782 0.0000 -7.4156
# 5 0.7369 -20.2694 -28.2616 0.0000 29.3776 0.0000
# 6 0.0000 0.0000 0.0000 -7.4156 0.0000 36.2145
#
#
#
# Elastic Compliance Matrix: (Units=1/GPa)
#
#
# Indices 1 2 3 4 5 6 
#
# 1 0.029937 -0.000899 -0.005718 0.000000 -0.006871 0.000000
# 2 -0.000899 0.004368 -0.001650 0.000000 0.001449 0.000000
# 3 -0.005718 -0.001650 0.010195 0.000000 0.008813 0.000000
# 4 0.000000 0.000000 0.000000 0.045956 0.000000 0.009410
# 5 -0.006871 0.001449 0.008813 0.000000 0.043690 0.000000
# 6 0.000000 0.000000 0.000000 0.009410 0.000000 0.029540
#
#
# Mechanical properties :
#
#
# Convention : Reuss Voigt Hill
#
# Bulk Modulus (GPa) = 35.75513 74.61510 55.18511
# Shear Modulus (GPa) = 26.37955 40.50810 33.44383
#
# Velocity S-wave (km/s) = 3.13133 3.88031 3.52577
# Velocity P-wave (km/s) = 5.13457 6.91448 6.08991
#
# Compressibility (1/GPa) = 0.02796802
#
# Stress axis : x y z
#
# Youngs Moduli (GPa) = 33.40312 228.95313 98.08855
#
# Poissons Ratio (x) = 0.20575 0.56082
# Poissons Ratio (y) = 0.03002 0.16182
# Poissons Ratio (z) = 0.19098 0.37771
#
# Static dielectric constant tensor:
#      x y z
#    x 4.595990 0.000000 -0.828440 
#    y 0.000000 7.249730 0.000000 
#    z -0.828440 0.000000 6.180590 
# 
# 
# High freq. dielectric constant tensor:
#      x y z
#    x 2.057100 0.000000 -0.017640 
#    y 0.000000 2.135380 0.000000 
#    z -0.017640 0.000000 2.084060 
# 
# From -- ./inp_files/13625.got.cif
#   From: 2010.03.12/outbox.cif.g09.slc.cpg/sg4_7_cif.got.tgz:13625.got - 2010.03.31 09:31:35.
