data_PCOD8046614
_publ_section_title
;
Structure prediction by ZEFSAII (Michael W. Deem and Ramdas Pophale) SiO2 
 PCOD8046614
Probable space group: P 21
;
_chemical_formula_sum "Si O2"
_cell_formula_units_Z 14
_cell_length_a 9.637478
_cell_length_b 8.610442
_cell_length_c 8.067197
_cell_angle_alpha 90.000000
_cell_angle_beta 76.356751
_cell_angle_gamma 90.000000
_cell_volume 650.550340
_symmetry_space_group_name_H-M "P 21"
_symmetry_group_IT_number 4
_symmetry_cell_setting 'monoclinic'
loop_
_space_group_symop_operation_xyz
x,y,z
-x,1/2+y,-z
loop_
_atom_site_type_symbol
_atom_site_label
_atom_site_fract_x
_atom_site_fract_y
_atom_site_fract_z
Si Si1 0.102097 0.046160 0.032742
Si Si2 0.533025 0.180951 0.315267
Si Si3 0.174888 0.702584 0.943888
Si Si4 0.727486 0.512726 0.690498
Si Si5 0.826079 0.173439 0.698723
Si Si6 0.666306 0.950524 0.515900
Si Si7 0.154069 0.189046 0.660932
O O1 0.161995 0.121496 0.845399
O O2 0.096421 0.863055 0.008933
O O3 0.191788 0.085464 0.172809
O O4 0.940971 0.100161 0.121545
O O5 0.681325 0.231058 0.193931
O O6 0.438079 0.060909 0.233726
O O7 0.445145 0.338580 0.361883
O O8 0.572868 0.090884 0.471370
O O9 0.214400 0.619588 0.104787
O O10 0.738893 0.327518 0.672989
O O11 0.773775 0.580158 0.498723
O O12 0.993590 0.212899 0.641509
O O13 0.783795 0.025000 0.603564
O O14 0.758986 0.851703 0.357037
#
# Coordination Sequence:
#
# PCOD8046614 Si02
#       7
#     2   2   2   2   2   2   2
#     4  10  24  44  68 102 135 175 232 286 335 412
#     4  11  26  44  64 101 134 186 225 276 353 407
#     4  10  25  43  68 100 135 178 230 284 349 402
#     4  10  23  44  65  98 134 178 227 279 349 405
#     4  10  22  42  67 101 131 175 234 280 343 407
#     4  11  25  43  68  98 141 182 231 282 344 416
#     4  10  23  42  70 102 130 182 229 289 341 399
#
# _framework density 21.520242
#
# number of rings (size 3 to 8) (size 9 to 14) (size 15 to 20)
#    0.000    1.714    0.000    1.714   14.000    6.857 
#    5.143    0.000    0.000    0.000    0.000    0.000 
#    0.000    0.000    0.000    0.000    0.000    0.000 
#
# Total GULP energy -173523.487047 kJ/mol
# GULP energy per Si atom -12394.534789 kJ/mol
# Density = 2.147126 g / cm^3
# Si number density = 21.520242 Si / 1000 Ang^3
#
#
#
# Elastic Constant Matrix: (Units=GPa)
#
#
# Indices 1 2 3 4 5 6 
#
# 1 118.4551 33.2051 34.1256 0.0000 -14.8579 0.0000
# 2 33.2051 59.1052 15.6736 0.0000 0.3446 0.0000
# 3 34.1256 15.6736 92.4159 0.0000 5.3830 0.0000
# 4 0.0000 0.0000 0.0000 32.8675 0.0000 3.3726
# 5 -14.8579 0.3446 5.3830 0.0000 34.9633 0.0000
# 6 0.0000 0.0000 0.0000 3.3726 0.0000 36.5915
#
#
#
# Elastic Compliance Matrix: (Units=1/GPa)
#
#
# Indices 1 2 3 4 5 6 
#
# 1 0.011819 -0.005684 -0.003729 0.000000 0.005653 0.000000
# 2 -0.005684 0.020452 -0.001228 0.000000 -0.002428 0.000000
# 3 -0.003729 -0.001228 0.012611 0.000000 -0.003514 0.000000
# 4 0.000000 0.000000 0.000000 0.030716 0.000000 -0.002831
# 5 0.005653 -0.002428 -0.003514 0.000000 0.031569 0.000000
# 6 0.000000 0.000000 0.000000 -0.002831 0.000000 0.027590
#
#
# Mechanical properties :
#
#
# Convention : Reuss Voigt Hill
#
# Bulk Modulus (GPa) = 42.37597 48.44275 45.40936
# Shear Modulus (GPa) = 30.50552 33.34925 31.92739
#
# Velocity S-wave (km/s) = 3.76909 3.94085 3.85593
# Velocity P-wave (km/s) = 6.21895 6.57771 6.40085
#
# Compressibility (1/GPa) = 0.02359828
#
# Stress axis : x y z
#
# Youngs Moduli (GPa) = 84.61180 48.89505 79.29676
#
# Poissons Ratio (x) = 0.27790 0.29574
# Poissons Ratio (y) = 0.48090 0.09741
# Poissons Ratio (z) = 0.31556 0.06007
#
# Static dielectric constant tensor:
#      x y z
#    x 4.100890 0.000000 0.021990 
#    y 0.000000 3.893230 0.000000 
#    z 0.021990 0.000000 3.995560 
# 
# 
# High freq. dielectric constant tensor:
#      x y z
#    x 1.857210 0.000000 0.001180 
#    y 0.000000 1.850910 0.000000 
#    z 0.001180 0.000000 1.839950 
# 
# From -- ./inp_files/5545.got.cif
#   From: 2010.03.12/outbox.cif.g09.slc.cpg/sg4_3_cif.got.tgz:5545.got - 2010.03.31 09:31:35.
