data_PCOD8046592
_publ_section_title
;
Structure prediction by ZEFSAII (Michael W. Deem and Ramdas Pophale) SiO2 
 PCOD8046592
Probable space group: P 21
;
_chemical_formula_sum "Si O2"
_cell_formula_units_Z 10
_cell_length_a 15.042702
_cell_length_b 4.985223
_cell_length_c 15.331659
_cell_angle_alpha 90.000000
_cell_angle_beta 161.358922
_cell_angle_gamma 90.000000
_cell_volume 367.501389
_symmetry_space_group_name_H-M "P 21"
_symmetry_group_IT_number 4
_symmetry_cell_setting 'monoclinic'
loop_
_space_group_symop_operation_xyz
x,y,z
-x,1/2+y,-z
loop_
_atom_site_type_symbol
_atom_site_label
_atom_site_fract_x
_atom_site_fract_y
_atom_site_fract_z
Si Si1 0.045333 0.614380 0.986391
Si Si2 0.583964 0.689640 0.883283
Si Si3 0.335458 0.610654 0.822849
Si Si4 0.060685 0.701275 0.733051
Si Si5 0.385188 0.034526 0.561572
O O1 0.843210 0.494572 0.725092
O O2 0.346006 0.685688 0.226098
O O3 0.083355 0.386101 0.094897
O O4 0.313701 0.656085 0.697619
O O5 0.469313 0.741091 0.678523
O O6 0.784139 0.438056 0.073042
O O7 0.773654 0.939539 0.085281
O O8 0.069562 0.714219 0.633886
O O9 0.405974 0.300675 0.906920
O O10 0.744022 0.698547 0.475218
#
# Coordination Sequence:
#
# PCOD8046592 Si02
#       5
#     2   2   2   2   2
#     4  12  30  52  78 108 146 188 248 322 396 462
#     4  10  22  41  70 109 151 201 249 303 361 444
#     4   8  16  36  62  98 150 198 244 294 356 420
#     4  10  22  41  70 109 151 201 249 303 361 444
#     4  12  26  50  80 110 148 196 252 310 384 456
#
# _framework density 27.210781000000001
#
# number of rings (size 3 to 8) (size 9 to 14) (size 15 to 20)
#    0.000    1.600    2.000    1.200    2.800    4.800 
#    0.000   12.000    0.000    0.000    0.000    0.000 
#    0.000    0.000    0.000    0.000    0.000    0.000 
#
# Total GULP energy -123967.556133 kJ/mol
# GULP energy per Si atom -12396.755613 kJ/mol
# Density = 2.714885 g / cm^3
# Si number density = 27.210781 Si / 1000 Ang^3
#
#
#
# Elastic Constant Matrix: (Units=GPa)
#
#
# Indices 1 2 3 4 5 6 
#
# 1 175.7427 20.4499 52.3515 0.0000 42.4044 0.0000
# 2 20.4499 134.8906 5.9915 0.0000 14.1531 0.0000
# 3 52.3515 5.9915 104.4908 0.0000 25.1119 0.0000
# 4 0.0000 0.0000 0.0000 20.7735 0.0000 1.6152
# 5 42.4044 14.1531 25.1119 0.0000 57.5376 0.0000
# 6 0.0000 0.0000 0.0000 1.6152 0.0000 31.1995
#
#
#
# Elastic Compliance Matrix: (Units=1/GPa)
#
#
# Indices 1 2 3 4 5 6 
#
# 1 0.007606 -0.000584 -0.002754 0.000000 -0.004260 0.000000
# 2 -0.000584 0.007655 0.000226 0.000000 -0.001551 0.000000
# 3 -0.002754 0.000226 0.011688 0.000000 -0.003128 0.000000
# 4 0.000000 0.000000 0.000000 0.048333 0.000000 -0.002502
# 5 -0.004260 -0.001551 -0.003128 0.000000 0.022267 0.000000
# 6 0.000000 0.000000 0.000000 -0.002502 0.000000 0.032181
#
#
# Mechanical properties :
#
#
# Convention : Reuss Voigt Hill
#
# Bulk Modulus (GPa) = 48.24483 63.63444 55.93964
# Shear Modulus (GPa) = 34.99906 44.32418 39.66162
#
# Velocity S-wave (km/s) = 3.59028 4.04037 3.82196
# Velocity P-wave (km/s) = 5.91231 6.72329 6.33080
#
# Compressibility (1/GPa) = 0.02072761
#
# Stress axis : x y z
#
# Youngs Moduli (GPa) = 131.47034 130.63954 85.55437
#
# Poissons Ratio (x) = 0.07627 0.23557
# Poissons Ratio (y) = 0.07676 -0.01937
# Poissons Ratio (z) = 0.36200 -0.02958
#
# Static dielectric constant tensor:
#      x y z
#    x 5.806590 0.000000 0.163090 
#    y 0.000000 4.754680 0.000000 
#    z 0.163090 0.000000 4.509850 
# 
# 
# High freq. dielectric constant tensor:
#      x y z
#    x 2.114380 0.000000 0.007050 
#    y 0.000000 2.100410 0.000000 
#    z 0.007050 0.000000 2.075220 
# 
# From -- ./inp_files/3347.got.cif
#   From: 2010.03.12/outbox.cif.g09.slc.cpg/sg4_2_cif.got.tgz:3347.got - 2010.03.31 09:31:35.
