data_PCOD8046204
_publ_section_title
;
Structure prediction by ZEFSAII (Michael W. Deem and Ramdas Pophale) SiO2 
 PCOD8046204
Probable space group: P 21
;
_chemical_formula_sum "Si O2"
_cell_formula_units_Z 12
_cell_length_a 21.498947
_cell_length_b 4.796068
_cell_length_c 5.130705
_cell_angle_alpha 90.000000
_cell_angle_beta 121.548317
_cell_angle_gamma 90.000000
_cell_volume 450.838203
_symmetry_space_group_name_H-M "P 21"
_symmetry_group_IT_number 4
_symmetry_cell_setting 'monoclinic'
loop_
_space_group_symop_operation_xyz
x,y,z
-x,1/2+y,-z
loop_
_atom_site_type_symbol
_atom_site_label
_atom_site_fract_x
_atom_site_fract_y
_atom_site_fract_z
Si Si1 0.865066 0.087530 0.513690
Si Si2 0.013181 0.223030 0.701439
Si Si3 0.262655 0.436163 0.420674
Si Si4 0.642065 0.451743 0.298270
Si Si5 0.160041 0.097171 0.876412
Si Si6 0.449816 0.976044 0.403134
O O1 0.948827 0.173331 0.778795
O O2 0.832749 0.278433 0.203806
O O3 0.807301 0.102071 0.619506
O O4 0.869679 0.767175 0.436776
O O5 0.012053 0.542068 0.606622
O O6 0.096474 0.132475 0.963735
O O7 0.318487 0.683961 0.483710
O O8 0.303742 0.200100 0.683143
O O9 0.236372 0.241951 0.121540
O O10 0.592888 0.565581 0.428107
O O11 0.599323 0.361722 0.944145
O O12 0.507614 0.742484 0.612438
#
# Coordination Sequence:
#
# PCOD8046204 Si02
#       6
#     2   2   2   2   2   2
#     4  10  21  39  63  89 137 185 245 305 367 430
#     4   8  16  34  58  86 118 182 242 304 358 416
#     4  12  26  41  65 108 140 194 230 300 370 444
#     4  12  28  45  77 112 150 186 238 290 364 442
#     4  10  21  39  63  89 137 185 245 305 367 430
#     4  12  26  52  80 110 144 188 234 290 350 436
#
# _framework density 26.617083999999998
#
# number of rings (size 3 to 8) (size 9 to 14) (size 15 to 20)
#    0.000    1.333    0.000    5.000    7.000    0.000 
#    0.000   11.667    0.000    0.000    0.000    0.000 
#    0.000    0.000    0.000    0.000    0.000    0.000 
#
# Total GULP energy -148674.924149 kJ/mol
# GULP energy per Si atom -12389.577012 kJ/mol
# Density = 2.655650 g / cm^3
# Si number density = 26.617084 Si / 1000 Ang^3
#
#
#
# Elastic Constant Matrix: (Units=GPa)
#
#
# Indices 1 2 3 4 5 6 
#
# 1 82.1171 22.4172 37.4300 0.0000 0.7217 0.0000
# 2 22.4172 115.2261 11.9750 0.0000 13.5535 0.0000
# 3 37.4300 11.9750 78.3537 0.0000 5.3016 0.0000
# 4 0.0000 0.0000 0.0000 20.2763 0.0000 16.0408
# 5 0.7217 13.5535 5.3016 0.0000 29.4643 0.0000
# 6 0.0000 0.0000 0.0000 16.0408 0.0000 40.9627
#
#
#
# Elastic Compliance Matrix: (Units=1/GPa)
#
#
# Indices 1 2 3 4 5 6 
#
# 1 0.016317 -0.002647 -0.007537 0.000000 0.002174 0.000000
# 2 -0.002647 0.009704 0.000080 0.000000 -0.004414 0.000000
# 3 -0.007537 0.000080 0.016542 0.000000 -0.002829 0.000000
# 4 0.000000 0.000000 0.000000 0.071455 0.000000 -0.027981
# 5 0.002174 -0.004414 -0.002829 0.000000 0.036425 0.000000
# 6 0.000000 0.000000 0.000000 -0.027981 0.000000 0.035370
#
#
# Mechanical properties :
#
#
# Convention : Reuss Voigt Hill
#
# Bulk Modulus (GPa) = 44.73225 46.59350 45.66287
# Shear Modulus (GPa) = 23.42208 31.73230 27.57719
#
# Velocity S-wave (km/s) = 2.96964 3.45654 3.22230
# Velocity P-wave (km/s) = 5.34796 5.78561 5.57109
#
# Compressibility (1/GPa) = 0.02235524
#
# Stress axis : x y z
#
# Youngs Moduli (GPa) = 61.28675 103.04636 60.45080
#
# Poissons Ratio (x) = 0.27275 0.45563
# Poissons Ratio (y) = 0.16222 -0.00483
# Poissons Ratio (z) = 0.46193 -0.00823
#
# Static dielectric constant tensor:
#      x y z
#    x 4.913110 0.000000 0.617670 
#    y 0.000000 4.883860 0.000000 
#    z 0.617670 0.000000 4.416020 
# 
# 
# High freq. dielectric constant tensor:
#      x y z
#    x 2.061430 0.000000 0.026510 
#    y 0.000000 2.090190 0.000000 
#    z 0.026510 0.000000 2.045680 
# 
# From -- ./inp_files/3866.got.cif
#   From: 2010.03.12/outbox.cif.g09.slc.cpg/sg4_2_cif.got.tgz:3866.got - 2010.03.31 09:31:35.
