data_PCOD8046436
_publ_section_title
;
Structure prediction by ZEFSAII (Michael W. Deem and Ramdas Pophale) SiO2 
 PCOD8046436
Probable space group: P 21
;
_chemical_formula_sum "Si O2"
_cell_formula_units_Z 16
_cell_length_a 6.444409
_cell_length_b 12.007041
_cell_length_c 13.063663
_cell_angle_alpha 90.000000
_cell_angle_beta 136.454300
_cell_angle_gamma 90.000000
_cell_volume 696.403587
_symmetry_space_group_name_H-M "P 21"
_symmetry_group_IT_number 4
_symmetry_cell_setting 'monoclinic'
loop_
_space_group_symop_operation_xyz
x,y,z
-x,1/2+y,-z
loop_
_atom_site_type_symbol
_atom_site_label
_atom_site_fract_x
_atom_site_fract_y
_atom_site_fract_z
Si Si1 0.814824 0.986900 0.337547
Si Si2 0.155081 0.121282 0.621513
Si Si3 0.289125 0.492733 0.128277
Si Si4 0.265205 0.600263 0.909115
Si Si5 0.756898 0.753210 0.799487
Si Si6 0.743134 0.292500 0.542852
Si Si7 0.402502 0.814951 0.286430
Si Si8 0.136252 0.172361 0.952640
O O1 0.503015 0.928507 0.264429
O O2 0.074756 0.895377 0.436875
O O3 0.783092 0.032362 0.211849
O O4 0.917383 0.084860 0.449677
O O5 0.350688 0.017076 0.731934
O O6 0.381561 0.212938 0.659890
O O7 0.959325 0.184277 0.640264
O O8 0.190355 0.373415 0.132428
O O9 0.101812 0.572962 0.135569
O O10 0.210008 0.512703 0.980879
O O11 0.049378 0.707451 0.843903
O O12 0.602171 0.652074 0.037012
O O13 0.486147 0.752613 0.624985
O O14 0.694693 0.674667 0.875808
O O15 0.573724 0.333230 0.583429
O O16 0.054372 0.786220 0.133599
#
# Coordination Sequence:
#
# PCOD8046436 Si02
#       8
#     2   2   2   2   2   2   2   2
#     4  11  24  42  69 104 136 178 228 281 346 412
#     4  10  21  45  67  96 139 172 227 286 340 411
#     4  10  23  45  68 100 137 178 228 285 345 407
#     4  11  25  44  72 102 135 186 228 282 351 405
#     4  11  24  44  70 103 139 177 231 283 342 415
#     4  11  23  42  69  99 136 179 221 283 348 407
#     4  10  24  42  68 100 135 178 230 282 344 408
#     4  10  24  44  67  98 141 174 231 294 328 417
#
# _framework density 22.975182
#
# number of rings (size 3 to 8) (size 9 to 14) (size 15 to 20)
#    0.000    1.500    1.250    2.250    3.500    6.000 
#    2.250    0.000    0.000    0.000    0.000    0.000 
#    0.000    0.000    0.000    0.000    0.000    0.000 
#
# Total GULP energy -198339.858234 kJ/mol
# GULP energy per Si atom -12396.241140 kJ/mol
# Density = 2.292289 g / cm^3
# Si number density = 22.975182 Si / 1000 Ang^3
#
#
#
# Elastic Constant Matrix: (Units=GPa)
#
#
# Indices 1 2 3 4 5 6 
#
# 1 116.7730 62.2000 35.9650 0.0000 8.8176 0.0000
# 2 62.2000 106.4209 41.0264 0.0000 0.5552 0.0000
# 3 35.9650 41.0264 95.8775 0.0000 2.2515 0.0000
# 4 0.0000 0.0000 0.0000 33.0471 0.0000 -4.1954
# 5 8.8176 0.5552 2.2515 0.0000 30.1609 0.0000
# 6 0.0000 0.0000 0.0000 -4.1954 0.0000 37.4204
#
#
#
# Elastic Compliance Matrix: (Units=1/GPa)
#
#
# Indices 1 2 3 4 5 6 
#
# 1 0.013089 -0.006911 -0.001869 0.000000 -0.003560 0.000000
# 2 -0.006911 0.014903 -0.003832 0.000000 0.002032 0.000000
# 3 -0.001869 -0.003832 0.012779 0.000000 -0.000337 0.000000
# 4 0.000000 0.000000 0.000000 0.030697 0.000000 0.003442
# 5 -0.003560 0.002032 -0.000337 0.000000 0.034184 0.000000
# 6 0.000000 0.000000 0.000000 0.003442 0.000000 0.027109
#
#
# Mechanical properties :
#
#
# Convention : Reuss Voigt Hill
#
# Bulk Modulus (GPa) = 64.32521 66.38381 65.35451
# Shear Modulus (GPa) = 30.64321 32.11768 31.38045
#
# Velocity S-wave (km/s) = 3.65602 3.74295 3.69974
# Velocity P-wave (km/s) = 6.77351 6.90188 6.83800
#
# Compressibility (1/GPa) = 0.01554600
#
# Stress axis : x y z
#
# Youngs Moduli (GPa) = 76.39744 67.10122 78.25452
#
# Poissons Ratio (x) = 0.46376 0.14626
# Poissons Ratio (y) = 0.52801 0.29989
# Poissons Ratio (z) = 0.14279 0.25715
#
# Static dielectric constant tensor:
#      x y z
#    x 4.264160 0.000000 0.126380 
#    y 0.000000 4.130100 0.000000 
#    z 0.126380 0.000000 4.164080 
# 
# 
# High freq. dielectric constant tensor:
#      x y z
#    x 1.910650 0.000000 0.005860 
#    y 0.000000 1.907810 0.000000 
#    z 0.005860 0.000000 1.913340 
# 
# From -- ./inp_files/1401.got.cif
#   From: 2010.03.12/outbox.cif.g09.slc.cpg/sg4_1_cif.got.tgz:1401.got - 2010.03.31 09:31:35.
