data_PCOD8046574
_publ_section_title
;
Structure prediction by ZEFSAII (Michael W. Deem and Ramdas Pophale) SiO2 
 PCOD8046574
Probable space group: P 21
;
_chemical_formula_sum "Si O2"
_cell_formula_units_Z 16
_cell_length_a 11.384350
_cell_length_b 12.995630
_cell_length_c 4.945877
_cell_angle_alpha 90.000000
_cell_angle_beta 101.077988
_cell_angle_gamma 90.000000
_cell_volume 718.092088
_symmetry_space_group_name_H-M "P 21"
_symmetry_group_IT_number 4
_symmetry_cell_setting 'monoclinic'
loop_
_space_group_symop_operation_xyz
x,y,z
-x,1/2+y,-z
loop_
_atom_site_type_symbol
_atom_site_label
_atom_site_fract_x
_atom_site_fract_y
_atom_site_fract_z
Si Si1 0.766454 0.068380 0.596602
Si Si2 0.683696 0.293282 0.708806
Si Si3 0.798024 0.748395 0.363369
Si Si4 0.826591 0.487007 0.785911
Si Si5 0.041326 0.070491 0.648395
Si Si6 0.673385 0.668603 0.809268
Si Si7 0.525470 0.305903 0.155265
Si Si8 0.301029 0.445270 0.910673
O O1 0.739131 0.185576 0.649338
O O2 0.679446 0.029815 0.316507
O O3 0.900987 0.059095 0.547571
O O4 0.752752 0.997344 0.850419
O O5 0.792262 0.369626 0.837023
O O6 0.614919 0.346594 0.425925
O O7 0.596156 0.274886 0.919664
O O8 0.926250 0.691006 0.397884
O O9 0.749882 0.746201 0.650423
O O10 0.797731 0.864725 0.251986
O O11 0.708918 0.681354 0.138161
O O12 0.888716 0.494755 0.523021
O O13 0.700945 0.551866 0.732681
O O14 0.920275 0.536109 0.035821
O O15 0.534651 0.702738 0.739294
O O16 0.426677 0.391367 0.037029
#
# Coordination Sequence:
#
# PCOD8046574 Si02
#       8
#     2   2   2   2   2   2   2   2
#     4  12  26  41  62  97 131 161 207 260 314 375
#     4  12  26  42  62  95 131 164 208 258 314 376
#     4   9  18  37  63  90 117 153 209 256 295 362
#     4  10  22  42  65  91 123 167 217 253 306 383
#     4  10  22  41  65  92 126 165 206 264 318 357
#     4   9  18  36  63  90 115 153 209 257 295 361
#     4  11  23  42  65  90 127 167 205 261 317 360
#     4  11  23  43  65  93 126 168 215 251 305 384
#
# _framework density 22.281265999999999
#
# number of rings (size 3 to 8) (size 9 to 14) (size 15 to 20)
#    0.000    1.500    0.000    6.000    0.000    5.000 
#    0.000    2.500    0.000    0.000    0.000    0.000 
#    0.000    0.000    0.000    0.000    0.000    0.000 
#
# Total GULP energy -198377.711332 kJ/mol
# GULP energy per Si atom -12398.606958 kJ/mol
# Density = 2.223055 g / cm^3
# Si number density = 22.281266 Si / 1000 Ang^3
#
#
#
# Elastic Constant Matrix: (Units=GPa)
#
#
# Indices 1 2 3 4 5 6 
#
# 1 85.4944 56.1363 35.7613 0.0000 -11.0526 0.0000
# 2 56.1363 106.6045 18.0610 0.0000 -14.6821 0.0000
# 3 35.7613 18.0610 105.9194 0.0000 -15.6520 0.0000
# 4 0.0000 0.0000 0.0000 31.3654 0.0000 -2.7574
# 5 -11.0526 -14.6821 -15.6520 0.0000 32.0732 0.0000
# 6 0.0000 0.0000 0.0000 -2.7574 0.0000 19.5374
#
#
#
# Elastic Compliance Matrix: (Units=1/GPa)
#
#
# Indices 1 2 3 4 5 6 
#
# 1 0.020311 -0.009820 -0.005187 0.000000 -0.000028 0.000000
# 2 -0.009820 0.014882 0.001384 0.000000 0.004104 0.000000
# 3 -0.005187 0.001384 0.011624 0.000000 0.004519 0.000000
# 4 0.000000 0.000000 0.000000 0.032283 0.000000 0.004556
# 5 -0.000028 0.004104 0.004519 0.000000 0.035253 0.000000
# 6 0.000000 0.000000 0.000000 0.004556 0.000000 0.051827
#
#
# Mechanical properties :
#
#
# Convention : Reuss Voigt Hill
#
# Bulk Modulus (GPa) = 51.09492 57.54839 54.32165
# Shear Modulus (GPa) = 25.00617 29.13251 27.06934
#
# Velocity S-wave (km/s) = 3.35370 3.61984 3.48931
# Velocity P-wave (km/s) = 6.16263 6.58447 6.37704
#
# Compressibility (1/GPa) = 0.01957142
#
# Stress axis : x y z
#
# Youngs Moduli (GPa) = 49.23443 67.19322 86.02772
#
# Poissons Ratio (x) = 0.65987 0.44623
# Poissons Ratio (y) = 0.48350 -0.11910
# Poissons Ratio (z) = 0.25538 -0.09303
#
# Static dielectric constant tensor:
#      x y z
#    x 3.839230 0.000000 -0.026460 
#    y 0.000000 4.074010 0.000000 
#    z -0.026460 0.000000 4.158270 
# 
# 
# High freq. dielectric constant tensor:
#      x y z
#    x 1.858450 0.000000 -0.010090 
#    y 0.000000 1.872640 0.000000 
#    z -0.010090 0.000000 1.897720 
# 
# From -- ./inp_files/2971.got.cif
#   From: 2010.03.12/outbox.cif.g09.slc.cpg/sg4_2_cif.got.tgz:2971.got - 2010.03.31 09:31:35.
