data_PCOD8046911
_publ_section_title
;
Structure prediction by ZEFSAII (Michael W. Deem and Ramdas Pophale) SiO2 
 PCOD8046911
Probable space group: P 21
;
_chemical_formula_sum "Si O2"
_cell_formula_units_Z 16
_cell_length_a 5.127290
_cell_length_b 8.852822
_cell_length_c 16.219919
_cell_angle_alpha 90.000000
_cell_angle_beta 112.362826
_cell_angle_gamma 90.000000
_cell_volume 680.867911
_symmetry_space_group_name_H-M "P 21"
_symmetry_group_IT_number 4
_symmetry_cell_setting 'monoclinic'
loop_
_space_group_symop_operation_xyz
x,y,z
-x,1/2+y,-z
loop_
_atom_site_type_symbol
_atom_site_label
_atom_site_fract_x
_atom_site_fract_y
_atom_site_fract_z
Si Si1 0.413142 0.354150 0.093748
Si Si2 0.828068 0.671960 0.804586
Si Si3 0.722435 0.288895 0.538505
Si Si4 0.474841 0.900503 0.189608
Si Si5 0.071625 0.746335 0.259249
Si Si6 0.136060 0.447739 0.468778
Si Si7 0.939314 0.414924 0.269796
Si Si8 0.368400 0.556008 0.940968
O O1 0.153936 0.289097 0.115652
O O2 0.510833 0.225088 0.041298
O O3 0.638707 0.391338 0.191638
O O4 0.330498 0.500481 0.030434
O O5 0.545009 0.567589 0.766917
O O6 0.862856 0.769559 0.726121
O O7 0.081390 0.554067 0.852384
O O8 0.742562 0.293882 0.639898
O O9 0.408995 0.346433 0.481105
O O10 0.963694 0.396034 0.528428
O O11 0.766493 0.120665 0.508052
O O12 0.217292 0.800488 0.192417
O O13 0.763014 0.812907 0.240053
O O14 0.431195 0.940423 0.087055
O O15 0.069935 0.566793 0.248050
O O16 0.918563 0.431478 0.365849
#
# Coordination Sequence:
#
# PCOD8046911 Si02
#       8
#     2   2   2   2   2   2   2   2
#     4  10  24  43  68  98 140 183 233 282 346 405
#     4  10  23  44  66 102 139 184 234 280 352 407
#     4  11  25  46  70 107 136 189 229 296 344 427
#     4  11  23  44  68 102 138 182 227 293 337 418
#     4  11  25  44  73 101 141 174 240 279 360 409
#     4  11  25  47  72 103 147 179 240 284 358 416
#     4  10  26  44  67 104 138 189 225 293 346 422
#     4  10  23  44  64 101 139 180 234 283 339 412
#
# _framework density 23.499420000000001
#
# number of rings (size 3 to 8) (size 9 to 14) (size 15 to 20)
#    0.000    1.500    1.250    1.500    5.250    9.000 
#    4.500    0.000    0.000    0.000    0.000    0.000 
#    0.000    0.000    0.000    0.000    0.000    0.000 
#
# Total GULP energy -198309.461738 kJ/mol
# GULP energy per Si atom -12394.341359 kJ/mol
# Density = 2.344593 g / cm^3
# Si number density = 23.499420 Si / 1000 Ang^3
#
#
#
# Elastic Constant Matrix: (Units=GPa)
#
#
# Indices 1 2 3 4 5 6 
#
# 1 98.4708 21.4115 6.5869 0.0000 -8.1786 0.0000
# 2 21.4115 64.0895 12.1410 0.0000 7.3367 0.0000
# 3 6.5869 12.1410 24.0704 0.0000 3.1963 0.0000
# 4 0.0000 0.0000 0.0000 36.4777 0.0000 -3.8473
# 5 -8.1786 7.3367 3.1963 0.0000 24.6534 0.0000
# 6 0.0000 0.0000 0.0000 -3.8473 0.0000 29.5446
#
#
#
# Elastic Compliance Matrix: (Units=1/GPa)
#
#
# Indices 1 2 3 4 5 6 
#
# 1 0.011620 -0.004152 -0.001792 0.000000 0.005323 0.000000
# 2 -0.004152 0.019147 -0.007715 0.000000 -0.006075 0.000000
# 3 -0.001792 -0.007715 0.046501 0.000000 -0.004328 0.000000
# 4 0.000000 0.000000 0.000000 0.027796 0.000000 0.003620
# 5 0.005323 -0.006075 -0.004328 0.000000 0.044697 0.000000
# 6 0.000000 0.000000 0.000000 0.003620 0.000000 0.034318
#
#
# Mechanical properties :
#
#
# Convention : Reuss Voigt Hill
#
# Bulk Modulus (GPa) = 20.01998 29.65663 24.83831
# Shear Modulus (GPa) = 21.92513 27.90122 24.91318
#
# Velocity S-wave (km/s) = 3.05783 3.44948 3.25954
# Velocity P-wave (km/s) = 4.58312 5.33974 4.97583
#
# Compressibility (1/GPa) = 0.04995010
#
# Stress axis : x y z
#
# Youngs Moduli (GPa) = 86.05787 52.22690 21.50474
#
# Poissons Ratio (x) = 0.21684 0.03855
# Poissons Ratio (y) = 0.35730 0.16591
# Poissons Ratio (z) = 0.15426 0.40293
#
# Static dielectric constant tensor:
#      x y z
#    x 4.168010 0.000000 -0.136420 
#    y 0.000000 4.513580 0.000000 
#    z -0.136420 0.000000 3.873420 
# 
# 
# High freq. dielectric constant tensor:
#      x y z
#    x 1.929580 0.000000 -0.015620 
#    y 0.000000 1.949920 0.000000 
#    z -0.015620 0.000000 1.907310 
# 
# From -- ./inp_files/13233.got.cif
#   From: 2010.03.12/outbox.cif.g09.slc.cpg/sg4_7_cif.got.tgz:13233.got - 2010.03.31 09:31:35.
