data_PCOD8046600
_publ_section_title
;
Structure prediction by ZEFSAII (Michael W. Deem and Ramdas Pophale) SiO2 
 PCOD8046600
Probable space group: P 21
;
_chemical_formula_sum "Si O2"
_cell_formula_units_Z 16
_cell_length_a 18.689440
_cell_length_b 6.738809
_cell_length_c 6.777872
_cell_angle_alpha 90.000000
_cell_angle_beta 111.281278
_cell_angle_gamma 90.000000
_cell_volume 795.426594
_symmetry_space_group_name_H-M "P 21"
_symmetry_group_IT_number 4
_symmetry_cell_setting 'monoclinic'
loop_
_space_group_symop_operation_xyz
x,y,z
-x,1/2+y,-z
loop_
_atom_site_type_symbol
_atom_site_label
_atom_site_fract_x
_atom_site_fract_y
_atom_site_fract_z
Si Si1 0.665800 0.690050 0.630176
Si Si2 0.076970 0.219832 0.787375
Si Si3 0.421181 0.148900 0.060843
Si Si4 0.417717 0.477219 0.737649
Si Si5 0.079453 0.548031 0.474102
Si Si6 0.664742 0.372552 0.309663
Si Si7 0.160755 0.258260 0.271417
Si Si8 0.165086 0.947906 0.600139
O O1 0.641767 0.667745 0.831651
O O2 0.604528 0.833148 0.462934
O O3 0.664577 0.474901 0.524807
O O4 0.750898 0.783795 0.705406
O O5 0.060992 0.421716 0.651313
O O6 0.145859 0.098832 0.755976
O O7 0.102540 0.270745 0.032401
O O8 0.000284 0.087178 0.718543
O O9 0.503300 0.090336 0.235147
O O10 0.424708 0.357881 0.949702
O O11 0.398777 0.973140 0.891306
O O12 0.351060 0.639926 0.689480
O O13 0.140067 0.440363 0.393142
O O14 0.115133 0.753453 0.578897
O O15 0.746079 0.398106 0.285872
O O16 0.147715 0.049888 0.371264
#
# Coordination Sequence:
#
# PCOD8046600 Si02
#       8
#     2   2   2   2   2   2   2   2
#     4  10  24  41  62  90 123 161 205 254 304 359
#     4  11  23  40  64  92 124 162 204 249 306 361
#     4  11  23  40  64  92 124 162 204 249 306 361
#     4  11  23  39  63  93 124 160 205 251 302 360
#     4  11  23  39  63  93 124 160 205 251 302 360
#     4  10  22  42  63  89 125 159 200 252 302 362
#     4  10  24  41  62  90 123 161 205 254 304 359
#     4  10  22  42  63  89 125 159 200 252 302 362
#
# _framework density 20.114989999999999
#
# number of rings (size 3 to 8) (size 9 to 14) (size 15 to 20)
#    0.000    1.500    2.500    1.500    3.500    5.000 
#    0.000    0.000    0.000    0.000    0.000    0.000 
#    0.000    0.000    0.000    0.000    0.000    0.000 
#
# Total GULP energy -198481.778724 kJ/mol
# GULP energy per Si atom -12405.111170 kJ/mol
# Density = 2.006921 g / cm^3
# Si number density = 20.114990 Si / 1000 Ang^3
#
#
#
# Elastic Constant Matrix: (Units=GPa)
#
#
# Indices 1 2 3 4 5 6 
#
# 1 81.8071 18.2051 7.5893 0.0000 -1.3453 0.0000
# 2 18.2051 89.7603 19.3010 0.0000 0.7808 0.0000
# 3 7.5893 19.3010 67.6985 0.0000 1.2974 0.0000
# 4 0.0000 0.0000 0.0000 18.9240 0.0000 6.9392
# 5 -1.3453 0.7808 1.2974 0.0000 35.9036 0.0000
# 6 0.0000 0.0000 0.0000 6.9392 0.0000 36.9520
#
#
#
# Elastic Compliance Matrix: (Units=1/GPa)
#
#
# Indices 1 2 3 4 5 6 
#
# 1 0.012848 -0.002449 -0.000753 0.000000 0.000562 0.000000
# 2 -0.002449 0.012336 -0.003238 0.000000 -0.000243 0.000000
# 3 -0.000753 -0.003238 0.015789 0.000000 -0.000528 0.000000
# 4 0.000000 0.000000 0.000000 0.056751 0.000000 -0.010657
# 5 0.000562 -0.000243 -0.000528 0.000000 0.027898 0.000000
# 6 0.000000 0.000000 0.000000 -0.010657 0.000000 0.029063
#
#
# Mechanical properties :
#
#
# Convention : Reuss Voigt Hill
#
# Bulk Modulus (GPa) = 35.59517 36.60631 36.10074
# Shear Modulus (GPa) = 28.26001 31.30059 29.78030
#
# Velocity S-wave (km/s) = 3.75230 3.94900 3.85190
# Velocity P-wave (km/s) = 6.04212 6.24747 6.14565
#
# Compressibility (1/GPa) = 0.02809370
#
# Stress axis : x y z
#
# Youngs Moduli (GPa) = 77.83364 81.06499 63.33521
#
# Poissons Ratio (x) = 0.19851 0.04769
# Poissons Ratio (y) = 0.19060 0.20507
# Poissons Ratio (z) = 0.05860 0.26247
#
# Static dielectric constant tensor:
#      x y z
#    x 3.742230 0.000000 0.078360 
#    y 0.000000 3.666720 0.000000 
#    z 0.078360 0.000000 3.462920 
# 
# 
# High freq. dielectric constant tensor:
#      x y z
#    x 1.799430 0.000000 0.007420 
#    y 0.000000 1.789790 0.000000 
#    z 0.007420 0.000000 1.775380 
# 
# From -- ./inp_files/3971.got.cif
#   From: 2010.03.12/outbox.cif.g09.slc.cpg/sg4_2_cif.got.tgz:3971.got - 2010.03.31 09:31:35.
