data_PCOD8046058
_publ_section_title
;
Structure prediction by ZEFSAII (Michael W. Deem and Ramdas Pophale) SiO2 
 PCOD8046058
Probable space group: P 21
;
_chemical_formula_sum "Si O2"
_cell_formula_units_Z 16
_cell_length_a 11.497148
_cell_length_b 11.323962
_cell_length_c 8.723285
_cell_angle_alpha 90.000000
_cell_angle_beta 139.344077
_cell_angle_gamma 90.000000
_cell_volume 739.934023
_symmetry_space_group_name_H-M "P 21"
_symmetry_group_IT_number 4
_symmetry_cell_setting 'monoclinic'
loop_
_space_group_symop_operation_xyz
x,y,z
-x,1/2+y,-z
loop_
_atom_site_type_symbol
_atom_site_label
_atom_site_fract_x
_atom_site_fract_y
_atom_site_fract_z
Si Si1 0.999940 0.653400 0.324692
Si Si2 0.530831 0.466338 0.256132
Si Si3 0.638244 0.242460 0.230201
Si Si4 0.361949 0.064351 0.953958
Si Si5 0.500015 0.153382 0.525702
Si Si6 0.225995 0.485225 0.362152
Si Si7 0.530873 0.340437 0.805553
Si Si8 0.774005 0.821510 0.910057
O O1 0.165687 0.688320 0.599305
O O2 0.057431 0.541701 0.279095
O O3 0.834061 0.618571 0.267618
O O4 0.942578 0.765034 0.164081
O O5 0.665300 0.355482 0.369051
O O6 0.538107 0.537844 0.105520
O O7 0.586072 0.550287 0.452700
O O8 0.335627 0.408517 0.086365
O O9 0.500141 0.153380 0.176658
O O10 0.538285 0.268905 0.970830
O O11 0.334753 0.951347 0.038575
O O12 0.654942 0.094918 0.579920
O O13 0.586085 0.256524 0.719377
O O14 0.345089 0.211805 0.270066
O O15 0.335634 0.398229 0.584985
O O16 0.151835 0.403352 0.151912
#
# Coordination Sequence:
#
# PCOD8046058 Si02
#       8
#     2   2   2   2   2   2   2   2
#     4  12  24  42  66 100 134 170 222 274 338 382
#     4  10  21  42  66  96 126 175 220 263 331 383
#     4  11  22  42  68  93 134 168 213 279 325 393
#     4  11  22  42  68  93 134 168 213 279 325 393
#     4  10  20  40  72  92 126 184 220 262 326 398
#     4  10  22  39  66  96 134 174 220 271 323 397
#     4  10  21  42  66  96 126 175 220 263 331 383
#     4  10  22  39  66  96 134 174 220 271 323 397
#
# _framework density 21.623550000000002
#
# number of rings (size 3 to 8) (size 9 to 14) (size 15 to 20)
#    0.000    1.500    3.750    1.500    0.000    2.000 
#    9.000    1.250    0.000    0.000    0.000    0.000 
#    0.000    0.000    0.000    0.000    0.000    0.000 
#
# Total GULP energy -198265.716905 kJ/mol
# GULP energy per Si atom -12391.607307 kJ/mol
# Density = 2.157433 g / cm^3
# Si number density = 21.623550 Si / 1000 Ang^3
#
#
#
# Elastic Constant Matrix: (Units=GPa)
#
#
# Indices 1 2 3 4 5 6 
#
# 1 77.7771 44.0445 65.5198 0.0000 3.5123 0.0000
# 2 44.0445 129.4062 45.6886 0.0000 4.9628 0.0000
# 3 65.5198 45.6886 82.2050 0.0000 10.1431 0.0000
# 4 0.0000 0.0000 0.0000 34.7836 0.0000 2.3207
# 5 3.5123 4.9628 10.1431 0.0000 28.7054 0.0000
# 6 0.0000 0.0000 0.0000 2.3207 0.0000 34.0775
#
#
#
# Elastic Compliance Matrix: (Units=1/GPa)
#
#
# Indices 1 2 3 4 5 6 
#
# 1 0.041235 -0.002981 -0.032047 0.000000 0.006794 0.000000
# 2 -0.002981 0.009831 -0.003057 0.000000 -0.000255 0.000000
# 3 -0.032047 -0.003057 0.040629 0.000000 -0.009906 0.000000
# 4 0.000000 0.000000 0.000000 0.028880 0.000000 -0.001967
# 5 0.006794 -0.000255 -0.009906 0.000000 0.037550 0.000000
# 6 0.000000 0.000000 0.000000 -0.001967 0.000000 0.029479
#
#
# Mechanical properties :
#
#
# Convention : Reuss Voigt Hill
#
# Bulk Modulus (GPa) = 64.41120 66.65491 65.53305
# Shear Modulus (GPa) = 18.59089 28.45567 23.52328
#
# Velocity S-wave (km/s) = 2.93533 3.63155 3.30184
# Velocity P-wave (km/s) = 6.42965 6.96249 6.70137
#
# Compressibility (1/GPa) = 0.01552525
#
# Stress axis : x y z
#
# Youngs Moduli (GPa) = 24.25115 101.71749 24.61312
#
# Poissons Ratio (x) = 0.30317 0.78878
# Poissons Ratio (y) = 0.07228 0.07524
# Poissons Ratio (z) = 0.77718 0.31095
#
# Static dielectric constant tensor:
#      x y z
#    x 3.703870 0.000000 -0.280430 
#    y 0.000000 4.467210 0.000000 
#    z -0.280430 0.000000 3.620080 
# 
# 
# High freq. dielectric constant tensor:
#      x y z
#    x 1.830840 0.000000 -0.022340 
#    y 0.000000 1.882100 0.000000 
#    z -0.022340 0.000000 1.824180 
# 
# From -- ./inp_files/8249.got.cif
#   From: 2010.03.12/outbox.cif.g09.slc.cpg/sg4_5_cif.got.tgz:8249.got - 2010.03.31 09:31:35.
