data_PCOD8046353
_publ_section_title
;
Structure prediction by ZEFSAII (Michael W. Deem and Ramdas Pophale) SiO2 
 PCOD8046353
Probable space group: P 21
;
_chemical_formula_sum "Si O2"
_cell_formula_units_Z 16
_cell_length_a 8.868060
_cell_length_b 9.697542
_cell_length_c 8.824696
_cell_angle_alpha 90.000000
_cell_angle_beta 99.454334
_cell_angle_gamma 90.000000
_cell_volume 748.601204
_symmetry_space_group_name_H-M "P 21"
_symmetry_group_IT_number 4
_symmetry_cell_setting 'monoclinic'
loop_
_space_group_symop_operation_xyz
x,y,z
-x,1/2+y,-z
loop_
_atom_site_type_symbol
_atom_site_label
_atom_site_fract_x
_atom_site_fract_y
_atom_site_fract_z
Si Si1 0.373969 0.120550 0.878656
Si Si2 0.609547 0.927858 0.043901
Si Si3 0.466161 0.418526 0.290282
Si Si4 0.894071 0.113169 0.155562
Si Si5 0.984252 0.630358 0.160118
Si Si6 0.812156 0.990066 0.571809
Si Si7 0.757924 0.268144 0.386428
Si Si8 0.976354 0.395587 0.632169
O O1 0.420619 0.281987 0.877447
O O2 0.428991 0.054409 0.727426
O O3 0.194678 0.094713 0.874505
O O4 0.464677 0.034347 0.026456
O O5 0.757139 0.001476 0.136046
O O6 0.639975 0.886581 0.873316
O O7 0.355322 0.436833 0.413359
O O8 0.577618 0.290338 0.339421
O O9 0.836251 0.251977 0.232008
O O10 0.027628 0.040253 0.276831
O O11 0.950705 0.149622 0.998308
O O12 0.011582 0.774953 0.244913
O O13 0.077811 0.511349 0.263575
O O14 0.792748 0.132310 0.483973
O O15 0.883074 0.882586 0.464202
O O16 0.826681 0.391828 0.500068
#
# Coordination Sequence:
#
# PCOD8046353 Si02
#       8
#     2   2   2   2   2   2   2   2
#     4  10  22  38  64  98 135 172 221 284 337 398
#     4  10  21  42  63 101 136 176 225 283 342 397
#     4  10  22  40  66  94 134 178 219 274 342 409
#     4  11  22  43  69  96 137 178 227 293 333 406
#     4  11  21  41  68 100 129 175 233 276 336 399
#     4  10  22  42  64  97 132 179 219 287 337 421
#     4  10  23  43  65  97 137 179 222 281 353 406
#     4  10  23  41  65  95 136 171 224 278 348 400
#
# _framework density 21.373194999999999
#
# number of rings (size 3 to 8) (size 9 to 14) (size 15 to 20)
#    0.750    1.000    2.500    1.500    0.000    4.000 
#    4.500    1.250    0.000    0.000    0.000    0.000 
#    0.000    0.000    0.000    0.000    0.000    0.000 
#
# Total GULP energy -198262.178507 kJ/mol
# GULP energy per Si atom -12391.386157 kJ/mol
# Density = 2.132455 g / cm^3
# Si number density = 21.373195 Si / 1000 Ang^3
#
#
#
# Elastic Constant Matrix: (Units=GPa)
#
#
# Indices 1 2 3 4 5 6 
#
# 1 81.1041 29.6591 40.2577 0.0000 -3.7507 0.0000
# 2 29.6591 62.1324 24.3144 0.0000 4.4558 0.0000
# 3 40.2577 24.3144 125.4505 0.0000 -11.7041 0.0000
# 4 0.0000 0.0000 0.0000 18.8384 0.0000 4.7074
# 5 -3.7507 4.4558 -11.7041 0.0000 38.2040 0.0000
# 6 0.0000 0.0000 0.0000 4.7074 0.0000 37.1174
#
#
#
# Elastic Compliance Matrix: (Units=1/GPa)
#
#
# Indices 1 2 3 4 5 6 
#
# 1 0.016754 -0.006515 -0.004004 0.000000 0.001178 0.000000
# 2 -0.006515 0.020327 -0.002192 0.000000 -0.003682 0.000000
# 3 -0.004004 -0.002192 0.009953 0.000000 0.002912 0.000000
# 4 0.000000 0.000000 0.000000 0.054820 0.000000 -0.006953
# 5 0.001178 -0.003682 0.002912 0.000000 0.027612 0.000000
# 6 0.000000 0.000000 0.000000 -0.006953 0.000000 0.027823
#
#
# Mechanical properties :
#
#
# Convention : Reuss Voigt Hill
#
# Bulk Modulus (GPa) = 46.27354 50.79438 48.53396
# Shear Modulus (GPa) = 26.32733 30.46235 28.39484
#
# Velocity S-wave (km/s) = 3.51350 3.77936 3.64885
# Velocity P-wave (km/s) = 6.17712 6.54689 6.36469
#
# Compressibility (1/GPa) = 0.02161062
#
# Stress axis : x y z
#
# Youngs Moduli (GPa) = 59.68605 49.19605 100.47524
#
# Poissons Ratio (x) = 0.32053 0.40229
# Poissons Ratio (y) = 0.38888 0.22028
# Poissons Ratio (z) = 0.23897 0.10786
#
# Static dielectric constant tensor:
#      x y z
#    x 3.765390 0.000000 0.200000 
#    y 0.000000 3.752850 0.000000 
#    z 0.200000 0.000000 4.003580 
# 
# 
# High freq. dielectric constant tensor:
#      x y z
#    x 1.828750 0.000000 0.015280 
#    y 0.000000 1.827280 0.000000 
#    z 0.015280 0.000000 1.841380 
# 
# From -- ./inp_files/5670.got.cif
#   From: 2010.03.12/outbox.cif.g09.slc.cpg/sg4_3_cif.got.tgz:5670.got - 2010.03.31 09:31:35.
