data_PCOD8046861
_publ_section_title
;
Structure prediction by ZEFSAII (Michael W. Deem and Ramdas Pophale) SiO2 
 PCOD8046861
Probable space group: P 21
;
_chemical_formula_sum "Si O2"
_cell_formula_units_Z 16
_cell_length_a 22.374454
_cell_length_b 5.312995
_cell_length_c 9.411894
_cell_angle_alpha 90.000000
_cell_angle_beta 37.824428
_cell_angle_gamma 90.000000
_cell_volume 686.123198
_symmetry_space_group_name_H-M "P 21"
_symmetry_group_IT_number 4
_symmetry_cell_setting 'monoclinic'
loop_
_space_group_symop_operation_xyz
x,y,z
-x,1/2+y,-z
loop_
_atom_site_type_symbol
_atom_site_label
_atom_site_fract_x
_atom_site_fract_y
_atom_site_fract_z
Si Si1 0.371648 0.176170 0.739560
Si Si2 0.444357 0.534156 0.072910
Si Si3 0.882231 0.400332 0.382953
Si Si4 0.574644 0.172767 0.210189
Si Si5 0.910042 0.751562 0.103675
Si Si6 0.795820 0.447311 0.101415
Si Si7 0.749050 0.132349 0.430620
Si Si8 0.937134 0.335586 0.599819
O O1 0.461307 0.166799 0.462961
O O2 0.368034 0.440455 0.827413
O O3 0.270186 0.165348 0.844336
O O4 0.377099 0.937434 0.835767
O O5 0.346767 0.475581 0.347321
O O6 0.498909 0.266345 0.957312
O O7 0.415996 0.643033 0.974434
O O8 0.886661 0.685171 0.313428
O O9 0.782310 0.281895 0.510287
O O10 0.886446 0.388015 0.543660
O O11 0.975187 0.273547 0.132396
O O12 0.879938 0.537524 0.049221
O O13 0.842296 0.985028 0.195144
O O14 0.721013 0.291924 0.342479
O O15 0.850768 0.291269 0.874554
O O16 0.998258 0.584194 0.527545
#
# Coordination Sequence:
#
# PCOD8046861 Si02
#       8
#     2   2   2   2   2   2   2   2
#     4  10  23  42  71  97 138 181 228 294 346 431
#     4  12  28  48  74 105 148 185 241 302 353 428
#     4  11  24  43  69 102 144 189 235 303 344 433
#     4  10  23  44  67 102 137 180 233 285 366 403
#     4  11  23  44  69 101 143 189 244 285 364 417
#     4  11  26  44  71 102 139 189 241 290 354 428
#     4  11  27  44  76 102 140 195 243 286 370 425
#     4  12  28  45  69 103 145 186 235 291 357 411
#
# _framework density 23.319426
#
# number of rings (size 3 to 8) (size 9 to 14) (size 15 to 20)
#    0.000    1.000    2.500    2.250   12.250    2.000 
#    0.000    0.000    0.000    0.000    0.000    0.000 
#    0.000    0.000    0.000    0.000    0.000    0.000 
#
# Total GULP energy -198319.728654 kJ/mol
# GULP energy per Si atom -12394.983041 kJ/mol
# Density = 2.326635 g / cm^3
# Si number density = 23.319426 Si / 1000 Ang^3
#
#
#
# Elastic Constant Matrix: (Units=GPa)
#
#
# Indices 1 2 3 4 5 6 
#
# 1 96.8793 7.0059 36.8755 0.0000 17.5131 0.0000
# 2 7.0059 78.7545 6.7320 0.0000 -2.0423 0.0000
# 3 36.8755 6.7320 88.2567 0.0000 5.8396 0.0000
# 4 0.0000 0.0000 0.0000 19.8631 0.0000 2.6711
# 5 17.5131 -2.0423 5.8396 0.0000 43.4209 0.0000
# 6 0.0000 0.0000 0.0000 2.6711 0.0000 19.2529
#
#
#
# Elastic Compliance Matrix: (Units=1/GPa)
#
#
# Indices 1 2 3 4 5 6 
#
# 1 0.013181 -0.000855 -0.005134 0.000000 -0.004666 0.000000
# 2 -0.000855 0.012860 -0.000693 0.000000 0.001043 0.000000
# 3 -0.005134 -0.000693 0.013514 0.000000 0.000220 0.000000
# 4 0.000000 0.000000 0.000000 0.051302 0.000000 -0.007118
# 5 -0.004666 0.001043 0.000220 0.000000 0.024932 0.000000
# 6 0.000000 0.000000 0.000000 -0.007118 0.000000 0.052928
#
#
# Mechanical properties :
#
#
# Convention : Reuss Voigt Hill
#
# Bulk Modulus (GPa) = 38.17816 40.56858 39.37337
# Shear Modulus (GPa) = 26.20411 30.72585 28.46498
#
# Velocity S-wave (km/s) = 3.35580 3.63382 3.49758
# Velocity P-wave (km/s) = 5.60559 5.91954 5.76470
#
# Compressibility (1/GPa) = 0.02619299
#
# Stress axis : x y z
#
# Youngs Moduli (GPa) = 75.86405 77.76059 73.99879
#
# Poissons Ratio (x) = 0.06647 0.37988
# Poissons Ratio (y) = 0.06485 0.05126
# Poissons Ratio (z) = 0.38945 0.05387
#
# Static dielectric constant tensor:
#      x y z
#    x 4.273780 0.000000 0.046570 
#    y 0.000000 4.409730 0.000000 
#    z 0.046570 0.000000 4.050410 
# 
# 
# High freq. dielectric constant tensor:
#      x y z
#    x 1.936620 0.000000 0.003310 
#    y 0.000000 1.920040 0.000000 
#    z 0.003310 0.000000 1.918260 
# 
# From -- ./inp_files/8688.got.cif
#   From: 2010.03.12/outbox.cif.g09.slc.cpg/sg4_5_cif.got.tgz:8688.got - 2010.03.31 09:31:35.
