data_PCOD8046075
_publ_section_title
;
Structure prediction by ZEFSAII (Michael W. Deem and Ramdas Pophale) SiO2 
 PCOD8046075
Probable space group: P 21
;
_chemical_formula_sum "Si O2"
_cell_formula_units_Z 16
_cell_length_a 9.105296
_cell_length_b 12.096582
_cell_length_c 8.535454
_cell_angle_alpha 90.000000
_cell_angle_beta 123.606076
_cell_angle_gamma 90.000000
_cell_volume 782.990880
_symmetry_space_group_name_H-M "P 21"
_symmetry_group_IT_number 4
_symmetry_cell_setting 'monoclinic'
loop_
_space_group_symop_operation_xyz
x,y,z
-x,1/2+y,-z
loop_
_atom_site_type_symbol
_atom_site_label
_atom_site_fract_x
_atom_site_fract_y
_atom_site_fract_z
Si Si1 0.596415 0.367550 0.643332
Si Si2 0.349555 0.281514 0.250814
Si Si3 0.308768 0.053556 0.792210
Si Si4 0.647743 0.176623 0.904610
Si Si5 0.245032 0.052803 0.104603
Si Si6 0.117747 0.931743 0.440850
Si Si7 0.111446 0.466826 0.969452
Si Si8 0.670540 0.308565 0.223384
O O1 0.410566 0.337897 0.450630
O O2 0.668664 0.257043 0.768827
O O3 0.589463 0.468005 0.766462
O O4 0.726355 0.418328 0.592075
O O5 0.261735 0.161234 0.224847
O O6 0.517201 0.255603 0.238481
O O7 0.202682 0.358003 0.087634
O O8 0.444796 0.144008 0.808981
O O9 0.152645 0.041306 0.569487
O O10 0.399018 0.931791 0.865093
O O11 0.237398 0.091284 0.919241
O O12 0.717718 0.235256 0.102429
O O13 0.761791 0.069964 0.936628
O O14 0.064746 0.988601 0.036196
O O15 0.143631 0.823866 0.569551
O O16 0.932853 0.943121 0.241265
#
# Coordination Sequence:
#
# PCOD8046075 Si02
#       8
#     2   2   2   2   2   2   2   2
#     4  10  22  38  65  95 119 167 215 258 307 380
#     4  11  23  41  64  93 128 168 215 262 318 378
#     4  10  20  42  61  89 120 169 209 261 305 379
#     4  12  21  38  70  92 123 166 216 263 316 383
#     4  11  24  41  66  91 133 164 211 268 324 373
#     4   8  20  42  56  84 137 153 203 257 314 372
#     4  11  25  40  61  95 129 166 206 268 330 380
#     4   9  19  40  63  89 123 165 211 257 302 381
#
# _framework density 20.434463999999998
#
# number of rings (size 3 to 8) (size 9 to 14) (size 15 to 20)
#    0.750    1.000    3.750    0.000    8.750    0.000 
#    2.250    2.500    0.000    0.000    0.000    0.000 
#    0.000    0.000    0.000    0.000    0.000    0.000 
#
# Total GULP energy -198224.685593 kJ/mol
# GULP energy per Si atom -12389.042850 kJ/mol
# Density = 2.038795 g / cm^3
# Si number density = 20.434464 Si / 1000 Ang^3
#
#
#
# Elastic Constant Matrix: (Units=GPa)
#
#
# Indices 1 2 3 4 5 6 
#
# 1 38.3257 12.5024 28.9804 0.0000 -3.1627 0.0000
# 2 12.5024 113.3574 55.0340 0.0000 10.3179 0.0000
# 3 28.9804 55.0340 159.3010 0.0000 8.4351 0.0000
# 4 0.0000 0.0000 0.0000 28.1316 0.0000 -5.6299
# 5 -3.1627 10.3179 8.4351 0.0000 25.6975 0.0000
# 6 0.0000 0.0000 0.0000 -5.6299 0.0000 16.7044
#
#
#
# Elastic Compliance Matrix: (Units=1/GPa)
#
#
# Indices 1 2 3 4 5 6 
#
# 1 0.031233 -0.001311 -0.005557 0.000000 0.006194 0.000000
# 2 -0.001311 0.010904 -0.003346 0.000000 -0.003441 0.000000
# 3 -0.005557 -0.003346 0.008558 0.000000 -0.002150 0.000000
# 4 0.000000 0.000000 0.000000 0.038118 0.000000 0.012847
# 5 0.006194 -0.003441 -0.002150 0.000000 0.041764 0.000000
# 6 0.000000 0.000000 0.000000 0.012847 0.000000 0.064194
#
#
# Mechanical properties :
#
#
# Convention : Reuss Voigt Hill
#
# Bulk Modulus (GPa) = 33.03938 56.00198 44.52068
# Shear Modulus (GPa) = 22.19371 28.40452 25.29912
#
# Velocity S-wave (km/s) = 3.29917 3.73236 3.52243
# Velocity P-wave (km/s) = 5.54222 6.78521 6.19497
#
# Compressibility (1/GPa) = 0.03026691
#
# Stress axis : x y z
#
# Youngs Moduli (GPa) = 32.01747 91.70901 116.84551
#
# Poissons Ratio (x) = 0.12019 0.64933
# Poissons Ratio (y) = 0.04196 0.39101
# Poissons Ratio (z) = 0.17793 0.30690
#
# Static dielectric constant tensor:
#      x y z
#    x 3.276940 0.000000 -0.114830 
#    y 0.000000 3.741890 0.000000 
#    z -0.114830 0.000000 4.183360 
# 
# 
# High freq. dielectric constant tensor:
#      x y z
#    x 1.756480 0.000000 -0.014030 
#    y 0.000000 1.800460 0.000000 
#    z -0.014030 0.000000 1.812150 
# 
# From -- ./inp_files/6193.got.cif
#   From: 2010.03.12/outbox.cif.g09.slc.cpg/sg4_4_cif.got.tgz:6193.got - 2010.03.31 09:31:35.
