data_PCOD8046716
_publ_section_title
;
Structure prediction by ZEFSAII (Michael W. Deem and Ramdas Pophale) SiO2 
 PCOD8046716
Probable space group: P 21
;
_chemical_formula_sum "Si O2"
_cell_formula_units_Z 16
_cell_length_a 15.837912
_cell_length_b 9.063886
_cell_length_c 5.081938
_cell_angle_alpha 90.000000
_cell_angle_beta 66.304054
_cell_angle_gamma 90.000000
_cell_volume 668.021873
_symmetry_space_group_name_H-M "P 21"
_symmetry_group_IT_number 4
_symmetry_cell_setting 'monoclinic'
loop_
_space_group_symop_operation_xyz
x,y,z
-x,1/2+y,-z
loop_
_atom_site_type_symbol
_atom_site_label
_atom_site_fract_x
_atom_site_fract_y
_atom_site_fract_z
Si Si1 0.705768 0.813000 0.245825
Si Si2 0.982956 0.367762 0.057490
Si Si3 0.270422 0.062749 0.181804
Si Si4 0.445988 0.011990 0.284877
Si Si5 0.867709 0.755786 0.419649
Si Si6 0.135743 0.834960 0.274824
Si Si7 0.508483 0.840750 0.691207
Si Si8 0.861419 0.996043 0.831857
O O1 0.768149 0.783061 0.418218
O O2 0.610324 0.880911 0.462484
O O3 0.686453 0.662749 0.103338
O O4 0.758391 0.934102 0.006938
O O5 0.919147 0.340540 0.384101
O O6 0.067393 0.481486 0.012428
O O7 0.918570 0.414817 0.895279
O O8 0.045888 0.222836 0.884341
O O9 0.341751 0.059576 0.336646
O O10 0.162226 0.114496 0.371996
O O11 0.241631 0.896214 0.142610
O O12 0.503220 0.163417 0.266047
O O13 0.440602 0.911067 0.555221
O O14 0.491605 0.918788 0.991922
O O15 0.902719 0.895861 0.545445
O O16 0.150365 0.664110 0.212262
#
# Coordination Sequence:
#
# PCOD8046716 Si02
#       8
#     2   2   2   2   2   2   2   2
#     4  10  23  46  77 100 145 198 248 283 390 446
#     4  11  26  43  67 104 142 192 240 300 366 435
#     4  11  26  48  73 108 150 196 244 310 374 453
#     4  12  27  49  79 117 155 195 261 306 397 450
#     4  10  22  44  75  99 141 196 242 293 358 463
#     4  12  29  43  72 104 149 186 247 315 369 419
#     4  12  26  50  80 114 150 202 246 327 369 478
#     4  10  25  45  69 106 142 185 254 302 363 448
#
# _framework density 23.951312999999999
#
# number of rings (size 3 to 8) (size 9 to 14) (size 15 to 20)
#    0.000    1.000    2.500    2.250    8.750    3.000 
#    2.250    1.250    0.000    0.000    0.000    0.000 
#    0.000    0.000    0.000    0.000    0.000    0.000 
#
# Total GULP energy -198237.482115 kJ/mol
# GULP energy per Si atom -12389.842632 kJ/mol
# Density = 2.389680 g / cm^3
# Si number density = 23.951313 Si / 1000 Ang^3
#
#
#
# Elastic Constant Matrix: (Units=GPa)
#
#
# Indices 1 2 3 4 5 6 
#
# 1 107.0538 38.4264 20.7057 0.0000 17.5224 0.0000
# 2 38.4264 118.5607 37.2081 0.0000 4.0992 0.0000
# 3 20.7057 37.2081 105.1301 0.0000 13.0760 0.0000
# 4 0.0000 0.0000 0.0000 20.8782 0.0000 3.4190
# 5 17.5224 4.0992 13.0760 0.0000 41.7678 0.0000
# 6 0.0000 0.0000 0.0000 3.4190 0.0000 35.0869
#
#
#
# Elastic Compliance Matrix: (Units=1/GPa)
#
#
# Indices 1 2 3 4 5 6 
#
# 1 0.011349 -0.003370 -0.000511 0.000000 -0.004270 0.000000
# 2 -0.003370 0.010490 -0.003222 0.000000 0.001393 0.000000
# 3 -0.000511 -0.003222 0.011120 0.000000 -0.002951 0.000000
# 4 0.000000 0.000000 0.000000 0.048674 0.000000 -0.004743
# 5 -0.004270 0.001393 -0.002951 0.000000 0.026520 0.000000
# 6 0.000000 0.000000 0.000000 -0.004743 0.000000 0.028963
#
#
# Mechanical properties :
#
#
# Convention : Reuss Voigt Hill
#
# Bulk Modulus (GPa) = 53.32889 58.15836 55.74363
# Shear Modulus (GPa) = 31.73140 35.17354 33.45247
#
# Velocity S-wave (km/s) = 3.64377 3.83632 3.74128
# Velocity P-wave (km/s) = 6.32587 6.63006 6.47975
#
# Compressibility (1/GPa) = 0.01875156
#
# Stress axis : x y z
#
# Youngs Moduli (GPa) = 88.11672 95.33068 89.92726
#
# Poissons Ratio (x) = 0.32127 0.04598
# Poissons Ratio (y) = 0.29696 0.28976
# Poissons Ratio (z) = 0.04505 0.30717
#
# Static dielectric constant tensor:
#      x y z
#    x 4.447620 0.000000 0.097500 
#    y 0.000000 4.383010 0.000000 
#    z 0.097500 0.000000 4.565880 
# 
# 
# High freq. dielectric constant tensor:
#      x y z
#    x 1.954150 0.000000 0.005460 
#    y 0.000000 1.942280 0.000000 
#    z 0.005460 0.000000 1.965190 
# 
# From -- ./inp_files/4059.got.cif
#   From: 2010.03.12/outbox.cif.g09.slc.cpg/sg4_3_cif.got.tgz:4059.got - 2010.03.31 09:31:35.
