data_PCOD8046057
_publ_section_title
;
Structure prediction by ZEFSAII (Michael W. Deem and Ramdas Pophale) SiO2 
 PCOD8046057
Probable space group: P 21
;
_chemical_formula_sum "Si O2"
_cell_formula_units_Z 16
_cell_length_a 11.815137
_cell_length_b 5.058055
_cell_length_c 12.178929
_cell_angle_alpha 90.000000
_cell_angle_beta 86.913799
_cell_angle_gamma 90.000000
_cell_volume 726.776839
_symmetry_space_group_name_H-M "P 21"
_symmetry_group_IT_number 4
_symmetry_cell_setting 'monoclinic'
loop_
_space_group_symop_operation_xyz
x,y,z
-x,1/2+y,-z
loop_
_atom_site_type_symbol
_atom_site_label
_atom_site_fract_x
_atom_site_fract_y
_atom_site_fract_z
Si Si1 0.426840 0.063020 0.528401
Si Si2 0.281754 0.681093 0.892536
Si Si3 0.068783 0.731957 0.263994
Si Si4 0.612160 0.680424 0.219879
Si Si5 0.982367 0.218596 0.368941
Si Si6 0.935073 0.267461 0.983174
Si Si7 0.451810 0.581363 0.051119
Si Si8 0.180394 0.944524 0.456898
O O1 0.506572 0.285327 0.469585
O O2 0.395388 0.155058 0.650819
O O3 0.309275 0.038450 0.467015
O O4 0.333766 0.463558 0.809299
O O5 0.327478 0.661599 0.016515
O O6 0.307316 0.963360 0.838360
O O7 0.148789 0.655538 0.918763
O O8 0.972255 0.953342 0.296230
O O9 0.174515 0.776626 0.343071
O O10 0.010283 0.450864 0.283090
O O11 0.114034 0.757445 0.137973
O O12 0.484507 0.651642 0.175281
O O13 0.088149 0.186384 0.450916
O O14 0.864022 0.266680 0.438681
O O15 0.958231 0.572005 0.012704
O O16 0.466798 0.268282 0.029149
#
# Coordination Sequence:
#
# PCOD8046057 Si02
#       8
#     2   2   2   2   2   2   2   2
#     4  12  29  44  64 101 144 175 214 279 353 413
#     4  10  21  41  64  92 119 174 219 265 314 389
#     4  10  22  40  65  97 132 170 222 280 350 385
#     4  10  21  43  67  92 121 167 222 262 328 372
#     4  10  20  40  71  99 124 171 241 284 316 389
#     4  12  26  42  60  96 143 170 212 274 343 409
#     4   8  16  33  61  87 114 146 211 263 289 367
#     4  10  23  43  70  98 133 175 241 273 331 406
#
# _framework density 22.015008999999999
#
# number of rings (size 3 to 8) (size 9 to 14) (size 15 to 20)
#    0.750    1.000    1.250    2.250    1.750    4.000 
#    0.000    2.500    0.000    0.000    0.000    0.000 
#    0.000    0.000    0.000    0.000    0.000    0.000 
#
# Total GULP energy -198243.726653 kJ/mol
# GULP energy per Si atom -12390.232916 kJ/mol
# Density = 2.196490 g / cm^3
# Si number density = 22.015009 Si / 1000 Ang^3
#
#
#
# Elastic Constant Matrix: (Units=GPa)
#
#
# Indices 1 2 3 4 5 6 
#
# 1 82.8140 11.6713 22.5983 0.0000 -8.7273 0.0000
# 2 11.6713 104.6247 2.8939 0.0000 -8.6206 0.0000
# 3 22.5983 2.8939 87.1584 0.0000 4.3632 0.0000
# 4 0.0000 0.0000 0.0000 33.2786 0.0000 -1.6062
# 5 -8.7273 -8.6206 4.3632 0.0000 25.9193 0.0000
# 6 0.0000 0.0000 0.0000 -1.6062 0.0000 27.7531
#
#
#
# Elastic Compliance Matrix: (Units=1/GPa)
#
#
# Indices 1 2 3 4 5 6 
#
# 1 0.013772 -0.001025 -0.003784 0.000000 0.004933 0.000000
# 2 -0.001025 0.009925 -0.000213 0.000000 0.002992 0.000000
# 3 -0.003784 -0.000213 0.012635 0.000000 -0.003472 0.000000
# 4 0.000000 0.000000 0.000000 0.030133 0.000000 0.001744
# 5 0.004933 0.002992 -0.003472 0.000000 0.041822 0.000000
# 6 0.000000 0.000000 0.000000 0.001744 0.000000 0.036133
#
#
# Mechanical properties :
#
#
# Convention : Reuss Voigt Hill
#
# Bulk Modulus (GPa) = 38.04114 38.76935 38.40524
# Shear Modulus (GPa) = 30.63207 33.21912 31.92560
#
# Velocity S-wave (km/s) = 3.73422 3.88871 3.81225
# Velocity P-wave (km/s) = 5.99247 6.14910 6.07129
#
# Compressibility (1/GPa) = 0.02628733
#
# Stress axis : x y z
#
# Youngs Moduli (GPa) = 72.61045 100.75836 79.14333
#
# Poissons Ratio (x) = 0.10330 0.29946
# Poissons Ratio (y) = 0.07444 0.01690
# Poissons Ratio (z) = 0.27474 0.02151
#
# Static dielectric constant tensor:
#      x y z
#    x 3.785770 0.000000 0.264720 
#    y 0.000000 4.065210 0.000000 
#    z 0.264720 0.000000 3.776490 
# 
# 
# High freq. dielectric constant tensor:
#      x y z
#    x 1.840920 0.000000 0.018650 
#    y 0.000000 1.880090 0.000000 
#    z 0.018650 0.000000 1.856780 
# 
# From -- ./inp_files/11622.got.cif
#   From: 2010.03.12/outbox.cif.g09.slc.cpg/sg4_6_cif.got.tgz:11622.got - 2010.03.31 09:31:35.
