data_PCOD8046780
_publ_section_title
;
Structure prediction by ZEFSAII (Michael W. Deem and Ramdas Pophale) SiO2 
 PCOD8046780
Probable space group: P 21
;
_chemical_formula_sum "Si O2"
_cell_formula_units_Z 10
_cell_length_a 14.380829
_cell_length_b 5.241803
_cell_length_c 13.843150
_cell_angle_alpha 90.000000
_cell_angle_beta 159.079558
_cell_angle_gamma 90.000000
_cell_volume 372.609965
_symmetry_space_group_name_H-M "P 21"
_symmetry_group_IT_number 4
_symmetry_cell_setting 'monoclinic'
loop_
_space_group_symop_operation_xyz
x,y,z
-x,1/2+y,-z
loop_
_atom_site_type_symbol
_atom_site_label
_atom_site_fract_x
_atom_site_fract_y
_atom_site_fract_z
Si Si1 0.246192 0.406130 0.462508
Si Si2 0.492366 0.757294 0.837601
Si Si3 0.227971 0.593767 0.033116
Si Si4 0.664697 0.003901 0.656208
Si Si5 0.172312 0.050256 0.671423
O O1 0.248434 0.609877 0.551775
O O2 0.534296 0.290235 0.737849
O O3 0.179720 0.538552 0.294015
O O4 0.023402 0.199607 0.267120
O O5 0.369823 0.999858 0.774082
O O6 0.689544 0.840874 0.944414
O O7 0.648698 0.570958 0.060381
O O8 0.151567 0.533303 0.070761
O O9 0.557713 0.716551 0.555619
O O10 0.980417 0.810463 0.498390
#
# Coordination Sequence:
#
# PCOD8046780 Si02
#       5
#     2   2   2   2   2
#     4  11  28  49  85 123 172 223 282 342 424 502
#     4  12  30  54  82 124 166 224 284 364 416 518
#     4  11  28  49  85 123 172 223 282 342 424 502
#     4  10  22  52  80 124 174 224 276 344 412 504
#     4  12  32  54  88 118 168 220 292 356 438 502
#
# _framework density 26.837710999999999
#
# number of rings (size 3 to 8) (size 9 to 14) (size 15 to 20)
#    0.000    0.800    2.000    1.200   14.000    6.400 
#    0.000    0.000    0.000    0.000    0.000    0.000 
#    0.000    0.000    0.000    0.000    0.000    0.000 
#
# Total GULP energy -124040.605302 kJ/mol
# GULP energy per Si atom -12404.060530 kJ/mol
# Density = 2.677663 g / cm^3
# Si number density = 26.837711 Si / 1000 Ang^3
#
#
#
# Elastic Constant Matrix: (Units=GPa)
#
#
# Indices 1 2 3 4 5 6 
#
# 1 133.1601 41.3371 55.4396 0.0000 -44.3098 0.0000
# 2 41.3371 101.2115 39.2877 0.0000 -14.1981 0.0000
# 3 55.4396 39.2877 118.9904 0.0000 -12.1722 0.0000
# 4 0.0000 0.0000 0.0000 59.1853 0.0000 -1.8534
# 5 -44.3098 -14.1981 -12.1722 0.0000 30.7973 0.0000
# 6 0.0000 0.0000 0.0000 -1.8534 0.0000 47.4716
#
#
#
# Elastic Compliance Matrix: (Units=1/GPa)
#
#
# Indices 1 2 3 4 5 6 
#
# 1 0.017955 -0.002060 -0.005356 0.000000 0.022766 0.000000
# 2 -0.002060 0.012038 -0.002866 0.000000 0.001453 0.000000
# 3 -0.005356 -0.002866 0.011383 0.000000 -0.004529 0.000000
# 4 0.000000 0.000000 0.000000 0.016917 0.000000 0.000660
# 5 0.022766 0.001453 -0.004529 0.000000 0.064104 0.000000
# 6 0.000000 0.000000 0.000000 0.000660 0.000000 0.021091
#
#
# Mechanical properties :
#
#
# Convention : Reuss Voigt Hill
#
# Bulk Modulus (GPa) = 48.05392 69.49896 58.77644
# Shear Modulus (GPa) = 29.24149 41.97736 35.60943
#
# Velocity S-wave (km/s) = 3.30444 3.95918 3.64654
# Velocity P-wave (km/s) = 5.70117 6.84488 6.29904
#
# Compressibility (1/GPa) = 0.02080996
#
# Stress axis : x y z
#
# Youngs Moduli (GPa) = 55.69539 83.06933 87.85280
#
# Poissons Ratio (x) = 0.17115 0.47057
# Poissons Ratio (y) = 0.11475 0.25180
# Poissons Ratio (z) = 0.29832 0.23809
#
# Static dielectric constant tensor:
#      x y z
#    x 5.410640 0.000000 -0.350890 
#    y 0.000000 4.800070 0.000000 
#    z -0.350890 0.000000 4.692900 
# 
# 
# High freq. dielectric constant tensor:
#      x y z
#    x 2.098600 0.000000 -0.018160 
#    y 0.000000 2.080290 0.000000 
#    z -0.018160 0.000000 2.072250 
# 
# From -- ./inp_files/14019.got.cif
#   From: 2010.03.12/outbox.cif.g09.slc.cpg/sg4_8_cif.got.tgz:14019.got - 2010.03.31 09:31:35.
