data_PCOD8046769
_publ_section_title
;
Structure prediction by ZEFSAII (Michael W. Deem and Ramdas Pophale) SiO2 
 PCOD8046769
Probable space group: P 21
;
_chemical_formula_sum "Si O2"
_cell_formula_units_Z 16
_cell_length_a 8.848372
_cell_length_b 11.700692
_cell_length_c 8.670118
_cell_angle_alpha 90.000000
_cell_angle_beta 132.460068
_cell_angle_gamma 90.000000
_cell_volume 662.228662
_symmetry_space_group_name_H-M "P 21"
_symmetry_group_IT_number 4
_symmetry_cell_setting 'monoclinic'
loop_
_space_group_symop_operation_xyz
x,y,z
-x,1/2+y,-z
loop_
_atom_site_type_symbol
_atom_site_label
_atom_site_fract_x
_atom_site_fract_y
_atom_site_fract_z
Si Si1 0.635670 0.340920 0.408675
Si Si2 0.064791 0.650479 0.317590
Si Si3 0.232945 0.011736 0.724804
Si Si4 0.957130 0.060612 0.024167
Si Si5 0.557048 0.171824 0.783334
Si Si6 0.517494 0.925734 0.170902
Si Si7 0.768132 0.857338 0.063860
Si Si8 0.581116 0.538489 0.597823
O O1 0.723322 0.215491 0.502740
O O2 0.804738 0.413896 0.428917
O O3 0.438769 0.325412 0.167109
O O4 0.587193 0.411511 0.529039
O O5 0.087023 0.565597 0.188698
O O6 0.986022 0.573838 0.406638
O O7 0.884250 0.740262 0.165840
O O8 0.411014 0.097546 0.791479
O O9 0.308181 0.957811 0.937933
O O10 0.795385 0.148036 0.993440
O O11 0.911753 0.934337 0.055438
O O12 0.191996 0.090665 0.220660
O O13 0.511214 0.303787 0.768122
O O14 0.529289 0.130978 0.586575
O O15 0.544519 0.019792 0.327360
O O16 0.709445 0.919684 0.185412
#
# Coordination Sequence:
#
# PCOD8046769 Si02
#       8
#     2   2   2   2   2   2   2   2
#     4  10  23  47  70 101 151 178 243 294 352 433
#     4  12  24  44  75 107 141 189 233 300 366 418
#     4  10  22  47  71 106 145 179 247 293 351 435
#     4  12  24  43  73 101 147 183 236 299 362 416
#     4  11  24  46  69 105 146 190 229 299 367 419
#     4  11  22  47  76  99 146 190 239 292 353 426
#     4  11  24  48  72 104 143 192 236 298 357 429
#     4  11  23  44  68 107 143 183 243 297 342 438
#
# _framework density 24.160837999999998
#
# number of rings (size 3 to 8) (size 9 to 14) (size 15 to 20)
#    0.000    1.000    7.500    0.750    0.000    2.000 
#   11.250    1.250    0.000    0.000    0.000    0.000 
#    0.000    0.000    0.000    0.000    0.000    0.000 
#
# Total GULP energy -198354.778032 kJ/mol
# GULP energy per Si atom -12397.173627 kJ/mol
# Density = 2.410585 g / cm^3
# Si number density = 24.160838 Si / 1000 Ang^3
#
#
#
# Elastic Constant Matrix: (Units=GPa)
#
#
# Indices 1 2 3 4 5 6 
#
# 1 126.9777 33.4456 35.1202 0.0000 -13.4541 0.0000
# 2 33.4456 89.1757 23.7622 0.0000 -18.1655 0.0000
# 3 35.1202 23.7622 76.3510 0.0000 -15.4955 0.0000
# 4 0.0000 0.0000 0.0000 34.2452 0.0000 3.3541
# 5 -13.4541 -18.1655 -15.4955 0.0000 41.6596 0.0000
# 6 0.0000 0.0000 0.0000 3.3541 0.0000 24.8174
#
#
#
# Elastic Compliance Matrix: (Units=1/GPa)
#
#
# Indices 1 2 3 4 5 6 
#
# 1 0.009576 -0.002522 -0.003478 0.000000 0.000699 0.000000
# 2 -0.002522 0.013625 -0.002206 0.000000 0.004306 0.000000
# 3 -0.003478 -0.002206 0.016182 0.000000 0.003934 0.000000
# 4 0.000000 0.000000 0.000000 0.029593 0.000000 -0.004000
# 5 0.000699 0.004306 0.003934 0.000000 0.027571 0.000000
# 6 0.000000 0.000000 0.000000 -0.004000 0.000000 0.040835
#
#
# Mechanical properties :
#
#
# Convention : Reuss Voigt Hill
#
# Bulk Modulus (GPa) = 43.53507 53.01780 48.27644
# Shear Modulus (GPa) = 30.96926 33.48954 32.22940
#
# Velocity S-wave (km/s) = 3.58410 3.72709 3.65629
# Velocity P-wave (km/s) = 5.93175 6.36497 6.15218
#
# Compressibility (1/GPa) = 0.02296999
#
# Stress axis : x y z
#
# Youngs Moduli (GPa) = 104.43048 73.39545 61.79648
#
# Poissons Ratio (x) = 0.18512 0.21492
# Poissons Ratio (y) = 0.26340 0.13634
# Poissons Ratio (z) = 0.36319 0.16193
#
# Static dielectric constant tensor:
#      x y z
#    x 4.673640 0.000000 -0.098280 
#    y 0.000000 4.387460 0.000000 
#    z -0.098280 0.000000 4.307180 
# 
# 
# High freq. dielectric constant tensor:
#      x y z
#    x 1.978330 0.000000 -0.002960 
#    y 0.000000 1.956280 0.000000 
#    z -0.002960 0.000000 1.950530 
# 
# From -- ./inp_files/6482.got.cif
#   From: 2010.03.12/outbox.cif.g09.slc.cpg/sg4_4_cif.got.tgz:6482.got - 2010.03.31 09:31:35.
