data_PCOD8046827
_publ_section_title
;
Structure prediction by ZEFSAII (Michael W. Deem and Ramdas Pophale) SiO2 
 PCOD8046827
Probable space group: P 21
;
_chemical_formula_sum "Si O2"
_cell_formula_units_Z 14
_cell_length_a 16.511043
_cell_length_b 5.254635
_cell_length_c 9.953619
_cell_angle_alpha 90.000000
_cell_angle_beta 137.342571
_cell_angle_gamma 90.000000
_cell_volume 585.167349
_symmetry_space_group_name_H-M "P 21"
_symmetry_group_IT_number 4
_symmetry_cell_setting 'monoclinic'
loop_
_space_group_symop_operation_xyz
x,y,z
-x,1/2+y,-z
loop_
_atom_site_type_symbol
_atom_site_label
_atom_site_fract_x
_atom_site_fract_y
_atom_site_fract_z
Si Si1 0.852229 0.963680 0.264910
Si Si2 0.621735 0.714879 0.045942
Si Si3 0.457355 0.870807 0.276874
Si Si4 0.955152 0.457992 0.278659
Si Si5 0.949972 0.220103 0.992284
Si Si6 0.402231 0.985153 0.714455
Si Si7 0.323256 0.712100 0.376420
O O1 0.711577 0.942443 0.120849
O O2 0.896588 0.738080 0.219212
O O3 0.922673 0.941810 0.489900
O O4 0.863497 0.242598 0.217075
O O5 0.665999 0.628705 0.249093
O O6 0.628257 0.521042 0.929594
O O7 0.480745 0.775365 0.890173
O O8 0.587349 0.987749 0.472217
O O9 0.492098 0.612192 0.245366
O O10 0.380626 0.851617 0.318642
O O11 0.988051 0.386584 0.167880
O O12 0.811231 0.130736 0.822754
O O13 0.978886 0.448884 0.920372
O O14 0.307209 0.886371 0.490185
#
# Coordination Sequence:
#
# PCOD8046827 Si02
#       7
#     2   2   2   2   2   2   2
#     4  10  23  41  74  95 135 176 225 292 339 413
#     4  11  24  39  68  99 134 177 217 291 350 419
#     4  11  23  44  67 103 133 180 233 284 355 420
#     4  10  23  47  65 104 128 178 240 278 341 411
#     4  12  29  47  71 105 144 194 237 293 350 423
#     4  11  24  43  63 104 134 172 226 285 358 417
#     4  11  26  43  74  96 144 185 236 291 349 431
#
# _framework density 23.924779000000001
#
# number of rings (size 3 to 8) (size 9 to 14) (size 15 to 20)
#    0.000    1.143    2.857    1.714    8.000    0.000 
#    0.000    0.000    0.000    0.000    0.000    0.000 
#    0.000    0.000    0.000    0.000    0.000    0.000 
#
# Total GULP energy -173445.511540 kJ/mol
# GULP energy per Si atom -12388.965110 kJ/mol
# Density = 2.387033 g / cm^3
# Si number density = 23.924779 Si / 1000 Ang^3
#
#
#
# Elastic Constant Matrix: (Units=GPa)
#
#
# Indices 1 2 3 4 5 6 
#
# 1 68.5728 -2.5658 39.7726 0.0000 -0.8899 0.0000
# 2 -2.5658 50.5352 7.8997 0.0000 5.9752 0.0000
# 3 39.7726 7.8997 74.9091 0.0000 -7.6231 0.0000
# 4 0.0000 0.0000 0.0000 27.6788 0.0000 1.1863
# 5 -0.8899 5.9752 -7.6231 0.0000 44.8951 0.0000
# 6 0.0000 0.0000 0.0000 1.1863 0.0000 25.2131
#
#
#
# Elastic Compliance Matrix: (Units=1/GPa)
#
#
# Indices 1 2 3 4 5 6 
#
# 1 0.021668 0.003226 -0.012053 0.000000 -0.002046 0.000000
# 2 0.003226 0.021031 -0.004283 0.000000 -0.003462 0.000000
# 3 -0.012053 -0.004283 0.020590 0.000000 0.003827 0.000000
# 4 0.000000 0.000000 0.000000 0.036202 0.000000 -0.001703
# 5 -0.002046 -0.003462 0.003827 0.000000 0.023344 0.000000
# 6 0.000000 0.000000 0.000000 -0.001703 0.000000 0.039742
#
#
# Mechanical properties :
#
#
# Convention : Reuss Voigt Hill
#
# Bulk Modulus (GPa) = 26.97654 31.58112 29.27883
# Shear Modulus (GPa) = 24.85665 29.48477 27.17071
#
# Velocity S-wave (km/s) = 3.22677 3.51436 3.37363
# Velocity P-wave (km/s) = 5.01824 5.44944 5.23828
#
# Compressibility (1/GPa) = 0.03706925
#
# Stress axis : x y z
#
# Youngs Moduli (GPa) = 46.15102 47.54903 48.56692
#
# Poissons Ratio (x) = -0.15341 0.58538
# Poissons Ratio (y) = -0.14889 0.20802
# Poissons Ratio (z) = 0.55626 0.20366
#
# Static dielectric constant tensor:
#      x y z
#    x 4.088580 0.000000 -0.332040 
#    y 0.000000 4.278720 0.000000 
#    z -0.332040 0.000000 4.470380 
# 
# 
# High freq. dielectric constant tensor:
#      x y z
#    x 1.942960 0.000000 -0.013010 
#    y 0.000000 1.944020 0.000000 
#    z -0.013010 0.000000 1.962060 
# 
# From -- ./inp_files/7146.got.cif
#   From: 2010.03.12/outbox.cif.g09.slc.cpg/sg4_4_cif.got.tgz:7146.got - 2010.03.31 09:31:35.
