data_PCOD8046431
_publ_section_title
;
Structure prediction by ZEFSAII (Michael W. Deem and Ramdas Pophale) SiO2 
 PCOD8046431
Probable space group: P 21
;
_chemical_formula_sum "Si O2"
_cell_formula_units_Z 16
_cell_length_a 10.403930
_cell_length_b 8.544069
_cell_length_c 13.004837
_cell_angle_alpha 90.000000
_cell_angle_beta 145.251324
_cell_angle_gamma 90.000000
_cell_volume 658.908339
_symmetry_space_group_name_H-M "P 21"
_symmetry_group_IT_number 4
_symmetry_cell_setting 'monoclinic'
loop_
_space_group_symop_operation_xyz
x,y,z
-x,1/2+y,-z
loop_
_atom_site_type_symbol
_atom_site_label
_atom_site_fract_x
_atom_site_fract_y
_atom_site_fract_z
Si Si1 0.421172 0.523590 0.669394
Si Si2 0.516874 0.966994 0.882409
Si Si3 0.837479 0.544176 0.092134
Si Si4 0.121484 0.280095 0.374859
Si Si5 0.894664 0.262091 0.429246
Si Si6 0.923432 0.834129 0.021729
Si Si7 0.769648 0.624502 0.751165
Si Si8 0.676155 0.750867 0.164210
O O1 0.331114 0.357629 0.571604
O O2 0.212609 0.617079 0.580983
O O3 0.518392 0.617663 0.634285
O O4 0.611891 0.497193 0.881167
O O5 0.276169 0.907880 0.682130
O O6 0.508943 0.156460 0.887782
O O7 0.703732 0.921149 0.922277
O O8 0.564843 0.887457 0.024825
O O9 0.976487 0.680503 0.124746
O O10 0.770523 0.609296 0.158401
O O11 0.997210 0.398209 0.216001
O O12 0.221840 0.144332 0.366673
O O13 0.951118 0.210367 0.348496
O O14 0.123024 0.321768 0.634882
O O15 0.890901 0.773052 0.884271
O O16 0.126054 0.955961 0.151814
#
# Coordination Sequence:
#
# PCOD8046431 Si02
#       8
#     2   2   2   2   2   2   2   2
#     4  11  24  48  69 102 151 187 235 297 362 425
#     4  11  24  45  73 107 142 192 231 305 356 428
#     4  10  21  44  74  99 143 190 232 295 361 416
#     4  12  27  45  74 112 142 188 244 301 357 437
#     4  12  23  44  70 107 145 184 240 293 361 429
#     4  10  23  45  75 104 142 192 246 292 354 440
#     4  11  24  48  73 108 143 193 243 295 363 431
#     4  11  24  41  72 105 144 188 235 292 364 422
#
# _framework density 24.282586999999999
#
# number of rings (size 3 to 8) (size 9 to 14) (size 15 to 20)
#    0.000    1.000    6.250    1.500    3.500    2.000 
#    9.000    0.000    0.000    0.000    0.000    0.000 
#    0.000    0.000    0.000    0.000    0.000    0.000 
#
# Total GULP energy -198382.801091 kJ/mol
# GULP energy per Si atom -12398.925068 kJ/mol
# Density = 2.422732 g / cm^3
# Si number density = 24.282587 Si / 1000 Ang^3
#
#
#
# Elastic Constant Matrix: (Units=GPa)
#
#
# Indices 1 2 3 4 5 6 
#
# 1 122.9029 25.7627 14.3568 0.0000 2.8165 0.0000
# 2 25.7627 72.1783 37.8339 0.0000 6.3577 0.0000
# 3 14.3568 37.8339 115.7084 0.0000 -1.9484 0.0000
# 4 0.0000 0.0000 0.0000 34.5392 0.0000 -3.2793
# 5 2.8165 6.3577 -1.9484 0.0000 15.2057 0.0000
# 6 0.0000 0.0000 0.0000 -3.2793 0.0000 32.8792
#
#
#
# Elastic Compliance Matrix: (Units=1/GPa)
#
#
# Indices 1 2 3 4 5 6 
#
# 1 0.008797 -0.003056 -0.000098 0.000000 -0.000364 0.000000
# 2 -0.003056 0.018735 -0.005882 0.000000 -0.008021 0.000000
# 3 -0.000098 -0.005882 0.010642 0.000000 0.003841 0.000000
# 4 0.000000 0.000000 0.000000 0.029229 0.000000 0.002915
# 5 -0.000364 -0.008021 0.003841 0.000000 0.069678 0.000000
# 6 0.000000 0.000000 0.000000 0.002915 0.000000 0.030705
#
#
# Mechanical properties :
#
#
# Convention : Reuss Voigt Hill
#
# Bulk Modulus (GPa) = 49.74687 51.85516 50.80101
# Shear Modulus (GPa) = 25.96584 32.04722 29.00653
#
# Velocity S-wave (km/s) = 3.27359 3.63679 3.45996
# Velocity P-wave (km/s) = 5.90082 6.24790 6.07684
#
# Compressibility (1/GPa) = 0.02010177
#
# Stress axis : x y z
#
# Youngs Moduli (GPa) = 113.67515 53.37582 93.96294
#
# Poissons Ratio (x) = 0.16313 0.00924
# Poissons Ratio (y) = 0.34743 0.55267
# Poissons Ratio (z) = 0.01117 0.31394
#
# Static dielectric constant tensor:
#      x y z
#    x 4.665530 0.000000 -0.088940 
#    y 0.000000 4.157830 0.000000 
#    z -0.088940 0.000000 4.214160 
# 
# 
# High freq. dielectric constant tensor:
#      x y z
#    x 1.982990 0.000000 -0.006270 
#    y 0.000000 1.957340 0.000000 
#    z -0.006270 0.000000 1.951400 
# 
# From -- ./inp_files/13981.got.cif
#   From: 2010.03.12/outbox.cif.g09.slc.cpg/sg4_7_cif.got.tgz:13981.got - 2010.03.31 09:31:35.
