data_PCOD8046767
_publ_section_title
;
Structure prediction by ZEFSAII (Michael W. Deem and Ramdas Pophale) SiO2 
 PCOD8046767
Probable space group: P 21
;
_chemical_formula_sum "Si O2"
_cell_formula_units_Z 14
_cell_length_a 8.716443
_cell_length_b 15.432583
_cell_length_c 4.980887
_cell_angle_alpha 90.000000
_cell_angle_beta 49.397084
_cell_angle_gamma 90.000000
_cell_volume 508.701066
_symmetry_space_group_name_H-M "P 21"
_symmetry_group_IT_number 4
_symmetry_cell_setting 'monoclinic'
loop_
_space_group_symop_operation_xyz
x,y,z
-x,1/2+y,-z
loop_
_atom_site_type_symbol
_atom_site_label
_atom_site_fract_x
_atom_site_fract_y
_atom_site_fract_z
Si Si1 0.510371 0.657670 0.905141
Si Si2 0.076335 0.769326 0.938045
Si Si3 0.380924 0.429990 0.414003
Si Si4 0.515905 0.772934 0.380832
Si Si5 0.928493 0.861853 0.629224
Si Si6 0.136513 0.591882 0.660796
Si Si7 0.220153 0.008734 0.235334
O O1 0.601918 0.730102 0.008066
O O2 0.287349 0.629280 0.258720
O O3 0.502438 0.698128 0.621005
O O4 0.659720 0.575181 0.709275
O O5 0.288767 0.806157 0.586226
O O6 0.086714 0.664686 0.939677
O O7 0.906444 0.799325 0.914560
O O8 0.033282 0.805416 0.278833
O O9 0.355466 0.355799 0.667916
O O10 0.287299 0.397411 0.234472
O O11 0.249673 0.510923 0.673791
O O12 0.614581 0.453421 0.116489
O O13 0.072565 0.941856 0.556437
O O14 0.918968 0.563658 0.804671
#
# Coordination Sequence:
#
# PCOD8046767 Si02
#       7
#     2   2   2   2   2   2   2
#     4  10  24  44  69 104 137 183 231 283 339 416
#     4  11  23  46  72 100 141 184 234 285 344 412
#     4  10  23  44  70 105 141 179 235 285 347 412
#     4  11  23  44  73 101 140 181 232 285 338 411
#     4  11  25  44  71 102 138 187 230 287 343 416
#     4   9  22  43  70 100 144 179 232 285 347 412
#     4  10  22  47  69 104 141 183 224 290 352 409
#
# _framework density 27.521076000000001
#
# number of rings (size 3 to 8) (size 9 to 14) (size 15 to 20)
#    0.000    1.714    1.429    1.714    4.000    1.143 
#    2.571   24.286    0.000    0.000    0.000    0.000 
#    0.000    0.000    0.000    0.000    0.000    0.000 
#
# Total GULP energy -173574.982449 kJ/mol
# GULP energy per Si atom -12398.213032 kJ/mol
# Density = 2.745844 g / cm^3
# Si number density = 27.521076 Si / 1000 Ang^3
#
#
#
# Elastic Constant Matrix: (Units=GPa)
#
#
# Indices 1 2 3 4 5 6 
#
# 1 118.0660 51.7698 27.6196 0.0000 -14.5095 0.0000
# 2 51.7698 155.4455 32.5449 0.0000 -10.9695 0.0000
# 3 27.6196 32.5449 80.3022 0.0000 -11.1793 0.0000
# 4 0.0000 0.0000 0.0000 9.4251 0.0000 -16.9445
# 5 -14.5095 -10.9695 -11.1793 0.0000 47.2342 0.0000
# 6 0.0000 0.0000 0.0000 -16.9445 0.0000 50.9519
#
#
#
# Elastic Compliance Matrix: (Units=1/GPa)
#
#
# Indices 1 2 3 4 5 6 
#
# 1 0.010496 -0.002901 -0.002150 0.000000 0.002042 0.000000
# 2 -0.002901 0.007877 -0.002134 0.000000 0.000433 0.000000
# 3 -0.002150 -0.002134 0.014370 0.000000 0.002245 0.000000
# 4 0.000000 0.000000 0.000000 0.263849 0.000000 0.087745
# 5 0.002042 0.000433 0.002245 0.000000 0.022430 0.000000
# 6 0.000000 0.000000 0.000000 0.087745 0.000000 0.048807
#
#
# Mechanical properties :
#
#
# Convention : Reuss Voigt Hill
#
# Bulk Modulus (GPa) = 54.43165 64.18691 59.30928
# Shear Modulus (GPa) = 12.87589 37.64754 25.26172
#
# Velocity S-wave (km/s) = 2.16534 3.70260 3.03298
# Velocity P-wave (km/s) = 5.10615 6.45387 5.81916
#
# Compressibility (1/GPa) = 0.01837167
#
# Stress axis : x y z
#
# Youngs Moduli (GPa) = 95.27559 126.95580 69.59007
#
# Poissons Ratio (x) = 0.36835 0.14961
# Poissons Ratio (y) = 0.27643 0.14851
# Poissons Ratio (z) = 0.20484 0.27094
#
# Static dielectric constant tensor:
#      x y z
#    x 5.146240 0.000000 -0.539490 
#    y 0.000000 5.468840 0.000000 
#    z -0.539490 0.000000 4.646860 
# 
# 
# High freq. dielectric constant tensor:
#      x y z
#    x 2.119540 0.000000 -0.031710 
#    y 0.000000 2.130000 0.000000 
#    z -0.031710 0.000000 2.101200 
# 
# From -- ./inp_files/1465.got.cif
#   From: 2010.03.12/outbox.cif.g09.slc.cpg/sg4_1_cif.got.tgz:1465.got - 2010.03.31 09:31:35.
