data_PCOD8046475
_publ_section_title
;
Structure prediction by ZEFSAII (Michael W. Deem and Ramdas Pophale) SiO2 
 PCOD8046475
Probable space group: P 21
;
_chemical_formula_sum "Si O2"
_cell_formula_units_Z 16
_cell_length_a 17.356099
_cell_length_b 9.129233
_cell_length_c 14.599017
_cell_angle_alpha 90.000000
_cell_angle_beta 17.683586
_cell_angle_gamma 90.000000
_cell_volume 702.652825
_symmetry_space_group_name_H-M "P 21"
_symmetry_group_IT_number 4
_symmetry_cell_setting 'monoclinic'
loop_
_space_group_symop_operation_xyz
x,y,z
-x,1/2+y,-z
loop_
_atom_site_type_symbol
_atom_site_label
_atom_site_fract_x
_atom_site_fract_y
_atom_site_fract_z
Si Si1 0.385011 0.283570 0.373537
Si Si2 0.678652 0.262297 0.762803
Si Si3 0.719301 0.696513 0.134347
Si Si4 0.176255 0.819578 0.718322
Si Si5 0.919259 0.016136 0.380061
Si Si6 0.909379 0.283593 0.687066
Si Si7 0.284369 0.085638 0.327780
Si Si8 0.211860 0.144700 0.745206
O O1 0.211103 0.427197 0.555119
O O2 0.292469 0.138845 0.423311
O O3 0.381029 0.243742 0.485103
O O4 0.659055 0.323097 0.026333
O O5 0.896716 0.290300 0.591761
O O6 0.617771 0.420522 0.788240
O O7 0.762133 0.160166 0.585152
O O8 0.442979 0.193962 0.082415
O O9 0.474781 0.776472 0.365668
O O10 0.640588 0.635068 0.324216
O O11 0.981559 0.794301 0.851758
O O12 0.802067 0.565977 0.971546
O O13 0.162737 0.987885 0.758593
O O14 0.062959 0.721838 0.929846
O O15 0.909678 0.913641 0.481359
O O16 0.000219 0.119352 0.612867
#
# Coordination Sequence:
#
# PCOD8046475 Si02
#       8
#     2   2   2   2   2   2   2   2
#     4  10  23  42  64  96 128 178 218 285 338 412
#     4  11  22  41  63  91 133 166 224 279 346 412
#     4  10  26  42  70 105 137 183 231 282 350 404
#     4  10  25  44  68 100 139 181 235 284 349 402
#     4  11  24  42  67  95 133 180 225 288 343 418
#     4  10  22  40  63  95 125 172 227 270 355 401
#     4  10  22  38  61  91 125 168 217 275 340 413
#     4  10  24  43  70  95 142 178 235 285 345 412
#
# _framework density 22.770845999999999
#
# number of rings (size 3 to 8) (size 9 to 14) (size 15 to 20)
#    0.750    1.000    0.000    3.750    5.250    5.000 
#    0.000    0.000    0.000    0.000    0.000    0.000 
#    0.000    0.000    0.000    0.000    0.000    0.000 
#
# Total GULP energy -198214.717382 kJ/mol
# GULP energy per Si atom -12388.419836 kJ/mol
# Density = 2.271902 g / cm^3
# Si number density = 22.770846 Si / 1000 Ang^3
#
#
#
# Elastic Constant Matrix: (Units=GPa)
#
#
# Indices 1 2 3 4 5 6 
#
# 1 64.0054 17.1355 11.8684 0.0000 5.3164 0.0000
# 2 17.1355 138.5609 31.8618 0.0000 3.3991 0.0000
# 3 11.8684 31.8618 79.4480 0.0000 -2.8958 0.0000
# 4 0.0000 0.0000 0.0000 37.5238 0.0000 8.3374
# 5 5.3164 3.3991 -2.8958 0.0000 38.3932 0.0000
# 6 0.0000 0.0000 0.0000 8.3374 0.0000 16.2974
#
#
#
# Elastic Compliance Matrix: (Units=1/GPa)
#
#
# Indices 1 2 3 4 5 6 
#
# 1 0.016590 -0.001549 -0.001941 0.000000 -0.002307 0.000000
# 2 -0.001549 0.008129 -0.003056 0.000000 -0.000736 0.000000
# 3 -0.001941 -0.003056 0.014161 0.000000 0.001607 0.000000
# 4 0.000000 0.000000 0.000000 0.030067 0.000000 -0.015382
# 5 -0.002307 -0.000736 0.001607 0.000000 0.026552 0.000000
# 6 0.000000 0.000000 0.000000 -0.015382 0.000000 0.069229
#
#
# Mechanical properties :
#
#
# Convention : Reuss Voigt Hill
#
# Bulk Modulus (GPa) = 38.77646 44.86063 41.81854
# Shear Modulus (GPa) = 26.82182 33.18611 30.00397
#
# Velocity S-wave (km/s) = 3.43578 3.82173 3.63388
# Velocity P-wave (km/s) = 5.72760 6.26241 6.00097
#
# Compressibility (1/GPa) = 0.02578884
#
# Stress axis : x y z
#
# Youngs Moduli (GPa) = 60.27786 123.01270 70.61715
#
# Poissons Ratio (x) = 0.19050 0.13709
# Poissons Ratio (y) = 0.09335 0.21578
# Poissons Ratio (z) = 0.11702 0.37588
#
# Static dielectric constant tensor:
#      x y z
#    x 4.080540 0.000000 0.003080 
#    y 0.000000 3.964560 0.000000 
#    z 0.003080 0.000000 4.015010 
# 
# 
# High freq. dielectric constant tensor:
#      x y z
#    x 1.887810 0.000000 0.006450 
#    y 0.000000 1.900560 0.000000 
#    z 0.006450 0.000000 1.891880 
# 
# From -- ./inp_files/14324.got.cif
#   From: 2010.03.12/outbox.cif.g09.slc.cpg/sg4_8_cif.got.tgz:14324.got - 2010.03.31 09:31:35.
