data_PCOD8046807
_publ_section_title
;
Structure prediction by ZEFSAII (Michael W. Deem and Ramdas Pophale) SiO2 
 PCOD8046807
Probable space group: P 21
;
_chemical_formula_sum "Si O2"
_cell_formula_units_Z 16
_cell_length_a 16.775325
_cell_length_b 5.486960
_cell_length_c 22.979193
_cell_angle_alpha 90.000000
_cell_angle_beta 19.384601
_cell_angle_gamma 90.000000
_cell_volume 702.028475
_symmetry_space_group_name_H-M "P 21"
_symmetry_group_IT_number 4
_symmetry_cell_setting 'monoclinic'
loop_
_space_group_symop_operation_xyz
x,y,z
-x,1/2+y,-z
loop_
_atom_site_type_symbol
_atom_site_label
_atom_site_fract_x
_atom_site_fract_y
_atom_site_fract_z
Si Si1 0.561947 0.475950 0.719092
Si Si2 0.420145 0.974094 0.627234
Si Si3 0.276338 0.648937 0.483942
Si Si4 0.970180 0.253549 0.640470
Si Si5 0.901840 0.975920 0.799014
Si Si6 0.764740 0.303057 0.995363
Si Si7 0.230395 0.478164 0.722042
Si Si8 0.527463 0.198414 0.861963
O O1 0.522320 0.275036 0.696065
O O2 0.351295 0.677263 0.867247
O O3 0.563060 0.367709 0.782351
O O4 0.818658 0.583766 0.526930
O O5 0.262553 0.726128 0.737313
O O6 0.583344 0.976171 0.458357
O O7 0.584129 0.954586 0.572354
O O8 0.264172 0.226147 0.735707
O O9 0.075277 0.524006 0.580568
O O10 0.152473 0.837748 0.614395
O O11 0.851618 0.165379 0.782105
O O12 0.774685 0.226284 0.725332
O O13 0.915088 0.114047 0.851722
O O14 0.683369 0.786602 0.950256
O O15 0.548073 0.427738 0.107536
O O16 0.958078 0.497619 0.885189
#
# Coordination Sequence:
#
# PCOD8046807 Si02
#       8
#     2   2   2   2   2   2   2   2
#     4  10  26  42  70  94 140 186 236 286 352 426
#     4  10  23  40  74 110 144 182 236 300 370 434
#     4  11  24  45  70 104 142 184 237 294 362 426
#     4  11  25  41  69  96 139 183 236 289 356 425
#     4  10  24  38  70 104 140 176 226 298 358 414
#     4  11  24  45  70 104 142 184 237 294 362 426
#     4  10  23  40  74 110 144 182 236 300 370 434
#     4  11  25  41  69  96 139 183 236 289 356 425
#
# _framework density 22.791098000000002
#
# number of rings (size 3 to 8) (size 9 to 14) (size 15 to 20)
#    0.000    1.500    0.000    3.000   19.250    2.000 
#    0.000    0.000    5.500    0.000    0.000    0.000 
#    0.000    0.000    0.000    0.000    0.000    0.000 
#
# Total GULP energy -198354.922106 kJ/mol
# GULP energy per Si atom -12397.182632 kJ/mol
# Density = 2.273922 g / cm^3
# Si number density = 22.791098 Si / 1000 Ang^3
#
#
#
# Elastic Constant Matrix: (Units=GPa)
#
#
# Indices 1 2 3 4 5 6 
#
# 1 79.3203 44.7762 44.7234 0.0000 -18.0845 0.0000
# 2 44.7762 139.3020 38.6212 0.0000 -7.6159 0.0000
# 3 44.7234 38.6212 71.7948 0.0000 8.9173 0.0000
# 4 0.0000 0.0000 0.0000 31.9196 0.0000 0.1532
# 5 -18.0845 -7.6159 8.9173 0.0000 43.9308 0.0000
# 6 0.0000 0.0000 0.0000 0.1532 0.0000 31.8396
#
#
#
# Elastic Compliance Matrix: (Units=1/GPa)
#
#
# Indices 1 2 3 4 5 6 
#
# 1 0.027219 -0.003284 -0.016937 0.000000 0.014074 0.000000
# 2 -0.003284 0.009097 -0.002950 0.000000 0.000824 0.000000
# 3 -0.016937 -0.002950 0.027694 0.000000 -0.013106 0.000000
# 4 0.000000 0.000000 0.000000 0.031329 0.000000 -0.000151
# 5 0.014074 0.000824 -0.013106 0.000000 0.031360 0.000000
# 6 0.000000 0.000000 0.000000 -0.000151 0.000000 0.031408
#
#
# Mechanical properties :
#
#
# Convention : Reuss Voigt Hill
#
# Bulk Modulus (GPa) = 56.60099 60.73984 58.67042
# Shear Modulus (GPa) = 23.77087 32.35776 28.06432
#
# Velocity S-wave (km/s) = 3.23304 3.77205 3.51290
# Velocity P-wave (km/s) = 6.23100 6.75868 6.50019
#
# Compressibility (1/GPa) = 0.01766754
#
# Stress axis : x y z
#
# Youngs Moduli (GPa) = 36.73837 109.92294 36.10835
#
# Poissons Ratio (x) = 0.36098 0.61158
# Poissons Ratio (y) = 0.12065 0.10654
# Poissons Ratio (z) = 0.62225 0.32433
#
# Static dielectric constant tensor:
#      x y z
#    x 3.980230 0.000000 0.176020 
#    y 0.000000 4.514990 0.000000 
#    z 0.176020 0.000000 4.120040 
# 
# 
# High freq. dielectric constant tensor:
#      x y z
#    x 1.886030 0.000000 0.009320 
#    y 0.000000 1.911080 0.000000 
#    z 0.009320 0.000000 1.893410 
# 
# From -- ./inp_files/15790.got.cif
#   From: 2010.03.12/outbox.cif.g09.slc.cpg/sg4_8_cif.got.tgz:15790.got - 2010.03.31 09:31:35.
