data_PCOD8046576
_publ_section_title
;
Structure prediction by ZEFSAII (Michael W. Deem and Ramdas Pophale) SiO2 
 PCOD8046576
Probable space group: P 21
;
_chemical_formula_sum "Si O2"
_cell_formula_units_Z 16
_cell_length_a 10.459203
_cell_length_b 5.016408
_cell_length_c 13.851616
_cell_angle_alpha 90.000000
_cell_angle_beta 80.200269
_cell_angle_gamma 90.000000
_cell_volume 716.157061
_symmetry_space_group_name_H-M "P 21"
_symmetry_group_IT_number 4
_symmetry_cell_setting 'monoclinic'
loop_
_space_group_symop_operation_xyz
x,y,z
-x,1/2+y,-z
loop_
_atom_site_type_symbol
_atom_site_label
_atom_site_fract_x
_atom_site_fract_y
_atom_site_fract_z
Si Si1 0.202508 0.469270 0.638354
Si Si2 0.402458 0.484026 0.772016
Si Si3 0.416787 0.686360 0.494826
Si Si4 0.413109 0.603762 0.987616
Si Si5 0.909013 0.578857 0.725731
Si Si6 0.564544 0.984950 0.712749
Si Si7 0.911543 0.702354 0.517291
Si Si8 0.785590 0.046646 0.824461
O O1 0.279349 0.382084 0.725028
O O2 0.286126 0.704229 0.575847
O O3 0.189866 0.232656 0.559282
O O4 0.062114 0.565183 0.688043
O O5 0.494305 0.231720 0.773605
O O6 0.470897 0.731909 0.708707
O O7 0.364741 0.576305 0.884069
O O8 0.517858 0.473353 0.527478
O O9 0.376154 0.577254 0.395779
O O10 0.277936 0.592593 0.063422
O O11 0.482738 0.886117 0.992214
O O12 0.842553 0.631489 0.628622
O O13 0.847134 0.315388 0.777131
O O14 0.894094 0.815112 0.806731
O O15 0.679279 0.908957 0.769262
O O16 0.016722 0.482983 0.474471
#
# Coordination Sequence:
#
# PCOD8046576 Si02
#       8
#     2   2   2   2   2   2   2   2
#     4  11  25  44  68  96 147 178 228 273 337 408
#     4  12  24  43  69 102 131 175 223 280 358 397
#     4  12  24  39  60  94 135 175 216 266 331 397
#     4  12  23  45  73 101 132 172 226 292 350 405
#     4  11  25  43  66 100 134 189 223 271 334 403
#     4  12  23  42  65  99 136 170 223 283 333 401
#     4  10  22  41  65  95 133 187 233 262 316 400
#     4  12  24  43  70  99 134 170 238 281 331 407
#
# _framework density 22.341469
#
# number of rings (size 3 to 8) (size 9 to 14) (size 15 to 20)
#    0.000    0.500    5.000    3.750    0.000    9.000 
#    0.000    1.250    0.000    0.000    0.000    0.000 
#    0.000    0.000    0.000    0.000    0.000    0.000 
#
# Total GULP energy -198374.623418 kJ/mol
# GULP energy per Si atom -12398.413964 kJ/mol
# Density = 2.229062 g / cm^3
# Si number density = 22.341469 Si / 1000 Ang^3
#
#
#
# Elastic Constant Matrix: (Units=GPa)
#
#
# Indices 1 2 3 4 5 6 
#
# 1 83.3267 19.9610 52.7098 0.0000 -4.8815 0.0000
# 2 19.9610 105.8322 22.0616 0.0000 -16.5120 0.0000
# 3 52.7098 22.0616 131.3080 0.0000 -16.9121 0.0000
# 4 0.0000 0.0000 0.0000 29.4453 0.0000 -1.6297
# 5 -4.8815 -16.5120 -16.9121 0.0000 46.6386 0.0000
# 6 0.0000 0.0000 0.0000 -1.6297 0.0000 19.2133
#
#
#
# Elastic Compliance Matrix: (Units=1/GPa)
#
#
# Indices 1 2 3 4 5 6 
#
# 1 0.016477 -0.001967 -0.006453 0.000000 -0.001312 0.000000
# 2 -0.001967 0.010447 -0.000541 0.000000 0.003297 0.000000
# 3 -0.006453 -0.000541 0.010684 0.000000 0.003007 0.000000
# 4 0.000000 0.000000 0.000000 0.034122 0.000000 0.002894
# 5 -0.001312 0.003297 0.003007 0.000000 0.023562 0.000000
# 6 0.000000 0.000000 0.000000 0.002894 0.000000 0.052293
#
#
# Mechanical properties :
#
#
# Convention : Reuss Voigt Hill
#
# Bulk Modulus (GPa) = 50.79619 56.65907 53.72763
# Shear Modulus (GPa) = 29.05819 34.10840 31.58329
#
# Velocity S-wave (km/s) = 3.61035 3.91152 3.76395
# Velocity P-wave (km/s) = 6.33760 6.76872 6.55670
#
# Compressibility (1/GPa) = 0.01968651
#
# Stress axis : x y z
#
# Youngs Moduli (GPa) = 60.69015 95.72058 93.59650
#
# Poissons Ratio (x) = 0.18831 0.60395
# Poissons Ratio (y) = 0.11940 0.05063
# Poissons Ratio (z) = 0.39161 0.05178
#
# Static dielectric constant tensor:
#      x y z
#    x 3.933200 0.000000 -0.043040 
#    y 0.000000 4.112210 0.000000 
#    z -0.043040 0.000000 4.306190 
# 
# 
# High freq. dielectric constant tensor:
#      x y z
#    x 1.859930 0.000000 -0.008170 
#    y 0.000000 1.890710 0.000000 
#    z -0.008170 0.000000 1.887540 
# 
# From -- ./inp_files/13592.got.cif
#   From: 2010.03.12/outbox.cif.g09.slc.cpg/sg4_7_cif.got.tgz:13592.got - 2010.03.31 09:31:35.
