data_PCOD8046749
_publ_section_title
;
Structure prediction by ZEFSAII (Michael W. Deem and Ramdas Pophale) SiO2 
 PCOD8046749
Probable space group: P 21
;
_chemical_formula_sum "Si O2"
_cell_formula_units_Z 12
_cell_length_a 8.976393
_cell_length_b 4.844839
_cell_length_c 17.265884
_cell_angle_alpha 90.000000
_cell_angle_beta 144.090475
_cell_angle_gamma 90.000000
_cell_volume 440.395868
_symmetry_space_group_name_H-M "P 21"
_symmetry_group_IT_number 4
_symmetry_cell_setting 'monoclinic'
loop_
_space_group_symop_operation_xyz
x,y,z
-x,1/2+y,-z
loop_
_atom_site_type_symbol
_atom_site_label
_atom_site_fract_x
_atom_site_fract_y
_atom_site_fract_z
Si Si1 0.398821 0.906120 0.051714
Si Si2 0.981630 0.811043 0.035794
Si Si3 0.126082 0.043390 0.514257
Si Si4 0.785997 0.178931 0.578406
Si Si5 0.274779 0.896524 0.828335
Si Si6 0.403189 0.823025 0.334561
O O1 0.489156 0.589384 0.103004
O O2 0.662589 0.076384 0.158185
O O3 0.240135 0.946499 0.905652
O O4 0.234614 0.070414 0.046820
O O5 0.144639 0.886327 0.180293
O O6 0.864504 0.112558 0.961871
O O7 0.099883 0.958959 0.411686
O O8 0.069841 0.788566 0.548144
O O9 0.420503 0.136177 0.647540
O O10 0.566364 0.093490 0.424636
O O11 0.012649 0.957568 0.674342
O O12 0.666635 0.187859 0.612858
#
# Coordination Sequence:
#
# PCOD8046749 Si02
#       6
#     2   2   2   2   2   2
#     4  10  22  46  68 109 141 197 250 308 369 465
#     4  12  29  50  76 108 159 212 256 321 390 478
#     4  12  28  50  74 115 162 206 253 327 412 475
#     4  12  26  49  84 117 157 210 263 346 389 488
#     4  10  23  42  76 103 146 186 256 314 378 438
#     4  12  28  51  82 120 159 211 276 324 412 478
#
# _framework density 27.248213
#
# number of rings (size 3 to 8) (size 9 to 14) (size 15 to 20)
#    0.000    0.667    5.000    1.000    4.667    4.000 
#    3.000    0.000    0.000    0.000    0.000    0.000 
#    0.000    0.000    0.000    0.000    0.000    0.000 
#
# Total GULP energy -148672.329211 kJ/mol
# GULP energy per Si atom -12389.360768 kJ/mol
# Density = 2.718620 g / cm^3
# Si number density = 27.248213 Si / 1000 Ang^3
#
#
#
# Elastic Constant Matrix: (Units=GPa)
#
#
# Indices 1 2 3 4 5 6 
#
# 1 89.8261 3.3499 20.8376 0.0000 -3.1173 0.0000
# 2 3.3499 140.5724 19.8892 0.0000 -15.4088 0.0000
# 3 20.8376 19.8892 85.7095 0.0000 -10.1508 0.0000
# 4 0.0000 0.0000 0.0000 31.2771 0.0000 -1.9821
# 5 -3.1173 -15.4088 -10.1508 0.0000 21.7054 0.0000
# 6 0.0000 0.0000 0.0000 -1.9821 0.0000 25.0896
#
#
#
# Elastic Compliance Matrix: (Units=1/GPa)
#
#
# Indices 1 2 3 4 5 6 
#
# 1 0.011805 0.000176 -0.002853 0.000000 0.000486 0.000000
# 2 0.000176 0.007837 -0.001270 0.000000 0.004995 0.000000
# 3 -0.002853 -0.001270 0.013233 0.000000 0.004878 0.000000
# 4 0.000000 0.000000 0.000000 0.032133 0.000000 0.002539
# 5 0.000486 0.004995 0.004878 0.000000 0.051968 0.000000
# 6 0.000000 0.000000 0.000000 0.002539 0.000000 0.040058
#
#
# Mechanical properties :
#
#
# Convention : Reuss Voigt Hill
#
# Bulk Modulus (GPa) = 40.03158 44.91792 42.47475
# Shear Modulus (GPa) = 28.85920 33.74985 31.30453
#
# Velocity S-wave (km/s) = 3.25795 3.52320 3.39317
# Velocity P-wave (km/s) = 5.37361 5.75075 5.56537
#
# Compressibility (1/GPa) = 0.02498028
#
# Stress axis : x y z
#
# Youngs Moduli (GPa) = 84.71130 127.60421 75.56699
#
# Poissons Ratio (x) = -0.02241 0.21561
# Poissons Ratio (y) = -0.01488 0.09595
# Poissons Ratio (z) = 0.24170 0.16202
#
# Static dielectric constant tensor:
#      x y z
#    x 5.398760 0.000000 0.057220 
#    y 0.000000 5.017760 0.000000 
#    z 0.057220 0.000000 4.434230 
# 
# 
# High freq. dielectric constant tensor:
#      x y z
#    x 2.123210 0.000000 0.008290 
#    y 0.000000 2.115180 0.000000 
#    z 0.008290 0.000000 2.066990 
# 
# From -- ./inp_files/14860.got.cif
#   From: 2010.03.12/outbox.cif.g09.slc.cpg/sg4_8_cif.got.tgz:14860.got - 2010.03.31 09:31:35.
