data_PCOD8046566
_publ_section_title
;
Structure prediction by ZEFSAII (Michael W. Deem and Ramdas Pophale) SiO2 
 PCOD8046566
Probable space group: P 21
;
_chemical_formula_sum "Si O2"
_cell_formula_units_Z 14
_cell_length_a 14.415773
_cell_length_b 8.897601
_cell_length_c 13.481508
_cell_angle_alpha 90.000000
_cell_angle_beta 20.303587
_cell_angle_gamma 90.000000
_cell_volume 600.028336
_symmetry_space_group_name_H-M "P 21"
_symmetry_group_IT_number 4
_symmetry_cell_setting 'monoclinic'
loop_
_space_group_symop_operation_xyz
x,y,z
-x,1/2+y,-z
loop_
_atom_site_type_symbol
_atom_site_label
_atom_site_fract_x
_atom_site_fract_y
_atom_site_fract_z
Si Si1 0.183603 0.960370 0.006080
Si Si2 0.761650 0.929632 0.811256
Si Si3 0.331886 0.612163 0.401148
Si Si4 0.636535 0.178508 0.268603
Si Si5 0.255836 0.739749 0.269305
Si Si6 0.853936 0.684908 0.111402
Si Si7 0.648059 0.875113 0.151039
O O1 0.237458 0.783961 0.943045
O O2 0.878081 0.002550 0.335266
O O3 0.381251 0.027749 0.891024
O O4 0.248565 0.025856 0.830633
O O5 0.015556 0.858327 0.500907
O O6 0.745816 0.111215 0.814348
O O7 0.516557 0.843458 0.005704
O O8 0.779217 0.898377 0.911355
O O9 0.227744 0.641891 0.396415
O O10 0.384222 0.769558 0.406454
O O11 0.362054 0.242466 0.591320
O O12 0.553299 0.028142 0.295560
O O13 0.854572 0.159008 0.136018
O O14 0.868548 0.797908 0.002011
#
# Coordination Sequence:
#
# PCOD8046566 Si02
#       7
#     2   2   2   2   2   2   2
#     4  11  22  39  61  89 122 168 215 263 322 381
#     4  11  25  43  70  98 134 172 215 269 325 392
#     4  10  22  41  64  86 127 171 206 257 328 396
#     4  12  24  37  61  93 124 164 222 274 312 376
#     4  11  23  44  68  99 129 171 216 263 326 388
#     4  11  22  39  59  85 128 171 210 263 329 384
#     4  10  24  43  65  94 130 171 216 265 326 383
#
# _framework density 23.332232000000001
#
# number of rings (size 3 to 8) (size 9 to 14) (size 15 to 20)
#    0.000    1.143    0.000    7.714    0.000    8.000 
#    0.000    0.000    0.000    0.000    0.000    0.000 
#    0.000    0.000    0.000    0.000    0.000    0.000 
#
# Total GULP energy -173574.938122 kJ/mol
# GULP energy per Si atom -12398.209866 kJ/mol
# Density = 2.327913 g / cm^3
# Si number density = 23.332232 Si / 1000 Ang^3
#
#
#
# Elastic Constant Matrix: (Units=GPa)
#
#
# Indices 1 2 3 4 5 6 
#
# 1 72.6260 33.9930 26.4451 0.0000 -2.9699 0.0000
# 2 33.9930 83.6268 15.9833 0.0000 -1.5714 0.0000
# 3 26.4451 15.9833 112.3019 0.0000 -13.7755 0.0000
# 4 0.0000 0.0000 0.0000 36.3304 0.0000 2.1919
# 5 -2.9699 -1.5714 -13.7755 0.0000 25.2614 0.0000
# 6 0.0000 0.0000 0.0000 2.1919 0.0000 32.9737
#
#
#
# Elastic Compliance Matrix: (Units=1/GPa)
#
#
# Indices 1 2 3 4 5 6 
#
# 1 0.018127 -0.006735 -0.003322 0.000000 -0.000099 0.000000
# 2 -0.006735 0.014796 -0.000540 0.000000 -0.000166 0.000000
# 3 -0.003322 -0.000540 0.010408 0.000000 0.005251 0.000000
# 4 0.000000 0.000000 0.000000 0.027636 0.000000 -0.001837
# 5 -0.000099 -0.000166 0.005251 0.000000 0.042428 0.000000
# 6 0.000000 0.000000 0.000000 -0.001837 0.000000 0.030449
#
#
# Mechanical properties :
#
#
# Convention : Reuss Voigt Hill
#
# Bulk Modulus (GPa) = 45.17608 46.82195 45.99902
# Shear Modulus (GPa) = 28.99924 31.72198 30.36061
#
# Velocity S-wave (km/s) = 3.52928 3.69125 3.61117
# Velocity P-wave (km/s) = 6.00099 6.18693 6.09467
#
# Compressibility (1/GPa) = 0.02213561
#
# Stress axis : x y z
#
# Youngs Moduli (GPa) = 55.16517 67.58661 96.08052
#
# Poissons Ratio (x) = 0.45522 0.31921
# Poissons Ratio (y) = 0.37156 0.05189
# Poissons Ratio (z) = 0.18327 0.03650
#
# Static dielectric constant tensor:
#      x y z
#    x 4.136460 0.000000 -0.064300 
#    y 0.000000 4.283200 0.000000 
#    z -0.064300 0.000000 4.034210 
# 
# 
# High freq. dielectric constant tensor:
#      x y z
#    x 1.915810 0.000000 -0.010870 
#    y 0.000000 1.925660 0.000000 
#    z -0.010870 0.000000 1.920660 
# 
# From -- ./inp_files/14156.got.cif
#   From: 2010.03.12/outbox.cif.g09.slc.cpg/sg4_8_cif.got.tgz:14156.got - 2010.03.31 09:31:35.
