data_PCOD8046459
_publ_section_title
;
Structure prediction by ZEFSAII (Michael W. Deem and Ramdas Pophale) SiO2 
 PCOD8046459
Probable space group: P 21
;
_chemical_formula_sum "Si O2"
_cell_formula_units_Z 16
_cell_length_a 14.687905
_cell_length_b 5.028239
_cell_length_c 27.671956
_cell_angle_alpha 90.000000
_cell_angle_beta 158.078603
_cell_angle_gamma 90.000000
_cell_volume 762.980548
_symmetry_space_group_name_H-M "P 21"
_symmetry_group_IT_number 4
_symmetry_cell_setting 'monoclinic'
loop_
_space_group_symop_operation_xyz
x,y,z
-x,1/2+y,-z
loop_
_atom_site_type_symbol
_atom_site_label
_atom_site_fract_x
_atom_site_fract_y
_atom_site_fract_z
Si Si1 0.598211 0.708060 0.895023
Si Si2 0.495646 0.422076 0.935871
Si Si3 0.151676 0.970106 0.518763
Si Si4 0.836751 0.473320 0.364592
Si Si5 0.147666 0.140138 0.073928
Si Si6 0.100750 0.817084 0.190717
Si Si7 0.217922 0.419289 0.886206
Si Si8 0.348937 0.311927 0.272263
O O1 0.481735 0.477321 0.871591
O O2 0.392239 0.929444 0.783515
O O3 0.663552 0.571300 0.875888
O O4 0.835572 0.852135 0.034686
O O5 0.230054 0.418503 0.832977
O O6 0.614955 0.675069 0.018513
O O7 0.666944 0.173326 0.030544
O O8 0.244960 0.941336 0.619845
O O9 0.369349 0.898839 0.588996
O O10 0.930394 0.768440 0.400092
O O11 0.055284 0.265915 0.460821
O O12 0.263738 0.301839 0.175082
O O13 0.952906 0.355848 0.957062
O O14 0.191643 0.519596 0.225758
O O15 0.052999 0.868881 0.224822
O O16 0.305946 0.022311 0.274022
#
# Coordination Sequence:
#
# PCOD8046459 Si02
#       8
#     2   2   2   2   2   2   2   2
#     4  11  21  36  55  84 110 144 183 221 275 330
#     4   9  19  32  55  75 114 143 174 219 274 327
#     4  10  22  38  51  71 103 149 192 224 259 300
#     4  10  22  36  54  72 103 146 188 230 259 305
#     4  12  23  34  48  78 118 149 177 217 270 327
#     4  11  22  32  57  80 113 138 179 218 281 328
#     4   9  18  35  49  81 111 144 172 217 273 340
#     4  12  21  37  51  79 106 153 183 222 257 331
#
# _framework density 20.970390999999999
#
# number of rings (size 3 to 8) (size 9 to 14) (size 15 to 20)
#    0.000    1.500    3.750    2.250    0.000    4.000 
#    0.000    0.000    0.000    0.000    0.000    3.500 
#    0.000    0.000    0.000    0.000    0.000    0.000 
#
# Total GULP energy -198270.276190 kJ/mol
# GULP energy per Si atom -12391.892262 kJ/mol
# Density = 2.092266 g / cm^3
# Si number density = 20.970391 Si / 1000 Ang^3
#
#
#
# Elastic Constant Matrix: (Units=GPa)
#
#
# Indices 1 2 3 4 5 6 
#
# 1 147.4609 23.4870 8.4084 0.0000 33.4209 0.0000
# 2 23.4870 87.8779 -5.1508 0.0000 -1.5802 0.0000
# 3 8.4084 -5.1508 41.5802 0.0000 12.5698 0.0000
# 4 0.0000 0.0000 0.0000 15.0856 0.0000 7.1204
# 5 33.4209 -1.5802 12.5698 0.0000 20.8445 0.0000
# 6 0.0000 0.0000 0.0000 7.1204 0.0000 30.1541
#
#
#
# Elastic Compliance Matrix: (Units=1/GPa)
#
#
# Indices 1 2 3 4 5 6 
#
# 1 0.012063 -0.003397 0.003748 0.000000 -0.021859 0.000000
# 2 -0.003397 0.012420 0.000360 0.000000 0.006172 0.000000
# 3 0.003748 0.000360 0.030751 0.000000 -0.024525 0.000000
# 4 0.000000 0.000000 0.000000 0.074603 0.000000 -0.017616
# 5 -0.021859 0.006172 -0.024525 0.000000 0.098278 0.000000
# 6 0.000000 0.000000 0.000000 -0.017616 0.000000 0.037323
#
#
# Mechanical properties :
#
#
# Convention : Reuss Voigt Hill
#
# Bulk Modulus (GPa) = 17.65129 36.71202 27.18166
# Shear Modulus (GPa) = 17.67399 29.89514 23.78456
#
# Velocity S-wave (km/s) = 2.90626 3.77979 3.37144
# Velocity P-wave (km/s) = 4.43817 6.04927 5.30524
#
# Compressibility (1/GPa) = 0.05665310
#
# Stress axis : x y z
#
# Youngs Moduli (GPa) = 82.89833 80.51845 32.51966
#
# Poissons Ratio (x) = 0.27356 -0.12187
# Poissons Ratio (y) = 0.28164 -0.01170
# Poissons Ratio (z) = -0.31068 -0.02897
#
# Static dielectric constant tensor:
#      x y z
#    x 4.605430 0.000000 0.326040 
#    y 0.000000 3.692010 0.000000 
#    z 0.326040 0.000000 3.284490 
# 
# 
# High freq. dielectric constant tensor:
#      x y z
#    x 1.826330 0.000000 0.035240 
#    y 0.000000 1.837010 0.000000 
#    z 0.035240 0.000000 1.761900 
# 
# From -- ./inp_files/16539.got.cif
#   From: 2010.03.12/outbox.cif.g09.slc.cpg/sg4_9_cif.got.tgz:16539.got - 2010.03.31 09:31:35.
