data_PCOD8046642
_publ_section_title
;
Structure prediction by ZEFSAII (Michael W. Deem and Ramdas Pophale) SiO2 
 PCOD8046642
Probable space group: P 21
;
_chemical_formula_sum "Si O2"
_cell_formula_units_Z 16
_cell_length_a 13.724210
_cell_length_b 8.752679
_cell_length_c 18.288750
_cell_angle_alpha 90.000000
_cell_angle_beta 18.824418
_cell_angle_gamma 90.000000
_cell_volume 708.875166
_symmetry_space_group_name_H-M "P 21"
_symmetry_group_IT_number 4
_symmetry_cell_setting 'monoclinic'
loop_
_space_group_symop_operation_xyz
x,y,z
-x,1/2+y,-z
loop_
_atom_site_type_symbol
_atom_site_label
_atom_site_fract_x
_atom_site_fract_y
_atom_site_fract_z
Si Si1 0.212414 0.926560 0.384059
Si Si2 0.670897 0.078280 0.706539
Si Si3 0.169077 0.841326 0.823777
Si Si4 0.867782 0.523018 0.005039
Si Si5 0.870992 0.017990 0.908114
Si Si6 0.821563 0.858599 0.797894
Si Si7 0.869176 0.842475 0.312887
Si Si8 0.272942 0.009475 0.126067
O O1 0.297054 0.756667 0.300850
O O2 0.035442 0.937805 0.586485
O O3 0.001639 0.998721 0.469211
O O4 0.515834 0.023417 0.179195
O O5 0.480238 0.007910 0.907302
O O6 0.487051 0.043380 0.763041
O O7 0.518520 0.805216 0.565086
O O8 0.981347 0.688078 0.948234
O O9 0.100082 0.902805 0.953156
O O10 0.064077 0.968240 0.840600
O O11 0.068736 0.465182 0.794890
O O12 0.950066 0.188177 0.829441
O O13 0.948251 0.897904 0.788232
O O14 0.826398 0.677987 0.778235
O O15 0.478175 0.925951 0.041646
O O16 0.977381 0.911412 0.314293
#
# Coordination Sequence:
#
# PCOD8046642 Si02
#       8
#     2   2   2   2   2   2   2   2
#     4  11  25  41  73 101 137 184 218 281 357 404
#     4  10  23  45  66 104 139 179 225 283 343 412
#     4  12  26  47  72  99 135 189 229 286 339 397
#     4  11  25  48  69 103 139 178 240 283 337 407
#     4  12  25  46  66 100 141 173 232 288 328 416
#     4  11  24  40  68  99 139 180 223 280 354 410
#     4  11  26  44  71  97 136 183 229 286 341 402
#     4  10  22  43  65 103 138 176 230 283 339 420
#
# _framework density 22.570969000000002
#
# number of rings (size 3 to 8) (size 9 to 14) (size 15 to 20)
#    0.000    1.000    2.500    3.000    8.750    3.000 
#    2.250    0.000    0.000    0.000    0.000    0.000 
#    0.000    0.000    0.000    0.000    0.000    0.000 
#
# Total GULP energy -198518.957861 kJ/mol
# GULP energy per Si atom -12407.434866 kJ/mol
# Density = 2.251960 g / cm^3
# Si number density = 22.570969 Si / 1000 Ang^3
#
#
#
# Elastic Constant Matrix: (Units=GPa)
#
#
# Indices 1 2 3 4 5 6 
#
# 1 71.1474 17.9128 19.7537 0.0000 -23.8993 0.0000
# 2 17.9128 106.4026 21.3007 0.0000 -9.0061 0.0000
# 3 19.7537 21.3007 116.4647 0.0000 -22.8468 0.0000
# 4 0.0000 0.0000 0.0000 37.8490 0.0000 -4.5366
# 5 -23.8993 -9.0061 -22.8468 0.0000 27.2441 0.0000
# 6 0.0000 0.0000 0.0000 -4.5366 0.0000 42.3853
#
#
#
# Elastic Compliance Matrix: (Units=1/GPa)
#
#
# Indices 1 2 3 4 5 6 
#
# 1 0.020331 -0.002014 0.000345 0.000000 0.017458 0.000000
# 2 -0.002014 0.010053 -0.001426 0.000000 0.000360 0.000000
# 3 0.000345 -0.001426 0.010479 0.000000 0.008619 0.000000
# 4 0.000000 0.000000 0.000000 0.026764 0.000000 0.002865
# 5 0.017458 0.000360 0.008619 0.000000 0.059367 0.000000
# 6 0.000000 0.000000 0.000000 0.002865 0.000000 0.023900
#
#
# Mechanical properties :
#
#
# Convention : Reuss Voigt Hill
#
# Bulk Modulus (GPa) = 28.84112 45.77211 37.30662
# Shear Modulus (GPa) = 29.64827 37.16552 33.40689
#
# Velocity S-wave (km/s) = 3.62824 4.06224 3.85136
# Velocity P-wave (km/s) = 5.50979 6.50582 6.02841
#
# Compressibility (1/GPa) = 0.03467271
#
# Stress axis : x y z
#
# Youngs Moduli (GPa) = 49.18554 99.46902 95.42464
#
# Poissons Ratio (x) = 0.20033 -0.03290
# Poissons Ratio (y) = 0.09906 0.13611
# Poissons Ratio (z) = -0.01696 0.14188
#
# Static dielectric constant tensor:
#      x y z
#    x 4.250840 0.000000 -0.227240 
#    y 0.000000 3.938490 0.000000 
#    z -0.227240 0.000000 4.201640 
# 
# 
# High freq. dielectric constant tensor:
#      x y z
#    x 1.900780 0.000000 -0.003610 
#    y 0.000000 1.895030 0.000000 
#    z -0.003610 0.000000 1.898580 
# 
# From -- ./inp_files/12554.got.cif
#   From: 2010.03.12/outbox.cif.g09.slc.cpg/sg4_7_cif.got.tgz:12554.got - 2010.03.31 09:31:35.
