data_PCOD8046363
_publ_section_title
;
Structure prediction by ZEFSAII (Michael W. Deem and Ramdas Pophale) SiO2 
 PCOD8046363
Probable space group: P 21
;
_chemical_formula_sum "Si O2"
_cell_formula_units_Z 16
_cell_length_a 11.540162
_cell_length_b 5.113112
_cell_length_c 16.509336
_cell_angle_alpha 90.000000
_cell_angle_beta 40.777799
_cell_angle_gamma 90.000000
_cell_volume 636.245335
_symmetry_space_group_name_H-M "P 21"
_symmetry_group_IT_number 4
_symmetry_cell_setting 'monoclinic'
loop_
_space_group_symop_operation_xyz
x,y,z
-x,1/2+y,-z
loop_
_atom_site_type_symbol
_atom_site_label
_atom_site_fract_x
_atom_site_fract_y
_atom_site_fract_z
Si Si1 0.192004 0.969150 0.633376
Si Si2 0.666643 0.462355 0.283851
Si Si3 0.031206 0.356934 0.031489
Si Si4 0.421547 0.054070 0.998615
Si Si5 0.949558 0.980320 0.479848
Si Si6 0.970373 0.475101 0.740628
Si Si7 0.418183 0.282562 0.831383
Si Si8 0.629958 0.627248 0.617257
O O1 0.113182 0.684827 0.696168
O O2 0.353058 0.047734 0.611198
O O3 0.265955 0.947048 0.502176
O O4 0.038362 0.184106 0.720185
O O5 0.615627 0.659684 0.239583
O O6 0.553850 0.203560 0.328411
O O7 0.879023 0.409222 0.177223
O O8 0.231250 0.418756 0.957166
O O9 0.984988 0.550637 0.981833
O O10 0.212012 0.009930 0.114784
O O11 0.472407 0.305749 0.024730
O O12 0.474355 0.092693 0.875454
O O13 0.058842 0.014909 0.339572
O O14 0.056748 0.763291 0.474561
O O15 0.746382 0.884753 0.575620
O O16 0.578533 0.485751 0.729425
#
# Coordination Sequence:
#
# PCOD8046363 Si02
#       8
#     2   2   2   2   2   2   2   2
#     4  11  27  46  76 110 158 200 242 301 395 449
#     4  11  26  42  78 106 155 191 248 301 374 461
#     4  10  21  42  66 104 139 189 230 287 366 435
#     4  12  30  51  78 110 148 199 258 331 390 435
#     4  11  26  47  79 108 145 200 258 319 386 443
#     4  11  26  53  72 109 153 199 251 313 381 472
#     4  11  27  46  74 109 150 196 258 309 375 463
#     4  11  27  45  73 112 150 196 255 315 369 460
#
# _framework density 25.147532999999999
#
# number of rings (size 3 to 8) (size 9 to 14) (size 15 to 20)
#    0.000    1.000    1.250    3.000   12.250    4.000 
#    0.000    0.000    0.000    0.000    0.000    0.000 
#    0.000    0.000    0.000    0.000    0.000    0.000 
#
# Total GULP energy -198309.707064 kJ/mol
# GULP energy per Si atom -12394.356691 kJ/mol
# Density = 2.509030 g / cm^3
# Si number density = 25.147533 Si / 1000 Ang^3
#
#
#
# Elastic Constant Matrix: (Units=GPa)
#
#
# Indices 1 2 3 4 5 6 
#
# 1 77.6079 -4.0421 21.2368 0.0000 12.4726 0.0000
# 2 -4.0421 66.2103 18.5447 0.0000 0.5280 0.0000
# 3 21.2368 18.5447 110.6370 0.0000 -9.4021 0.0000
# 4 0.0000 0.0000 0.0000 36.1151 0.0000 -0.3533
# 5 12.4726 0.5280 -9.4021 0.0000 33.1588 0.0000
# 6 0.0000 0.0000 0.0000 -0.3533 0.0000 45.2982
#
#
#
# Elastic Compliance Matrix: (Units=1/GPa)
#
#
# Indices 1 2 3 4 5 6 
#
# 1 0.015134 0.002050 -0.003827 0.000000 -0.006810 0.000000
# 2 0.002050 0.016160 -0.003268 0.000000 -0.001955 0.000000
# 3 -0.003827 -0.003268 0.010706 0.000000 0.004527 0.000000
# 4 0.000000 0.000000 0.000000 0.027691 0.000000 0.000216
# 5 -0.006810 -0.001955 0.004527 0.000000 0.034034 0.000000
# 6 0.000000 0.000000 0.000000 0.000216 0.000000 0.022078
#
#
# Mechanical properties :
#
#
# Convention : Reuss Voigt Hill
#
# Bulk Modulus (GPa) = 31.33975 36.21489 33.77732
# Shear Modulus (GPa) = 34.12274 37.49547 35.80910
#
# Velocity S-wave (km/s) = 3.68761 3.86556 3.77763
# Velocity P-wave (km/s) = 5.53360 5.86137 5.69984
#
# Compressibility (1/GPa) = 0.03190836
#
# Stress axis : x y z
#
# Youngs Moduli (GPa) = 66.07664 61.88278 93.40724
#
# Poissons Ratio (x) = -0.12687 0.35751
# Poissons Ratio (y) = -0.13547 0.30529
# Poissons Ratio (z) = 0.25290 0.20225
#
# Static dielectric constant tensor:
#      x y z
#    x 4.547470 0.000000 -0.012250 
#    y 0.000000 4.436250 0.000000 
#    z -0.012250 0.000000 4.826720 
# 
# 
# High freq. dielectric constant tensor:
#      x y z
#    x 2.006960 0.000000 0.003830 
#    y 0.000000 1.997470 0.000000 
#    z 0.003830 0.000000 2.013450 
# 
# From -- ./inp_files/15074.got.cif
#   From: 2010.03.12/outbox.cif.g09.slc.cpg/sg4_8_cif.got.tgz:15074.got - 2010.03.31 09:31:35.
