data_PCOD8046233
_publ_section_title
;
Structure prediction by ZEFSAII (Michael W. Deem and Ramdas Pophale) SiO2 
 PCOD8046233
Probable space group: P 21
;
_chemical_formula_sum "Si O2"
_cell_formula_units_Z 16
_cell_length_a 14.417151
_cell_length_b 8.773050
_cell_length_c 11.543006
_cell_angle_alpha 90.000000
_cell_angle_beta 151.462395
_cell_angle_gamma 90.000000
_cell_volume 697.487525
_symmetry_space_group_name_H-M "P 21"
_symmetry_group_IT_number 4
_symmetry_cell_setting 'monoclinic'
loop_
_space_group_symop_operation_xyz
x,y,z
-x,1/2+y,-z
loop_
_atom_site_type_symbol
_atom_site_label
_atom_site_fract_x
_atom_site_fract_y
_atom_site_fract_z
Si Si1 0.492482 0.898770 0.261937
Si Si2 0.810490 0.965720 0.128669
Si Si3 0.140797 0.441658 0.198981
Si Si4 0.520682 0.719083 0.838118
Si Si5 0.762544 0.473725 0.495775
Si Si6 0.443329 0.663223 0.016444
Si Si7 0.791228 0.611882 0.775869
Si Si8 0.633964 0.131304 0.723354
O O1 0.723904 0.907299 0.542767
O O2 0.464234 0.824275 0.105154
O O3 0.380388 0.804432 0.241338
O O4 0.423630 0.072584 0.178233
O O5 0.035807 0.948054 0.349631
O O6 0.726731 0.802979 0.074099
O O7 0.766276 0.087891 0.182013
O O8 0.672355 0.018563 0.871378
O O9 0.140759 0.286108 0.122667
O O10 0.203983 0.593323 0.194446
O O11 0.921161 0.490823 0.992023
O O12 0.343808 0.815243 0.584809
O O13 0.444356 0.680419 0.881423
O O14 0.619046 0.555352 0.248962
O O15 0.808788 0.577724 0.657382
O O16 0.566618 0.588598 0.562485
#
# Coordination Sequence:
#
# PCOD8046233 Si02
#       8
#     2   2   2   2   2   2   2   2
#     4  10  22  41  64  98 129 172 220 270 326 391
#     4  10  21  39  68  93 126 174 218 267 331 393
#     4  11  24  39  67  93 131 172 222 268 332 401
#     4  11  23  40  68  97 134 171 223 276 331 388
#     4  11  21  43  67  88 134 173 215 279 328 394
#     4  10  21  45  66  92 132 177 218 277 331 381
#     4  11  23  42  64  93 126 175 217 272 336 388
#     4  10  21  43  62  92 132 176 215 261 331 394
#
# _framework density 22.939478999999999
#
# number of rings (size 3 to 8) (size 9 to 14) (size 15 to 20)
#    0.000    1.500    6.250    1.500    1.750    5.000 
#    0.000    5.000    0.000    0.000    0.000    0.000 
#    0.000    0.000    0.000    0.000    0.000    0.000 
#
# Total GULP energy -198275.207781 kJ/mol
# GULP energy per Si atom -12392.200486 kJ/mol
# Density = 2.288727 g / cm^3
# Si number density = 22.939479 Si / 1000 Ang^3
#
#
#
# Elastic Constant Matrix: (Units=GPa)
#
#
# Indices 1 2 3 4 5 6 
#
# 1 67.4489 30.1798 14.3129 0.0000 13.7098 0.0000
# 2 30.1798 124.3332 31.4679 0.0000 9.9222 0.0000
# 3 14.3129 31.4679 61.8554 0.0000 17.7614 0.0000
# 4 0.0000 0.0000 0.0000 26.1479 0.0000 4.4688
# 5 13.7098 9.9222 17.7614 0.0000 36.2029 0.0000
# 6 0.0000 0.0000 0.0000 4.4688 0.0000 30.3279
#
#
#
# Elastic Compliance Matrix: (Units=1/GPa)
#
#
# Indices 1 2 3 4 5 6 
#
# 1 0.017716 -0.003701 -0.000677 0.000000 -0.005362 0.000000
# 2 -0.003701 0.010007 -0.004481 0.000000 0.000857 0.000000
# 3 -0.000677 -0.004481 0.021157 0.000000 -0.008896 0.000000
# 4 0.000000 0.000000 0.000000 0.039232 0.000000 -0.005781
# 5 -0.005362 0.000857 -0.008896 0.000000 0.033782 0.000000
# 6 0.000000 0.000000 0.000000 -0.005781 0.000000 0.033825
#
#
# Mechanical properties :
#
#
# Convention : Reuss Voigt Hill
#
# Bulk Modulus (GPa) = 32.08920 45.06208 38.57564
# Shear Modulus (GPa) = 27.20017 30.38087 28.79052
#
# Velocity S-wave (km/s) = 3.44719 3.64317 3.54653
# Velocity P-wave (km/s) = 5.46472 6.11420 5.79856
#
# Compressibility (1/GPa) = 0.03116313
#
# Stress axis : x y z
#
# Youngs Moduli (GPa) = 56.44749 99.93157 47.26559
#
# Poissons Ratio (x) = 0.36984 0.03198
# Poissons Ratio (y) = 0.20891 0.21178
# Poissons Ratio (z) = 0.03819 0.44775
#
# Static dielectric constant tensor:
#      x y z
#    x 3.900070 0.000000 0.177570 
#    y 0.000000 4.508030 0.000000 
#    z 0.177570 0.000000 4.089700 
# 
# 
# High freq. dielectric constant tensor:
#      x y z
#    x 1.886330 0.000000 0.010250 
#    y 0.000000 1.918670 0.000000 
#    z 0.010250 0.000000 1.894250 
# 
# From -- ./inp_files/12585.got.cif
#   From: 2010.03.12/outbox.cif.g09.slc.cpg/sg4_7_cif.got.tgz:12585.got - 2010.03.31 09:31:35.
