data_PCOD8046326
_publ_section_title
;
Structure prediction by ZEFSAII (Michael W. Deem and Ramdas Pophale) SiO2 
 PCOD8046326
Probable space group: P 21
;
_chemical_formula_sum "Si O2"
_cell_formula_units_Z 16
_cell_length_a 11.810330
_cell_length_b 8.652222
_cell_length_c 11.523893
_cell_angle_alpha 90.000000
_cell_angle_beta 142.984346
_cell_angle_gamma 90.000000
_cell_volume 708.939778
_symmetry_space_group_name_H-M "P 21"
_symmetry_group_IT_number 4
_symmetry_cell_setting 'monoclinic'
loop_
_space_group_symop_operation_xyz
x,y,z
-x,1/2+y,-z
loop_
_atom_site_type_symbol
_atom_site_label
_atom_site_fract_x
_atom_site_fract_y
_atom_site_fract_z
Si Si1 0.375117 0.816810 0.585154
Si Si2 0.097902 0.948343 0.194459
Si Si3 0.153746 0.996616 0.835363
Si Si4 0.526036 0.053733 0.866781
Si Si5 0.205514 0.199366 0.093128
Si Si6 0.437772 0.369030 0.887099
Si Si7 0.148614 0.602199 0.575563
Si Si8 0.090123 0.669562 0.795571
O O1 0.264251 0.832565 0.372013
O O2 0.574378 0.738157 0.721087
O O3 0.252236 0.724317 0.578132
O O4 0.406920 0.989685 0.662205
O O5 0.166994 0.070056 0.156974
O O6 0.056070 0.043865 0.278653
O O7 0.923907 0.851912 0.997712
O O8 0.033567 0.846182 0.780680
O O9 0.363055 0.937203 0.987508
O O10 0.058710 0.063430 0.641073
O O11 0.147644 0.133020 0.921811
O O12 0.415724 0.184994 0.850544
O O13 0.717582 0.130127 0.977276
O O14 0.584082 0.906439 0.994481
O O15 0.273197 0.447043 0.677827
O O16 0.128721 0.666905 0.688942
#
# Coordination Sequence:
#
# PCOD8046326 Si02
#       8
#     2   2   2   2   2   2   2   2
#     4  12  25  48  71 107 141 185 237 291 356 422
#     4  12  28  50  76 100 140 189 239 296 348 418
#     4  11  23  42  70 100 142 188 229 288 349 409
#     4  10  21  41  67 101 146 185 226 285 354 419
#     4  12  27  52  74  99 142 185 243 297 348 413
#     4  10  22  38  65 104 150 184 223 285 350 424
#     4  11  24  41  70 111 146 185 231 282 360 426
#     4  10  24  44  69 110 143 187 230 286 355 423
#
# _framework density 22.568912999999998
#
# number of rings (size 3 to 8) (size 9 to 14) (size 15 to 20)
#    0.000    1.000    3.750    3.000    5.250    1.000 
#    6.750    0.000    0.000    0.000    0.000    0.000 
#    0.000    0.000    0.000    0.000    0.000    0.000 
#
# Total GULP energy -198359.357902 kJ/mol
# GULP energy per Si atom -12397.459869 kJ/mol
# Density = 2.251755 g / cm^3
# Si number density = 22.568913 Si / 1000 Ang^3
#
#
#
# Elastic Constant Matrix: (Units=GPa)
#
#
# Indices 1 2 3 4 5 6 
#
# 1 56.0578 14.0075 27.8029 0.0000 11.5231 0.0000
# 2 14.0075 81.2231 7.6089 0.0000 9.3192 0.0000
# 3 27.8029 7.6089 93.7426 0.0000 7.5921 0.0000
# 4 0.0000 0.0000 0.0000 29.6621 0.0000 -4.0290
# 5 11.5231 9.3192 7.5921 0.0000 20.4930 0.0000
# 6 0.0000 0.0000 0.0000 -4.0290 0.0000 43.2535
#
#
#
# Elastic Compliance Matrix: (Units=1/GPa)
#
#
# Indices 1 2 3 4 5 6 
#
# 1 0.023410 -0.002345 -0.005952 0.000000 -0.009892 0.000000
# 2 -0.002345 0.013256 0.000001 0.000000 -0.004710 0.000000
# 3 -0.005952 0.000001 0.012538 0.000000 -0.001299 0.000000
# 4 0.000000 0.000000 0.000000 0.034145 0.000000 0.003181
# 5 -0.009892 -0.004710 -0.001299 0.000000 0.056983 0.000000
# 6 0.000000 0.000000 0.000000 0.003181 0.000000 0.023416
#
#
# Mechanical properties :
#
#
# Convention : Reuss Voigt Hill
#
# Bulk Modulus (GPa) = 30.66231 36.65132 33.65682
# Shear Modulus (GPa) = 26.14933 30.78867 28.46900
#
# Velocity S-wave (km/s) = 3.40758 3.69752 3.55551
# Velocity P-wave (km/s) = 5.39423 5.87400 5.63922
#
# Compressibility (1/GPa) = 0.03261333
#
# Stress axis : x y z
#
# Youngs Moduli (GPa) = 42.71714 75.43480 79.75887
#
# Poissons Ratio (x) = 0.17687 0.47469
# Poissons Ratio (y) = 0.10016 -0.00007
# Poissons Ratio (z) = 0.25424 -0.00007
#
# Static dielectric constant tensor:
#      x y z
#    x 3.837480 0.000000 0.165230 
#    y 0.000000 4.470560 0.000000 
#    z 0.165230 0.000000 4.099500 
# 
# 
# High freq. dielectric constant tensor:
#      x y z
#    x 1.864980 0.000000 0.012850 
#    y 0.000000 1.907250 0.000000 
#    z 0.012850 0.000000 1.895280 
# 
# From -- ./inp_files/11911.got.cif
#   From: 2010.03.12/outbox.cif.g09.slc.cpg/sg4_6_cif.got.tgz:11911.got - 2010.03.31 09:31:35.
