data_PCOD8046970
_publ_section_title
;
Structure prediction by ZEFSAII (Michael W. Deem and Ramdas Pophale) SiO2 
 PCOD8046970
Probable space group: P 21
;
_chemical_formula_sum "Si O2"
_cell_formula_units_Z 16
_cell_length_a 9.649591
_cell_length_b 10.884366
_cell_length_c 8.227452
_cell_angle_alpha 90.000000
_cell_angle_beta 119.097746
_cell_angle_gamma 90.000000
_cell_volume 755.066398
_symmetry_space_group_name_H-M "P 21"
_symmetry_group_IT_number 4
_symmetry_cell_setting 'monoclinic'
loop_
_space_group_symop_operation_xyz
x,y,z
-x,1/2+y,-z
loop_
_atom_site_type_symbol
_atom_site_label
_atom_site_fract_x
_atom_site_fract_y
_atom_site_fract_z
Si Si1 0.644858 0.643410 0.644290
Si Si2 0.700277 0.079196 0.072615
Si Si3 0.031447 0.167880 0.333075
Si Si4 0.864027 0.643812 0.260448
Si Si5 0.618670 0.989077 0.358659
Si Si6 0.075177 0.437846 0.262326
Si Si7 0.444100 0.217448 0.748777
Si Si8 0.223861 0.338584 0.040781
O O1 0.817291 0.607933 0.671968
O O2 0.549551 0.525851 0.656522
O O3 0.543475 0.695848 0.436703
O O4 0.661300 0.746494 0.794051
O O5 0.884681 0.109706 0.156513
O O6 0.654352 0.085770 0.235819
O O7 0.610876 0.185974 0.924312
O O8 0.667693 0.944531 0.977730
O O9 0.020138 0.141043 0.518452
O O10 0.034587 0.314721 0.334999
O O11 0.685389 0.633073 0.229945
O O12 0.923943 0.528770 0.187184
O O13 0.874234 0.765107 0.153608
O O14 0.760311 0.992347 0.571293
O O15 0.601925 0.859132 0.258198
O O16 0.097666 0.404207 0.086645
#
# Coordination Sequence:
#
# PCOD8046970 Si02
#       8
#     2   2   2   2   2   2   2   2
#     4  10  24  45  69  98 142 176 224 288 340 401
#     4  12  25  42  73  98 137 181 229 279 349 408
#     4  10  23  46  67 103 138 177 232 282 338 416
#     4  11  22  45  71  98 139 183 226 289 343 403
#     4  12  22  46  72 100 138 182 228 286 342 408
#     4  11  23  43  72  99 140 179 230 285 341 406
#     4  11  24  46  71 101 138 181 235 284 345 414
#     4  11  23  43  69  99 138 175 228 285 336 408
#
# _framework density 21.190187000000002
#
# number of rings (size 3 to 8) (size 9 to 14) (size 15 to 20)
#    0.000    1.000    6.250    1.500    3.500    2.000 
#    2.250    0.000    0.000    0.000    0.000    0.000 
#    0.000    0.000    0.000    0.000    0.000    0.000 
#
# Total GULP energy -198353.441429 kJ/mol
# GULP energy per Si atom -12397.090089 kJ/mol
# Density = 2.114196 g / cm^3
# Si number density = 21.190187 Si / 1000 Ang^3
#
#
#
# Elastic Constant Matrix: (Units=GPa)
#
#
# Indices 1 2 3 4 5 6 
#
# 1 103.8521 45.5708 44.3246 0.0000 -0.8128 0.0000
# 2 45.5708 67.2581 19.0173 0.0000 5.8709 0.0000
# 3 44.3246 19.0173 112.1755 0.0000 7.6382 0.0000
# 4 0.0000 0.0000 0.0000 33.1795 0.0000 -3.3280
# 5 -0.8128 5.8709 7.6382 0.0000 29.8984 0.0000
# 6 0.0000 0.0000 0.0000 -3.3280 0.0000 44.7435
#
#
#
# Elastic Compliance Matrix: (Units=1/GPa)
#
#
# Indices 1 2 3 4 5 6 
#
# 1 0.016066 -0.009807 -0.004932 0.000000 0.003623 0.000000
# 2 -0.009807 0.021779 0.000501 0.000000 -0.004671 0.000000
# 3 -0.004932 0.000501 0.010986 0.000000 -0.003039 0.000000
# 4 0.000000 0.000000 0.000000 0.030366 0.000000 0.002259
# 5 0.003623 -0.004671 -0.003039 0.000000 0.035239 0.000000
# 6 0.000000 0.000000 0.000000 0.002259 0.000000 0.022518
#
#
# Mechanical properties :
#
#
# Convention : Reuss Voigt Hill
#
# Bulk Modulus (GPa) = 49.13127 55.67905 52.40516
# Shear Modulus (GPa) = 29.03366 33.18915 31.11141
#
# Velocity S-wave (km/s) = 3.70556 3.96188 3.83587
# Velocity P-wave (km/s) = 6.44550 6.87471 6.66356
#
# Compressibility (1/GPa) = 0.02035364
#
# Stress axis : x y z
#
# Youngs Moduli (GPa) = 62.24335 45.91574 91.02886
#
# Poissons Ratio (x) = 0.45030 0.44898
# Poissons Ratio (y) = 0.61043 -0.04560
# Poissons Ratio (z) = 0.30700 -0.02300
#
# Static dielectric constant tensor:
#      x y z
#    x 3.732950 0.000000 -0.188170 
#    y 0.000000 3.678060 0.000000 
#    z -0.188170 0.000000 3.959410 
# 
# 
# High freq. dielectric constant tensor:
#      x y z
#    x 1.827440 0.000000 -0.019740 
#    y 0.000000 1.816540 0.000000 
#    z -0.019740 0.000000 1.841210 
# 
# From -- ./inp_files/6229.got.cif
#   From: 2010.03.12/outbox.cif.g09.slc.cpg/sg4_4_cif.got.tgz:6229.got - 2010.03.31 09:31:35.
