data_PCOD8046615
_publ_section_title
;
Structure prediction by ZEFSAII (Michael W. Deem and Ramdas Pophale) SiO2 
 PCOD8046615
Probable space group: P 21
;
_chemical_formula_sum "Si O2"
_cell_formula_units_Z 16
_cell_length_a 8.977663
_cell_length_b 11.431478
_cell_length_c 6.918321
_cell_angle_alpha 90.000000
_cell_angle_beta 82.140775
_cell_angle_gamma 90.000000
_cell_volume 703.344016
_symmetry_space_group_name_H-M "P 21"
_symmetry_group_IT_number 4
_symmetry_cell_setting 'monoclinic'
loop_
_space_group_symop_operation_xyz
x,y,z
-x,1/2+y,-z
loop_
_atom_site_type_symbol
_atom_site_label
_atom_site_fract_x
_atom_site_fract_y
_atom_site_fract_z
Si Si1 0.564991 0.980800 0.148809
Si Si2 0.886832 0.408799 0.004789
Si Si3 0.246020 0.212217 0.600585
Si Si4 0.616983 0.536820 0.169857
Si Si5 0.912615 0.612057 0.724314
Si Si6 0.813149 0.811903 0.008180
Si Si7 0.762646 0.198796 0.230918
Si Si8 0.512149 0.353374 0.457050
O O1 0.475860 0.920653 0.340492
O O2 0.682168 0.080381 0.184144
O O3 0.655467 0.879147 0.018859
O O4 0.437600 0.042963 0.041746
O O5 0.900332 0.475505 0.793416
O O6 0.789669 0.493554 0.157669
O O7 0.802151 0.280935 0.034312
O O8 0.049586 0.396753 0.077409
O O9 0.377876 0.157579 0.715592
O O10 0.150673 0.124926 0.482787
O O11 0.348600 0.295714 0.451206
O O12 0.143826 0.282640 0.772739
O O13 0.503870 0.449887 0.293587
O O14 0.810109 0.692436 0.885229
O O15 0.082923 0.660074 0.692594
O O16 0.654705 0.266885 0.401709
#
# Coordination Sequence:
#
# PCOD8046615 Si02
#       8
#     2   2   2   2   2   2   2   2
#     4  11  23  43  69  94 139 172 219 279 329 400
#     4  10  22  42  67  94 131 173 220 273 330 388
#     4  11  24  41  67  98 131 172 222 268 337 391
#     4  11  24  41  64  97 130 176 217 268 333 397
#     4  11  22  44  69  94 137 171 220 285 325 397
#     4  10  22  44  67  97 128 177 222 272 336 391
#     4  10  23  43  68 102 131 175 229 268 336 403
#     4  10  24  42  63  98 133 172 225 271 328 397
#
# _framework density 22.748467999999999
#
# number of rings (size 3 to 8) (size 9 to 14) (size 15 to 20)
#    0.000    1.500    2.500    1.500    3.500    5.000 
#    4.500    6.250    0.000    0.000    0.000    0.000 
#    0.000    0.000    0.000    0.000    0.000    0.000 
#
# Total GULP energy -198209.903135 kJ/mol
# GULP energy per Si atom -12388.118946 kJ/mol
# Density = 2.269669 g / cm^3
# Si number density = 22.748468 Si / 1000 Ang^3
#
#
#
# Elastic Constant Matrix: (Units=GPa)
#
#
# Indices 1 2 3 4 5 6 
#
# 1 87.9230 34.4580 43.2923 0.0000 3.9097 0.0000
# 2 34.4580 99.7302 28.5678 0.0000 9.1708 0.0000
# 3 43.2923 28.5678 79.8559 0.0000 9.3103 0.0000
# 4 0.0000 0.0000 0.0000 39.9293 0.0000 -2.4410
# 5 3.9097 9.1708 9.3103 0.0000 34.2123 0.0000
# 6 0.0000 0.0000 0.0000 -2.4410 0.0000 30.2247
#
#
#
# Elastic Compliance Matrix: (Units=1/GPa)
#
#
# Indices 1 2 3 4 5 6 
#
# 1 0.016595 -0.003596 -0.007851 0.000000 0.001204 0.000000
# 2 -0.003596 0.012081 -0.002110 0.000000 -0.002253 0.000000
# 3 -0.007851 -0.002110 0.017932 0.000000 -0.003417 0.000000
# 4 0.000000 0.000000 0.000000 0.025169 0.000000 0.002033
# 5 0.001204 -0.002253 -0.003417 0.000000 0.030626 0.000000
# 6 0.000000 0.000000 0.000000 0.002033 0.000000 0.033250
#
#
# Mechanical properties :
#
#
# Convention : Reuss Voigt Hill
#
# Bulk Modulus (GPa) = 51.29412 53.34948 52.32180
# Shear Modulus (GPa) = 29.54003 31.61932 30.57967
#
# Velocity S-wave (km/s) = 3.60745 3.73225 3.67038
# Velocity P-wave (km/s) = 6.32052 6.48658 6.40409
#
# Compressibility (1/GPa) = 0.01949541
#
# Stress axis : x y z
#
# Youngs Moduli (GPa) = 60.26011 82.77485 55.76691
#
# Poissons Ratio (x) = 0.29762 0.43780
# Poissons Ratio (y) = 0.21667 0.11766
# Poissons Ratio (z) = 0.47308 0.17465
#
# Static dielectric constant tensor:
#      x y z
#    x 4.001810 0.000000 -0.385840 
#    y 0.000000 4.313950 0.000000 
#    z -0.385840 0.000000 3.931610 
# 
# 
# High freq. dielectric constant tensor:
#      x y z
#    x 1.895950 0.000000 -0.028040 
#    y 0.000000 1.909510 0.000000 
#    z -0.028040 0.000000 1.879450 
# 
# From -- ./inp_files/1400.got.cif
#   From: 2010.03.12/outbox.cif.g09.slc.cpg/sg4_1_cif.got.tgz:1400.got - 2010.03.31 09:31:35.
