data_PCOD8046514
_publ_section_title
;
Structure prediction by ZEFSAII (Michael W. Deem and Ramdas Pophale) SiO2 
 PCOD8046514
Probable space group: P 21
;
_chemical_formula_sum "Si O2"
_cell_formula_units_Z 16
_cell_length_a 9.697283
_cell_length_b 7.664089
_cell_length_c 9.899742
_cell_angle_alpha 90.000000
_cell_angle_beta 105.765425
_cell_angle_gamma 90.000000
_cell_volume 708.079521
_symmetry_space_group_name_H-M "P 21"
_symmetry_group_IT_number 4
_symmetry_cell_setting 'monoclinic'
loop_
_space_group_symop_operation_xyz
x,y,z
-x,1/2+y,-z
loop_
_atom_site_type_symbol
_atom_site_label
_atom_site_fract_x
_atom_site_fract_y
_atom_site_fract_z
Si Si1 0.604241 0.959940 0.159555
Si Si2 0.929665 0.534330 0.413205
Si Si3 0.640429 0.724555 0.414697
Si Si4 0.107012 0.644742 0.700109
Si Si5 0.611071 0.974472 0.650352
Si Si6 0.361861 0.235543 0.094605
Si Si7 0.098079 0.613832 0.206681
Si Si8 0.953430 0.734546 0.919142
O O1 0.571252 0.822597 0.268960
O O2 0.729440 0.089918 0.237800
O O3 0.462020 0.070580 0.092014
O O4 0.649816 0.857052 0.038854
O O5 0.788587 0.637097 0.415780
O O6 0.893116 0.342466 0.352137
O O7 0.033203 0.519094 0.570376
O O8 0.007584 0.647992 0.317926
O O9 0.670809 0.857194 0.544367
O O10 0.530552 0.575561 0.434045
O O11 0.023615 0.618780 0.819278
O O12 0.574608 0.850500 0.766612
O O13 0.732443 0.118308 0.717684
O O14 0.204096 0.160675 0.086639
O O15 0.058332 0.428051 0.136166
O O16 0.054909 0.749045 0.078276
#
# Coordination Sequence:
#
# PCOD8046514 Si02
#       8
#     2   2   2   2   2   2   2   2
#     4  12  25  43  65  95 130 171 218 270 326 388
#     4  11  23  41  67  97 130 169 216 270 325 384
#     4  12  25  44  66  94 129 170 216 269 326 389
#     4  11  23  41  67  97 130 170 216 269 326 384
#     4  11  24  44  65  93 129 168 214 267 321 389
#     4  11  24  43  64  94 130 169 216 268 321 388
#     4  10  22  40  62  91 124 161 207 258 313 375
#     4  10  22  40  62  89 124 162 207 259 314 377
#
# _framework density 22.596330999999999
#
# number of rings (size 3 to 8) (size 9 to 14) (size 15 to 20)
#    0.000    1.000    0.000    8.250    0.000    5.000 
#    0.000    0.000    0.000    0.000    0.000    0.000 
#    0.000    0.000    0.000    0.000    0.000    0.000 
#
# Total GULP energy -198502.579941 kJ/mol
# GULP energy per Si atom -12406.411246 kJ/mol
# Density = 2.254490 g / cm^3
# Si number density = 22.596331 Si / 1000 Ang^3
#
#
#
# Elastic Constant Matrix: (Units=GPa)
#
#
# Indices 1 2 3 4 5 6 
#
# 1 78.7136 27.1095 46.2993 0.0000 -4.7043 0.0000
# 2 27.1095 47.7611 28.0492 0.0000 -6.1671 0.0000
# 3 46.2993 28.0492 129.8960 0.0000 -11.0020 0.0000
# 4 0.0000 0.0000 0.0000 35.5479 0.0000 -2.5545
# 5 -4.7043 -6.1671 -11.0020 0.0000 33.2520 0.0000
# 6 0.0000 0.0000 0.0000 -2.5545 0.0000 16.6813
#
#
#
# Elastic Compliance Matrix: (Units=1/GPa)
#
#
# Indices 1 2 3 4 5 6 
#
# 1 0.018125 -0.007477 -0.004883 0.000000 -0.000438 0.000000
# 2 -0.007477 0.027321 -0.002978 0.000000 0.003024 0.000000
# 3 -0.004883 -0.002978 0.010264 0.000000 0.002153 0.000000
# 4 0.000000 0.000000 0.000000 0.028444 0.000000 0.004356
# 5 -0.000438 0.003024 0.002153 0.000000 0.031285 0.000000
# 6 0.000000 0.000000 0.000000 0.004356 0.000000 0.060614
#
#
# Mechanical properties :
#
#
# Convention : Reuss Voigt Hill
#
# Bulk Modulus (GPa) = 39.94556 51.03186 45.48871
# Shear Modulus (GPa) = 23.24764 27.42376 25.33570
#
# Velocity S-wave (km/s) = 3.21101 3.48751 3.35211
# Velocity P-wave (km/s) = 5.60925 6.23299 5.92933
#
# Compressibility (1/GPa) = 0.02503407
#
# Stress axis : x y z
#
# Youngs Moduli (GPa) = 55.17109 36.60170 97.42350
#
# Poissons Ratio (x) = 0.27367 0.47573
# Poissons Ratio (y) = 0.41251 0.29017
# Poissons Ratio (z) = 0.26940 0.10902
#
# Static dielectric constant tensor:
#      x y z
#    x 4.214250 0.000000 -0.053500 
#    y 0.000000 3.923110 0.000000 
#    z -0.053500 0.000000 4.652040 
# 
# 
# High freq. dielectric constant tensor:
#      x y z
#    x 1.900210 0.000000 -0.006060 
#    y 0.000000 1.883900 0.000000 
#    z -0.006060 0.000000 1.910200 
# 
# From -- ./inp_files/5492.got.cif
#   From: 2010.03.12/outbox.cif.g09.slc.cpg/sg4_3_cif.got.tgz:5492.got - 2010.03.31 09:31:35.
