data_PCOD8046593
_publ_section_title
;
Structure prediction by ZEFSAII (Michael W. Deem and Ramdas Pophale) SiO2 
 PCOD8046593
Probable space group: P 21
;
_chemical_formula_sum "Si O2"
_cell_formula_units_Z 14
_cell_length_a 12.654050
_cell_length_b 5.015359
_cell_length_c 14.195447
_cell_angle_alpha 90.000000
_cell_angle_beta 46.118984
_cell_angle_gamma 90.000000
_cell_volume 649.357506
_symmetry_space_group_name_H-M "P 21"
_symmetry_group_IT_number 4
_symmetry_cell_setting 'monoclinic'
loop_
_space_group_symop_operation_xyz
x,y,z
-x,1/2+y,-z
loop_
_atom_site_type_symbol
_atom_site_label
_atom_site_fract_x
_atom_site_fract_y
_atom_site_fract_z
Si Si1 0.529058 0.497610 0.155217
Si Si2 0.544947 0.274701 0.349666
Si Si3 0.638570 0.534278 0.796900
Si Si4 0.688318 0.762566 0.347921
Si Si5 0.810563 0.608084 0.883116
Si Si6 0.985221 0.615152 0.254921
Si Si7 0.080674 0.065870 0.489554
O O1 0.500865 0.339094 0.270302
O O2 0.490446 0.252717 0.109560
O O3 0.421245 0.744750 0.198111
O O4 0.696855 0.592664 0.040659
O O5 0.645530 0.514512 0.314303
O O6 0.394690 0.272870 0.501166
O O7 0.645309 0.014283 0.308313
O O8 0.717351 0.565657 0.847196
O O9 0.754855 0.626523 0.645639
O O10 0.858061 0.699548 0.261106
O O11 0.917043 0.367339 0.813082
O O12 0.910942 0.867394 0.835615
O O13 0.917798 0.563372 0.398942
O O14 0.965663 0.277496 0.520231
#
# Coordination Sequence:
#
# PCOD8046593 Si02
#       7
#     2   2   2   2   2   2   2
#     4  12  25  42  66  93 128 180 225 264 320 386
#     4  10  22  43  66  98 127 158 223 280 325 386
#     4  12  23  41  65  94 130 178 219 265 323 383
#     4  10  22  41  70  96 126 164 210 282 341 386
#     4  12  25  42  62  94 141 172 219 263 314 408
#     4  12  23  42  65  97 132 175 211 264 343 386
#     4  12  22  39  62  94 134 167 213 272 322 389
#
# _framework density 21.559773
#
# number of rings (size 3 to 8) (size 9 to 14) (size 15 to 20)
#    0.000    0.571    2.857    6.000    0.000    3.429 
#    0.000    2.857    0.000    0.000    0.000    0.000 
#    0.000    0.000    0.000    0.000    0.000    0.000 
#
# Total GULP energy -173442.910037 kJ/mol
# GULP energy per Si atom -12388.779288 kJ/mol
# Density = 2.151070 g / cm^3
# Si number density = 21.559773 Si / 1000 Ang^3
#
#
#
# Elastic Constant Matrix: (Units=GPa)
#
#
# Indices 1 2 3 4 5 6 
#
# 1 115.0726 65.2904 30.0029 0.0000 -31.0785 0.0000
# 2 65.2904 185.3378 36.9712 0.0000 -25.2424 0.0000
# 3 30.0029 36.9712 84.7727 0.0000 -24.1633 0.0000
# 4 0.0000 0.0000 0.0000 42.3511 0.0000 -18.7006
# 5 -31.0785 -25.2424 -24.1633 0.0000 40.1452 0.0000
# 6 0.0000 0.0000 0.0000 -18.7006 0.0000 65.3551
#
#
#
# Elastic Compliance Matrix: (Units=1/GPa)
#
#
# Indices 1 2 3 4 5 6 
#
# 1 0.012783 -0.003319 -0.001027 0.000000 0.007191 0.000000
# 2 -0.003319 0.007008 -0.001639 0.000000 0.000850 0.000000
# 3 -0.001027 -0.001639 0.014913 0.000000 0.007150 0.000000
# 4 0.000000 0.000000 0.000000 0.027027 0.000000 0.007733
# 5 0.007191 0.000850 0.007150 0.000000 0.035315 0.000000
# 6 0.000000 0.000000 0.000000 0.007733 0.000000 0.017514
#
#
# Mechanical properties :
#
#
# Convention : Reuss Voigt Hill
#
# Bulk Modulus (GPa) = 43.98881 72.19023 58.08952
# Shear Modulus (GPa) = 37.28366 46.43152 41.85759
#
# Velocity S-wave (km/s) = 4.16302 4.64574 4.41099
# Velocity P-wave (km/s) = 6.59963 7.89517 7.27629
#
# Compressibility (1/GPa) = 0.02273305
#
# Stress axis : x y z
#
# Youngs Moduli (GPa) = 78.22754 142.70387 67.05708
#
# Poissons Ratio (x) = 0.47363 0.06887
# Poissons Ratio (y) = 0.25963 0.10992
# Poissons Ratio (z) = 0.08035 0.23391
#
# Static dielectric constant tensor:
#      x y z
#    x 3.639160 0.000000 -0.038780 
#    y 0.000000 4.103430 0.000000 
#    z -0.038780 0.000000 3.983750 
# 
# 
# High freq. dielectric constant tensor:
#      x y z
#    x 1.852320 0.000000 -0.011730 
#    y 0.000000 1.869820 0.000000 
#    z -0.011730 0.000000 1.845240 
# 
# From -- ./inp_files/13821.got.cif
#   From: 2010.03.12/outbox.cif.g09.slc.cpg/sg4_7_cif.got.tgz:13821.got - 2010.03.31 09:31:35.
