data_PCOD8046151
_publ_section_title
;
Structure prediction by ZEFSAII (Michael W. Deem and Ramdas Pophale) SiO2 
 PCOD8046151
Probable space group: P 21
;
_chemical_formula_sum "Si O2"
_cell_formula_units_Z 14
_cell_length_a 16.517731
_cell_length_b 5.116567
_cell_length_c 22.787299
_cell_angle_alpha 90.000000
_cell_angle_beta 19.840074
_cell_angle_gamma 90.000000
_cell_volume 653.624784
_symmetry_space_group_name_H-M "P 21"
_symmetry_group_IT_number 4
_symmetry_cell_setting 'monoclinic'
loop_
_space_group_symop_operation_xyz
x,y,z
-x,1/2+y,-z
loop_
_atom_site_type_symbol
_atom_site_label
_atom_site_fract_x
_atom_site_fract_y
_atom_site_fract_z
Si Si1 0.043439 0.581640 0.931491
Si Si2 0.743405 0.096087 0.633287
Si Si3 0.960667 0.089139 0.807937
Si Si4 0.796183 0.599311 0.983297
Si Si5 0.488895 0.065927 0.466272
Si Si6 0.652260 0.042487 0.904725
Si Si7 0.043998 0.097232 0.544289
O O1 0.303009 0.593625 0.723773
O O2 0.023167 0.354938 0.993113
O O3 0.845911 0.524143 0.016557
O O4 0.483480 0.123636 0.838005
O O5 0.805572 0.334235 0.547126
O O6 0.934354 0.090430 0.554644
O O7 0.766766 0.832663 0.579536
O O8 0.786459 0.005100 0.874410
O O9 0.239462 0.078600 0.600454
O O10 0.902224 0.381254 0.868099
O O11 0.918901 0.878677 0.887871
O O12 0.491004 0.292279 0.513552
O O13 0.839439 0.146093 0.730339
O O14 0.448096 0.262909 0.047970
#
# Coordination Sequence:
#
# PCOD8046151 Si02
#       7
#     2   2   2   2   2   2   2
#     4  12  26  44  69 101 137 171 222 296 353 400
#     4  10  21  37  63  86 124 170 208 261 328 401
#     4  12  24  42  71  97 128 186 228 272 341 416
#     4  12  24  43  68  96 130 172 234 270 340 420
#     4  12  23  46  71  98 138 182 232 288 342 425
#     4  12  25  41  64  97 138 169 223 286 327 391
#     4  10  21  39  58  89 127 166 209 265 331 383
#
# _framework density 21.419015999999999
#
# number of rings (size 3 to 8) (size 9 to 14) (size 15 to 20)
#    0.000    0.571    2.857    6.000    0.000    4.571 
#    0.000    0.000    0.000    0.000    0.000    0.000 
#    0.000    0.000    0.000    0.000    0.000    0.000 
#
# Total GULP energy -173651.346166 kJ/mol
# GULP energy per Si atom -12403.667583 kJ/mol
# Density = 2.137026 g / cm^3
# Si number density = 21.419016 Si / 1000 Ang^3
#
#
#
# Elastic Constant Matrix: (Units=GPa)
#
#
# Indices 1 2 3 4 5 6 
#
# 1 65.0127 24.3049 19.7860 0.0000 -7.4068 0.0000
# 2 24.3049 116.7593 46.1262 0.0000 -3.4116 0.0000
# 3 19.7860 46.1262 141.5027 0.0000 2.7162 0.0000
# 4 0.0000 0.0000 0.0000 37.9269 0.0000 5.9460
# 5 -7.4068 -3.4116 2.7162 0.0000 42.0980 0.0000
# 6 0.0000 0.0000 0.0000 5.9460 0.0000 28.2187
#
#
#
# Elastic Compliance Matrix: (Units=1/GPa)
#
#
# Indices 1 2 3 4 5 6 
#
# 1 0.017262 -0.002907 -0.001522 0.000000 0.002900 0.000000
# 2 -0.002907 0.010363 -0.002981 0.000000 0.000521 0.000000
# 3 -0.001522 -0.002981 0.008272 0.000000 -0.001043 0.000000
# 4 0.000000 0.000000 0.000000 0.027267 0.000000 -0.005746
# 5 0.002900 0.000521 -0.001043 0.000000 0.024374 0.000000
# 6 0.000000 0.000000 0.000000 -0.005746 0.000000 0.036648
#
#
# Mechanical properties :
#
#
# Convention : Reuss Voigt Hill
#
# Bulk Modulus (GPa) = 47.44855 55.96768 51.70811
# Shear Modulus (GPa) = 34.23906 37.18590 35.71248
#
# Velocity S-wave (km/s) = 4.00251 4.17119 4.08772
# Velocity P-wave (km/s) = 6.60005 7.02745 6.81710
#
# Compressibility (1/GPa) = 0.02107546
#
# Stress axis : x y z
#
# Youngs Moduli (GPa) = 57.93074 96.49798 120.89450
#
# Poissons Ratio (x) = 0.28056 0.18395
# Poissons Ratio (y) = 0.16843 0.36045
# Poissons Ratio (z) = 0.08815 0.28771
#
# Static dielectric constant tensor:
#      x y z
#    x 3.748820 0.000000 -0.118610 
#    y 0.000000 4.251070 0.000000 
#    z -0.118610 0.000000 3.959640 
# 
# 
# High freq. dielectric constant tensor:
#      x y z
#    x 1.823170 0.000000 -0.004960 
#    y 0.000000 1.864000 0.000000 
#    z -0.004960 0.000000 1.852050 
# 
# From -- ./inp_files/8944.got.cif
#   From: 2010.03.12/outbox.cif.g09.slc.cpg/sg4_5_cif.got.tgz:8944.got - 2010.03.31 09:31:35.
