data_PCOD8046660
_publ_section_title
;
Structure prediction by ZEFSAII (Michael W. Deem and Ramdas Pophale) SiO2 
 PCOD8046660
Probable space group: P 21
;
_chemical_formula_sum "Si O2"
_cell_formula_units_Z 16
_cell_length_a 11.567889
_cell_length_b 8.581298
_cell_length_c 8.991577
_cell_angle_alpha 90.000000
_cell_angle_beta 57.904820
_cell_angle_gamma 90.000000
_cell_volume 756.156693
_symmetry_space_group_name_H-M "P 21"
_symmetry_group_IT_number 4
_symmetry_cell_setting 'monoclinic'
loop_
_space_group_symop_operation_xyz
x,y,z
-x,1/2+y,-z
loop_
_atom_site_type_symbol
_atom_site_label
_atom_site_fract_x
_atom_site_fract_y
_atom_site_fract_z
Si Si1 0.134949 0.954810 0.489415
Si Si2 0.438505 0.916997 0.353295
Si Si3 0.582234 0.147192 0.046813
Si Si4 0.807115 0.163288 0.123308
Si Si5 0.565834 0.097495 0.513360
Si Si6 0.622291 0.927343 0.763689
Si Si7 0.891660 0.762860 0.663651
Si Si8 0.992831 0.901707 0.872229
O O1 0.285928 0.889596 0.402340
O O2 0.037341 0.817065 0.494407
O O3 0.077234 0.005936 0.692509
O O4 0.137805 0.088691 0.364942
O O5 0.496209 0.749787 0.364287
O O6 0.528795 0.989364 0.161367
O O7 0.447072 0.037212 0.485398
O O8 0.722064 0.201015 0.031321
O O9 0.477096 0.289088 0.115954
O O10 0.604596 0.090959 0.863029
O O11 0.705285 0.136476 0.330607
O O12 0.903738 0.309593 0.091642
O O13 0.898068 0.009138 0.038665
O O14 0.595572 0.960348 0.609535
O O15 0.776800 0.875075 0.677367
O O16 0.899748 0.779442 0.838972
#
# Coordination Sequence:
#
# PCOD8046660 Si02
#       8
#     2   2   2   2   2   2   2   2
#     4  10  22  43  69  95 139 171 228 269 334 402
#     4  11  22  42  68  95 132 176 219 277 338 400
#     4  11  24  46  66  97 136 172 223 284 331 409
#     4  11  23  47  65  97 135 172 222 271 332 395
#     4  11  24  41  70  96 133 174 226 280 334 401
#     4  12  24  43  68  98 131 180 220 281 344 391
#     4  10  23  42  67 101 134 173 224 274 333 400
#     4  10  24  44  65  95 136 178 218 272 332 396
#
# _framework density 21.159637
#
# number of rings (size 3 to 8) (size 9 to 14) (size 15 to 20)
#    0.750    0.500    3.750    2.250    3.500    1.000 
#    6.750    0.000    0.000    0.000    0.000    0.000 
#    0.000    0.000    0.000    0.000    0.000    0.000 
#
# Total GULP energy -198349.553016 kJ/mol
# GULP energy per Si atom -12396.847063 kJ/mol
# Density = 2.111148 g / cm^3
# Si number density = 21.159637 Si / 1000 Ang^3
#
#
#
# Elastic Constant Matrix: (Units=GPa)
#
#
# Indices 1 2 3 4 5 6 
#
# 1 118.4888 28.0923 8.7188 0.0000 -5.5281 0.0000
# 2 28.0923 68.5872 4.8211 0.0000 1.1452 0.0000
# 3 8.7188 4.8211 38.1093 0.0000 10.3623 0.0000
# 4 0.0000 0.0000 0.0000 42.3935 0.0000 2.1390
# 5 -5.5281 1.1452 10.3623 0.0000 23.0440 0.0000
# 6 0.0000 0.0000 0.0000 2.1390 0.0000 43.5887
#
#
#
# Elastic Compliance Matrix: (Units=1/GPa)
#
#
# Indices 1 2 3 4 5 6 
#
# 1 0.009733 -0.003855 -0.002764 0.000000 0.003769 0.000000
# 2 -0.003855 0.016238 -0.000799 0.000000 -0.001372 0.000000
# 3 -0.002764 -0.000799 0.030924 0.000000 -0.014529 0.000000
# 4 0.000000 0.000000 0.000000 0.023647 0.000000 -0.001160
# 5 0.003769 -0.001372 -0.014529 0.000000 0.050901 0.000000
# 6 0.000000 0.000000 0.000000 -0.001160 0.000000 0.022999
#
#
# Mechanical properties :
#
#
# Convention : Reuss Voigt Hill
#
# Bulk Modulus (GPa) = 23.77600 34.27218 29.02409
# Shear Modulus (GPa) = 27.27795 34.04210 30.66003
#
# Velocity S-wave (km/s) = 3.59437 4.01536 3.81068
# Velocity P-wave (km/s) = 5.33731 6.14245 5.75398
#
# Compressibility (1/GPa) = 0.04205921
#
# Stress axis : x y z
#
# Youngs Moduli (GPa) = 102.74483 61.58372 32.33686
#
# Poissons Ratio (x) = 0.23741 0.08938
# Poissons Ratio (y) = 0.39609 0.02584
# Poissons Ratio (z) = 0.28398 0.04921
#
# Static dielectric constant tensor:
#      x y z
#    x 4.007780 0.000000 0.082450 
#    y 0.000000 3.674230 0.000000 
#    z 0.082450 0.000000 3.694150 
# 
# 
# High freq. dielectric constant tensor:
#      x y z
#    x 1.845660 0.000000 0.007170 
#    y 0.000000 1.821550 0.000000 
#    z 0.007170 0.000000 1.815930 
# 
# From -- ./inp_files/8021.got.cif
#   From: 2010.03.12/outbox.cif.g09.slc.cpg/sg4_5_cif.got.tgz:8021.got - 2010.03.31 09:31:35.
