data_PCOD8046747
_publ_section_title
;
Structure prediction by ZEFSAII (Michael W. Deem and Ramdas Pophale) SiO2 
 PCOD8046747
Probable space group: P 21
;
_chemical_formula_sum "Si O2"
_cell_formula_units_Z 12
_cell_length_a 22.609765
_cell_length_b 4.975555
_cell_length_c 20.055061
_cell_angle_alpha 90.000000
_cell_angle_beta 168.180501
_cell_angle_gamma 90.000000
_cell_volume 462.118518
_symmetry_space_group_name_H-M "P 21"
_symmetry_group_IT_number 4
_symmetry_cell_setting 'monoclinic'
loop_
_space_group_symop_operation_xyz
x,y,z
-x,1/2+y,-z
loop_
_atom_site_type_symbol
_atom_site_label
_atom_site_fract_x
_atom_site_fract_y
_atom_site_fract_z
Si Si1 0.549186 0.116360 0.712100
Si Si2 0.043281 0.772842 0.185894
Si Si3 0.275447 0.930578 0.630930
Si Si4 0.652366 0.828627 0.642759
Si Si5 0.068616 0.406797 0.617693
Si Si6 0.051684 0.419676 0.311194
O O1 0.358205 0.287593 0.448417
O O2 0.333688 0.939615 0.518359
O O3 0.722030 0.311476 0.953554
O O4 0.774089 0.920378 0.923548
O O5 0.096489 0.485031 0.281252
O O6 0.962936 0.741037 0.018346
O O7 0.085154 0.692264 0.389672
O O8 0.129534 0.006384 0.540089
O O9 0.271108 0.193257 0.579192
O O10 0.604974 0.838534 0.001193
O O11 0.412464 0.638971 0.413215
O O12 0.075891 0.638800 0.570534
#
# Coordination Sequence:
#
# PCOD8046747 Si02
#       6
#     2   2   2   2   2   2
#     4  11  26  46  73 102 149 202 261 324 389 451
#     4  11  26  46  73 102 149 202 261 324 389 451
#     4  12  28  45  81 112 156 194 242 304 376 454
#     4  10  22  46  68 102 138 196 266 332 386 446
#     4  12  26  52  80 114 148 194 244 298 362 450
#     4  12  26  51  69 118 154 202 248 314 386 464
#
# _framework density 25.967365999999998
#
# number of rings (size 3 to 8) (size 9 to 14) (size 15 to 20)
#    0.000    0.667    3.333    3.000    2.333    9.333 
#    0.000    0.000    0.000    0.000    0.000    0.000 
#    0.000    0.000    0.000    0.000    0.000    0.000 
#
# Total GULP energy -148861.260130 kJ/mol
# GULP energy per Si atom -12405.105011 kJ/mol
# Density = 2.590826 g / cm^3
# Si number density = 25.967366 Si / 1000 Ang^3
#
#
#
# Elastic Constant Matrix: (Units=GPa)
#
#
# Indices 1 2 3 4 5 6 
#
# 1 60.7065 9.7424 34.9641 0.0000 -12.3960 0.0000
# 2 9.7424 114.7327 32.6541 0.0000 -18.8033 0.0000
# 3 34.9641 32.6541 124.1348 0.0000 -11.4641 0.0000
# 4 0.0000 0.0000 0.0000 42.1084 0.0000 -9.1356
# 5 -12.3960 -18.8033 -11.4641 0.0000 43.7978 0.0000
# 6 0.0000 0.0000 0.0000 -9.1356 0.0000 35.6888
#
#
#
# Elastic Compliance Matrix: (Units=1/GPa)
#
#
# Indices 1 2 3 4 5 6 
#
# 1 0.020487 0.000580 -0.005497 0.000000 0.004609 0.000000
# 2 0.000580 0.009985 -0.002438 0.000000 0.003813 0.000000
# 3 -0.005497 -0.002438 0.010253 0.000000 0.000081 0.000000
# 4 0.000000 0.000000 0.000000 0.025145 0.000000 0.006437
# 5 0.004609 0.003813 0.000081 0.000000 0.025795 0.000000
# 6 0.000000 0.000000 0.000000 0.006437 0.000000 0.029668
#
#
# Mechanical properties :
#
#
# Convention : Reuss Voigt Hill
#
# Bulk Modulus (GPa) = 38.43937 50.47726 44.45831
# Shear Modulus (GPa) = 34.55082 39.13322 36.84202
#
# Velocity S-wave (km/s) = 3.65162 3.88624 3.77076
# Velocity P-wave (km/s) = 5.71089 6.29429 6.00967
#
# Compressibility (1/GPa) = 0.02601499
#
# Stress axis : x y z
#
# Youngs Moduli (GPa) = 48.81174 100.14596 97.53250
#
# Poissons Ratio (x) = -0.05811 0.53618
# Poissons Ratio (y) = -0.02832 0.23778
# Poissons Ratio (z) = 0.26834 0.24416
#
# Static dielectric constant tensor:
#      x y z
#    x 4.613090 0.000000 -0.504190 
#    y 0.000000 4.742000 0.000000 
#    z -0.504190 0.000000 4.809250 
# 
# 
# High freq. dielectric constant tensor:
#      x y z
#    x 2.029750 0.000000 -0.016580 
#    y 0.000000 2.051580 0.000000 
#    z -0.016580 0.000000 2.047120 
# 
# From -- ./inp_files/15941.got.cif
#   From: 2010.03.12/outbox.cif.g09.slc.cpg/sg4_8_cif.got.tgz:15941.got - 2010.03.31 09:31:35.
