data_PCOD8046359
_publ_section_title
;
Structure prediction by ZEFSAII (Michael W. Deem and Ramdas Pophale) SiO2 
 PCOD8046359
Probable space group: P 21
;
_chemical_formula_sum "Si O2"
_cell_formula_units_Z 16
_cell_length_a 14.169406
_cell_length_b 7.704723
_cell_length_c 18.432832
_cell_angle_alpha 90.000000
_cell_angle_beta 21.985232
_cell_angle_gamma 90.000000
_cell_volume 753.353817
_symmetry_space_group_name_H-M "P 21"
_symmetry_group_IT_number 4
_symmetry_cell_setting 'monoclinic'
loop_
_space_group_symop_operation_xyz
x,y,z
-x,1/2+y,-z
loop_
_atom_site_type_symbol
_atom_site_label
_atom_site_fract_x
_atom_site_fract_y
_atom_site_fract_z
Si Si1 0.176349 0.767230 0.640474
Si Si2 0.314254 0.143611 0.773115
Si Si3 0.080029 0.441607 0.040261
Si Si4 0.705885 0.554650 0.948290
Si Si5 0.909030 0.325898 0.454565
Si Si6 0.544062 0.743219 0.927321
Si Si7 0.558203 0.602972 0.769502
Si Si8 0.598899 0.989882 0.694851
O O1 0.470208 0.712947 0.436199
O O2 0.141524 0.885043 0.592974
O O3 0.095376 0.862293 0.771618
O O4 0.997133 0.600901 0.752937
O O5 0.436784 0.995461 0.736386
O O6 0.211874 0.296628 0.897351
O O7 0.088102 0.064895 0.889256
O O8 0.290096 0.565697 0.924500
O O9 0.551586 0.680365 0.004175
O O10 0.695349 0.366063 0.918216
O O11 0.573018 0.569378 0.119700
O O12 0.753850 0.451966 0.615644
O O13 0.836204 0.120998 0.517010
O O14 0.198246 0.351525 0.270870
O O15 0.525314 0.593253 0.880060
O O16 0.666583 0.789885 0.664820
#
# Coordination Sequence:
#
# PCOD8046359 Si02
#       8
#     2   2   2   2   2   2   2   2
#     4  10  22  46  68  98 142 178 218 296 339 400
#     4  11  24  45  73 101 131 183 224 281 359 404
#     4  12  24  46  74  96 144 173 226 293 341 415
#     4  10  21  42  64  95 140 177 226 279 336 400
#     4  10  22  44  65  97 146 177 232 281 334 400
#     4  10  25  37  65 103 130 190 230 271 344 401
#     4  11  23  42  68 101 136 187 227 277 346 398
#     4  10  21  44  67  99 137 181 227 284 337 404
#
# _framework density 21.238358999999999
#
# number of rings (size 3 to 8) (size 9 to 14) (size 15 to 20)
#    0.000    1.500    3.750    0.750    8.750    1.000 
#   13.500    0.000    0.000    0.000    0.000    0.000 
#    0.000    0.000    0.000    0.000    0.000    0.000 
#
# Total GULP energy -198308.349411 kJ/mol
# GULP energy per Si atom -12394.271838 kJ/mol
# Density = 2.119002 g / cm^3
# Si number density = 21.238359 Si / 1000 Ang^3
#
#
#
# Elastic Constant Matrix: (Units=GPa)
#
#
# Indices 1 2 3 4 5 6 
#
# 1 64.2243 17.9856 4.3998 0.0000 -1.0132 0.0000
# 2 17.9856 78.8127 25.9044 0.0000 1.9270 0.0000
# 3 4.3998 25.9044 60.1497 0.0000 11.4541 0.0000
# 4 0.0000 0.0000 0.0000 29.6210 0.0000 -2.8152
# 5 -1.0132 1.9270 11.4541 0.0000 31.0031 0.0000
# 6 0.0000 0.0000 0.0000 -2.8152 0.0000 29.4781
#
#
#
# Elastic Compliance Matrix: (Units=1/GPa)
#
#
# Indices 1 2 3 4 5 6 
#
# 1 0.016658 -0.003933 0.000349 0.000000 0.000660 0.000000
# 2 -0.003933 0.015778 -0.006772 0.000000 0.001393 0.000000
# 3 0.000349 -0.006772 0.020905 0.000000 -0.007291 0.000000
# 4 0.000000 0.000000 0.000000 0.034069 0.000000 0.003254
# 5 0.000660 0.001393 -0.007291 0.000000 0.034883 0.000000
# 6 0.000000 0.000000 0.000000 0.003254 0.000000 0.034234
#
#
# Mechanical properties :
#
#
# Convention : Reuss Voigt Hill
#
# Bulk Modulus (GPa) = 30.64717 33.30738 31.97728
# Shear Modulus (GPa) = 26.57950 28.34688 27.46319
#
# Velocity S-wave (km/s) = 3.54147 3.65732 3.59986
# Velocity P-wave (km/s) = 5.58428 5.79235 5.68927
#
# Compressibility (1/GPa) = 0.03262944
#
# Stress axis : x y z
#
# Youngs Moduli (GPa) = 60.03055 63.38068 47.83619
#
# Poissons Ratio (x) = 0.24924 -0.01672
# Poissons Ratio (y) = 0.23607 0.32397
# Poissons Ratio (z) = -0.02098 0.42925
#
# Static dielectric constant tensor:
#      x y z
#    x 4.080860 0.000000 0.132680 
#    y 0.000000 3.721770 0.000000 
#    z 0.132680 0.000000 3.960410 
# 
# 
# High freq. dielectric constant tensor:
#      x y z
#    x 1.845440 0.000000 0.007390 
#    y 0.000000 1.818160 0.000000 
#    z 0.007390 0.000000 1.836880 
# 
# From -- ./inp_files/15260.got.cif
#   From: 2010.03.12/outbox.cif.g09.slc.cpg/sg4_8_cif.got.tgz:15260.got - 2010.03.31 09:31:35.
