data_PCOD8046304
_publ_section_title
;
Structure prediction by ZEFSAII (Michael W. Deem and Ramdas Pophale) SiO2 
 PCOD8046304
Probable space group: P 21
;
_chemical_formula_sum "Si O2"
_cell_formula_units_Z 14
_cell_length_a 17.193418
_cell_length_b 9.705962
_cell_length_c 7.898068
_cell_angle_alpha 90.000000
_cell_angle_beta 147.027003
_cell_angle_gamma 90.000000
_cell_volume 717.323569
_symmetry_space_group_name_H-M "P 21"
_symmetry_group_IT_number 4
_symmetry_cell_setting 'monoclinic'
loop_
_space_group_symop_operation_xyz
x,y,z
-x,1/2+y,-z
loop_
_atom_site_type_symbol
_atom_site_label
_atom_site_fract_x
_atom_site_fract_y
_atom_site_fract_z
Si Si1 0.001996 0.851730 0.846704
Si Si2 0.167957 0.582385 0.642955
Si Si3 0.705470 0.465336 0.595388
Si Si4 0.147965 0.867294 0.444322
Si Si5 0.444456 0.461185 0.322500
Si Si6 0.342957 0.181211 0.244034
Si Si7 0.921860 0.613898 0.462788
O O1 0.956303 0.704777 0.690303
O O2 0.160725 0.890384 0.065309
O O3 0.011966 0.842949 0.070304
O O4 0.889140 0.968893 0.591816
O O5 0.207051 0.721006 0.613553
O O6 0.052108 0.617664 0.572509
O O7 0.310160 0.528420 0.987828
O O8 0.726107 0.447899 0.430512
O O9 0.554339 0.400195 0.380070
O O10 0.709122 0.626265 0.665542
O O11 0.101884 0.957172 0.521211
O O12 0.397692 0.337542 0.360911
O O13 0.528668 0.578697 0.583397
O O14 0.217565 0.177480 0.878232
#
# Coordination Sequence:
#
# PCOD8046304 Si02
#       7
#     2   2   2   2   2   2   2
#     4  10  21  41  59  92 131 161 213 267 319 378
#     4  12  22  38  69  98 121 170 223 260 321 388
#     4   8  22  42  61  83 138 163 204 267 328 365
#     4  10  24  40  64  89 135 168 206 277 322 373
#     4  10  23  40  65  97 126 168 218 265 319 389
#     4  10  22  41  66  90 132 166 214 270 315 389
#     4  12  22  38  68  95 123 172 222 262 318 384
#
# _framework density 19.516994
#
# number of rings (size 3 to 8) (size 9 to 14) (size 15 to 20)
#    1.714    0.000    2.857    1.714    4.000    0.000 
#    2.571    0.000    0.000    0.000    0.000    0.000 
#    0.000    0.000    0.000    0.000    0.000    0.000 
#
# Total GULP energy -173464.826382 kJ/mol
# GULP energy per Si atom -12390.344742 kJ/mol
# Density = 1.947257 g / cm^3
# Si number density = 19.516994 Si / 1000 Ang^3
#
#
#
# Elastic Constant Matrix: (Units=GPa)
#
#
# Indices 1 2 3 4 5 6 
#
# 1 60.2593 31.7722 34.0347 0.0000 -1.8311 0.0000
# 2 31.7722 113.6089 32.3473 0.0000 4.8552 0.0000
# 3 34.0347 32.3473 83.0927 0.0000 28.7491 0.0000
# 4 0.0000 0.0000 0.0000 39.3973 0.0000 -10.6403
# 5 -1.8311 4.8552 28.7491 0.0000 25.7698 0.0000
# 6 0.0000 0.0000 0.0000 -10.6403 0.0000 29.1176
#
#
#
# Elastic Compliance Matrix: (Units=1/GPa)
#
#
# Indices 1 2 3 4 5 6 
#
# 1 0.030411 -0.004037 -0.019374 0.000000 0.024535 0.000000
# 2 -0.004037 0.010690 -0.002788 0.000000 0.000809 0.000000
# 3 -0.019374 -0.002788 0.034771 0.000000 -0.039643 0.000000
# 4 0.000000 0.000000 0.000000 0.028162 0.000000 0.010291
# 5 0.024535 0.000809 -0.039643 0.000000 0.084622 0.000000
# 6 0.000000 0.000000 0.000000 0.010291 0.000000 0.038104
#
#
# Mechanical properties :
#
#
# Convention : Reuss Voigt Hill
#
# Bulk Modulus (GPa) = 42.59782 50.36326 46.48054
# Shear Modulus (GPa) = 17.42258 29.44406 23.43332
#
# Velocity S-wave (km/s) = 2.99103 3.88833 3.46882
# Velocity P-wave (km/s) = 5.81393 6.78378 6.31749
#
# Compressibility (1/GPa) = 0.02347538
#
# Stress axis : x y z
#
# Youngs Moduli (GPa) = 32.88239 93.54136 28.75929
#
# Poissons Ratio (x) = 0.37766 0.55717
# Poissons Ratio (y) = 0.13276 0.08018
# Poissons Ratio (z) = 0.63705 0.26080
#
# Static dielectric constant tensor:
#      x y z
#    x 3.309440 0.000000 0.115340 
#    y 0.000000 3.510700 0.000000 
#    z 0.115340 0.000000 3.539760 
# 
# 
# High freq. dielectric constant tensor:
#      x y z
#    x 1.734850 0.000000 0.007550 
#    y 0.000000 1.763530 0.000000 
#    z 0.007550 0.000000 1.760600 
# 
# From -- ./inp_files/9922.got.cif
#   From: 2010.03.12/outbox.cif.g09.slc.cpg/sg4_5_cif.got.tgz:9922.got - 2010.03.31 09:31:35.
