data_PCOD8046964
_publ_section_title
;
Structure prediction by ZEFSAII (Michael W. Deem and Ramdas Pophale) SiO2 
 PCOD8046964
Probable space group: P 21
;
_chemical_formula_sum "Si O2"
_cell_formula_units_Z 12
_cell_length_a 9.451155
_cell_length_b 10.411883
_cell_length_c 5.291181
_cell_angle_alpha 90.000000
_cell_angle_beta 103.998622
_cell_angle_gamma 90.000000
_cell_volume 505.211823
_symmetry_space_group_name_H-M "P 21"
_symmetry_group_IT_number 4
_symmetry_cell_setting 'monoclinic'
loop_
_space_group_symop_operation_xyz
x,y,z
-x,1/2+y,-z
loop_
_atom_site_type_symbol
_atom_site_label
_atom_site_fract_x
_atom_site_fract_y
_atom_site_fract_z
Si Si1 0.587296 0.211220 0.074192
Si Si2 0.230305 0.901505 0.580328
Si Si3 0.488922 0.323672 0.519547
Si Si4 0.751265 0.977472 0.335221
Si Si5 0.017113 0.051234 0.759442
Si Si6 0.027201 0.327354 0.876921
O O1 0.722112 0.310890 0.162748
O O2 0.474542 0.236157 0.260123
O O3 0.647244 0.065915 0.116159
O O4 0.511575 0.231242 0.771875
O O5 0.370422 0.919018 0.456007
O O6 0.101232 0.830714 0.379878
O O7 0.164845 0.036845 0.654036
O O8 0.344310 0.407450 0.491355
O O9 0.822139 0.871115 0.185907
O O10 0.873158 0.065136 0.523963
O O11 0.037058 0.174767 0.950598
O O12 0.004221 0.916198 0.898675
#
# Coordination Sequence:
#
# PCOD8046964 Si02
#       6
#     2   2   2   2   2   2
#     4  10  23  45  72  99 146 187 243 296 375 417
#     4   9  22  43  68  98 144 191 237 296 371 425
#     4  10  24  43  72 105 136 196 236 304 366 438
#     4  11  26  44  74 102 148 195 251 304 371 445
#     4  11  24  44  70 110 149 196 249 308 365 443
#     4  11  25  41  74 106 149 197 248 306 368 442
#
# _framework density 23.752413000000001
#
# number of rings (size 3 to 8) (size 9 to 14) (size 15 to 20)
#    1.000    0.667    1.667    1.000    9.333    2.667 
#    6.000    0.000    0.000    0.000    0.000    0.000 
#    0.000    0.000    0.000    0.000    0.000    0.000 
#
# Total GULP energy -148701.724655 kJ/mol
# GULP energy per Si atom -12391.810388 kJ/mol
# Density = 2.369835 g / cm^3
# Si number density = 23.752413 Si / 1000 Ang^3
#
#
#
# Elastic Constant Matrix: (Units=GPa)
#
#
# Indices 1 2 3 4 5 6 
#
# 1 98.3854 17.7441 10.6114 0.0000 -32.6608 0.0000
# 2 17.7441 89.3380 19.9310 0.0000 -9.0030 0.0000
# 3 10.6114 19.9310 94.4013 0.0000 -18.0024 0.0000
# 4 0.0000 0.0000 0.0000 35.5549 0.0000 -7.0893
# 5 -32.6608 -9.0030 -18.0024 0.0000 25.3417 0.0000
# 6 0.0000 0.0000 0.0000 -7.0893 0.0000 19.5582
#
#
#
# Elastic Compliance Matrix: (Units=1/GPa)
#
#
# Indices 1 2 3 4 5 6 
#
# 1 0.018677 -0.001832 0.003185 0.000000 0.025683 0.000000
# 2 -0.001832 0.012099 -0.002289 0.000000 0.000311 0.000000
# 3 0.003185 -0.002289 0.013124 0.000000 0.012615 0.000000
# 4 0.000000 0.000000 0.000000 0.030317 0.000000 0.010989
# 5 0.025683 0.000311 0.012615 0.000000 0.081633 0.000000
# 6 0.000000 0.000000 0.000000 0.010989 0.000000 0.055113
#
#
# Mechanical properties :
#
#
# Convention : Reuss Voigt Hill
#
# Bulk Modulus (GPa) = 23.79363 42.07752 32.93558
# Shear Modulus (GPa) = 22.04153 31.68016 26.86085
#
# Velocity S-wave (km/s) = 3.04957 3.65604 3.36649
# Velocity P-wave (km/s) = 4.73697 5.96453 5.38584
#
# Compressibility (1/GPa) = 0.04202806
#
# Stress axis : x y z
#
# Youngs Moduli (GPa) = 53.54214 82.64878 76.19598
#
# Poissons Ratio (x) = 0.15141 -0.24269
# Poissons Ratio (y) = 0.09809 0.17443
# Poissons Ratio (z) = -0.17054 0.18921
#
# Static dielectric constant tensor:
#      x y z
#    x 4.297120 0.000000 -0.147750 
#    y 0.000000 3.972120 0.000000 
#    z -0.147750 0.000000 3.983360 
# 
# 
# High freq. dielectric constant tensor:
#      x y z
#    x 1.944820 0.000000 -0.008780 
#    y 0.000000 1.922430 0.000000 
#    z -0.008780 0.000000 1.928220 
# 
# From -- ./inp_files/1307.got.cif
#   From: 2010.03.12/outbox.cif.g09.slc.cpg/sg4_1_cif.got.tgz:1307.got - 2010.03.31 09:31:35.
