data_PCOD8046481
_publ_section_title
;
Structure prediction by ZEFSAII (Michael W. Deem and Ramdas Pophale) SiO2 
 PCOD8046481
Probable space group: P 21
;
_chemical_formula_sum "Si O2"
_cell_formula_units_Z 14
_cell_length_a 10.169333
_cell_length_b 7.602593
_cell_length_c 13.244312
_cell_angle_alpha 90.000000
_cell_angle_beta 35.129618
_cell_angle_gamma 90.000000
_cell_volume 589.216203
_symmetry_space_group_name_H-M "P 21"
_symmetry_group_IT_number 4
_symmetry_cell_setting 'monoclinic'
loop_
_space_group_symop_operation_xyz
x,y,z
-x,1/2+y,-z
loop_
_atom_site_type_symbol
_atom_site_label
_atom_site_fract_x
_atom_site_fract_y
_atom_site_fract_z
Si Si1 0.836514 0.880670 0.525127
Si Si2 0.354638 0.173093 0.004842
Si Si3 0.744518 0.261762 0.614337
Si Si4 0.389921 0.468601 0.700069
Si Si5 0.541350 0.288473 0.087560
Si Si6 0.259571 0.200935 0.612914
Si Si7 0.872779 0.990091 0.942262
O O1 0.597796 0.809626 0.721104
O O2 0.884436 0.775519 0.391780
O O3 0.036843 0.866247 0.481904
O O4 0.817523 0.086461 0.508303
O O5 0.603548 0.204421 0.801096
O O6 0.165669 0.285429 0.062571
O O7 0.306109 0.963587 0.030677
O O8 0.356538 0.248353 0.116741
O O9 0.598435 0.384146 0.632404
O O10 0.287192 0.345959 0.679858
O O11 0.491089 0.639390 0.580999
O O12 0.177503 0.516354 0.906849
O O13 0.703485 0.119744 0.988910
O O14 0.129189 0.038809 0.749148
#
# Coordination Sequence:
#
# PCOD8046481 Si02
#       7
#     2   2   2   2   2   2   2
#     4  11  23  39  70 106 139 185 231 287 349 417
#     4  10  22  38  64 105 144 188 228 289 350 415
#     4  10  23  41  66 104 145 179 233 288 350 412
#     4  11  26  50  70 103 141 183 237 292 348 432
#     4  11  21  39  68 103 153 181 232 292 349 417
#     4  12  26  48  75 101 139 187 234 287 364 413
#     4  11  25  47  71 102 141 189 239 289 350 422
#
# _framework density 23.760380999999999
#
# number of rings (size 3 to 8) (size 9 to 14) (size 15 to 20)
#    0.000    1.143    2.857    2.571    6.000    2.286 
#   10.286    0.000    0.000    0.000    0.000    0.000 
#    0.000    0.000    0.000    0.000    0.000    0.000 
#
# Total GULP energy -173644.690900 kJ/mol
# GULP energy per Si atom -12403.192207 kJ/mol
# Density = 2.370630 g / cm^3
# Si number density = 23.760381 Si / 1000 Ang^3
#
#
#
# Elastic Constant Matrix: (Units=GPa)
#
#
# Indices 1 2 3 4 5 6 
#
# 1 74.9261 8.0121 27.0741 0.0000 18.8316 0.0000
# 2 8.0121 77.0631 21.7034 0.0000 14.3081 0.0000
# 3 27.0741 21.7034 76.5774 0.0000 29.4194 0.0000
# 4 0.0000 0.0000 0.0000 40.4716 0.0000 6.3936
# 5 18.8316 14.3081 29.4194 0.0000 31.3987 0.0000
# 6 0.0000 0.0000 0.0000 6.3936 0.0000 33.3185
#
#
#
# Elastic Compliance Matrix: (Units=1/GPa)
#
#
# Indices 1 2 3 4 5 6 
#
# 1 0.016194 0.000507 -0.003202 0.000000 -0.006944 0.000000
# 2 0.000507 0.014480 -0.002549 0.000000 -0.004514 0.000000
# 3 -0.003202 -0.002549 0.021450 0.000000 -0.017017 0.000000
# 4 0.000000 0.000000 0.000000 0.025481 0.000000 -0.004890
# 5 -0.006944 -0.004514 -0.017017 0.000000 0.054014 0.000000
# 6 0.000000 0.000000 0.000000 -0.004890 0.000000 0.030952
#
#
# Mechanical properties :
#
#
# Convention : Reuss Voigt Hill
#
# Bulk Modulus (GPa) = 24.01639 38.01620 31.01629
# Shear Modulus (GPa) = 26.74694 32.48953 29.61824
#
# Velocity S-wave (km/s) = 3.35878 3.70183 3.53447
# Velocity P-wave (km/s) = 5.01712 5.85712 5.45332
#
# Compressibility (1/GPa) = 0.04163823
#
# Stress axis : x y z
#
# Youngs Moduli (GPa) = 61.74964 69.06250 46.61921
#
# Poissons Ratio (x) = -0.03503 0.14925
# Poissons Ratio (y) = -0.03132 0.11882
# Poissons Ratio (z) = 0.19769 0.17603
#
# Static dielectric constant tensor:
#      x y z
#    x 3.873380 0.000000 0.250030 
#    y 0.000000 4.428440 0.000000 
#    z 0.250030 0.000000 4.386310 
# 
# 
# High freq. dielectric constant tensor:
#      x y z
#    x 1.920080 0.000000 0.019740 
#    y 0.000000 1.950120 0.000000 
#    z 0.019740 0.000000 1.945930 
# 
# From -- ./inp_files/7611.got.cif
#   From: 2010.03.12/outbox.cif.g09.slc.cpg/sg4_4_cif.got.tgz:7611.got - 2010.03.31 09:31:35.
