data_PCOD8046462
_publ_section_title
;
Structure prediction by ZEFSAII (Michael W. Deem and Ramdas Pophale) SiO2 
 PCOD8046462
Probable space group: P 21
;
_chemical_formula_sum "Si O2"
_cell_formula_units_Z 16
_cell_length_a 8.081603
_cell_length_b 13.469908
_cell_length_c 8.570082
_cell_angle_alpha 90.000000
_cell_angle_beta 126.044370
_cell_angle_gamma 90.000000
_cell_volume 754.327976
_symmetry_space_group_name_H-M "P 21"
_symmetry_group_IT_number 4
_symmetry_cell_setting 'monoclinic'
loop_
_space_group_symop_operation_xyz
x,y,z
-x,1/2+y,-z
loop_
_atom_site_type_symbol
_atom_site_label
_atom_site_fract_x
_atom_site_fract_y
_atom_site_fract_z
Si Si1 0.258259 0.571010 0.484625
Si Si2 0.654880 0.618642 0.185995
Si Si3 0.626344 0.206144 0.720982
Si Si4 0.985010 0.229551 0.491207
Si Si5 0.883968 0.432429 0.341272
Si Si6 0.315261 0.065265 0.151499
Si Si7 0.776498 0.743473 0.685277
Si Si8 0.893184 0.371893 0.021420
O O1 0.258258 0.620935 0.313016
O O2 0.206334 0.657971 0.581040
O O3 0.480355 0.527143 0.648504
O O4 0.097688 0.481592 0.402527
O O5 0.455347 0.656505 0.164730
O O6 0.735405 0.518889 0.322255
O O7 0.831351 0.702424 0.288711
O O8 0.616915 0.592017 0.986339
O O9 0.445867 0.256635 0.516674
O O10 0.785326 0.290789 0.853607
O O11 0.923394 0.345272 0.489294
O O12 0.059746 0.212504 0.355806
O O13 0.787244 0.378751 0.134568
O O14 0.222750 0.160248 0.183251
O O15 0.140471 0.980877 0.070853
O O16 0.865726 0.842652 0.820328
#
# Coordination Sequence:
#
# PCOD8046462 Si02
#       8
#     2   2   2   2   2   2   2   2
#     4  10  22  40  63  91 126 158 202 254 301 358
#     4   9  20  38  59  87 124 155 206 250 297 364
#     4  10  22  41  63  86 121 166 195 254 303 354
#     4   9  19  39  63  82 121 167 191 249 305 353
#     4   9  20  40  62  88 121 163 200 251 304 362
#     4  10  22  39  63  93 119 160 205 251 303 361
#     4   9  21  41  60  88 125 156 199 251 304 357
#     4  10  22  36  67  85 121 157 206 244 305 359
#
# _framework density 21.210933000000001
#
# number of rings (size 3 to 8) (size 9 to 14) (size 15 to 20)
#    0.000    2.500    0.000    0.000   14.000    0.000 
#    9.000    0.000    0.000    0.000    0.000    0.000 
#    0.000    0.000    0.000    0.000    0.000    0.000 
#
# Total GULP energy -198268.494282 kJ/mol
# GULP energy per Si atom -12391.780893 kJ/mol
# Density = 2.116266 g / cm^3
# Si number density = 21.210933 Si / 1000 Ang^3
#
#
#
# Elastic Constant Matrix: (Units=GPa)
#
#
# Indices 1 2 3 4 5 6 
#
# 1 50.7418 7.6216 8.1618 0.0000 -4.4210 0.0000
# 2 7.6216 84.4503 40.1835 0.0000 -2.7991 0.0000
# 3 8.1618 40.1835 80.4203 0.0000 -1.6656 0.0000
# 4 0.0000 0.0000 0.0000 36.9429 0.0000 -2.2261
# 5 -4.4210 -2.7991 -1.6656 0.0000 21.5405 0.0000
# 6 0.0000 0.0000 0.0000 -2.2261 0.0000 33.0989
#
#
#
# Elastic Compliance Matrix: (Units=1/GPa)
#
#
# Indices 1 2 3 4 5 6 
#
# 1 0.020442 -0.001005 -0.001491 0.000000 0.003950 0.000000
# 2 -0.001005 0.015628 -0.007681 0.000000 0.001231 0.000000
# 3 -0.001491 -0.007681 0.016423 0.000000 -0.000034 0.000000
# 4 0.000000 0.000000 0.000000 0.027179 0.000000 0.001828
# 5 0.003950 0.001231 -0.000034 0.000000 0.047392 0.000000
# 6 0.000000 0.000000 0.000000 0.001828 0.000000 0.030335
#
#
# Mechanical properties :
#
#
# Convention : Reuss Voigt Hill
#
# Bulk Modulus (GPa) = 31.11386 36.39402 33.75394
# Shear Modulus (GPa) = 26.52989 28.95950 27.74470
#
# Velocity S-wave (km/s) = 3.54045 3.69902 3.62060
# Velocity P-wave (km/s) = 5.60479 5.95307 5.78155
#
# Compressibility (1/GPa) = 0.03214001
#
# Stress axis : x y z
#
# Youngs Moduli (GPa) = 48.91779 63.98919 60.88896
#
# Poissons Ratio (x) = 0.06428 0.09078
# Poissons Ratio (y) = 0.04914 0.46770
# Poissons Ratio (z) = 0.07293 0.49151
#
# Static dielectric constant tensor:
#      x y z
#    x 3.613220 0.000000 0.046610 
#    y 0.000000 4.026480 0.000000 
#    z 0.046610 0.000000 3.895860 
# 
# 
# High freq. dielectric constant tensor:
#      x y z
#    x 1.805750 0.000000 0.003090 
#    y 0.000000 1.834600 0.000000 
#    z 0.003090 0.000000 1.832380 
# 
# From -- ./inp_files/6783.got.cif
#   From: 2010.03.12/outbox.cif.g09.slc.cpg/sg4_4_cif.got.tgz:6783.got - 2010.03.31 09:31:35.
