data_PCOD8046407
_publ_section_title
;
Structure prediction by ZEFSAII (Michael W. Deem and Ramdas Pophale) SiO2 
 PCOD8046407
Probable space group: P 21
;
_chemical_formula_sum "Si O2"
_cell_formula_units_Z 16
_cell_length_a 11.223938
_cell_length_b 9.316855
_cell_length_c 13.851067
_cell_angle_alpha 90.000000
_cell_angle_beta 29.165550
_cell_angle_gamma 90.000000
_cell_volume 705.870729
_symmetry_space_group_name_H-M "P 21"
_symmetry_group_IT_number 4
_symmetry_cell_setting 'monoclinic'
loop_
_space_group_symop_operation_xyz
x,y,z
-x,1/2+y,-z
loop_
_atom_site_type_symbol
_atom_site_label
_atom_site_fract_x
_atom_site_fract_y
_atom_site_fract_z
Si Si1 0.916874 0.639960 0.629095
Si Si2 0.543258 0.610207 0.660632
Si Si3 0.205487 0.576667 0.608759
Si Si4 0.877002 0.243430 0.158572
Si Si5 0.092045 0.272523 0.696190
Si Si6 0.012806 0.956692 0.608776
Si Si7 0.362123 0.612886 0.001029
Si Si8 0.771118 0.579602 0.223728
O O1 0.982914 0.574477 0.479385
O O2 0.071170 0.560480 0.601775
O O3 0.995892 0.804489 0.570892
O O4 0.628530 0.629654 0.859126
O O5 0.352756 0.642025 0.709844
O O6 0.733983 0.746439 0.521419
O O7 0.723759 0.470930 0.521476
O O8 0.388790 0.590575 0.867263
O O9 0.094907 0.710630 0.747089
O O10 0.142837 0.426551 0.707743
O O11 0.491035 0.592997 0.393792
O O12 0.850294 0.412674 0.158921
O O13 0.109814 0.184232 0.938760
O O14 0.165042 0.142065 0.716623
O O15 0.806650 0.255632 0.868351
O O16 0.784825 0.983337 0.842716
#
# Coordination Sequence:
#
# PCOD8046407 Si02
#       8
#     2   2   2   2   2   2   2   2
#     4  11  28  46  73 103 141 186 238 288 358 414
#     4  10  21  43  71  98 137 183 232 280 355 405
#     4  12  27  43  70 107 145 181 230 293 350 423
#     4  12  26  42  71 106 143 185 235 285 354 425
#     4  11  23  44  73  97 142 185 228 288 348 415
#     4  10  26  46  72 103 138 187 235 298 343 420
#     4  10  24  44  74  98 134 183 238 284 348 411
#     4  12  25  46  68 106 144 188 232 286 354 421
#
# _framework density 22.66704
#
# number of rings (size 3 to 8) (size 9 to 14) (size 15 to 20)
#    0.000    1.000    3.750    0.750   10.500    4.000 
#    0.000    0.000    0.000    0.000    0.000    0.000 
#    0.000    0.000    0.000    0.000    0.000    0.000 
#
# Total GULP energy -198255.081133 kJ/mol
# GULP energy per Si atom -12390.942571 kJ/mol
# Density = 2.261545 g / cm^3
# Si number density = 22.667040 Si / 1000 Ang^3
#
#
#
# Elastic Constant Matrix: (Units=GPa)
#
#
# Indices 1 2 3 4 5 6 
#
# 1 79.0575 23.6283 26.6819 0.0000 -11.2759 0.0000
# 2 23.6283 118.3460 45.3852 0.0000 -4.0204 0.0000
# 3 26.6819 45.3852 134.8448 0.0000 -1.4446 0.0000
# 4 0.0000 0.0000 0.0000 29.8430 0.0000 3.3712
# 5 -11.2759 -4.0204 -1.4446 0.0000 39.6101 0.0000
# 6 0.0000 0.0000 0.0000 3.3712 0.0000 32.4056
#
#
#
# Elastic Compliance Matrix: (Units=1/GPa)
#
#
# Indices 1 2 3 4 5 6 
#
# 1 0.014512 -0.001930 -0.002181 0.000000 0.003856 0.000000
# 2 -0.001930 0.009989 -0.002976 0.000000 0.000356 0.000000
# 3 -0.002181 -0.002976 0.008843 0.000000 -0.000600 0.000000
# 4 0.000000 0.000000 0.000000 0.033907 0.000000 -0.003527
# 5 0.003856 0.000356 -0.000600 0.000000 0.026358 0.000000
# 6 0.000000 0.000000 0.000000 -0.003527 0.000000 0.031226
#
#
# Mechanical properties :
#
#
# Convention : Reuss Voigt Hill
#
# Bulk Modulus (GPa) = 52.16654 58.18210 55.17432
# Shear Modulus (GPa) = 34.38852 36.14194 35.26523
#
# Velocity S-wave (km/s) = 3.89924 3.99741 3.94863
# Velocity P-wave (km/s) = 6.58304 6.85782 6.72183
#
# Compressibility (1/GPa) = 0.01916938
#
# Stress axis : x y z
#
# Youngs Moduli (GPa) = 68.90970 100.11419 113.08812
#
# Poissons Ratio (x) = 0.19323 0.24659
# Poissons Ratio (y) = 0.13300 0.33657
# Poissons Ratio (z) = 0.15026 0.29796
#
# Static dielectric constant tensor:
#      x y z
#    x 4.094140 0.000000 -0.141590 
#    y 0.000000 3.996950 0.000000 
#    z -0.141590 0.000000 4.340280 
# 
# 
# High freq. dielectric constant tensor:
#      x y z
#    x 1.892040 0.000000 -0.004920 
#    y 0.000000 1.885570 0.000000 
#    z -0.004920 0.000000 1.912340 
# 
# From -- ./inp_files/13945.got.cif
#   From: 2010.03.12/outbox.cif.g09.slc.cpg/sg4_7_cif.got.tgz:13945.got - 2010.03.31 09:31:35.
