data_PCOD8046387
_publ_section_title
;
Structure prediction by ZEFSAII (Michael W. Deem and Ramdas Pophale) SiO2 
 PCOD8046387
Probable space group: P 21
;
_chemical_formula_sum "Si O2"
_cell_formula_units_Z 16
_cell_length_a 6.775658
_cell_length_b 9.064341
_cell_length_c 13.335451
_cell_angle_alpha 90.000000
_cell_angle_beta 74.350173
_cell_angle_gamma 90.000000
_cell_volume 788.659225
_symmetry_space_group_name_H-M "P 21"
_symmetry_group_IT_number 4
_symmetry_cell_setting 'monoclinic'
loop_
_space_group_symop_operation_xyz
x,y,z
-x,1/2+y,-z
loop_
_atom_site_type_symbol
_atom_site_label
_atom_site_fract_x
_atom_site_fract_y
_atom_site_fract_z
Si Si1 0.337037 0.996010 0.729304
Si Si2 0.956997 0.061716 0.906055
Si Si3 0.238801 0.090021 0.222235
Si Si4 0.824936 0.392952 0.949877
Si Si5 0.839026 0.221015 0.354937
Si Si6 0.477359 0.706667 0.450996
Si Si7 0.580900 0.875435 0.877989
Si Si8 0.500132 0.525610 0.629083
O O1 0.223660 0.883236 0.671686
O O2 0.489506 0.912940 0.782497
O O3 0.483652 0.108096 0.651067
O O4 0.158463 0.084092 0.810792
O O5 0.877404 0.221723 0.944974
O O6 0.782662 0.970386 0.872506
O O7 0.018640 0.974627 0.997759
O O8 0.366908 0.201125 0.133820
O O9 0.075928 0.190452 0.304559
O O10 0.146763 0.962744 0.164230
O O11 0.364260 0.005313 0.290936
O O12 0.587186 0.407870 0.013840
O O13 0.765688 0.206790 0.482426
O O14 0.716073 0.097341 0.306821
O O15 0.598545 0.638227 0.531635
O O16 0.549746 0.871146 0.417441
#
# Coordination Sequence:
#
# PCOD8046387 Si02
#       8
#     2   2   2   2   2   2   2   2
#     4  11  22  43  68  94 132 169 219 263 327 387
#     4  11  25  44  67  95 130 175 215 273 327 391
#     4  12  24  42  69  98 130 175 221 265 331 392
#     4  11  27  43  65 100 130 171 222 270 329 390
#     4  10  21  43  64  93 130 175 210 264 327 381
#     4  10  21  45  63  96 135 171 209 274 322 379
#     4  11  23  44  69  93 129 176 213 274 326 383
#     4  10  23  42  65  95 136 172 217 267 323 389
#
# _framework density 20.287593999999999
#
# number of rings (size 3 to 8) (size 9 to 14) (size 15 to 20)
#    0.750    0.500    3.750    1.500    5.250    2.000 
#    6.750    0.000    0.000    0.000    0.000    0.000 
#    0.000    0.000    0.000    0.000    0.000    0.000 
#
# Total GULP energy -198300.229686 kJ/mol
# GULP energy per Si atom -12393.764355 kJ/mol
# Density = 2.024142 g / cm^3
# Si number density = 20.287594 Si / 1000 Ang^3
#
#
#
# Elastic Constant Matrix: (Units=GPa)
#
#
# Indices 1 2 3 4 5 6 
#
# 1 64.1755 19.6401 14.4869 0.0000 2.4276 0.0000
# 2 19.6401 119.5805 28.7496 0.0000 11.5992 0.0000
# 3 14.4869 28.7496 77.9569 0.0000 0.2558 0.0000
# 4 0.0000 0.0000 0.0000 35.4872 0.0000 0.9275
# 5 2.4276 11.5992 0.2558 0.0000 23.2279 0.0000
# 6 0.0000 0.0000 0.0000 0.9275 0.0000 25.8251
#
#
#
# Elastic Compliance Matrix: (Units=1/GPa)
#
#
# Indices 1 2 3 4 5 6 
#
# 1 0.016786 -0.002132 -0.002331 0.000000 -0.000664 0.000000
# 2 -0.002132 0.009953 -0.003259 0.000000 -0.004712 0.000000
# 3 -0.002331 -0.003259 0.014457 0.000000 0.001712 0.000000
# 4 0.000000 0.000000 0.000000 0.028206 0.000000 -0.001013
# 5 -0.000664 -0.004712 0.001712 0.000000 0.045455 0.000000
# 6 0.000000 0.000000 0.000000 -0.001013 0.000000 0.038758
#
#
# Mechanical properties :
#
#
# Convention : Reuss Voigt Hill
#
# Bulk Modulus (GPa) = 38.83147 43.05178 40.94163
# Shear Modulus (GPa) = 28.14623 30.16379 29.15501
#
# Velocity S-wave (km/s) = 3.72877 3.86010 3.79500
# Velocity P-wave (km/s) = 6.14169 6.41358 6.27911
#
# Compressibility (1/GPa) = 0.02575231
#
# Stress axis : x y z
#
# Youngs Moduli (GPa) = 59.57311 100.46911 69.17062
#
# Poissons Ratio (x) = 0.21422 0.16123
# Poissons Ratio (y) = 0.12702 0.22543
# Poissons Ratio (z) = 0.13886 0.32743
#
# Static dielectric constant tensor:
#      x y z
#    x 3.503650 0.000000 -0.126130 
#    y 0.000000 3.625340 0.000000 
#    z -0.126130 0.000000 3.733520 
# 
# 
# High freq. dielectric constant tensor:
#      x y z
#    x 1.773760 0.000000 -0.005600 
#    y 0.000000 1.802050 0.000000 
#    z -0.005600 0.000000 1.797930 
# 
# From -- ./inp_files/13246.got.cif
#   From: 2010.03.12/outbox.cif.g09.slc.cpg/sg4_7_cif.got.tgz:13246.got - 2010.03.31 09:31:35.
