data_PCOD8046496
_publ_section_title
;
Structure prediction by ZEFSAII (Michael W. Deem and Ramdas Pophale) SiO2 
 PCOD8046496
Probable space group: P 21
;
_chemical_formula_sum "Si O2"
_cell_formula_units_Z 16
_cell_length_a 11.340375
_cell_length_b 11.670277
_cell_length_c 8.866918
_cell_angle_alpha 90.000000
_cell_angle_beta 139.992712
_cell_angle_gamma 90.000000
_cell_volume 754.422436
_symmetry_space_group_name_H-M "P 21"
_symmetry_group_IT_number 4
_symmetry_cell_setting 'monoclinic'
loop_
_space_group_symop_operation_xyz
x,y,z
-x,1/2+y,-z
loop_
_atom_site_type_symbol
_atom_site_label
_atom_site_fract_x
_atom_site_fract_y
_atom_site_fract_z
Si Si1 0.877534 0.958960 0.119008
Si Si2 0.313823 0.811936 0.088692
Si Si3 0.956962 0.178981 0.361442
Si Si4 0.645409 0.225261 0.295318
Si Si5 0.753505 0.406887 0.650114
Si Si6 0.723136 0.808011 0.201941
Si Si7 0.482123 0.495318 0.888180
Si Si8 0.506571 0.074656 0.756930
O O1 0.831781 0.838579 0.155381
O O2 0.027821 0.930759 0.138553
O O3 0.964090 0.045961 0.326556
O O4 0.692505 0.015753 0.872793
O O5 0.304899 0.866009 0.244128
O O6 0.353090 0.919289 0.016843
O O7 0.472849 0.712948 0.237048
O O8 0.119162 0.755696 0.852073
O O9 0.825535 0.203002 0.373400
O O10 0.167987 0.208884 0.604745
O O11 0.694208 0.304511 0.482108
O O12 0.560605 0.102727 0.264131
O O13 0.489607 0.281426 0.038714
O O14 0.656223 0.526051 0.506622
O O15 0.706231 0.921194 0.289714
O O16 0.526753 0.541404 0.100962
#
# Coordination Sequence:
#
# PCOD8046496 Si02
#       8
#     2   2   2   2   2   2   2   2
#     4  10  22  39  64  97 124 172 217 268 330 378
#     4  11  25  44  63 100 138 173 215 271 338 396
#     4  11  22  40  66  94 126 165 230 273 313 382
#     4  12  22  40  65  98 130 169 217 278 317 388
#     4  12  25  42  65  94 145 175 207 272 344 399
#     4  11  21  37  66  98 120 168 223 275 318 368
#     4  11  21  42  67  97 125 167 231 266 320 376
#     4  10  22  46  68  92 132 175 226 279 310 395
#
# _framework density 21.208278
#
# number of rings (size 3 to 8) (size 9 to 14) (size 15 to 20)
#    0.000    1.000    8.750    0.000    5.250    0.000 
#    2.250    2.500    0.000    0.000    0.000    0.000 
#    0.000    0.000    0.000    0.000    0.000    0.000 
#
# Total GULP energy -198291.287779 kJ/mol
# GULP energy per Si atom -12393.205486 kJ/mol
# Density = 2.116001 g / cm^3
# Si number density = 21.208278 Si / 1000 Ang^3
#
#
#
# Elastic Constant Matrix: (Units=GPa)
#
#
# Indices 1 2 3 4 5 6 
#
# 1 91.2469 29.9568 26.2564 0.0000 -10.2812 0.0000
# 2 29.9568 87.3338 1.5774 0.0000 -6.9153 0.0000
# 3 26.2564 1.5774 46.4162 0.0000 1.2737 0.0000
# 4 0.0000 0.0000 0.0000 27.5294 0.0000 2.6074
# 5 -10.2812 -6.9153 1.2737 0.0000 27.2368 0.0000
# 6 0.0000 0.0000 0.0000 2.6074 0.0000 31.0259
#
#
#
# Elastic Compliance Matrix: (Units=1/GPa)
#
#
# Indices 1 2 3 4 5 6 
#
# 1 0.015653 -0.004806 -0.008831 0.000000 0.005101 0.000000
# 2 -0.004806 0.013171 0.002232 0.000000 0.001426 0.000000
# 3 -0.008831 0.002232 0.026574 0.000000 -0.004010 0.000000
# 4 0.000000 0.000000 0.000000 0.036616 0.000000 -0.003077
# 5 0.005101 0.001426 -0.004010 0.000000 0.039190 0.000000
# 6 0.000000 0.000000 0.000000 -0.003077 0.000000 0.032490
#
#
# Mechanical properties :
#
#
# Convention : Reuss Voigt Hill
#
# Bulk Modulus (GPa) = 30.68618 37.84201 34.26409
# Shear Modulus (GPa) = 25.33346 28.30551 26.81949
#
# Velocity S-wave (km/s) = 3.45992 3.65724 3.55995
# Velocity P-wave (km/s) = 5.51921 5.97626 5.75228
#
# Compressibility (1/GPa) = 0.03258796
#
# Stress axis : x y z
#
# Youngs Moduli (GPa) = 63.88557 75.92236 37.63085
#
# Poissons Ratio (x) = 0.36486 0.33232
# Poissons Ratio (y) = 0.30702 -0.08398
# Poissons Ratio (z) = 0.56418 -0.16944
#
# Static dielectric constant tensor:
#      x y z
#    x 3.742680 0.000000 0.225360 
#    y 0.000000 4.332030 0.000000 
#    z 0.225360 0.000000 3.540080 
# 
# 
# High freq. dielectric constant tensor:
#      x y z
#    x 1.820910 0.000000 0.023050 
#    y 0.000000 1.852710 0.000000 
#    z 0.023050 0.000000 1.796320 
# 
# From -- ./inp_files/8295.got.cif
#   From: 2010.03.12/outbox.cif.g09.slc.cpg/sg4_5_cif.got.tgz:8295.got - 2010.03.31 09:31:35.
