data_PCOD8046525
_publ_section_title
;
Structure prediction by ZEFSAII (Michael W. Deem and Ramdas Pophale) SiO2 
 PCOD8046525
Probable space group: P 21
;
_chemical_formula_sum "Si O2"
_cell_formula_units_Z 8
_cell_length_a 5.942195
_cell_length_b 8.803540
_cell_length_c 9.360045
_cell_angle_alpha 90.000000
_cell_angle_beta 51.429297
_cell_angle_gamma 90.000000
_cell_volume 382.824495
_symmetry_space_group_name_H-M "P 21"
_symmetry_group_IT_number 4
_symmetry_cell_setting 'monoclinic'
loop_
_space_group_symop_operation_xyz
x,y,z
-x,1/2+y,-z
loop_
_atom_site_type_symbol
_atom_site_label
_atom_site_fract_x
_atom_site_fract_y
_atom_site_fract_z
Si Si1 0.788531 0.970080 0.332684
Si Si2 0.436288 0.162054 0.690260
Si Si3 0.382967 0.829148 0.110272
Si Si4 0.808156 0.077178 0.012320
O O1 0.634768 0.808732 0.375704
O O2 0.122657 0.946366 0.238436
O O3 0.646432 0.053956 0.520887
O O4 0.755724 0.069443 0.202285
O O5 0.603490 0.207482 0.767627
O O6 0.145611 0.072206 0.844195
O O7 0.673469 0.928777 0.988211
O O8 0.336106 0.734682 0.983014
#
# Coordination Sequence:
#
# PCOD8046525 Si02
#       4
#     2   2   2   2
#     4  10  23  41  61  89 123 159 201 248 298 355
#     4  10  23  41  61  89 123 159 201 248 298 355
#     4  10  22  40  64  90 120 162 200 244 304 354
#     4  10  22  42  62  90 124 156 200 248 300 358
#
# _framework density 20.897304999999999
#
# number of rings (size 3 to 8) (size 9 to 14) (size 15 to 20)
#    0.000    2.000    0.000    1.500    0.000   18.000 
#    0.000    5.000    0.000    0.000    0.000    0.000 
#    0.000    0.000    0.000    0.000    0.000    0.000 
#
# Total GULP energy -99235.321365 kJ/mol
# GULP energy per Si atom -12404.415171 kJ/mol
# Density = 2.084974 g / cm^3
# Si number density = 20.897305 Si / 1000 Ang^3
#
#
#
# Elastic Constant Matrix: (Units=GPa)
#
#
# Indices 1 2 3 4 5 6 
#
# 1 100.9441 16.8198 19.2156 0.0000 -11.1428 0.0000
# 2 16.8198 60.0697 32.7429 0.0000 -12.9910 0.0000
# 3 19.2156 32.7429 67.0130 0.0000 -13.9979 0.0000
# 4 0.0000 0.0000 0.0000 54.3811 0.0000 -2.0397
# 5 -11.1428 -12.9910 -13.9979 0.0000 12.4383 0.0000
# 6 0.0000 0.0000 0.0000 -2.0397 0.0000 44.0909
#
#
#
# Elastic Compliance Matrix: (Units=1/GPa)
#
#
# Indices 1 2 3 4 5 6 
#
# 1 0.011124 -0.000783 -0.001172 0.000000 0.007829 0.000000
# 2 -0.000783 0.024996 -0.008736 0.000000 0.015575 0.000000
# 3 -0.001172 -0.008736 0.022750 0.000000 0.015428 0.000000
# 4 0.000000 0.000000 0.000000 0.018421 0.000000 0.000852
# 5 0.007829 0.015575 0.015428 0.000000 0.121040 0.000000
# 6 0.000000 0.000000 0.000000 0.000852 0.000000 0.022720
#
#
# Mechanical properties :
#
#
# Convention : Reuss Voigt Hill
#
# Bulk Modulus (GPa) = 26.67426 40.62036 33.64731
# Shear Modulus (GPa) = 19.61341 32.79863 26.20602
#
# Velocity S-wave (km/s) = 3.06692 3.96601 3.54508
# Velocity P-wave (km/s) = 5.03324 6.36023 5.73524
#
# Compressibility (1/GPa) = 0.03748933
#
# Stress axis : x y z
#
# Youngs Moduli (GPa) = 89.89397 40.00572 43.95701
#
# Poissons Ratio (x) = 0.03132 0.05152
# Poissons Ratio (y) = 0.07038 0.38399
# Poissons Ratio (z) = 0.10535 0.34947
#
# Static dielectric constant tensor:
#      x y z
#    x 4.041820 0.000000 -0.017880 
#    y 0.000000 3.923610 0.000000 
#    z -0.017880 0.000000 3.492610 
# 
# 
# High freq. dielectric constant tensor:
#      x y z
#    x 1.837390 0.000000 -0.000060 
#    y 0.000000 1.825630 0.000000 
#    z -0.000060 0.000000 1.798910 
# 
# From -- ./inp_files/160.got.cif
#   From: 2010.03.12/outbox.cif.g09.slc.cpg/sg4_1_cif.got.tgz:160.got - 2010.03.31 09:31:35.
