data_PCOD8046280
_publ_section_title
;
Structure prediction by ZEFSAII (Michael W. Deem and Ramdas Pophale) SiO2 
 PCOD8046280
Probable space group: P 21
;
_chemical_formula_sum "Si O2"
_cell_formula_units_Z 16
_cell_length_a 9.699949
_cell_length_b 11.113677
_cell_length_c 11.830751
_cell_angle_alpha 90.000000
_cell_angle_beta 145.425761
_cell_angle_gamma 90.000000
_cell_volume 723.744361
_symmetry_space_group_name_H-M "P 21"
_symmetry_group_IT_number 4
_symmetry_cell_setting 'monoclinic'
loop_
_space_group_symop_operation_xyz
x,y,z
-x,1/2+y,-z
loop_
_atom_site_type_symbol
_atom_site_label
_atom_site_fract_x
_atom_site_fract_y
_atom_site_fract_z
Si Si1 0.762010 0.156180 0.351076
Si Si2 0.102135 0.108757 0.389519
Si Si3 0.198661 0.762773 0.301706
Si Si4 0.088047 0.525123 0.333675
Si Si5 0.453450 0.943850 0.064644
Si Si6 0.394802 0.883762 0.639471
Si Si7 0.220391 0.438503 0.939610
Si Si8 0.452634 0.320864 0.643876
O O1 0.928362 0.106542 0.564967
O O2 0.660666 0.288020 0.301178
O O3 0.929571 0.179116 0.357248
O O4 0.536457 0.069212 0.175016
O O5 0.323859 0.197239 0.514883
O O6 0.187032 0.983933 0.502727
O O7 0.939312 0.062413 0.173441
O O8 0.160854 0.617996 0.282010
O O9 0.408903 0.812578 0.529885
O O10 0.281077 0.807960 0.233347
O O11 0.945633 0.820595 0.168799
O O12 0.305750 0.430482 0.489981
O O13 0.836158 0.453689 0.147236
O O14 0.598430 0.922744 0.045912
O O15 0.514171 0.838022 0.198010
O O16 0.643529 0.946993 0.847807
#
# Coordination Sequence:
#
# PCOD8046280 Si02
#       8
#     2   2   2   2   2   2   2   2
#     4   9  20  37  63  95 126 164 209 269 329 378
#     4  10  23  37  61  95 130 165 210 268 319 382
#     4  10  24  43  67  92 128 177 212 266 321 391
#     4  10  22  41  68  89 132 172 213 266 325 378
#     4  10  22  41  66 102 126 164 215 273 321 385
#     4  10  21  40  66  90 125 168 213 263 322 380
#     4  10  22  41  68  98 126 163 219 267 325 386
#     4  11  26  42  63  95 133 171 217 260 324 388
#
# _framework density 22.107251999999999
#
# number of rings (size 3 to 8) (size 9 to 14) (size 15 to 20)
#    0.000    2.000    0.000    1.500   14.000    2.000 
#    2.250    0.000    0.000    0.000    0.000    0.000 
#    0.000    0.000    0.000    0.000    0.000    0.000 
#
# Total GULP energy -198295.819646 kJ/mol
# GULP energy per Si atom -12393.488728 kJ/mol
# Density = 2.205694 g / cm^3
# Si number density = 22.107252 Si / 1000 Ang^3
#
#
#
# Elastic Constant Matrix: (Units=GPa)
#
#
# Indices 1 2 3 4 5 6 
#
# 1 68.0920 14.1522 15.2739 0.0000 14.1193 0.0000
# 2 14.1522 67.2786 6.4509 0.0000 9.7713 0.0000
# 3 15.2739 6.4509 97.0880 0.0000 6.5812 0.0000
# 4 0.0000 0.0000 0.0000 33.3069 0.0000 3.4075
# 5 14.1193 9.7713 6.5812 0.0000 23.3023 0.0000
# 6 0.0000 0.0000 0.0000 3.4075 0.0000 25.6411
#
#
#
# Elastic Compliance Matrix: (Units=1/GPa)
#
#
# Indices 1 2 3 4 5 6 
#
# 1 0.017472 -0.002160 -0.001987 0.000000 -0.009119 0.000000
# 2 -0.002160 0.016131 -0.000369 0.000000 -0.005351 0.000000
# 3 -0.001987 -0.000369 0.010751 0.000000 -0.001678 0.000000
# 4 0.000000 0.000000 0.000000 0.030438 0.000000 -0.004045
# 5 -0.009119 -0.005351 -0.001678 0.000000 0.051157 0.000000
# 6 0.000000 0.000000 0.000000 -0.004045 0.000000 0.039537
#
#
# Mechanical properties :
#
#
# Convention : Reuss Voigt Hill
#
# Bulk Modulus (GPa) = 28.31244 33.80141 31.05692
# Shear Modulus (GPa) = 26.83965 29.55549 28.19757
#
# Velocity S-wave (km/s) = 3.48812 3.66035 3.57527
# Velocity P-wave (km/s) = 5.39049 5.76083 5.57873
#
# Compressibility (1/GPa) = 0.03532017
#
# Stress axis : x y z
#
# Youngs Moduli (GPa) = 57.23559 61.99433 93.01662
#
# Poissons Ratio (x) = 0.13392 0.18482
# Poissons Ratio (y) = 0.12364 0.03434
# Poissons Ratio (z) = 0.11372 0.02289
#
# Static dielectric constant tensor:
#      x y z
#    x 3.691190 0.000000 -0.067000 
#    y 0.000000 3.992540 0.000000 
#    z -0.067000 0.000000 4.247440 
# 
# 
# High freq. dielectric constant tensor:
#      x y z
#    x 1.846740 0.000000 0.002060 
#    y 0.000000 1.876040 0.000000 
#    z 0.002060 0.000000 1.872600 
# 
# From -- ./inp_files/11305.got.cif
#   From: 2010.03.12/outbox.cif.g09.slc.cpg/sg4_6_cif.got.tgz:11305.got - 2010.03.31 09:31:35.
