data_PCOD8046831
_publ_section_title
;
Structure prediction by ZEFSAII (Michael W. Deem and Ramdas Pophale) SiO2 
 PCOD8046831
Probable space group: P 21
;
_chemical_formula_sum "Si O2"
_cell_formula_units_Z 16
_cell_length_a 11.582766
_cell_length_b 8.613001
_cell_length_c 9.892027
_cell_angle_alpha 90.000000
_cell_angle_beta 48.904127
_cell_angle_gamma 90.000000
_cell_volume 743.702349
_symmetry_space_group_name_H-M "P 21"
_symmetry_group_IT_number 4
_symmetry_cell_setting 'monoclinic'
loop_
_space_group_symop_operation_xyz
x,y,z
-x,1/2+y,-z
loop_
_atom_site_type_symbol
_atom_site_label
_atom_site_fract_x
_atom_site_fract_y
_atom_site_fract_z
Si Si1 0.340020 0.565020 0.538520
Si Si2 0.540927 0.382038 0.886221
Si Si3 0.344205 0.552772 0.233686
Si Si4 0.418716 0.922144 0.448644
Si Si5 0.005753 0.646016 0.862606
Si Si6 0.089036 0.004196 0.788924
Si Si7 0.025557 0.668691 0.375883
Si Si8 0.140813 0.002379 0.276685
O O1 0.356050 0.487649 0.377553
O O2 0.393011 0.741326 0.489759
O O3 0.441428 0.471264 0.565459
O O4 0.165582 0.555413 0.723364
O O5 0.540505 0.196938 0.874663
O O6 0.537960 0.459324 0.739908
O O7 0.686426 0.441002 0.860044
O O8 0.389695 0.423587 0.088617
O O9 0.172903 0.610952 0.344186
O O10 0.264831 0.014096 0.605867
O O11 0.030356 0.829492 0.846314
O O12 0.891069 0.605582 0.829738
O O13 0.921388 0.592011 0.062031
O O14 0.980741 0.096373 0.768286
O O15 0.025255 0.854917 0.369299
O O16 0.881222 0.608695 0.573645
#
# Coordination Sequence:
#
# PCOD8046831 Si02
#       8
#     2   2   2   2   2   2   2   2
#     4  10  23  43  62  87 125 163 202 251 304 362
#     4  10  23  42  62  90 124 160 203 252 304 361
#     4  10  23  42  62  90 124 160 203 252 304 361
#     4  10  23  43  62  87 125 163 202 251 304 362
#     4  11  24  43  64  92 126 162 206 257 308 367
#     4  11  24  43  64  92 126 162 206 257 308 367
#     4  11  22  41  66  92 123 161 206 257 309 365
#     4  11  22  41  66  92 123 161 206 257 309 365
#
# _framework density 21.513983
#
# number of rings (size 3 to 8) (size 9 to 14) (size 15 to 20)
#    0.000    1.500    2.500    1.500    3.500    5.000 
#    0.000    0.000    0.000    0.000    0.000    0.000 
#    0.000    0.000    0.000    0.000    0.000    0.000 
#
# Total GULP energy -198479.891159 kJ/mol
# GULP energy per Si atom -12404.993197 kJ/mol
# Density = 2.146502 g / cm^3
# Si number density = 21.513983 Si / 1000 Ang^3
#
#
#
# Elastic Constant Matrix: (Units=GPa)
#
#
# Indices 1 2 3 4 5 6 
#
# 1 71.7664 -2.8460 19.0334 0.0000 21.8065 0.0000
# 2 -2.8460 25.3778 10.1165 0.0000 11.8907 0.0000
# 3 19.0334 10.1165 98.2210 0.0000 31.2464 0.0000
# 4 0.0000 0.0000 0.0000 30.9664 0.0000 3.2185
# 5 21.8065 11.8907 31.2464 0.0000 29.4448 0.0000
# 6 0.0000 0.0000 0.0000 3.2185 0.0000 29.2343
#
#
#
# Elastic Compliance Matrix: (Units=1/GPa)
#
#
# Indices 1 2 3 4 5 6 
#
# 1 0.020599 0.011878 0.001757 0.000000 -0.021917 0.000000
# 2 0.011878 0.055679 0.002891 0.000000 -0.034349 0.000000
# 3 0.001757 0.002891 0.015592 0.000000 -0.019014 0.000000
# 4 0.000000 0.000000 0.000000 0.032667 0.000000 -0.003596
# 5 -0.021917 -0.034349 -0.019014 0.000000 0.084242 0.000000
# 6 0.000000 0.000000 0.000000 -0.003596 0.000000 0.034602
#
#
# Mechanical properties :
#
#
# Convention : Reuss Voigt Hill
#
# Bulk Modulus (GPa) = 8.00502 27.55256 17.77879
# Shear Modulus (GPa) = 19.84378 29.19985 24.52182
#
# Velocity S-wave (km/s) = 3.04034 3.68808 3.37977
# Velocity P-wave (km/s) = 4.00673 5.56512 4.84894
#
# Compressibility (1/GPa) = 0.12492159
#
# Stress axis : x y z
#
# Youngs Moduli (GPa) = 48.54711 17.96024 64.13611
#
# Poissons Ratio (x) = -0.21334 -0.11269
# Poissons Ratio (y) = -0.57666 -0.18540
# Poissons Ratio (z) = -0.08530 -0.05192
#
# Static dielectric constant tensor:
#      x y z
#    x 3.900750 0.000000 0.095780 
#    y 0.000000 3.890830 0.000000 
#    z 0.095780 0.000000 3.869400 
# 
# 
# High freq. dielectric constant tensor:
#      x y z
#    x 1.847610 0.000000 0.008410 
#    y 0.000000 1.842350 0.000000 
#    z 0.008410 0.000000 1.849250 
# 
# From -- ./inp_files/5396.got.cif
#   From: 2010.03.12/outbox.cif.g09.slc.cpg/sg4_3_cif.got.tgz:5396.got - 2010.03.31 09:31:35.
