data_PCOD8046818
_publ_section_title
;
Structure prediction by ZEFSAII (Michael W. Deem and Ramdas Pophale) SiO2 
 PCOD8046818
Probable space group: P 21
;
_chemical_formula_sum "Si O2"
_cell_formula_units_Z 16
_cell_length_a 6.608718
_cell_length_b 9.482957
_cell_length_c 11.177407
_cell_angle_alpha 90.000000
_cell_angle_beta 72.924402
_cell_angle_gamma 90.000000
_cell_volume 669.611307
_symmetry_space_group_name_H-M "P 21"
_symmetry_group_IT_number 4
_symmetry_cell_setting 'monoclinic'
loop_
_space_group_symop_operation_xyz
x,y,z
-x,1/2+y,-z
loop_
_atom_site_type_symbol
_atom_site_label
_atom_site_fract_x
_atom_site_fract_y
_atom_site_fract_z
Si Si1 0.790715 0.104750 0.116401
Si Si2 0.153107 0.426722 0.393688
Si Si3 0.546141 0.623343 0.359449
Si Si4 0.812307 0.550967 0.099608
Si Si5 0.964637 0.823161 0.829736
Si Si6 0.468560 0.893059 0.241217
Si Si7 0.531596 0.730119 0.001073
Si Si8 0.219517 0.099755 0.437859
O O1 0.917569 0.172284 0.209411
O O2 0.706764 0.953939 0.178051
O O3 0.595686 0.193649 0.095589
O O4 0.961209 0.110622 0.980221
O O5 0.379219 0.502828 0.351202
O O6 0.044785 0.423315 0.282937
O O7 0.173426 0.263910 0.427169
O O8 0.998345 0.516317 0.504258
O O9 0.749649 0.618813 0.237729
O O10 0.454928 0.782075 0.354419
O O11 0.612799 0.592501 0.483311
O O12 0.622420 0.581729 0.039449
O O13 0.860142 0.386160 0.107662
O O14 0.732820 0.822642 0.927229
O O15 0.402847 0.814758 0.127929
O O16 0.321995 0.026939 0.302075
#
# Coordination Sequence:
#
# PCOD8046818 Si02
#       8
#     2   2   2   2   2   2   2   2
#     4  11  25  44  70 105 153 184 245 297 362 451
#     4  12  28  48  74 106 144 191 248 306 367 437
#     4  11  26  48  74 100 143 191 248 304 370 429
#     4  10  23  41  68 102 136 186 236 289 360 430
#     4  11  24  43  69 105 144 189 238 294 366 432
#     4  11  25  44  72 107 139 191 244 299 364 435
#     4  10  24  42  68 106 146 193 231 298 365 434
#     4  12  27  48  73 105 141 195 246 307 366 434
#
# _framework density 23.894459000000001
#
# number of rings (size 3 to 8) (size 9 to 14) (size 15 to 20)
#    0.000    1.000    2.500    2.250    8.750    4.000 
#    0.000    3.750    0.000    0.000    0.000    0.000 
#    0.000    0.000    0.000    0.000    0.000    0.000 
#
# Total GULP energy -198216.258853 kJ/mol
# GULP energy per Si atom -12388.516178 kJ/mol
# Density = 2.384007 g / cm^3
# Si number density = 23.894459 Si / 1000 Ang^3
#
#
#
# Elastic Constant Matrix: (Units=GPa)
#
#
# Indices 1 2 3 4 5 6 
#
# 1 89.7297 57.9700 40.9903 0.0000 -1.9006 0.0000
# 2 57.9700 145.4712 42.2658 0.0000 -8.3269 0.0000
# 3 40.9903 42.2658 77.9422 0.0000 -12.8780 0.0000
# 4 0.0000 0.0000 0.0000 45.6864 0.0000 -6.3791
# 5 -1.9006 -8.3269 -12.8780 0.0000 36.3694 0.0000
# 6 0.0000 0.0000 0.0000 -6.3791 0.0000 41.1680
#
#
#
# Elastic Compliance Matrix: (Units=1/GPa)
#
#
# Indices 1 2 3 4 5 6 
#
# 1 0.017563 -0.005152 -0.006889 0.000000 -0.002701 0.000000
# 2 -0.005152 0.009675 -0.002353 0.000000 0.001113 0.000000
# 3 -0.006889 -0.002353 0.018673 0.000000 0.005713 0.000000
# 4 0.000000 0.000000 0.000000 0.022372 0.000000 0.003467
# 5 -0.002701 0.001113 0.005713 0.000000 0.029632 0.000000
# 6 0.000000 0.000000 0.000000 0.003467 0.000000 0.024828
#
#
# Mechanical properties :
#
#
# Convention : Reuss Voigt Hill
#
# Bulk Modulus (GPa) = 58.40231 66.17724 62.28977
# Shear Modulus (GPa) = 31.79900 36.10590 33.95245
#
# Velocity S-wave (km/s) = 3.65199 3.89145 3.77362
# Velocity P-wave (km/s) = 6.50212 6.92437 6.71656
#
# Compressibility (1/GPa) = 0.01712261
#
# Stress axis : x y z
#
# Youngs Moduli (GPa) = 56.93885 103.36412 53.55354
#
# Poissons Ratio (x) = 0.53251 0.36893
# Poissons Ratio (y) = 0.29334 0.12601
# Poissons Ratio (z) = 0.39225 0.24322
#
# Static dielectric constant tensor:
#      x y z
#    x 4.179740 0.000000 -0.021150 
#    y 0.000000 4.542610 0.000000 
#    z -0.021150 0.000000 4.282210 
# 
# 
# High freq. dielectric constant tensor:
#      x y z
#    x 1.943320 0.000000 -0.006250 
#    y 0.000000 1.963030 0.000000 
#    z -0.006250 0.000000 1.940820 
# 
# From -- ./inp_files/10321.got.cif
#   From: 2010.03.12/outbox.cif.g09.slc.cpg/sg4_6_cif.got.tgz:10321.got - 2010.03.31 09:31:35.
