data_PCOD8046399
_publ_section_title
;
Structure prediction by ZEFSAII (Michael W. Deem and Ramdas Pophale) SiO2 
 PCOD8046399
Probable space group: P 21
;
_chemical_formula_sum "Si O2"
_cell_formula_units_Z 16
_cell_length_a 8.493340
_cell_length_b 12.547470
_cell_length_c 8.415679
_cell_angle_alpha 90.000000
_cell_angle_beta 129.474769
_cell_angle_gamma 90.000000
_cell_volume 692.289070
_symmetry_space_group_name_H-M "P 21"
_symmetry_group_IT_number 4
_symmetry_cell_setting 'monoclinic'
loop_
_space_group_symop_operation_xyz
x,y,z
-x,1/2+y,-z
loop_
_atom_site_type_symbol
_atom_site_label
_atom_site_fract_x
_atom_site_fract_y
_atom_site_fract_z
Si Si1 0.070357 0.096020 0.442699
Si Si2 0.732742 0.702840 0.009258
Si Si3 0.136387 0.257661 0.223886
Si Si4 0.764485 0.933324 0.165965
Si Si5 0.732028 0.289660 0.791664
Si Si6 0.627127 0.927532 0.424986
Si Si7 0.142977 0.638193 0.383989
Si Si8 0.490535 0.618709 0.129426
O O1 0.048935 0.158733 0.265133
O O2 0.297537 0.086631 0.653176
O O3 0.914410 0.153230 0.467344
O O4 0.988269 0.977309 0.355984
O O5 0.798413 0.818997 0.112938
O O6 0.534682 0.660538 0.976684
O O7 0.924550 0.621888 0.154673
O O8 0.693957 0.714594 0.794718
O O9 0.230498 0.337057 0.410348
O O10 0.953036 0.313533 0.008438
O O11 0.632067 0.921651 0.238991
O O12 0.651008 0.014333 0.971703
O O13 0.609236 0.400522 0.687208
O O14 0.747539 0.239069 0.625639
O O15 0.610330 0.210625 0.831074
O O16 0.703056 0.039291 0.544156
#
# Coordination Sequence:
#
# PCOD8046399 Si02
#       8
#     2   2   2   2   2   2   2   2
#     4  10  21  43  68  94 129 181 222 274 340 403
#     4  10  23  44  65  98 137 178 224 279 346 406
#     4  11  23  41  69  93 136 179 218 286 337 403
#     4  11  23  43  68  96 134 179 223 280 342 404
#     4  11  22  43  67 101 136 172 225 289 334 402
#     4  11  23  43  68  98 134 178 232 272 341 406
#     4   9  23  43  67  94 137 176 224 279 339 408
#     4  11  22  44  68  96 137 169 226 281 333 408
#
# _framework density 23.111730999999999
#
# number of rings (size 3 to 8) (size 9 to 14) (size 15 to 20)
#    0.000    1.500    3.750    0.750    1.750    5.000 
#    4.500    1.250    0.000    0.000    0.000    0.000 
#    0.000    0.000    0.000    0.000    0.000    0.000 
#
# Total GULP energy -198334.199947 kJ/mol
# GULP energy per Si atom -12395.887497 kJ/mol
# Density = 2.305913 g / cm^3
# Si number density = 23.111731 Si / 1000 Ang^3
#
#
#
# Elastic Constant Matrix: (Units=GPa)
#
#
# Indices 1 2 3 4 5 6 
#
# 1 69.0435 3.9496 13.1274 0.0000 -6.5254 0.0000
# 2 3.9496 46.1055 23.7131 0.0000 -4.3077 0.0000
# 3 13.1274 23.7131 77.5683 0.0000 8.6807 0.0000
# 4 0.0000 0.0000 0.0000 37.1980 0.0000 4.1831
# 5 -6.5254 -4.3077 8.6807 0.0000 39.3277 0.0000
# 6 0.0000 0.0000 0.0000 4.1831 0.0000 35.6586
#
#
#
# Elastic Compliance Matrix: (Units=1/GPa)
#
#
# Indices 1 2 3 4 5 6 
#
# 1 0.015362 0.000619 -0.003160 0.000000 0.003314 0.000000
# 2 0.000619 0.026626 -0.008800 0.000000 0.004961 0.000000
# 3 -0.003160 -0.008800 0.016696 0.000000 -0.005173 0.000000
# 4 0.000000 0.000000 0.000000 0.027243 0.000000 -0.003196
# 5 0.003314 0.004961 -0.005173 0.000000 0.027663 0.000000
# 6 0.000000 0.000000 0.000000 -0.003196 0.000000 0.028419
#
#
# Mechanical properties :
#
#
# Convention : Reuss Voigt Hill
#
# Bulk Modulus (GPa) = 27.77598 30.47751 29.12675
# Shear Modulus (GPa) = 28.29819 32.56533 30.43176
#
# Velocity S-wave (km/s) = 3.50295 3.75779 3.63261
# Velocity P-wave (km/s) = 5.32964 5.66071 5.49767
#
# Compressibility (1/GPa) = 0.03600233
#
# Stress axis : x y z
#
# Youngs Moduli (GPa) = 65.09454 37.55760 59.89570
#
# Poissons Ratio (x) = -0.02324 0.18927
# Poissons Ratio (y) = -0.04029 0.52706
# Poissons Ratio (z) = 0.20570 0.33049
#
# Static dielectric constant tensor:
#      x y z
#    x 4.449050 0.000000 -0.117430 
#    y 0.000000 4.035350 0.000000 
#    z -0.117430 0.000000 4.263350 
# 
# 
# High freq. dielectric constant tensor:
#      x y z
#    x 1.927320 0.000000 -0.005580 
#    y 0.000000 1.893400 0.000000 
#    z -0.005580 0.000000 1.914370 
# 
# From -- ./inp_files/6437.got.cif
#   From: 2010.03.12/outbox.cif.g09.slc.cpg/sg4_4_cif.got.tgz:6437.got - 2010.03.31 09:31:35.
