data_PCOD8046620
_publ_section_title
;
Structure prediction by ZEFSAII (Michael W. Deem and Ramdas Pophale) SiO2 
 PCOD8046620
Probable space group: P 21
;
_chemical_formula_sum "Si O2"
_cell_formula_units_Z 16
_cell_length_a 9.020002
_cell_length_b 11.189232
_cell_length_c 11.688402
_cell_angle_alpha 90.000000
_cell_angle_beta 38.763240
_cell_angle_gamma 90.000000
_cell_volume 738.598300
_symmetry_space_group_name_H-M "P 21"
_symmetry_group_IT_number 4
_symmetry_cell_setting 'monoclinic'
loop_
_space_group_symop_operation_xyz
x,y,z
-x,1/2+y,-z
loop_
_atom_site_type_symbol
_atom_site_label
_atom_site_fract_x
_atom_site_fract_y
_atom_site_fract_z
Si Si1 0.619479 0.651320 0.800066
Si Si2 0.873940 0.450471 0.536705
Si Si3 0.027701 0.856464 0.274183
Si Si4 0.599457 0.001900 0.543685
Si Si5 0.155018 0.586550 0.182537
Si Si6 0.890957 0.417766 0.191273
Si Si7 0.106483 0.735382 0.622072
Si Si8 0.640657 0.382110 0.121828
O O1 0.668102 0.547873 0.677574
O O2 0.501297 0.757782 0.799500
O O3 0.864597 0.686010 0.713324
O O4 0.437624 0.606136 0.007521
O O5 0.966522 0.410009 0.603200
O O6 0.774332 0.333427 0.533285
O O7 0.089428 0.504949 0.331003
O O8 0.023593 0.713635 0.272438
O O9 0.779366 0.906889 0.377782
O O10 0.248781 0.911529 0.068855
O O11 0.357543 0.980020 0.618524
O O12 0.543683 0.977586 0.713784
O O13 0.699182 0.134501 0.474036
O O14 0.084258 0.519208 0.106321
O O15 0.951612 0.296489 0.222321
O O16 0.868528 0.377557 0.071971
#
# Coordination Sequence:
#
# PCOD8046620 Si02
#       8
#     2   2   2   2   2   2   2   2
#     4  11  23  44  71 103 137 178 222 294 339 405
#     4  11  23  42  67 103 138 173 225 285 341 402
#     4  11  22  42  69  95 132 183 225 275 347 395
#     4  10  22  42  68  94 138 176 220 278 334 404
#     4  10  24  45  68  98 140 175 234 278 348 404
#     4   9  24  46  69  96 140 176 226 282 333 414
#     4  11  23  43  71 105 130 180 232 274 346 408
#     4   9  23  46  69  98 139 177 224 280 338 408
#
# _framework density 21.662652999999999
#
# number of rings (size 3 to 8) (size 9 to 14) (size 15 to 20)
#    0.750    1.000    1.250    2.250    1.750    6.000 
#   11.250    2.500    0.000    0.000    0.000    0.000 
#    0.000    0.000    0.000    0.000    0.000    0.000 
#
# Total GULP energy -198230.718999 kJ/mol
# GULP energy per Si atom -12389.419937 kJ/mol
# Density = 2.161335 g / cm^3
# Si number density = 21.662653 Si / 1000 Ang^3
#
#
#
# Elastic Constant Matrix: (Units=GPa)
#
#
# Indices 1 2 3 4 5 6 
#
# 1 60.9620 20.9183 -2.7515 0.0000 -0.2168 0.0000
# 2 20.9183 109.0075 28.5293 0.0000 -1.9257 0.0000
# 3 -2.7515 28.5293 69.4603 0.0000 0.7542 0.0000
# 4 0.0000 0.0000 0.0000 24.2982 0.0000 2.7226
# 5 -0.2168 -1.9257 0.7542 0.0000 27.1058 0.0000
# 6 0.0000 0.0000 0.0000 2.7226 0.0000 31.0531
#
#
#
# Elastic Compliance Matrix: (Units=1/GPa)
#
#
# Indices 1 2 3 4 5 6 
#
# 1 0.017904 -0.004062 0.002380 0.000000 -0.000212 0.000000
# 2 -0.004062 0.011220 -0.004779 0.000000 0.000898 0.000000
# 3 0.002380 -0.004779 0.016462 0.000000 -0.000779 0.000000
# 4 0.000000 0.000000 0.000000 0.041564 0.000000 -0.003644
# 5 -0.000212 0.000898 -0.000779 0.000000 0.036976 0.000000
# 6 0.000000 0.000000 0.000000 -0.003644 0.000000 0.032522
#
#
# Mechanical properties :
#
#
# Convention : Reuss Voigt Hill
#
# Bulk Modulus (GPa) = 30.61491 36.98020 33.79756
# Shear Modulus (GPa) = 27.70707 29.34033 28.52370
#
# Velocity S-wave (km/s) = 3.58023 3.68424 3.63260
# Velocity P-wave (km/s) = 5.59052 5.93348 5.76455
#
# Compressibility (1/GPa) = 0.03266382
#
# Stress axis : x y z
#
# Youngs Moduli (GPa) = 55.85248 89.12771 60.74482
#
# Poissons Ratio (x) = 0.36208 -0.14458
# Poissons Ratio (y) = 0.22690 0.29030
# Poissons Ratio (z) = -0.13293 0.42594
#
# Static dielectric constant tensor:
#      x y z
#    x 3.740100 0.000000 -0.019350 
#    y 0.000000 4.106370 0.000000 
#    z -0.019350 0.000000 3.911560 
# 
# 
# High freq. dielectric constant tensor:
#      x y z
#    x 1.837070 0.000000 -0.001420 
#    y 0.000000 1.860800 0.000000 
#    z -0.001420 0.000000 1.845750 
# 
# From -- ./inp_files/11329.got.cif
#   From: 2010.03.12/outbox.cif.g09.slc.cpg/sg4_6_cif.got.tgz:11329.got - 2010.03.31 09:31:35.
