data_PCOD8046890
_publ_section_title
;
Structure prediction by ZEFSAII (Michael W. Deem and Ramdas Pophale) SiO2 
 PCOD8046890
Probable space group: P 21
;
_chemical_formula_sum "Si O2"
_cell_formula_units_Z 16
_cell_length_a 12.528487
_cell_length_b 8.542511
_cell_length_c 8.984709
_cell_angle_alpha 90.000000
_cell_angle_beta 48.555182
_cell_angle_gamma 90.000000
_cell_volume 720.798756
_symmetry_space_group_name_H-M "P 21"
_symmetry_group_IT_number 4
_symmetry_cell_setting 'monoclinic'
loop_
_space_group_symop_operation_xyz
x,y,z
-x,1/2+y,-z
loop_
_atom_site_type_symbol
_atom_site_label
_atom_site_fract_x
_atom_site_fract_y
_atom_site_fract_z
Si Si1 0.089256 0.888580 0.038473
Si Si2 0.181975 0.810761 0.493360
Si Si3 0.060792 0.239489 0.075681
Si Si4 0.271947 0.380877 0.067995
Si Si5 0.752888 0.649523 0.636809
Si Si6 0.508677 0.073109 0.310382
Si Si7 0.918108 0.165260 0.700077
Si Si8 0.649164 0.322943 0.385081
O O1 0.218989 0.917842 0.805691
O O2 0.966876 0.785266 0.070059
O O3 0.146473 0.794475 0.128792
O O4 0.025777 0.057275 0.137975
O O5 0.144838 0.681216 0.407018
O O6 0.305809 0.753349 0.493571
O O7 0.042183 0.840675 0.721977
O O8 0.232774 0.962605 0.350804
O O9 0.224696 0.276886 0.968449
O O10 0.299010 0.257955 0.177626
O O11 0.134515 0.491501 0.217025
O O12 0.410234 0.485979 0.901981
O O13 0.631502 0.664216 0.620936
O O14 0.912430 0.698778 0.443736
O O15 0.609473 0.193285 0.301800
O O16 0.474373 0.947009 0.469927
#
# Coordination Sequence:
#
# PCOD8046890 Si02
#       8
#     2   2   2   2   2   2   2   2
#     4  11  25  40  71 105 146 176 236 298 358 421
#     4  10  23  43  69 100 142 174 234 293 355 407
#     4  11  23  41  67 105 136 185 227 297 359 413
#     4  12  25  44  73 103 140 188 244 286 359 429
#     4  11  24  45  68 102 146 183 231 299 351 427
#     4  11  27  47  68 103 144 195 238 284 360 432
#     4  12  22  43  73 109 136 179 232 302 353 422
#     4  10  25  49  67 101 144 188 232 295 345 433
#
# _framework density 22.197595
#
# number of rings (size 3 to 8) (size 9 to 14) (size 15 to 20)
#    0.000    1.000    3.750    1.500    8.750    3.000 
#    2.250    0.000    0.000    0.000    0.000    0.000 
#    0.000    0.000    0.000    0.000    0.000    0.000 
#
# Total GULP energy -198224.118688 kJ/mol
# GULP energy per Si atom -12389.007418 kJ/mol
# Density = 2.214707 g / cm^3
# Si number density = 22.197595 Si / 1000 Ang^3
#
#
#
# Elastic Constant Matrix: (Units=GPa)
#
#
# Indices 1 2 3 4 5 6 
#
# 1 112.9868 55.8347 35.9843 0.0000 9.4083 0.0000
# 2 55.8347 100.6123 30.4999 0.0000 3.6345 0.0000
# 3 35.9843 30.4999 83.9805 0.0000 4.9381 0.0000
# 4 0.0000 0.0000 0.0000 41.1127 0.0000 8.3557
# 5 9.4083 3.6345 4.9381 0.0000 26.0299 0.0000
# 6 0.0000 0.0000 0.0000 8.3557 0.0000 40.5034
#
#
#
# Elastic Compliance Matrix: (Units=1/GPa)
#
#
# Indices 1 2 3 4 5 6 
#
# 1 0.013238 -0.006255 -0.003206 0.000000 -0.003303 0.000000
# 2 -0.006255 0.014141 -0.002500 0.000000 0.000761 0.000000
# 3 -0.003206 -0.002500 0.014260 0.000000 -0.001197 0.000000
# 4 0.000000 0.000000 0.000000 0.025388 0.000000 -0.005237
# 5 -0.003303 0.000761 -0.001197 0.000000 0.039732 0.000000
# 6 0.000000 0.000000 0.000000 -0.005237 0.000000 0.025770
#
#
# Mechanical properties :
#
#
# Convention : Reuss Voigt Hill
#
# Bulk Modulus (GPa) = 56.44804 60.24637 58.34721
# Shear Modulus (GPa) = 30.79645 33.21324 32.00484
#
# Velocity S-wave (km/s) = 3.72879 3.87234 3.80124
# Velocity P-wave (km/s) = 6.63502 6.86973 6.75340
#
# Compressibility (1/GPa) = 0.01771541
#
# Stress axis : x y z
#
# Youngs Moduli (GPa) = 75.54100 70.71731 70.12731
#
# Poissons Ratio (x) = 0.44234 0.22485
# Poissons Ratio (y) = 0.47251 0.17533
# Poissons Ratio (z) = 0.24221 0.17681
#
# Static dielectric constant tensor:
#      x y z
#    x 4.118990 0.000000 0.031230 
#    y 0.000000 3.798400 0.000000 
#    z 0.031230 0.000000 3.803500 
# 
# 
# High freq. dielectric constant tensor:
#      x y z
#    x 1.882330 0.000000 0.004620 
#    y 0.000000 1.868700 0.000000 
#    z 0.004620 0.000000 1.858710 
# 
# From -- ./inp_files/5689.got.cif
#   From: 2010.03.12/outbox.cif.g09.slc.cpg/sg4_3_cif.got.tgz:5689.got - 2010.03.31 09:31:35.
