data_PCOD8046429
_publ_section_title
;
Structure prediction by ZEFSAII (Michael W. Deem and Ramdas Pophale) SiO2 
 PCOD8046429
Probable space group: P 21
;
_chemical_formula_sum "Si O2"
_cell_formula_units_Z 16
_cell_length_a 12.501529
_cell_length_b 8.873036
_cell_length_c 8.455763
_cell_angle_alpha 90.000000
_cell_angle_beta 45.195550
_cell_angle_gamma 90.000000
_cell_volume 665.503550
_symmetry_space_group_name_H-M "P 21"
_symmetry_group_IT_number 4
_symmetry_cell_setting 'monoclinic'
loop_
_space_group_symop_operation_xyz
x,y,z
-x,1/2+y,-z
loop_
_atom_site_type_symbol
_atom_site_label
_atom_site_fract_x
_atom_site_fract_y
_atom_site_fract_z
Si Si1 0.237703 0.781580 0.054604
Si Si2 0.278586 0.427883 0.030470
Si Si3 0.909122 0.350154 0.117558
Si Si4 0.767156 0.107672 0.481584
Si Si5 0.585278 0.356647 0.850221
Si Si6 0.073052 0.347134 0.495776
Si Si7 0.230158 0.096798 0.530941
Si Si8 0.261997 0.353222 0.703137
O O1 0.259820 0.603889 0.021256
O O2 0.381349 0.855496 0.995427
O O3 0.106234 0.832922 0.313453
O O4 0.205838 0.845457 0.912847
O O5 0.123338 0.356624 0.259609
O O6 0.406179 0.377392 0.022527
O O7 0.318441 0.349986 0.823094
O O8 0.880313 0.212037 0.264796
O O9 0.884298 0.503033 0.240327
O O10 0.078979 0.347931 0.876408
O O11 0.645691 0.200928 0.710361
O O12 0.867223 0.002779 0.490884
O O13 0.678265 0.002372 0.448529
O O14 0.653302 0.497430 0.686431
O O15 0.133375 0.195560 0.512189
O O16 0.326553 0.205831 0.547218
#
# Coordination Sequence:
#
# PCOD8046429 Si02
#       8
#     2   2   2   2   2   2   2   2
#     4  12  25  45  76 107 141 189 243 304 356 422
#     4  12  28  47  70 107 148 195 235 292 369 438
#     4  11  21  42  73 108 140 181 242 311 360 414
#     4  10  21  44  70 103 140 186 237 297 358 421
#     4  11  28  46  69 100 153 194 233 289 362 446
#     4  11  25  42  76 107 143 186 243 307 353 424
#     4  10  24  43  66 109 138 186 238 298 364 418
#     4  11  22  41  72 103 143 179 245 302 358 421
#
# _framework density 24.041947
#
# number of rings (size 3 to 8) (size 9 to 14) (size 15 to 20)
#    0.000    1.000    5.000    1.500    7.000    2.000 
#    0.000    0.000    0.000    0.000    0.000    0.000 
#    0.000    0.000    0.000    0.000    0.000    0.000 
#
# Total GULP energy -198411.548369 kJ/mol
# GULP energy per Si atom -12400.721773 kJ/mol
# Density = 2.398723 g / cm^3
# Si number density = 24.041947 Si / 1000 Ang^3
#
#
#
# Elastic Constant Matrix: (Units=GPa)
#
#
# Indices 1 2 3 4 5 6 
#
# 1 110.5776 23.3089 2.1516 0.0000 18.3289 0.0000
# 2 23.3089 134.0192 19.7642 0.0000 9.7933 0.0000
# 3 2.1516 19.7642 44.3523 0.0000 12.8732 0.0000
# 4 0.0000 0.0000 0.0000 13.9122 0.0000 -6.3685
# 5 18.3289 9.7933 12.8732 0.0000 33.3503 0.0000
# 6 0.0000 0.0000 0.0000 -6.3685 0.0000 11.5946
#
#
#
# Elastic Compliance Matrix: (Units=1/GPa)
#
#
# Indices 1 2 3 4 5 6 
#
# 1 0.010341 -0.001653 0.001964 0.000000 -0.005956 0.000000
# 2 -0.001653 0.008286 -0.003570 0.000000 -0.000147 0.000000
# 3 0.001964 -0.003570 0.027086 0.000000 -0.010486 0.000000
# 4 0.000000 0.000000 0.000000 0.096023 0.000000 0.052742
# 5 -0.005956 -0.000147 -0.010486 0.000000 0.037349 0.000000
# 6 0.000000 0.000000 0.000000 0.052742 0.000000 0.115216
#
#
# Mechanical properties :
#
#
# Convention : Reuss Voigt Hill
#
# Bulk Modulus (GPa) = 25.51354 42.15538 33.83446
# Shear Modulus (GPa) = 15.92949 28.01973 21.97461
#
# Velocity S-wave (km/s) = 2.57684 3.41757 3.02654
# Velocity P-wave (km/s) = 4.41459 5.75719 5.13000
#
# Compressibility (1/GPa) = 0.03919488
#
# Stress axis : x y z
#
# Youngs Moduli (GPa) = 96.70406 120.68180 36.91981
#
# Poissons Ratio (x) = 0.19947 -0.07249
# Poissons Ratio (y) = 0.15984 0.13179
# Poissons Ratio (z) = -0.18988 0.43079
#
# Static dielectric constant tensor:
#      x y z
#    x 4.273590 0.000000 0.293470 
#    y 0.000000 4.632380 0.000000 
#    z 0.293470 0.000000 4.386010 
# 
# 
# High freq. dielectric constant tensor:
#      x y z
#    x 1.943320 0.000000 0.026660 
#    y 0.000000 1.969270 0.000000 
#    z 0.026660 0.000000 1.952460 
# 
# From -- ./inp_files/7996.got.cif
#   From: 2010.03.12/outbox.cif.g09.slc.cpg/sg4_4_cif.got.tgz:7996.got - 2010.03.31 09:31:35.
