data_PCOD8046823
_publ_section_title
;
Structure prediction by ZEFSAII (Michael W. Deem and Ramdas Pophale) SiO2 
 PCOD8046823
Probable space group: P 21
;
_chemical_formula_sum "Si O2"
_cell_formula_units_Z 16
_cell_length_a 10.472201
_cell_length_b 5.038712
_cell_length_c 23.063741
_cell_angle_alpha 90.000000
_cell_angle_beta 36.439106
_cell_angle_gamma 90.000000
_cell_volume 722.853664
_symmetry_space_group_name_H-M "P 21"
_symmetry_group_IT_number 4
_symmetry_cell_setting 'monoclinic'
loop_
_space_group_symop_operation_xyz
x,y,z
-x,1/2+y,-z
loop_
_atom_site_type_symbol
_atom_site_label
_atom_site_fract_x
_atom_site_fract_y
_atom_site_fract_z
Si Si1 0.274447 0.324580 0.625410
Si Si2 0.607066 0.809635 0.115088
Si Si3 0.942678 0.799430 0.558851
Si Si4 0.223051 0.824150 0.571590
Si Si5 0.970531 0.320809 0.103087
Si Si6 0.480952 0.799985 0.782225
Si Si7 0.008637 0.330481 0.829526
Si Si8 0.576622 0.174690 0.940724
O O1 0.171542 0.551262 0.622790
O O2 0.529686 0.335442 0.536331
O O3 0.217812 0.361410 0.713493
O O4 0.178188 0.055804 0.634035
O O5 0.549932 0.600214 0.185578
O O6 0.496799 0.714936 0.097274
O O7 0.504781 0.092882 0.169781
O O8 0.865536 0.827922 0.011412
O O9 0.689397 0.781191 0.665490
O O10 0.020390 0.526778 0.501992
O O11 0.074412 0.856582 0.569452
O O12 0.733582 0.216306 0.174012
O O13 0.060920 0.110494 0.116852
O O14 0.955248 0.616536 0.133390
O O15 0.827334 0.237079 0.851352
O O16 0.454458 0.370456 0.029474
#
# Coordination Sequence:
#
# PCOD8046823 Si02
#       8
#     2   2   2   2   2   2   2   2
#     4  10  23  41  68  95 127 168 212 272 326 397
#     4  12  24  46  68  97 136 172 224 275 320 399
#     4  12  28  47  70  97 134 172 222 279 332 398
#     4  10  23  44  65  95 128 164 217 272 336 380
#     4  12  25  44  66  99 138 175 229 266 326 386
#     4  12  28  44  72  96 128 184 222 272 334 385
#     4  12  24  40  69  98 134 176 216 273 328 395
#     4  12  23  42  64  97 135 171 212 263 334 380
#
# _framework density 22.134495000000001
#
# number of rings (size 3 to 8) (size 9 to 14) (size 15 to 20)
#    0.000    0.500    2.500    5.250    7.000    0.000 
#    0.000    0.000    0.000    0.000    0.000    0.000 
#    0.000    0.000    0.000    0.000    0.000    0.000 
#
# Total GULP energy -198483.657424 kJ/mol
# GULP energy per Si atom -12405.228589 kJ/mol
# Density = 2.208412 g / cm^3
# Si number density = 22.134495 Si / 1000 Ang^3
#
#
#
# Elastic Constant Matrix: (Units=GPa)
#
#
# Indices 1 2 3 4 5 6 
#
# 1 80.3466 -1.4110 19.7684 0.0000 -10.0837 0.0000
# 2 -1.4110 99.5476 42.8260 0.0000 -1.0974 0.0000
# 3 19.7684 42.8260 153.9868 0.0000 -2.9939 0.0000
# 4 0.0000 0.0000 0.0000 21.1227 0.0000 4.6902
# 5 -10.0837 -1.0974 -2.9939 0.0000 22.5459 0.0000
# 6 0.0000 0.0000 0.0000 4.6902 0.0000 30.2948
#
#
#
# Elastic Compliance Matrix: (Units=1/GPa)
#
#
# Indices 1 2 3 4 5 6 
#
# 1 0.013687 0.001097 -0.001947 0.000000 0.005916 0.000000
# 2 0.001097 0.011499 -0.003327 0.000000 0.000609 0.000000
# 3 -0.001947 -0.003327 0.007669 0.000000 -0.000014 0.000000
# 4 0.000000 0.000000 0.000000 0.049028 0.000000 -0.007590
# 5 0.005916 0.000609 -0.000014 0.000000 0.047028 0.000000
# 6 0.000000 0.000000 0.000000 -0.007590 0.000000 0.034184
#
#
# Mechanical properties :
#
#
# Convention : Reuss Voigt Hill
#
# Bulk Modulus (GPa) = 40.81558 50.69421 45.75489
# Shear Modulus (GPa) = 27.83715 32.97252 30.40483
#
# Velocity S-wave (km/s) = 3.55016 3.86378 3.71029
# Velocity P-wave (km/s) = 5.94009 6.54657 6.25069
#
# Compressibility (1/GPa) = 0.02450045
#
# Stress axis : x y z
#
# Youngs Moduli (GPa) = 73.06243 86.96397 130.39428
#
# Poissons Ratio (x) = -0.09539 0.25389
# Poissons Ratio (y) = -0.08014 0.43383
# Poissons Ratio (z) = 0.14226 0.28933
#
# Static dielectric constant tensor:
#      x y z
#    x 3.955370 0.000000 -0.113010 
#    y 0.000000 4.192470 0.000000 
#    z -0.113010 0.000000 4.060290 
# 
# 
# High freq. dielectric constant tensor:
#      x y z
#    x 1.873480 0.000000 -0.004030 
#    y 0.000000 1.889150 0.000000 
#    z -0.004030 0.000000 1.875710 
# 
# From -- ./inp_files/10047.got.cif
#   From: 2010.03.12/outbox.cif.g09.slc.cpg/sg4_6_cif.got.tgz:10047.got - 2010.03.31 09:31:35.
