data_PCOD8046375
_publ_section_title
;
Structure prediction by ZEFSAII (Michael W. Deem and Ramdas Pophale) SiO2 
 PCOD8046375
Probable space group: P 21
;
_chemical_formula_sum "Si O2"
_cell_formula_units_Z 14
_cell_length_a 8.707830
_cell_length_b 8.212845
_cell_length_c 12.317589
_cell_angle_alpha 90.000000
_cell_angle_beta 40.726165
_cell_angle_gamma 90.000000
_cell_volume 574.741934
_symmetry_space_group_name_H-M "P 21"
_symmetry_group_IT_number 4
_symmetry_cell_setting 'monoclinic'
loop_
_space_group_symop_operation_xyz
x,y,z
-x,1/2+y,-z
loop_
_atom_site_type_symbol
_atom_site_label
_atom_site_fract_x
_atom_site_fract_y
_atom_site_fract_z
Si Si1 0.632304 0.120270 0.366660
Si Si2 0.656067 0.622802 0.808151
Si Si3 0.863613 0.254264 0.442006
Si Si4 0.119878 0.087720 0.696708
Si Si5 0.087858 0.871045 0.915355
Si Si6 0.248422 0.855384 0.068549
Si Si7 0.574182 0.874526 0.227471
O O1 0.802978 0.127987 0.378356
O O2 0.370339 0.173490 0.541752
O O3 0.726713 0.237469 0.221694
O O4 0.629722 0.937866 0.320221
O O5 0.724726 0.514635 0.873971
O O6 0.507711 0.527536 0.799064
O O7 0.900847 0.690598 0.625312
O O8 0.507236 0.777963 0.924918
O O9 0.910590 0.433864 0.367344
O O10 0.647067 0.250945 0.644958
O O11 0.920027 0.221815 0.784009
O O12 0.108343 0.031610 0.829283
O O13 0.148757 0.916385 0.006295
O O14 0.817484 0.802271 0.050164
#
# Coordination Sequence:
#
# PCOD8046375 Si02
#       7
#     2   2   2   2   2   2   2
#     4  10  21  42  70  99 140 177 242 290 353 412
#     4  12  26  45  70 106 149 192 234 298 366 435
#     4  10  24  43  70 103 146 190 237 293 369 420
#     4  10  22  44  73 106 139 187 244 303 349 425
#     4  11  21  42  72  99 137 183 245 296 342 417
#     4  12  25  46  73 102 147 188 245 289 366 423
#     4  11  23  44  70 105 140 183 245 295 347 430
#
# _framework density 24.358756
#
# number of rings (size 3 to 8) (size 9 to 14) (size 15 to 20)
#    0.000    1.143    2.857    2.571    2.000    5.714 
#    5.143    0.000    0.000    0.000    0.000    0.000 
#    0.000    0.000    0.000    0.000    0.000    0.000 
#
# Total GULP energy -173594.567449 kJ/mol
# GULP energy per Si atom -12399.611961 kJ/mol
# Density = 2.430331 g / cm^3
# Si number density = 24.358756 Si / 1000 Ang^3
#
#
#
# Elastic Constant Matrix: (Units=GPa)
#
#
# Indices 1 2 3 4 5 6 
#
# 1 85.9162 30.6925 49.6002 0.0000 -27.6994 0.0000
# 2 30.6925 44.6278 29.4375 0.0000 -11.9840 0.0000
# 3 49.6002 29.4375 169.5808 0.0000 -39.3852 0.0000
# 4 0.0000 0.0000 0.0000 43.0072 0.0000 -8.3138
# 5 -27.6994 -11.9840 -39.3852 0.0000 43.6585 0.0000
# 6 0.0000 0.0000 0.0000 -8.3138 0.0000 40.6487
#
#
#
# Elastic Compliance Matrix: (Units=1/GPa)
#
#
# Indices 1 2 3 4 5 6 
#
# 1 0.018574 -0.009428 -0.002100 0.000000 0.007302 0.000000
# 2 -0.009428 0.030592 -0.002520 0.000000 0.000143 0.000000
# 3 -0.002100 -0.002520 0.008196 0.000000 0.005369 0.000000
# 4 0.000000 0.000000 0.000000 0.024209 0.000000 0.004951
# 5 0.007302 0.000143 0.005369 0.000000 0.032421 0.000000
# 6 0.000000 0.000000 0.000000 0.004951 0.000000 0.025614
#
#
# Mechanical properties :
#
#
# Convention : Reuss Voigt Hill
#
# Bulk Modulus (GPa) = 34.16986 57.73169 45.95078
# Shear Modulus (GPa) = 28.17602 38.15585 33.16593
#
# Velocity S-wave (km/s) = 3.40473 3.96209 3.69394
# Velocity P-wave (km/s) = 5.43272 6.68453 6.09087
#
# Compressibility (1/GPa) = 0.02926556
#
# Stress axis : x y z
#
# Youngs Moduli (GPa) = 53.83925 32.68824 122.01680
#
# Poissons Ratio (x) = 0.30818 0.25625
# Poissons Ratio (y) = 0.50760 0.30746
# Poissons Ratio (z) = 0.11307 0.08237
#
# Static dielectric constant tensor:
#      x y z
#    x 4.306520 0.000000 -0.263410 
#    y 0.000000 4.133220 0.000000 
#    z -0.263410 0.000000 4.822360 
# 
# 
# High freq. dielectric constant tensor:
#      x y z
#    x 1.963090 0.000000 -0.018810 
#    y 0.000000 1.952310 0.000000 
#    z -0.018810 0.000000 1.985960 
# 
# From -- ./inp_files/5361.got.cif
#   From: 2010.03.12/outbox.cif.g09.slc.cpg/sg4_3_cif.got.tgz:5361.got - 2010.03.31 09:31:35.
