data_PCOD8046515
_publ_section_title
;
Structure prediction by ZEFSAII (Michael W. Deem and Ramdas Pophale) SiO2 
 PCOD8046515
Probable space group: P 21
;
_chemical_formula_sum "Si O2"
_cell_formula_units_Z 16
_cell_length_a 19.279997
_cell_length_b 7.644709
_cell_length_c 9.568240
_cell_angle_alpha 90.000000
_cell_angle_beta 29.863981
_cell_angle_gamma 90.000000
_cell_volume 702.229907
_symmetry_space_group_name_H-M "P 21"
_symmetry_group_IT_number 4
_symmetry_cell_setting 'monoclinic'
loop_
_space_group_symop_operation_xyz
x,y,z
-x,1/2+y,-z
loop_
_atom_site_type_symbol
_atom_site_label
_atom_site_fract_x
_atom_site_fract_y
_atom_site_fract_z
Si Si1 0.640712 0.708950 0.821670
Si Si2 0.899088 0.464842 0.334697
Si Si3 0.404559 0.469124 0.338633
Si Si4 0.142621 0.894850 0.105253
Si Si5 0.861544 0.196391 0.169261
Si Si6 0.655344 0.858436 0.084857
Si Si7 0.947164 0.787314 0.679017
Si Si8 0.442030 0.980045 0.656341
O O1 0.771480 0.580871 0.612143
O O2 0.643655 0.802375 0.666920
O O3 0.501019 0.595387 0.077283
O O4 0.649634 0.858229 0.926236
O O5 0.840494 0.301650 0.349692
O O6 0.982844 0.398659 0.321843
O O7 0.000614 0.578132 0.059109
O O8 0.270670 0.574187 0.625345
O O9 0.482942 0.396113 0.338935
O O10 0.053513 0.772226 0.363962
O O11 0.092023 0.094468 0.202308
O O12 0.118830 0.832919 0.989892
O O13 0.304566 0.869369 0.860921
O O14 0.546981 0.995607 0.340752
O O15 0.600729 0.674286 0.234327
O O16 0.810772 0.893990 0.867692
#
# Coordination Sequence:
#
# PCOD8046515 Si02
#       8
#     2   2   2   2   2   2   2   2
#     4  11  24  44  65  94 130 168 215 268 321 388
#     4  12  25  44  64  93 130 170 219 269 321 385
#     4  11  24  43  66  95 129 169 213 267 323 387
#     4  11  23  41  66  96 130 169 213 266 324 383
#     4  12  25  43  65  94 129 171 217 268 323 384
#     4  10  22  40  62  90 124 162 206 258 314 377
#     4  11  23  41  66  94 129 170 214 267 323 383
#     4  10  22  40  62  92 125 159 205 259 315 379
#
# _framework density 22.784562000000001
#
# number of rings (size 3 to 8) (size 9 to 14) (size 15 to 20)
#    0.000    1.000    0.000    8.250    0.000    5.000 
#    0.000    0.000    0.000    0.000    0.000    0.000 
#    0.000    0.000    0.000    0.000    0.000    0.000 
#
# Total GULP energy -198504.651356 kJ/mol
# GULP energy per Si atom -12406.540710 kJ/mol
# Density = 2.273270 g / cm^3
# Si number density = 22.784562 Si / 1000 Ang^3
#
#
#
# Elastic Constant Matrix: (Units=GPa)
#
#
# Indices 1 2 3 4 5 6 
#
# 1 95.6763 13.7852 9.2500 0.0000 2.9013 0.0000
# 2 13.7852 37.7518 8.9842 0.0000 1.0836 0.0000
# 3 9.2500 8.9842 110.2039 0.0000 -4.5981 0.0000
# 4 0.0000 0.0000 0.0000 41.0566 0.0000 -0.8615
# 5 2.9013 1.0836 -4.5981 0.0000 34.9568 0.0000
# 6 0.0000 0.0000 0.0000 -0.8615 0.0000 28.1418
#
#
#
# Elastic Compliance Matrix: (Units=1/GPa)
#
#
# Indices 1 2 3 4 5 6 
#
# 1 0.011100 -0.003872 -0.000653 0.000000 -0.000887 0.000000
# 2 -0.003872 0.028409 -0.002025 0.000000 -0.000826 0.000000
# 3 -0.000653 -0.002025 0.009350 0.000000 0.001347 0.000000
# 4 0.000000 0.000000 0.000000 0.024372 0.000000 0.000746
# 5 -0.000887 -0.000826 0.001347 0.000000 0.028883 0.000000
# 6 0.000000 0.000000 0.000000 0.000746 0.000000 0.035557
#
#
# Mechanical properties :
#
#
# Convention : Reuss Voigt Hill
#
# Bulk Modulus (GPa) = 27.96638 34.18564 31.07601
# Shear Modulus (GPa) = 30.73300 34.93855 32.83578
#
# Velocity S-wave (km/s) = 3.67666 3.92015 3.80036
# Velocity P-wave (km/s) = 5.50678 5.96042 5.73808
#
# Compressibility (1/GPa) = 0.03575722
#
# Stress axis : x y z
#
# Youngs Moduli (GPa) = 90.09116 35.20073 106.94947
#
# Poissons Ratio (x) = 0.13631 0.06984
# Poissons Ratio (y) = 0.34886 0.21661
# Poissons Ratio (z) = 0.05883 0.07130
#
# Static dielectric constant tensor:
#      x y z
#    x 4.198520 0.000000 -0.041180 
#    y 0.000000 3.926040 0.000000 
#    z -0.041180 0.000000 4.589060 
# 
# 
# High freq. dielectric constant tensor:
#      x y z
#    x 1.906800 0.000000 -0.005500 
#    y 0.000000 1.891200 0.000000 
#    z -0.005500 0.000000 1.917310 
# 
# From -- ./inp_files/9633.got.cif
#   From: 2010.03.12/outbox.cif.g09.slc.cpg/sg4_5_cif.got.tgz:9633.got - 2010.03.31 09:31:35.
