data_PCOD8046471
_publ_section_title
;
Structure prediction by ZEFSAII (Michael W. Deem and Ramdas Pophale) SiO2 
 PCOD8046471
Probable space group: P 21
;
_chemical_formula_sum "Si O2"
_cell_formula_units_Z 12
_cell_length_a 12.868118
_cell_length_b 4.855356
_cell_length_c 8.443145
_cell_angle_alpha 90.000000
_cell_angle_beta 70.747039
_cell_angle_gamma 90.000000
_cell_volume 498.018492
_symmetry_space_group_name_H-M "P 21"
_symmetry_group_IT_number 4
_symmetry_cell_setting 'monoclinic'
loop_
_space_group_symop_operation_xyz
x,y,z
-x,1/2+y,-z
loop_
_atom_site_type_symbol
_atom_site_label
_atom_site_fract_x
_atom_site_fract_y
_atom_site_fract_z
Si Si1 0.034454 0.545980 0.184308
Si Si2 0.565857 0.543256 0.418629
Si Si3 0.819465 0.141209 0.159675
Si Si4 0.298677 0.137823 0.914154
Si Si5 0.195314 0.197565 0.590117
Si Si6 0.153766 0.045315 0.256209
O O1 0.077910 0.240492 0.188784
O O2 0.902100 0.520663 0.271421
O O3 0.092519 0.750160 0.284491
O O4 0.062398 0.646143 0.990108
O O5 0.533059 0.227366 0.462491
O O6 0.577970 0.604179 0.220516
O O7 0.678829 0.604882 0.455137
O O8 0.766730 0.445612 0.183114
O O9 0.740579 0.950545 0.088507
O O10 0.821138 0.011871 0.336675
O O11 0.273702 0.030036 0.104554
O O12 0.168596 0.176763 0.419285
#
# Coordination Sequence:
#
# PCOD8046471 Si02
#       6
#     2   2   2   2   2   2
#     4  10  22  38  59  92 132 161 191 241 312 382
#     4  11  24  41  60  84 113 155 211 263 300 346
#     4   9  20  35  58  88 119 157 195 236 296 372
#     4   9  19  40  60  82 120 155 192 252 311 354
#     4  11  23  39  64  91 121 163 210 252 303 370
#     4  10  22  39  61  93 127 159 193 246 316 386
#
# _framework density 24.095490999999999
#
# number of rings (size 3 to 8) (size 9 to 14) (size 15 to 20)
#    0.000    2.000    0.000    3.000    0.000   14.667 
#    0.000    1.667    0.000    0.000    0.000    0.000 
#    0.000    0.000    0.000    0.000    0.000    0.000 
#
# Total GULP energy -148659.429746 kJ/mol
# GULP energy per Si atom -12388.285812 kJ/mol
# Density = 2.404065 g / cm^3
# Si number density = 24.095491 Si / 1000 Ang^3
#
#
#
# Elastic Constant Matrix: (Units=GPa)
#
#
# Indices 1 2 3 4 5 6 
#
# 1 66.1495 10.7929 32.0815 0.0000 -12.6391 0.0000
# 2 10.7929 72.8058 -0.2042 0.0000 -4.2662 0.0000
# 3 32.0815 -0.2042 140.8898 0.0000 -8.4693 0.0000
# 4 0.0000 0.0000 0.0000 41.4731 0.0000 -10.5348
# 5 -12.6391 -4.2662 -8.4693 0.0000 38.4949 0.0000
# 6 0.0000 0.0000 0.0000 -10.5348 0.0000 32.1195
#
#
#
# Elastic Compliance Matrix: (Units=1/GPa)
#
#
# Indices 1 2 3 4 5 6 
#
# 1 0.018335 -0.002442 -0.003884 0.000000 0.004895 0.000000
# 2 -0.002442 0.014152 0.000631 0.000000 0.000905 0.000000
# 3 -0.003884 0.000631 0.008017 0.000000 0.000558 0.000000
# 4 0.000000 0.000000 0.000000 0.026303 0.000000 0.008627
# 5 0.004895 0.000905 0.000558 0.000000 0.027808 0.000000
# 6 0.000000 0.000000 0.000000 0.008627 0.000000 0.033963
#
#
# Mechanical properties :
#
#
# Convention : Reuss Voigt Hill
#
# Bulk Modulus (GPa) = 34.34907 40.57615 37.46261
# Shear Modulus (GPa) = 33.40618 38.22915 35.81767
#
# Velocity S-wave (km/s) = 3.72749 3.98750 3.85968
# Velocity P-wave (km/s) = 5.72817 6.17061 5.95350
#
# Compressibility (1/GPa) = 0.02911287
#
# Stress axis : x y z
#
# Youngs Moduli (GPa) = 54.54127 70.66130 124.73979
#
# Poissons Ratio (x) = 0.17256 0.48452
# Poissons Ratio (y) = 0.13319 -0.07871
# Poissons Ratio (z) = 0.21185 -0.04459
#
# Static dielectric constant tensor:
#      x y z
#    x 3.813680 0.000000 -0.473470 
#    y 0.000000 4.438410 0.000000 
#    z -0.473470 0.000000 4.815380 
# 
# 
# High freq. dielectric constant tensor:
#      x y z
#    x 1.908860 0.000000 -0.029000 
#    y 0.000000 1.977420 0.000000 
#    z -0.029000 0.000000 1.973330 
# 
# From -- ./inp_files/7053.got.cif
#   From: 2010.03.12/outbox.cif.g09.slc.cpg/sg4_4_cif.got.tgz:7053.got - 2010.03.31 09:31:35.
