data_PCOD8046549
_publ_section_title
;
Structure prediction by ZEFSAII (Michael W. Deem and Ramdas Pophale) SiO2 
 PCOD8046549
Probable space group: P 21
;
_chemical_formula_sum "Si O2"
_cell_formula_units_Z 12
_cell_length_a 15.580873
_cell_length_b 5.001665
_cell_length_c 8.159867
_cell_angle_alpha 90.000000
_cell_angle_beta 41.920986
_cell_angle_gamma 90.000000
_cell_volume 424.848683
_symmetry_space_group_name_H-M "P 21"
_symmetry_group_IT_number 4
_symmetry_cell_setting 'monoclinic'
loop_
_space_group_symop_operation_xyz
x,y,z
-x,1/2+y,-z
loop_
_atom_site_type_symbol
_atom_site_label
_atom_site_fract_x
_atom_site_fract_y
_atom_site_fract_z
Si Si1 0.161962 0.639570 0.309764
Si Si2 0.411558 0.099995 0.610275
Si Si3 0.914578 0.903986 0.105494
Si Si4 0.624981 0.511262 0.983985
Si Si5 0.106694 0.145672 0.193119
Si Si6 0.657869 0.825792 0.615729
O O1 0.164165 0.328923 0.257988
O O2 0.048704 0.689196 0.602620
O O3 0.130005 0.832683 0.199105
O O4 0.305410 0.731277 0.167706
O O5 0.502937 0.852670 0.481011
O O6 0.321090 0.086082 0.904804
O O7 0.345326 0.102902 0.525085
O O8 0.794915 0.976821 0.398474
O O9 0.844208 0.763469 0.049681
O O10 0.012653 0.681788 0.041788
O O11 0.471265 0.502191 0.217816
O O12 0.662590 0.720898 0.793137
#
# Coordination Sequence:
#
# PCOD8046549 Si02
#       6
#     2   2   2   2   2   2
#     4  10  22  40  69  97 134 181 232 289 347 415
#     4  10  23  43  67  98 138 182 226 280 348 419
#     4  12  27  46  70 101 143 190 239 295 354 422
#     4  11  24  43  70 105 143 184 234 292 357 422
#     4  10  22  43  66  98 135 183 237 285 344 418
#     4  11  26  45  72 107 145 188 238 295 358 424
#
# _framework density 28.245350999999999
#
# number of rings (size 3 to 8) (size 9 to 14) (size 15 to 20)
#    0.000    1.333    0.000    4.000    0.000   17.333 
#    0.000    0.000    0.000    0.000    0.000    0.000 
#    0.000    0.000    0.000    0.000    0.000    0.000 
#
# Total GULP energy -148676.885201 kJ/mol
# GULP energy per Si atom -12389.740433 kJ/mol
# Density = 2.818106 g / cm^3
# Si number density = 28.245351 Si / 1000 Ang^3
#
#
#
# Elastic Constant Matrix: (Units=GPa)
#
#
# Indices 1 2 3 4 5 6 
#
# 1 125.8027 -12.1529 21.8540 0.0000 -1.1385 0.0000
# 2 -12.1529 62.1141 2.8195 0.0000 -16.4374 0.0000
# 3 21.8540 2.8195 205.2447 0.0000 -13.9655 0.0000
# 4 0.0000 0.0000 0.0000 35.0352 0.0000 -15.2395
# 5 -1.1385 -16.4374 -13.9655 0.0000 49.9433 0.0000
# 6 0.0000 0.0000 0.0000 -15.2395 0.0000 32.3215
#
#
#
# Elastic Compliance Matrix: (Units=1/GPa)
#
#
# Indices 1 2 3 4 5 6 
#
# 1 0.008279 0.001802 -0.000870 0.000000 0.000539 0.000000
# 2 0.001802 0.018032 -0.000034 0.000000 0.005967 0.000000
# 3 -0.000870 -0.000034 0.005059 0.000000 0.001384 0.000000
# 4 0.000000 0.000000 0.000000 0.035907 0.000000 0.016930
# 5 0.000539 0.005967 0.001384 0.000000 0.022386 0.000000
# 6 0.000000 0.000000 0.000000 0.016930 0.000000 0.038922
#
#
# Mechanical properties :
#
#
# Convention : Reuss Voigt Hill
#
# Bulk Modulus (GPa) = 30.14955 46.46697 38.30826
# Shear Modulus (GPa) = 36.27297 48.83607 42.55452
#
# Velocity S-wave (km/s) = 3.58748 4.16263 3.88571
# Velocity P-wave (km/s) = 5.27800 6.29208 5.80722
#
# Compressibility (1/GPa) = 0.03316800
#
# Stress axis : x y z
#
# Youngs Moduli (GPa) = 120.78812 55.45573 197.64978
#
# Poissons Ratio (x) = -0.09992 0.17188
# Poissons Ratio (y) = -0.21764 0.00664
# Poissons Ratio (z) = 0.10504 0.00186
#
# Static dielectric constant tensor:
#      x y z
#    x 5.530670 0.000000 -0.005630 
#    y 0.000000 4.748690 0.000000 
#    z -0.005630 0.000000 6.102690 
# 
# 
# High freq. dielectric constant tensor:
#      x y z
#    x 2.162570 0.000000 -0.013710 
#    y 0.000000 2.123900 0.000000 
#    z -0.013710 0.000000 2.184540 
# 
# From -- ./inp_files/7333.got.cif
#   From: 2010.03.12/outbox.cif.g09.slc.cpg/sg4_4_cif.got.tgz:7333.got - 2010.03.31 09:31:35.
