data_PCOD8046221
_publ_section_title
;
Structure prediction by ZEFSAII (Michael W. Deem and Ramdas Pophale) SiO2 
 PCOD8046221
Probable space group: P 21
;
_chemical_formula_sum "Si O2"
_cell_formula_units_Z 12
_cell_length_a 13.521087
_cell_length_b 4.685205
_cell_length_c 12.503295
_cell_angle_alpha 90.000000
_cell_angle_beta 34.212404
_cell_angle_gamma 90.000000
_cell_volume 445.352342
_symmetry_space_group_name_H-M "P 21"
_symmetry_group_IT_number 4
_symmetry_cell_setting 'monoclinic'
loop_
_space_group_symop_operation_xyz
x,y,z
-x,1/2+y,-z
loop_
_atom_site_type_symbol
_atom_site_label
_atom_site_fract_x
_atom_site_fract_y
_atom_site_fract_z
Si Si1 0.017841 0.784700 0.560068
Si Si2 0.103094 0.116439 0.942167
Si Si3 0.607873 0.986084 0.433284
Si Si4 0.481262 0.722780 0.942808
Si Si5 0.637157 0.115752 0.648652
Si Si6 0.746270 0.625011 0.965777
O O1 0.207011 0.820096 0.449343
O O2 0.002660 0.468254 0.527287
O O3 0.860373 0.829664 0.786684
O O4 0.253745 0.303111 0.755320
O O5 0.141025 0.047026 0.031335
O O6 0.926981 0.315645 0.092116
O O7 0.569741 0.288608 0.408745
O O8 0.674869 0.030057 0.493436
O O9 0.634268 0.824795 0.723821
O O10 0.509533 0.889200 0.033092
O O11 0.294762 0.824028 0.059021
O O12 0.442909 0.273214 0.830772
#
# Coordination Sequence:
#
# PCOD8046221 Si02
#       6
#     2   2   2   2   2   2
#     4  12  27  47  71 107 148 186 242 305 364 436
#     4  12  27  48  75 109 151 194 245 316 375 442
#     4  12  25  48  74 110 145 191 254 307 366 448
#     4  10  21  39  65  97 131 176 230 285 346 420
#     4  10  25  46  74 107 138 195 241 299 361 445
#     4  10  25  48  73 106 141 196 240 296 370 441
#
# _framework density 26.944955
#
# number of rings (size 3 to 8) (size 9 to 14) (size 15 to 20)
#    1.000    0.000    1.667    4.000    0.000    8.000 
#    0.000    0.000    0.000    0.000    0.000    0.000 
#    0.000    0.000    0.000    0.000    0.000    0.000 
#
# Total GULP energy -148742.684386 kJ/mol
# GULP energy per Si atom -12395.223699 kJ/mol
# Density = 2.688363 g / cm^3
# Si number density = 26.944955 Si / 1000 Ang^3
#
#
#
# Elastic Constant Matrix: (Units=GPa)
#
#
# Indices 1 2 3 4 5 6 
#
# 1 194.1845 30.1412 22.5315 0.0000 1.3285 0.0000
# 2 30.1412 78.6223 -1.6576 0.0000 -5.4716 0.0000
# 3 22.5315 -1.6576 88.6910 0.0000 -7.4984 0.0000
# 4 0.0000 0.0000 0.0000 24.4686 0.0000 -4.3708
# 5 1.3285 -5.4716 -7.4984 0.0000 50.7348 0.0000
# 6 0.0000 0.0000 0.0000 -4.3708 0.0000 19.3662
#
#
#
# Elastic Compliance Matrix: (Units=1/GPa)
#
#
# Indices 1 2 3 4 5 6 
#
# 1 0.005682 -0.002254 -0.001538 0.000000 -0.000619 0.000000
# 2 -0.002254 0.013721 0.000971 0.000000 0.001682 0.000000
# 3 -0.001538 0.000971 0.011844 0.000000 0.001896 0.000000
# 4 0.000000 0.000000 0.000000 0.042586 0.000000 0.009611
# 5 -0.000619 0.001682 0.001896 0.000000 0.020188 0.000000
# 6 0.000000 0.000000 0.000000 0.009611 0.000000 0.053805
#
#
# Mechanical properties :
#
#
# Convention : Reuss Voigt Hill
#
# Bulk Modulus (GPa) = 39.05362 51.50312 45.27837
# Shear Modulus (GPa) = 30.86365 39.61277 35.23821
#
# Velocity S-wave (km/s) = 3.38810 3.83840 3.62025
# Velocity P-wave (km/s) = 5.46177 6.22897 5.85794
#
# Compressibility (1/GPa) = 0.02560582
#
# Stress axis : x y z
#
# Youngs Moduli (GPa) = 175.98539 72.88275 84.42916
#
# Poissons Ratio (x) = 0.16427 0.12985
# Poissons Ratio (y) = 0.39666 -0.08200
# Poissons Ratio (z) = 0.27067 -0.07079
#
# Static dielectric constant tensor:
#      x y z
#    x 6.303760 0.000000 -0.639760 
#    y 0.000000 4.789750 0.000000 
#    z -0.639760 0.000000 5.020370 
# 
# 
# High freq. dielectric constant tensor:
#      x y z
#    x 2.099820 0.000000 -0.005040 
#    y 0.000000 2.070870 0.000000 
#    z -0.005040 0.000000 2.087510 
# 
# From -- ./inp_files/14035.got.cif
#   From: 2010.03.12/outbox.cif.g09.slc.cpg/sg4_8_cif.got.tgz:14035.got - 2010.03.31 09:31:35.
