data_PCOD8046017
_publ_section_title
;
Structure prediction by ZEFSAII (Michael W. Deem and Ramdas Pophale) SiO2 
 PCOD8046017
Probable space group: P 21
;
_chemical_formula_sum "Si O2"
_cell_formula_units_Z 16
_cell_length_a 10.385815
_cell_length_b 8.740300
_cell_length_c 7.695752
_cell_angle_alpha 90.000000
_cell_angle_beta 61.738872
_cell_angle_gamma 90.000000
_cell_volume 615.311025
_symmetry_space_group_name_H-M "P 21"
_symmetry_group_IT_number 4
_symmetry_cell_setting 'monoclinic'
loop_
_space_group_symop_operation_xyz
x,y,z
-x,1/2+y,-z
loop_
_atom_site_type_symbol
_atom_site_label
_atom_site_fract_x
_atom_site_fract_y
_atom_site_fract_z
Si Si1 0.818544 0.348820 0.527979
Si Si2 0.815170 0.019989 0.419042
Si Si3 0.647052 0.441820 0.293321
Si Si4 0.568018 0.106311 0.345879
Si Si5 0.398978 0.027337 0.128093
Si Si6 0.654303 0.874460 0.808877
Si Si7 0.923333 0.571254 0.961096
Si Si8 0.079821 0.413008 0.158002
O O1 0.800534 0.166114 0.556774
O O2 0.746336 0.402069 0.394220
O O3 0.746638 0.428530 0.741963
O O4 0.988940 0.394862 0.398360
O O5 0.731611 0.051943 0.288847
O O6 0.734988 0.880336 0.569498
O O7 0.983888 0.991446 0.255363
O O8 0.561322 0.285510 0.294943
O O9 0.532690 0.574870 0.418942
O O10 0.756332 0.503970 0.069668
O O11 0.505233 0.008531 0.226569
O O12 0.354743 0.200527 0.121883
O O13 0.494347 0.958173 0.905795
O O14 0.756876 0.957947 0.887095
O O15 0.006975 0.543856 0.088784
O O16 0.923066 0.753134 0.943796
#
# Coordination Sequence:
#
# PCOD8046017 Si02
#       8
#     2   2   2   2   2   2   2   2
#     4   8  19  40  60  85 122 161 209 262 313 373
#     4  10  21  40  63  91 125 164 213 265 318 377
#     4   9  19  35  62  95 122 158 213 267 308 365
#     4  10  20  39  65  90 122 168 215 260 314 379
#     4  11  24  42  62  91 130 170 214 262 319 384
#     4  12  26  41  63  97 133 169 210 265 326 377
#     4  10  22  42  66  94 127 168 218 261 313 387
#     4  10  23  43  67  95 127 166 212 266 321 380
#
# _framework density 26.003111000000001
#
# number of rings (size 3 to 8) (size 9 to 14) (size 15 to 20)
#    0.000    2.000    0.000    3.000    0.000   11.000 
#    0.000    3.750    0.000    0.000    0.000    0.000 
#    0.000    0.000    0.000    0.000    0.000    0.000 
#
# Total GULP energy -198422.755080 kJ/mol
# GULP energy per Si atom -12401.422193 kJ/mol
# Density = 2.594393 g / cm^3
# Si number density = 26.003111 Si / 1000 Ang^3
#
#
#
# Elastic Constant Matrix: (Units=GPa)
#
#
# Indices 1 2 3 4 5 6 
#
# 1 52.6449 10.7373 17.0588 0.0000 -33.4904 0.0000
# 2 10.7373 81.0401 37.7802 0.0000 -17.9234 0.0000
# 3 17.0588 37.7802 129.1536 0.0000 -32.0926 0.0000
# 4 0.0000 0.0000 0.0000 44.4486 0.0000 -3.1755
# 5 -33.4904 -17.9234 -32.0926 0.0000 42.1641 0.0000
# 6 0.0000 0.0000 0.0000 -3.1755 0.0000 30.0855
#
#
#
# Elastic Compliance Matrix: (Units=1/GPa)
#
#
# Indices 1 2 3 4 5 6 
#
# 1 0.039480 0.000905 0.002970 0.000000 0.034004 0.000000
# 2 0.000905 0.014757 -0.003329 0.000000 0.004459 0.000000
# 3 0.002970 -0.003329 0.010555 0.000000 0.008978 0.000000
# 4 0.000000 0.000000 0.000000 0.022669 0.000000 0.002393
# 5 0.034004 0.004459 0.008978 0.000000 0.059454 0.000000
# 6 0.000000 0.000000 0.000000 0.002393 0.000000 0.033491
#
#
# Mechanical properties :
#
#
# Convention : Reuss Voigt Hill
#
# Bulk Modulus (GPa) = 15.17782 43.77679 29.47731
# Shear Modulus (GPa) = 24.84158 36.49047 30.66603
#
# Velocity S-wave (km/s) = 3.09420 3.75014 3.43785
# Velocity P-wave (km/s) = 4.31451 5.96852 5.20760
#
# Compressibility (1/GPa) = 0.06588562
#
# Stress axis : x y z
#
# Youngs Moduli (GPa) = 25.32931 67.76220 94.74215
#
# Poissons Ratio (x) = -0.06133 -0.28139
# Poissons Ratio (y) = -0.02292 0.31535
# Poissons Ratio (z) = -0.07523 0.22555
#
# Static dielectric constant tensor:
#      x y z
#    x 4.780330 0.000000 -0.392370 
#    y 0.000000 4.276390 0.000000 
#    z -0.392370 0.000000 4.811600 
# 
# 
# High freq. dielectric constant tensor:
#      x y z
#    x 2.065140 0.000000 -0.012160 
#    y 0.000000 2.013560 0.000000 
#    z -0.012160 0.000000 2.046320 
# 
# From -- ./inp_files/7990.got.cif
#   From: 2010.03.12/outbox.cif.g09.slc.cpg/sg4_4_cif.got.tgz:7990.got - 2010.03.31 09:31:35.
