data_PCOD8046314
_publ_section_title
;
Structure prediction by ZEFSAII (Michael W. Deem and Ramdas Pophale) SiO2 
 PCOD8046314
Probable space group: P 21
;
_chemical_formula_sum "Si O2"
_cell_formula_units_Z 14
_cell_length_a 10.513086
_cell_length_b 8.489451
_cell_length_c 14.287081
_cell_angle_alpha 90.000000
_cell_angle_beta 31.055440
_cell_angle_gamma 90.000000
_cell_volume 657.796074
_symmetry_space_group_name_H-M "P 21"
_symmetry_group_IT_number 4
_symmetry_cell_setting 'monoclinic'
loop_
_space_group_symop_operation_xyz
x,y,z
-x,1/2+y,-z
loop_
_atom_site_type_symbol
_atom_site_label
_atom_site_fract_x
_atom_site_fract_y
_atom_site_fract_z
Si Si1 0.692643 0.835180 0.853731
Si Si2 0.436920 0.258451 0.272305
Si Si3 0.328942 0.480105 0.485672
Si Si4 0.786485 0.508442 0.860244
Si Si5 0.857505 0.554083 0.399685
Si Si6 0.943354 0.258156 0.897783
Si Si7 0.460660 0.310040 0.586137
O O1 0.653617 0.758883 0.776738
O O2 0.737767 0.695587 0.900422
O O3 0.928567 0.945091 0.694996
O O4 0.450507 0.929665 0.040988
O O5 0.457291 0.433974 0.306653
O O6 0.232201 0.166307 0.460818
O O7 0.715755 0.183048 0.100157
O O8 0.401597 0.340255 0.513199
O O9 0.399742 0.646913 0.485202
O O10 0.037993 0.480173 0.644773
O O11 0.827082 0.424553 0.934916
O O12 0.618045 0.453391 0.524344
O O13 0.974664 0.641864 0.237129
O O14 0.187115 0.296092 0.806602
#
# Coordination Sequence:
#
# PCOD8046314 Si02
#       7
#     2   2   2   2   2   2   2
#     4  11  24  40  67  95 131 171 215 264 325 380
#     4  11  25  41  63  95 132 168 214 271 315 385
#     4  11  21  42  67  96 127 167 218 261 323 383
#     4  10  21  41  64  93 128 169 212 262 318 385
#     4  12  23  41  68  95 129 175 211 262 331 380
#     4  10  23  44  66  95 132 165 219 271 319 380
#     4  11  21  41  71  91 127 175 207 265 327 379
#
# _framework density 21.283193000000001
#
# number of rings (size 3 to 8) (size 9 to 14) (size 15 to 20)
#    0.000    1.143    5.714    1.714    2.000    1.143 
#    0.000    7.143    0.000    0.000    0.000    0.000 
#    0.000    0.000    0.000    0.000    0.000    0.000 
#
# Total GULP energy -173445.189625 kJ/mol
# GULP energy per Si atom -12388.942116 kJ/mol
# Density = 2.123475 g / cm^3
# Si number density = 21.283193 Si / 1000 Ang^3
#
#
#
# Elastic Constant Matrix: (Units=GPa)
#
#
# Indices 1 2 3 4 5 6 
#
# 1 73.4107 27.9017 44.5853 0.0000 -32.6015 0.0000
# 2 27.9017 112.5595 51.5869 0.0000 -8.5413 0.0000
# 3 44.5853 51.5869 132.2254 0.0000 -39.8254 0.0000
# 4 0.0000 0.0000 0.0000 26.0199 0.0000 -14.4854
# 5 -32.6015 -8.5413 -39.8254 0.0000 38.3598 0.0000
# 6 0.0000 0.0000 0.0000 -14.4854 0.0000 37.3350
#
#
#
# Elastic Compliance Matrix: (Units=1/GPa)
#
#
# Indices 1 2 3 4 5 6 
#
# 1 0.023952 -0.004124 -0.000892 0.000000 0.018513 0.000000
# 2 -0.004124 0.011750 -0.005036 0.000000 -0.006117 0.000000
# 3 -0.000892 -0.005036 0.013476 0.000000 0.012112 0.000000
# 4 0.000000 0.000000 0.000000 0.049020 0.000000 0.019019
# 5 0.018513 -0.006117 0.012112 0.000000 0.053016 0.000000
# 6 0.000000 0.000000 0.000000 0.019019 0.000000 0.034164
#
#
# Mechanical properties :
#
#
# Convention : Reuss Voigt Hill
#
# Bulk Modulus (GPa) = 34.39312 62.92704 48.66008
# Shear Modulus (GPa) = 23.23698 33.28439 28.26068
#
# Velocity S-wave (km/s) = 3.30782 3.95888 3.64791
# Velocity P-wave (km/s) = 5.54831 7.10829 6.37619
#
# Compressibility (1/GPa) = 0.02907558
#
# Stress axis : x y z
#
# Youngs Moduli (GPa) = 41.74931 85.10342 74.20343
#
# Poissons Ratio (x) = 0.35096 0.06617
# Poissons Ratio (y) = 0.17217 0.37371
# Poissons Ratio (z) = 0.03723 0.42860
#
# Static dielectric constant tensor:
#      x y z
#    x 3.809310 0.000000 -0.505410 
#    y 0.000000 3.967780 0.000000 
#    z -0.505410 0.000000 4.125260 
# 
# 
# High freq. dielectric constant tensor:
#      x y z
#    x 1.820460 0.000000 -0.040230 
#    y 0.000000 1.838880 0.000000 
#    z -0.040230 0.000000 1.837460 
# 
# From -- ./inp_files/10997.got.cif
#   From: 2010.03.12/outbox.cif.g09.slc.cpg/sg4_6_cif.got.tgz:10997.got - 2010.03.31 09:31:35.
