data_PCOD8046639
_publ_section_title
;
Structure prediction by ZEFSAII (Michael W. Deem and Ramdas Pophale) SiO2 
 PCOD8046639
Probable space group: P 21
;
_chemical_formula_sum "Si O2"
_cell_formula_units_Z 16
_cell_length_a 7.925161
_cell_length_b 12.289164
_cell_length_c 11.493926
_cell_angle_alpha 90.000000
_cell_angle_beta 40.079382
_cell_angle_gamma 90.000000
_cell_volume 720.746270
_symmetry_space_group_name_H-M "P 21"
_symmetry_group_IT_number 4
_symmetry_cell_setting 'monoclinic'
loop_
_space_group_symop_operation_xyz
x,y,z
-x,1/2+y,-z
loop_
_atom_site_type_symbol
_atom_site_label
_atom_site_fract_x
_atom_site_fract_y
_atom_site_fract_z
Si Si1 0.199853 0.573120 0.533402
Si Si2 0.107730 0.825875 0.076578
Si Si3 0.600619 0.964380 0.351098
Si Si4 0.814411 0.384432 0.714022
Si Si5 0.575553 0.526380 0.130213
Si Si6 0.096709 0.596138 0.971407
Si Si7 0.094046 0.822049 0.583936
Si Si8 0.706569 0.958696 0.936107
O O1 0.388779 0.517332 0.527341
O O2 0.343824 0.564921 0.334856
O O3 0.145933 0.698444 0.595692
O O4 0.930737 0.505775 0.671338
O O5 0.129258 0.808366 0.204123
O O6 0.132746 0.717954 0.991138
O O7 0.828720 0.879761 0.198997
O O8 0.345716 0.899470 0.902260
O O9 0.327622 0.904323 0.487891
O O10 0.640984 0.063042 0.237999
O O11 0.946131 0.325323 0.534312
O O12 0.499926 0.398911 0.867907
O O13 0.460664 0.541452 0.059491
O O14 0.841952 0.591759 0.021179
O O15 0.079797 0.521752 0.097457
O O16 0.843171 0.867013 0.784429
#
# Coordination Sequence:
#
# PCOD8046639 Si02
#       8
#     2   2   2   2   2   2   2   2
#     4  11  24  44  69  99 140 183 224 292 348 401
#     4   9  22  41  67  98 135 186 221 283 351 396
#     4  10  23  43  63 103 143 169 241 284 323 432
#     4  10  23  45  63 101 142 164 237 288 326 430
#     4  10  22  43  64 100 141 170 232 284 328 412
#     4  11  22  42  70  98 138 187 224 281 350 399
#     4  12  24  44  72 101 135 187 223 286 355 400
#     4  11  24  44  68 102 134 178 232 284 335 420
#
# _framework density 22.199214999999999
#
# number of rings (size 3 to 8) (size 9 to 14) (size 15 to 20)
#    0.000    1.500    2.500    2.250    1.750    5.000 
#    6.750    2.500    0.000    0.000    0.000    0.000 
#    0.000    0.000    0.000    0.000    0.000    0.000 
#
# Total GULP energy -198329.057682 kJ/mol
# GULP energy per Si atom -12395.566105 kJ/mol
# Density = 2.214869 g / cm^3
# Si number density = 22.199215 Si / 1000 Ang^3
#
#
#
# Elastic Constant Matrix: (Units=GPa)
#
#
# Indices 1 2 3 4 5 6 
#
# 1 77.1098 10.8652 -2.0374 0.0000 -4.5280 0.0000
# 2 10.8652 78.8296 5.7588 0.0000 1.2206 0.0000
# 3 -2.0374 5.7588 76.2208 0.0000 -8.4954 0.0000
# 4 0.0000 0.0000 0.0000 28.9684 0.0000 2.6973
# 5 -4.5280 1.2206 -8.4954 0.0000 29.4582 0.0000
# 6 0.0000 0.0000 0.0000 2.6973 0.0000 22.4762
#
#
#
# Elastic Compliance Matrix: (Units=1/GPa)
#
#
# Indices 1 2 3 4 5 6 
#
# 1 0.013401 -0.001940 0.000768 0.000000 0.002362 0.000000
# 2 -0.001940 0.013057 -0.001169 0.000000 -0.001176 0.000000
# 3 0.000768 -0.001169 0.013687 0.000000 0.004114 0.000000
# 4 0.000000 0.000000 0.000000 0.034910 0.000000 -0.004189
# 5 0.002362 -0.001176 0.004114 0.000000 0.035544 0.000000
# 6 0.000000 0.000000 0.000000 -0.004189 0.000000 0.044994
#
#
# Mechanical properties :
#
#
# Convention : Reuss Voigt Hill
#
# Bulk Modulus (GPa) = 28.19904 29.03705 28.61804
# Shear Modulus (GPa) = 29.05338 30.68545 29.86942
#
# Velocity S-wave (km/s) = 3.62160 3.72193 3.67211
# Velocity P-wave (km/s) = 5.49711 5.61952 5.55865
#
# Compressibility (1/GPa) = 0.03546220
#
# Stress axis : x y z
#
# Youngs Moduli (GPa) = 74.62238 76.58964 73.06107
#
# Poissons Ratio (x) = 0.14856 -0.05611
# Poissons Ratio (y) = 0.14475 0.08544
# Poissons Ratio (z) = -0.05731 0.08957
#
# Static dielectric constant tensor:
#      x y z
#    x 4.276310 0.000000 0.203460 
#    y 0.000000 3.760030 0.000000 
#    z 0.203460 0.000000 4.149580 
# 
# 
# High freq. dielectric constant tensor:
#      x y z
#    x 1.883570 0.000000 0.009260 
#    y 0.000000 1.852720 0.000000 
#    z 0.009260 0.000000 1.879930 
# 
# From -- ./inp_files/8151.got.cif
#   From: 2010.03.12/outbox.cif.g09.slc.cpg/sg4_5_cif.got.tgz:8151.got - 2010.03.31 09:31:35.
