data_PCOD8046377
_publ_section_title
;
Structure prediction by ZEFSAII (Michael W. Deem and Ramdas Pophale) SiO2 
 PCOD8046377
Probable space group: P 21
;
_chemical_formula_sum "Si O2"
_cell_formula_units_Z 14
_cell_length_a 9.106348
_cell_length_b 8.370350
_cell_length_c 7.930720
_cell_angle_alpha 90.000000
_cell_angle_beta 76.915839
_cell_angle_gamma 90.000000
_cell_volume 588.811983
_symmetry_space_group_name_H-M "P 21"
_symmetry_group_IT_number 4
_symmetry_cell_setting 'monoclinic'
loop_
_space_group_symop_operation_xyz
x,y,z
-x,1/2+y,-z
loop_
_atom_site_type_symbol
_atom_site_label
_atom_site_fract_x
_atom_site_fract_y
_atom_site_fract_z
Si Si1 0.103496 0.324170 0.595743
Si Si2 0.087879 0.753554 0.862245
Si Si3 0.662977 0.056706 0.375683
Si Si4 0.381602 0.622436 0.226255
Si Si5 0.540036 0.476971 0.877444
Si Si6 0.941138 0.018078 0.705770
Si Si7 0.134136 0.981879 0.123868
O O1 0.255160 0.382235 0.653960
O O2 0.115716 0.377226 0.400999
O O3 0.077967 0.134384 0.612270
O O4 0.961163 0.426367 0.692668
O O5 0.208218 0.692569 0.691961
O O6 0.962285 0.621991 0.944784
O O7 0.171108 0.820425 0.006511
O O8 0.001068 0.917631 0.844655
O O9 0.592334 0.083719 0.580434
O O10 0.541079 0.067985 0.257804
O O11 0.456484 0.791569 0.169646
O O12 0.205027 0.627252 0.223300
O O13 0.457370 0.494659 0.079717
O O14 0.707136 0.551704 0.851560
#
# Coordination Sequence:
#
# PCOD8046377 Si02
#       7
#     2   2   2   2   2   2   2
#     4  10  21  42  72 103 135 188 242 310 365 423
#     4  11  25  44  75 105 143 188 250 315 367 435
#     4  10  26  50  72 110 148 193 254 302 374 442
#     4  11  27  48  72 109 149 201 245 307 362 454
#     4  12  27  47  73 105 156 196 246 297 378 445
#     4  11  22  45  73 101 143 185 252 309 365 434
#     4  11  24  42  71 107 140 191 245 306 371 437
#
# _framework density 23.776689000000001
#
# number of rings (size 3 to 8) (size 9 to 14) (size 15 to 20)
#    0.000    1.143    1.429    4.286    6.000    3.429 
#    5.143    0.000    0.000    0.000    0.000    0.000 
#    0.000    0.000    0.000    0.000    0.000    0.000 
#
# Total GULP energy -173469.884608 kJ/mol
# GULP energy per Si atom -12390.706043 kJ/mol
# Density = 2.372257 g / cm^3
# Si number density = 23.776689 Si / 1000 Ang^3
#
#
#
# Elastic Constant Matrix: (Units=GPa)
#
#
# Indices 1 2 3 4 5 6 
#
# 1 112.4359 35.5658 52.9514 0.0000 10.2313 0.0000
# 2 35.5658 116.0432 44.4224 0.0000 5.3604 0.0000
# 3 52.9514 44.4224 148.6189 0.0000 -1.9020 0.0000
# 4 0.0000 0.0000 0.0000 39.7349 0.0000 -1.7938
# 5 10.2313 5.3604 -1.9020 0.0000 27.3272 0.0000
# 6 0.0000 0.0000 0.0000 -1.7938 0.0000 31.9656
#
#
#
# Elastic Compliance Matrix: (Units=1/GPa)
#
#
# Indices 1 2 3 4 5 6 
#
# 1 0.011596 -0.001985 -0.003592 0.000000 -0.004202 0.000000
# 2 -0.001985 0.010194 -0.002358 0.000000 -0.001421 0.000000
# 3 -0.003592 -0.002358 0.008744 0.000000 0.002416 0.000000
# 4 0.000000 0.000000 0.000000 0.025231 0.000000 0.001416
# 5 -0.004202 -0.001421 0.002416 0.000000 0.038614 0.000000
# 6 0.000000 0.000000 0.000000 0.001416 0.000000 0.031363
#
#
# Mechanical properties :
#
#
# Convention : Reuss Voigt Hill
#
# Bulk Modulus (GPa) = 68.19247 71.44193 69.81720
# Shear Modulus (GPa) = 34.12985 36.08278 35.10631
#
# Velocity S-wave (km/s) = 3.79282 3.89983 3.84670
# Velocity P-wave (km/s) = 6.92267 7.09862 7.01120
#
# Compressibility (1/GPa) = 0.01466438
#
# Stress axis : x y z
#
# Youngs Moduli (GPa) = 86.23805 98.09595 114.36221
#
# Poissons Ratio (x) = 0.19470 0.41079
# Poissons Ratio (y) = 0.17117 0.26967
# Poissons Ratio (z) = 0.30977 0.23131
#
# Static dielectric constant tensor:
#      x y z
#    x 4.307330 0.000000 0.076200 
#    y 0.000000 4.172900 0.000000 
#    z 0.076200 0.000000 4.264990 
# 
# 
# High freq. dielectric constant tensor:
#      x y z
#    x 1.934330 0.000000 0.011910 
#    y 0.000000 1.945600 0.000000 
#    z 0.011910 0.000000 1.947180 
# 
# From -- ./inp_files/5299.got.cif
#   From: 2010.03.12/outbox.cif.g09.slc.cpg/sg4_3_cif.got.tgz:5299.got - 2010.03.31 09:31:35.
