data_PCOD8046897
_publ_section_title
;
Structure prediction by ZEFSAII (Michael W. Deem and Ramdas Pophale) SiO2 
 PCOD8046897
Probable space group: P 21
;
_chemical_formula_sum "Si O2"
_cell_formula_units_Z 16
_cell_length_a 7.802227
_cell_length_b 10.859838
_cell_length_c 8.693050
_cell_angle_alpha 90.000000
_cell_angle_beta 109.955688
_cell_angle_gamma 90.000000
_cell_volume 692.344147
_symmetry_space_group_name_H-M "P 21"
_symmetry_group_IT_number 4
_symmetry_cell_setting 'monoclinic'
loop_
_space_group_symop_operation_xyz
x,y,z
-x,1/2+y,-z
loop_
_atom_site_type_symbol
_atom_site_label
_atom_site_fract_x
_atom_site_fract_y
_atom_site_fract_z
Si Si1 0.323853 0.262520 0.866109
Si Si2 0.835427 0.986428 0.335405
Si Si3 0.988041 0.188838 0.174357
Si Si4 0.055997 0.646027 0.191514
Si Si5 0.377044 0.663288 0.509068
Si Si6 0.368029 0.313068 0.220074
Si Si7 0.549805 0.552073 0.296577
Si Si8 0.918663 0.421434 0.319593
O O1 0.312105 0.400737 0.796182
O O2 0.115542 0.219574 0.797075
O O3 0.458684 0.175413 0.810070
O O4 0.402489 0.259317 0.061656
O O5 0.970957 0.059550 0.260157
O O6 0.713588 0.082383 0.388579
O O7 0.955221 0.905897 0.490921
O O8 0.868055 0.290223 0.228589
O O9 0.189288 0.249773 0.236969
O O10 0.915829 0.165976 0.980905
O O11 0.023693 0.502544 0.222870
O O12 0.231330 0.701400 0.333089
O O13 0.461807 0.782461 0.616516
O O14 0.540804 0.590617 0.472805
O O15 0.372190 0.463295 0.211053
O O16 0.732556 0.481780 0.314602
#
# Coordination Sequence:
#
# PCOD8046897 Si02
#       8
#     2   2   2   2   2   2   2   2
#     4  10  26  45  70  97 144 183 234 281 349 425
#     4  11  25  42  73 100 139 187 236 283 349 422
#     4  11  24  44  74  99 138 187 237 288 345 420
#     4   9  23  45  67 102 133 185 234 284 347 423
#     4  11  25  42  70 101 138 178 233 292 357 408
#     4  11  25  45  69 105 137 183 234 294 352 411
#     4  11  25  44  69 102 146 177 228 298 351 413
#     4  10  23  43  70 102 135 186 236 284 346 428
#
# _framework density 23.109891999999999
#
# number of rings (size 3 to 8) (size 9 to 14) (size 15 to 20)
#    0.000    1.500    0.000    3.000   17.500    1.000 
#    0.000    0.000    0.000    0.000    0.000    0.000 
#    0.000    0.000    0.000    0.000    0.000    0.000 
#
# Total GULP energy -198359.648916 kJ/mol
# GULP energy per Si atom -12397.478057 kJ/mol
# Density = 2.305729 g / cm^3
# Si number density = 23.109892 Si / 1000 Ang^3
#
#
#
# Elastic Constant Matrix: (Units=GPa)
#
#
# Indices 1 2 3 4 5 6 
#
# 1 97.3618 41.0647 50.6252 0.0000 -18.2761 0.0000
# 2 41.0647 116.0108 62.2380 0.0000 -6.6771 0.0000
# 3 50.6252 62.2380 141.3167 0.0000 -7.2427 0.0000
# 4 0.0000 0.0000 0.0000 36.4118 0.0000 -6.3460
# 5 -18.2761 -6.6771 -7.2427 0.0000 31.9693 0.0000
# 6 0.0000 0.0000 0.0000 -6.3460 0.0000 39.6555
#
#
#
# Elastic Compliance Matrix: (Units=1/GPa)
#
#
# Indices 1 2 3 4 5 6 
#
# 1 0.014673 -0.002834 -0.003651 0.000000 0.006969 0.000000
# 2 -0.002834 0.011883 -0.004223 0.000000 -0.000095 0.000000
# 3 -0.003651 -0.004223 0.010211 0.000000 -0.000656 0.000000
# 4 0.000000 0.000000 0.000000 0.028252 0.000000 0.004521
# 5 0.006969 -0.000095 -0.000656 0.000000 0.035096 0.000000
# 6 0.000000 0.000000 0.000000 0.004521 0.000000 0.025941
#
#
# Mechanical properties :
#
#
# Convention : Reuss Voigt Hill
#
# Bulk Modulus (GPa) = 65.14552 73.61613 69.38083
# Shear Modulus (GPa) = 32.76800 34.99142 33.87971
#
# Velocity S-wave (km/s) = 3.76961 3.89541 3.83303
# Velocity P-wave (km/s) = 6.87003 7.22193 7.04817
#
# Compressibility (1/GPa) = 0.01535025
#
# Stress axis : x y z
#
# Youngs Moduli (GPa) = 68.15276 84.15214 97.93729
#
# Poissons Ratio (x) = 0.23848 0.35758
# Poissons Ratio (y) = 0.19314 0.41361
# Poissons Ratio (z) = 0.24883 0.35539
#
# Static dielectric constant tensor:
#      x y z
#    x 4.259350 0.000000 -0.202390 
#    y 0.000000 4.317430 0.000000 
#    z -0.202390 0.000000 4.174680 
# 
# 
# High freq. dielectric constant tensor:
#      x y z
#    x 1.923620 0.000000 -0.017440 
#    y 0.000000 1.913560 0.000000 
#    z -0.017440 0.000000 1.910480 
# 
# From -- ./inp_files/6319.got.cif
#   From: 2010.03.12/outbox.cif.g09.slc.cpg/sg4_4_cif.got.tgz:6319.got - 2010.03.31 09:31:35.
