data_PCOD8046120
_publ_section_title
;
Structure prediction by ZEFSAII (Michael W. Deem and Ramdas Pophale) SiO2 
 PCOD8046120
Probable space group: P 21
;
_chemical_formula_sum "Si O2"
_cell_formula_units_Z 14
_cell_length_a 14.900356
_cell_length_b 5.116321
_cell_length_c 14.472965
_cell_angle_alpha 90.000000
_cell_angle_beta 34.388059
_cell_angle_gamma 90.000000
_cell_volume 623.164647
_symmetry_space_group_name_H-M "P 21"
_symmetry_group_IT_number 4
_symmetry_cell_setting 'monoclinic'
loop_
_space_group_symop_operation_xyz
x,y,z
-x,1/2+y,-z
loop_
_atom_site_type_symbol
_atom_site_label
_atom_site_fract_x
_atom_site_fract_y
_atom_site_fract_z
Si Si1 0.896017 0.840270 0.480853
Si Si2 0.089853 0.478681 0.034035
Si Si3 0.451138 0.367674 0.485508
Si Si4 0.458345 0.383337 0.271558
Si Si5 0.098390 0.339730 0.307733
Si Si6 0.367072 0.393286 0.934394
Si Si7 0.099341 0.479879 0.808808
O O1 0.732129 0.870163 0.565610
O O2 0.860210 0.850362 0.619886
O O3 0.980531 0.572644 0.378974
O O4 0.013686 0.071771 0.350737
O O5 0.023266 0.759409 0.122092
O O6 0.254961 0.416749 0.941155
O O7 0.122096 0.465547 0.898685
O O8 0.962494 0.260002 0.171958
O O9 0.536643 0.588853 0.474094
O O10 0.526584 0.355201 0.318666
O O11 0.269475 0.437132 0.619983
O O12 0.514498 0.652166 0.178515
O O13 0.525896 0.151835 0.150350
O O14 0.265491 0.363549 0.113595
#
# Coordination Sequence:
#
# PCOD8046120 Si02
#       7
#     2   2   2   2   2   2   2
#     4  10  23  45  68 101 129 169 222 264 324 401
#     4  10  21  36  58  84 120 151 218 253 313 367
#     4  12  25  41  62  88 130 176 218 263 327 378
#     4  12  26  41  66  98 135 171 220 270 326 393
#     4  10  23  43  72  96 133 171 212 274 324 389
#     4  12  25  41  65  98 132 174 208 279 324 388
#     4  10  21  37  57  83 111 170 204 265 300 372
#
# _framework density 22.465973000000002
#
# number of rings (size 3 to 8) (size 9 to 14) (size 15 to 20)
#    0.000    1.143    0.000    6.000    4.000    3.429 
#    0.000    0.000    0.000    0.000    0.000    0.000 
#    0.000    0.000    0.000    0.000    0.000    0.000 
#
# Total GULP energy -173693.525076 kJ/mol
# GULP energy per Si atom -12406.680363 kJ/mol
# Density = 2.241484 g / cm^3
# Si number density = 22.465973 Si / 1000 Ang^3
#
#
#
# Elastic Constant Matrix: (Units=GPa)
#
#
# Indices 1 2 3 4 5 6 
#
# 1 56.0582 9.7475 4.1384 0.0000 -3.4169 0.0000
# 2 9.7475 106.3434 7.0612 0.0000 5.8390 0.0000
# 3 4.1384 7.0612 80.3241 0.0000 5.4215 0.0000
# 4 0.0000 0.0000 0.0000 38.4981 0.0000 -9.2020
# 5 -3.4169 5.8390 5.4215 0.0000 31.3275 0.0000
# 6 0.0000 0.0000 0.0000 -9.2020 0.0000 21.7030
#
#
#
# Elastic Compliance Matrix: (Units=1/GPa)
#
#
# Indices 1 2 3 4 5 6 
#
# 1 0.018367 -0.001757 -0.000960 0.000000 0.002497 0.000000
# 2 -0.001757 0.009711 -0.000635 0.000000 -0.001892 0.000000
# 3 -0.000960 -0.000635 0.012702 0.000000 -0.002185 0.000000
# 4 0.000000 0.000000 0.000000 0.028905 0.000000 0.012256
# 5 0.002497 -0.001892 -0.002185 0.000000 0.032924 0.000000
# 6 0.000000 0.000000 0.000000 0.012256 0.000000 0.051273
#
#
# Mechanical properties :
#
#
# Convention : Reuss Voigt Hill
#
# Bulk Modulus (GPa) = 29.34731 31.62444 30.48588
# Shear Modulus (GPa) = 29.07903 33.09096 31.08499
#
# Velocity S-wave (km/s) = 3.60162 3.84205 3.72378
# Velocity P-wave (km/s) = 5.51244 5.81283 5.66462
#
# Compressibility (1/GPa) = 0.03407467
#
# Stress axis : x y z
#
# Youngs Moduli (GPa) = 54.44493 102.98038 78.72555
#
# Poissons Ratio (x) = 0.18092 0.07561
# Poissons Ratio (y) = 0.09565 0.05003
# Poissons Ratio (z) = 0.05229 0.06544
#
# Static dielectric constant tensor:
#      x y z
#    x 3.941180 0.000000 0.067120 
#    y 0.000000 4.401660 0.000000 
#    z 0.067120 0.000000 4.003750 
# 
# 
# High freq. dielectric constant tensor:
#      x y z
#    x 1.879890 0.000000 0.003030 
#    y 0.000000 1.901880 0.000000 
#    z 0.003030 0.000000 1.892300 
# 
# From -- ./inp_files/14050.got.cif
#   From: 2010.03.12/outbox.cif.g09.slc.cpg/sg4_8_cif.got.tgz:14050.got - 2010.03.31 09:31:35.
