data_PCOD8046724
_publ_section_title
;
Structure prediction by ZEFSAII (Michael W. Deem and Ramdas Pophale) SiO2 
 PCOD8046724
Probable space group: P 21
;
_chemical_formula_sum "Si O2"
_cell_formula_units_Z 16
_cell_length_a 15.065462
_cell_length_b 9.624926
_cell_length_c 5.551452
_cell_angle_alpha 90.000000
_cell_angle_beta 121.604676
_cell_angle_gamma 90.000000
_cell_volume 685.590856
_symmetry_space_group_name_H-M "P 21"
_symmetry_group_IT_number 4
_symmetry_cell_setting 'monoclinic'
loop_
_space_group_symop_operation_xyz
x,y,z
-x,1/2+y,-z
loop_
_atom_site_type_symbol
_atom_site_label
_atom_site_fract_x
_atom_site_fract_y
_atom_site_fract_z
Si Si1 0.305526 0.413520 0.320282
Si Si2 0.133172 0.186065 0.647445
Si Si3 0.090014 0.040157 0.095883
Si Si4 0.254882 0.635448 0.869111
Si Si5 0.582602 0.155166 0.277113
Si Si6 0.643794 0.649709 0.891334
Si Si7 0.121564 0.451415 0.392753
Si Si8 0.714764 0.376681 0.755375
O O1 0.394675 0.508139 0.564593
O O2 0.355682 0.268532 0.311917
O O3 0.211854 0.376352 0.367057
O O4 0.254413 0.499216 0.031188
O O5 0.079288 0.117700 0.336189
O O6 0.101344 0.348362 0.590108
O O7 0.100024 0.131320 0.864116
O O8 0.257351 0.165388 0.794024
O O9 0.188856 0.937608 0.260178
O O10 0.980997 0.961529 0.914419
O O11 0.371138 0.651296 0.924929
O O12 0.165228 0.603259 0.541166
O O13 0.229239 0.779147 0.965311
O O14 0.458513 0.171900 0.090800
O O15 0.637618 0.284232 0.487495
O O16 0.644903 0.498450 0.769837
#
# Coordination Sequence:
#
# PCOD8046724 Si02
#       8
#     2   2   2   2   2   2   2   2
#     4  10  22  45  68 104 139 187 249 289 358 439
#     4  11  26  47  67 112 138 186 246 295 357 438
#     4  11  28  44  75 104 147 188 237 306 365 420
#     4  10  23  43  64 103 136 182 240 297 347 446
#     4  10  23  42  70 101 138 195 236 296 370 425
#     4  11  22  45  70  99 146 185 242 303 361 426
#     4  11  24  44  75  96 143 192 237 294 369 429
#     4  10  24  44  65 105 143 177 243 302 353 431
#
# _framework density 23.337533000000001
#
# number of rings (size 3 to 8) (size 9 to 14) (size 15 to 20)
#    0.000    1.500    1.250    2.250    7.000    3.000 
#   13.500    0.000    0.000    0.000    0.000    0.000 
#    0.000    0.000    0.000    0.000    0.000    0.000 
#
# Total GULP energy -198337.846935 kJ/mol
# GULP energy per Si atom -12396.115433 kJ/mol
# Density = 2.328442 g / cm^3
# Si number density = 23.337533 Si / 1000 Ang^3
#
#
#
# Elastic Constant Matrix: (Units=GPa)
#
#
# Indices 1 2 3 4 5 6 
#
# 1 43.5478 1.4664 3.9737 0.0000 9.4120 0.0000
# 2 1.4664 116.9642 14.5549 0.0000 -9.2309 0.0000
# 3 3.9737 14.5549 64.3140 0.0000 -7.1179 0.0000
# 4 0.0000 0.0000 0.0000 31.1914 0.0000 -2.0375
# 5 9.4120 -9.2309 -7.1179 0.0000 40.8620 0.0000
# 6 0.0000 0.0000 0.0000 -2.0375 0.0000 21.4917
#
#
#
# Elastic Compliance Matrix: (Units=1/GPa)
#
#
# Indices 1 2 3 4 5 6 
#
# 1 0.024493 -0.000533 -0.002070 0.000000 -0.006123 0.000000
# 2 -0.000533 0.008923 -0.001784 0.000000 0.001828 0.000000
# 3 -0.002070 -0.001784 0.016405 0.000000 0.002931 0.000000
# 4 0.000000 0.000000 0.000000 0.032260 0.000000 0.003058
# 5 -0.006123 0.001828 0.002931 0.000000 0.026806 0.000000
# 6 0.000000 0.000000 0.000000 0.003058 0.000000 0.046819
#
#
# Mechanical properties :
#
#
# Convention : Reuss Voigt Hill
#
# Bulk Modulus (GPa) = 24.36259 29.42398 26.89329
# Shear Modulus (GPa) = 28.06418 32.36444 30.21431
#
# Velocity S-wave (km/s) = 3.47152 3.72801 3.60205
# Velocity P-wave (km/s) = 5.15078 5.58267 5.37106
#
# Compressibility (1/GPa) = 0.04104653
#
# Stress axis : x y z
#
# Youngs Moduli (GPa) = 40.82723 112.07571 60.95764
#
# Poissons Ratio (x) = 0.05970 0.12621
# Poissons Ratio (y) = 0.02175 0.10875
# Poissons Ratio (z) = 0.08453 0.19995
#
# Static dielectric constant tensor:
#      x y z
#    x 4.170680 0.000000 -0.047570 
#    y 0.000000 4.254190 0.000000 
#    z -0.047570 0.000000 4.099620 
# 
# 
# High freq. dielectric constant tensor:
#      x y z
#    x 1.918420 0.000000 -0.001740 
#    y 0.000000 1.932980 0.000000 
#    z -0.001740 0.000000 1.917340 
# 
# From -- ./inp_files/3420.got.cif
#   From: 2010.03.12/outbox.cif.g09.slc.cpg/sg4_2_cif.got.tgz:3420.got - 2010.03.31 09:31:35.
