data_PCOD8046320
_publ_section_title
;
Structure prediction by ZEFSAII (Michael W. Deem and Ramdas Pophale) SiO2 
 PCOD8046320
Probable space group: P 21
;
_chemical_formula_sum "Si O2"
_cell_formula_units_Z 16
_cell_length_a 5.292548
_cell_length_b 12.288727
_cell_length_c 11.652989
_cell_angle_alpha 90.000000
_cell_angle_beta 110.941343
_cell_angle_gamma 90.000000
_cell_volume 707.833619
_symmetry_space_group_name_H-M "P 21"
_symmetry_group_IT_number 4
_symmetry_cell_setting 'monoclinic'
loop_
_space_group_symop_operation_xyz
x,y,z
-x,1/2+y,-z
loop_
_atom_site_type_symbol
_atom_site_label
_atom_site_fract_x
_atom_site_fract_y
_atom_site_fract_z
Si Si1 0.933153 0.748190 0.884762
Si Si2 0.897770 0.798347 0.331191
Si Si3 0.610173 0.101756 0.034777
Si Si4 0.214008 0.070933 0.778739
Si Si5 0.515252 0.396469 0.565506
Si Si6 0.111476 0.388081 0.912941
Si Si7 0.672637 0.946287 0.717559
Si Si8 0.352162 0.030172 0.210370
O O1 0.820946 0.834759 0.777411
O O2 0.851912 0.630467 0.825073
O O3 0.255290 0.723088 0.947461
O O4 0.836739 0.784595 0.995894
O O5 0.830366 0.671223 0.313556
O O6 0.738155 0.836144 0.417665
O O7 0.784874 0.859642 0.198649
O O8 0.217963 0.820624 0.395730
O O9 0.589481 0.067166 0.164641
O O10 0.760306 0.995482 0.006080
O O11 0.330332 0.110731 0.920131
O O12 0.417081 0.983062 0.753892
O O13 0.913233 0.032262 0.758819
O O14 0.441415 0.431328 0.426980
O O15 0.554200 0.508378 0.644219
O O16 0.791422 0.417950 0.855632
#
# Coordination Sequence:
#
# PCOD8046320 Si02
#       8
#     2   2   2   2   2   2   2   2
#     4  11  25  40  69 102 143 181 232 289 364 427
#     4  11  24  44  76 101 133 188 239 283 355 419
#     4  11  23  41  70 101 141 182 231 294 358 427
#     4  12  27  44  73 107 141 180 236 300 361 421
#     4  11  25  49  72  98 141 190 238 291 342 426
#     4  10  21  41  66 103 140 178 228 296 353 427
#     4  12  28  49  67 105 147 188 235 296 353 419
#     4  10  23  40  67 101 134 185 235 285 352 428
#
# _framework density 22.604182000000002
#
# number of rings (size 3 to 8) (size 9 to 14) (size 15 to 20)
#    0.000    1.000    2.500    3.000    8.750    4.000 
#    2.250    0.000    0.000    0.000    0.000    0.000 
#    0.000    0.000    0.000    0.000    0.000    0.000 
#
# Total GULP energy -198220.304991 kJ/mol
# GULP energy per Si atom -12388.769062 kJ/mol
# Density = 2.255273 g / cm^3
# Si number density = 22.604182 Si / 1000 Ang^3
#
#
#
# Elastic Constant Matrix: (Units=GPa)
#
#
# Indices 1 2 3 4 5 6 
#
# 1 84.9058 17.1334 18.3284 0.0000 2.4624 0.0000
# 2 17.1334 85.4736 30.5053 0.0000 5.8959 0.0000
# 3 18.3284 30.5053 130.8715 0.0000 5.5720 0.0000
# 4 0.0000 0.0000 0.0000 29.4635 0.0000 2.7926
# 5 2.4624 5.8959 5.5720 0.0000 30.1699 0.0000
# 6 0.0000 0.0000 0.0000 2.7926 0.0000 30.2216
#
#
#
# Elastic Compliance Matrix: (Units=1/GPa)
#
#
# Indices 1 2 3 4 5 6 
#
# 1 0.012469 -0.002024 -0.001258 0.000000 -0.000390 0.000000
# 2 -0.002024 0.013206 -0.002713 0.000000 -0.001914 0.000000
# 3 -0.001258 -0.002713 0.008490 0.000000 -0.000935 0.000000
# 4 0.000000 0.000000 0.000000 0.034240 0.000000 -0.003164
# 5 -0.000390 -0.001914 -0.000935 0.000000 0.033724 0.000000
# 6 0.000000 0.000000 0.000000 -0.003164 0.000000 0.033381
#
#
# Mechanical properties :
#
#
# Convention : Reuss Voigt Hill
#
# Bulk Modulus (GPa) = 45.09691 48.13168 46.61429
# Shear Modulus (GPa) = 32.28080 33.65658 32.96869
#
# Velocity S-wave (km/s) = 3.78311 3.86288 3.82320
# Velocity P-wave (km/s) = 6.25112 6.42147 6.33687
#
# Compressibility (1/GPa) = 0.02217447
#
# Stress axis : x y z
#
# Youngs Moduli (GPa) = 80.19910 75.72573 117.79250
#
# Poissons Ratio (x) = 0.15324 0.14818
# Poissons Ratio (y) = 0.16229 0.31960
# Poissons Ratio (z) = 0.10089 0.20546
#
# Static dielectric constant tensor:
#      x y z
#    x 4.127140 0.000000 0.152520 
#    y 0.000000 4.416950 0.000000 
#    z 0.152520 0.000000 4.082980 
# 
# 
# High freq. dielectric constant tensor:
#      x y z
#    x 1.897850 0.000000 0.005560 
#    y 0.000000 1.895020 0.000000 
#    z 0.005560 0.000000 1.886190 
# 
# From -- ./inp_files/2845.got.cif
#   From: 2010.03.12/outbox.cif.g09.slc.cpg/sg4_2_cif.got.tgz:2845.got - 2010.03.31 09:31:35.
