data_PCOD8046087
_publ_section_title
;
Structure prediction by ZEFSAII (Michael W. Deem and Ramdas Pophale) SiO2 
 PCOD8046087
Probable space group: P 21
;
_chemical_formula_sum "Si O2"
_cell_formula_units_Z 14
_cell_length_a 9.491696
_cell_length_b 12.801304
_cell_length_c 5.550459
_cell_angle_alpha 90.000000
_cell_angle_beta 103.358953
_cell_angle_gamma 90.000000
_cell_volume 656.166006
_symmetry_space_group_name_H-M "P 21"
_symmetry_group_IT_number 4
_symmetry_cell_setting 'monoclinic'
loop_
_space_group_symop_operation_xyz
x,y,z
-x,1/2+y,-z
loop_
_atom_site_type_symbol
_atom_site_label
_atom_site_fract_x
_atom_site_fract_y
_atom_site_fract_z
Si Si1 0.852804 0.269240 0.065877
Si Si2 0.841367 0.724115 0.317304
Si Si3 0.373138 0.743920 0.640045
Si Si4 0.122575 0.617794 0.309252
Si Si5 0.243814 0.931101 0.352751
Si Si6 0.973367 0.910022 0.542769
Si Si7 0.692480 0.658852 0.755058
O O1 0.696596 0.254108 0.124394
O O2 0.981221 0.308588 0.284575
O O3 0.900655 0.156655 0.975171
O O4 0.842097 0.359249 0.865011
O O5 0.867160 0.850872 0.311011
O O6 0.744659 0.699813 0.514902
O O7 0.994893 0.666167 0.419795
O O8 0.777646 0.691063 0.031327
O O9 0.278185 0.661248 0.451635
O O10 0.370265 0.860342 0.521833
O O11 0.532953 0.702483 0.729832
O O12 0.116899 0.492816 0.333984
O O13 0.118907 0.964067 0.495549
O O14 0.311713 0.032714 0.255899
#
# Coordination Sequence:
#
# PCOD8046087 Si02
#       7
#     2   2   2   2   2   2   2
#     4  10  20  42  69  99 140 190 235 294 360 427
#     4  12  25  45  70 106 140 178 244 298 345 421
#     4  10  25  45  68 100 146 186 239 289 364 433
#     4  11  22  42  72 100 139 188 241 293 355 422
#     4  10  22  43  75  94 141 195 235 290 371 420
#     4  11  22  41  70 110 134 187 244 304 352 416
#     4  12  28  46  70 107 146 186 234 300 359 423
#
# _framework density 21.336065000000001
#
# number of rings (size 3 to 8) (size 9 to 14) (size 15 to 20)
#    0.000    1.143    5.714    1.714    6.000    2.286 
#    0.000    0.000    0.000    0.000    0.000    0.000 
#    0.000    0.000    0.000    0.000    0.000    0.000 
#
# Total GULP energy -173463.610538 kJ/mol
# GULP energy per Si atom -12390.257896 kJ/mol
# Density = 2.128750 g / cm^3
# Si number density = 21.336065 Si / 1000 Ang^3
#
#
#
# Elastic Constant Matrix: (Units=GPa)
#
#
# Indices 1 2 3 4 5 6 
#
# 1 44.6015 44.2471 6.3362 0.0000 -1.0591 0.0000
# 2 44.2471 156.3874 48.1859 0.0000 2.3320 0.0000
# 3 6.3362 48.1859 91.3171 0.0000 -10.9148 0.0000
# 4 0.0000 0.0000 0.0000 30.5005 0.0000 -11.3557
# 5 -1.0591 2.3320 -10.9148 0.0000 27.4954 0.0000
# 6 0.0000 0.0000 0.0000 -11.3557 0.0000 36.5521
#
#
#
# Elastic Compliance Matrix: (Units=1/GPa)
#
#
# Indices 1 2 3 4 5 6 
#
# 1 0.032181 -0.010270 0.003610 0.000000 0.003544 0.000000
# 2 -0.010270 0.011062 -0.005547 0.000000 -0.003536 0.000000
# 3 0.003610 -0.005547 0.014383 0.000000 0.006319 0.000000
# 4 0.000000 0.000000 0.000000 0.037075 0.000000 0.011518
# 5 0.003544 -0.003536 0.006319 0.000000 0.039315 0.000000
# 6 0.000000 0.000000 0.000000 0.011518 0.000000 0.030937
#
#
# Mechanical properties :
#
#
# Convention : Reuss Voigt Hill
#
# Bulk Modulus (GPa) = 30.11077 54.42715 42.26896
# Shear Modulus (GPa) = 24.94562 31.81205 28.37883
#
# Velocity S-wave (km/s) = 3.42303 3.86553 3.65099
# Velocity P-wave (km/s) = 5.45583 6.74448 6.13409
#
# Compressibility (1/GPa) = 0.03321070
#
# Stress axis : x y z
#
# Youngs Moduli (GPa) = 31.07467 90.39930 69.52758
#
# Poissons Ratio (x) = 0.92841 -0.25099
# Poissons Ratio (y) = 0.31914 0.38568
# Poissons Ratio (z) = -0.11218 0.50146
#
# Static dielectric constant tensor:
#      x y z
#    x 3.632130 0.000000 -0.143770 
#    y 0.000000 3.964500 0.000000 
#    z -0.143770 0.000000 4.134320 
# 
# 
# High freq. dielectric constant tensor:
#      x y z
#    x 1.817360 0.000000 -0.011270 
#    y 0.000000 1.842340 0.000000 
#    z -0.011270 0.000000 1.844980 
# 
# From -- ./inp_files/1280.got.cif
#   From: 2010.03.12/outbox.cif.g09.slc.cpg/sg4_1_cif.got.tgz:1280.got - 2010.03.31 09:31:35.
