data_PCOD8046834
_publ_section_title
;
Structure prediction by ZEFSAII (Michael W. Deem and Ramdas Pophale) SiO2 
 PCOD8046834
Probable space group: P 21
;
_chemical_formula_sum "Si O2"
_cell_formula_units_Z 16
_cell_length_a 22.914187
_cell_length_b 5.344730
_cell_length_c 8.606713
_cell_angle_alpha 90.000000
_cell_angle_beta 136.682364
_cell_angle_gamma 90.000000
_cell_volume 723.133465
_symmetry_space_group_name_H-M "P 21"
_symmetry_group_IT_number 4
_symmetry_cell_setting 'monoclinic'
loop_
_space_group_symop_operation_xyz
x,y,z
-x,1/2+y,-z
loop_
_atom_site_type_symbol
_atom_site_label
_atom_site_fract_x
_atom_site_fract_y
_atom_site_fract_z
Si Si1 0.550246 0.801140 0.373513
Si Si2 0.771394 0.410298 0.863032
Si Si3 0.374753 0.790794 0.614141
Si Si4 0.204037 0.632869 0.802450
Si Si5 0.665897 0.746374 0.863807
Si Si6 0.634963 0.382352 0.043942
Si Si7 0.105805 0.111481 0.139440
Si Si8 0.090533 0.610260 0.294810
O O1 0.584687 0.540781 0.376594
O O2 0.589750 0.878948 0.619055
O O3 0.569010 0.038808 0.295816
O O4 0.449227 0.756331 0.191738
O O5 0.719729 0.235513 0.639839
O O6 0.691801 0.517860 0.804013
O O7 0.830729 0.603606 0.884223
O O8 0.828937 0.270755 0.104291
O O9 0.363519 0.862528 0.770775
O O10 0.279733 0.760966 0.854831
O O11 0.124157 0.591065 0.535658
O O12 0.243953 0.380846 0.944937
O O13 0.633728 0.666759 0.973562
O O14 0.122249 0.868120 0.278488
O O15 0.124560 0.368446 0.266917
O O16 0.010753 0.105923 0.889804
#
# Coordination Sequence:
#
# PCOD8046834 Si02
#       8
#     2   2   2   2   2   2   2   2
#     4  11  25  44  64  91 135 168 225 275 333 386
#     4  10  23  42  63  94 134 172 218 267 335 390
#     4  11  24  43  64  96 125 174 220 283 320 396
#     4  11  24  42  62 100 129 177 214 279 319 410
#     4  10  25  40  61  93 131 172 218 272 328 388
#     4  11  26  39  68  92 128 177 225 270 333 389
#     4  10  23  46  71 101 127 181 209 276 326 399
#     4  10  24  44  71  99 137 163 227 266 330 394
#
# _framework density 22.125927999999998
#
# number of rings (size 3 to 8) (size 9 to 14) (size 15 to 20)
#    0.000    1.500    1.250    1.500   12.250    1.000 
#    2.250    0.000    0.000    0.000    0.000    0.000 
#    0.000    0.000    0.000    0.000    0.000    0.000 
#
# Total GULP energy -198229.709093 kJ/mol
# GULP energy per Si atom -12389.356818 kJ/mol
# Density = 2.207557 g / cm^3
# Si number density = 22.125928 Si / 1000 Ang^3
#
#
#
# Elastic Constant Matrix: (Units=GPa)
#
#
# Indices 1 2 3 4 5 6 
#
# 1 161.9314 50.2390 30.0288 0.0000 -25.0064 0.0000
# 2 50.2390 112.0025 23.6520 0.0000 -15.1926 0.0000
# 3 30.0288 23.6520 153.6300 0.0000 -24.0942 0.0000
# 4 0.0000 0.0000 0.0000 25.3269 0.0000 -6.8232
# 5 -25.0064 -15.1926 -24.0942 0.0000 30.9065 0.0000
# 6 0.0000 0.0000 0.0000 -6.8232 0.0000 26.9254
#
#
#
# Elastic Compliance Matrix: (Units=1/GPa)
#
#
# Indices 1 2 3 4 5 6 
#
# 1 0.007835 -0.002803 -0.000367 0.000000 0.004676 0.000000
# 2 -0.002803 0.010664 -0.000715 0.000000 0.002417 0.000000
# 3 -0.000367 -0.000715 0.007507 0.000000 0.005204 0.000000
# 4 0.000000 0.000000 0.000000 0.042377 0.000000 0.010739
# 5 0.004676 0.002417 0.005204 0.000000 0.041384 0.000000
# 6 0.000000 0.000000 0.000000 0.010739 0.000000 0.039861
#
#
# Mechanical properties :
#
#
# Convention : Reuss Voigt Hill
#
# Bulk Modulus (GPa) = 54.83078 70.60039 62.71559
# Shear Modulus (GPa) = 30.58547 38.20804 34.39675
#
# Velocity S-wave (km/s) = 3.72201 4.16004 3.94711
# Velocity P-wave (km/s) = 6.58074 7.41972 7.01279
#
# Compressibility (1/GPa) = 0.01823793
#
# Stress axis : x y z
#
# Youngs Moduli (GPa) = 127.63157 93.76979 133.20762
#
# Poissons Ratio (x) = 0.26281 0.04884
# Poissons Ratio (y) = 0.35772 0.09523
# Poissons Ratio (z) = 0.04680 0.06704
#
# Static dielectric constant tensor:
#      x y z
#    x 3.878610 0.000000 -0.214550 
#    y 0.000000 3.681400 0.000000 
#    z -0.214550 0.000000 4.415370 
# 
# 
# High freq. dielectric constant tensor:
#      x y z
#    x 1.861920 0.000000 -0.010230 
#    y 0.000000 1.867280 0.000000 
#    z -0.010230 0.000000 1.884550 
# 
# From -- ./inp_files/8802.got.cif
#   From: 2010.03.12/outbox.cif.g09.slc.cpg/sg4_5_cif.got.tgz:8802.got - 2010.03.31 09:31:35.
