data_PCOD8046909
_publ_section_title
;
Structure prediction by ZEFSAII (Michael W. Deem and Ramdas Pophale) SiO2 
 PCOD8046909
Probable space group: P 21
;
_chemical_formula_sum "Si O2"
_cell_formula_units_Z 14
_cell_length_a 9.171767
_cell_length_b 8.379759
_cell_length_c 8.844457
_cell_angle_alpha 90.000000
_cell_angle_beta 70.226313
_cell_angle_gamma 90.000000
_cell_volume 639.678955
_symmetry_space_group_name_H-M "P 21"
_symmetry_group_IT_number 4
_symmetry_cell_setting 'monoclinic'
loop_
_space_group_symop_operation_xyz
x,y,z
-x,1/2+y,-z
loop_
_atom_site_type_symbol
_atom_site_label
_atom_site_fract_x
_atom_site_fract_y
_atom_site_fract_z
Si Si1 0.139340 0.305820 0.091212
Si Si2 0.580926 0.227787 0.310316
Si Si3 0.130549 0.638170 0.967300
Si Si4 0.685318 0.591702 0.776789
Si Si5 0.792790 0.250590 0.741034
Si Si6 0.642585 0.021917 0.580877
Si Si7 0.086653 0.309257 0.439205
O O1 0.296920 0.210062 0.082888
O O2 0.066007 0.377620 0.274134
O O3 0.032153 0.168968 0.056127
O O4 0.167169 0.447646 0.960521
O O5 0.744555 0.240670 0.169436
O O6 0.480785 0.112674 0.239775
O O7 0.606511 0.147808 0.463400
O O8 0.501912 0.401274 0.352928
O O9 0.118460 0.696635 0.142111
O O10 0.699111 0.408864 0.816454
O O11 0.821617 0.639917 0.608732
O O12 0.666887 0.120771 0.727972
O O13 0.919431 0.281832 0.567294
O O14 0.804534 0.926241 0.497033
#
# Coordination Sequence:
#
# PCOD8046909 Si02
#       7
#     2   2   2   2   2   2   2
#     4  10  23  44  62 100 136 178 232 286 345 419
#     4  11  25  45  67  98 138 179 235 286 348 426
#     4  12  25  41  68 100 137 180 226 297 356 405
#     4   9  22  41  65  96 132 180 231 274 342 415
#     4  12  21  39  71 101 136 184 226 289 349 399
#     4  11  23  45  67 100 137 188 239 280 349 418
#     4   9  21  41  68  93 138 175 237 282 329 426
#
# _framework density 21.885978000000001
#
# number of rings (size 3 to 8) (size 9 to 14) (size 15 to 20)
#    0.857    0.571    1.429    3.429    4.000    2.286 
#    2.571    2.857    0.000    0.000    0.000    0.000 
#    0.000    0.000    0.000    0.000    0.000    0.000 
#
# Total GULP energy -173505.960144 kJ/mol
# GULP energy per Si atom -12393.282867 kJ/mol
# Density = 2.183616 g / cm^3
# Si number density = 21.885978 Si / 1000 Ang^3
#
#
#
# Elastic Constant Matrix: (Units=GPa)
#
#
# Indices 1 2 3 4 5 6 
#
# 1 74.2462 23.7558 28.7885 0.0000 28.8600 0.0000
# 2 23.7558 106.4482 17.8160 0.0000 4.2163 0.0000
# 3 28.7885 17.8160 68.5257 0.0000 15.0522 0.0000
# 4 0.0000 0.0000 0.0000 29.3954 0.0000 17.2961
# 5 28.8600 4.2163 15.0522 0.0000 35.2138 0.0000
# 6 0.0000 0.0000 0.0000 17.2961 0.0000 42.4776
#
#
#
# Elastic Compliance Matrix: (Units=1/GPa)
#
#
# Indices 1 2 3 4 5 6 
#
# 1 0.022882 -0.003609 -0.005132 0.000000 -0.016128 0.000000
# 2 -0.003609 0.010391 -0.001724 0.000000 0.002450 0.000000
# 3 -0.005132 -0.001724 0.017910 0.000000 -0.003243 0.000000
# 4 0.000000 0.000000 0.000000 0.044737 0.000000 -0.018216
# 5 -0.016128 0.002450 -0.003243 0.000000 0.042708 0.000000
# 6 0.000000 0.000000 0.000000 -0.018216 0.000000 0.030959
#
#
# Mechanical properties :
#
#
# Convention : Reuss Voigt Hill
#
# Bulk Modulus (GPa) = 33.05418 43.32675 38.19047
# Shear Modulus (GPa) = 24.92500 33.34136 29.13318
#
# Velocity S-wave (km/s) = 3.37836 3.90733 3.65243
# Velocity P-wave (km/s) = 5.50939 6.34002 5.93924
#
# Compressibility (1/GPa) = 0.03025336
#
# Stress axis : x y z
#
# Youngs Moduli (GPa) = 43.70188 96.23673 55.83574
#
# Poissons Ratio (x) = 0.34730 0.28657
# Poissons Ratio (y) = 0.15771 0.09624
# Poissons Ratio (z) = 0.22429 0.16588
#
# Static dielectric constant tensor:
#      x y z
#    x 3.834910 0.000000 0.295560 
#    y 0.000000 4.019160 0.000000 
#    z 0.295560 0.000000 3.654430 
# 
# 
# High freq. dielectric constant tensor:
#      x y z
#    x 1.858980 0.000000 0.027980 
#    y 0.000000 1.868890 0.000000 
#    z 0.027980 0.000000 1.834890 
# 
# From -- ./inp_files/5553.got.cif
#   From: 2010.03.12/outbox.cif.g09.slc.cpg/sg4_3_cif.got.tgz:5553.got - 2010.03.31 09:31:35.
