data_PCOD8046104
_publ_section_title
;
Structure prediction by ZEFSAII (Michael W. Deem and Ramdas Pophale) SiO2 
 PCOD8046104
Probable space group: P 21
;
_chemical_formula_sum "Si O2"
_cell_formula_units_Z 16
_cell_length_a 6.753774
_cell_length_b 8.727074
_cell_length_c 13.982045
_cell_angle_alpha 90.000000
_cell_angle_beta 111.271905
_cell_angle_gamma 90.000000
_cell_volume 767.963983
_symmetry_space_group_name_H-M "P 21"
_symmetry_group_IT_number 4
_symmetry_cell_setting 'monoclinic'
loop_
_space_group_symop_operation_xyz
x,y,z
-x,1/2+y,-z
loop_
_atom_site_type_symbol
_atom_site_label
_atom_site_fract_x
_atom_site_fract_y
_atom_site_fract_z
Si Si1 0.808739 0.061770 0.364168
Si Si2 0.466946 0.524910 0.104466
Si Si3 0.315934 0.850261 0.022287
Si Si4 0.875891 0.364121 0.662648
Si Si5 0.650441 0.538953 0.780152
Si Si6 0.906576 0.547075 0.275674
Si Si7 0.882578 0.850393 0.842384
Si Si8 0.061190 0.874891 0.533776
O O1 0.574601 0.111095 0.291528
O O2 0.946789 0.208929 0.419722
O O3 0.925356 0.983158 0.293556
O O4 0.828315 0.935665 0.454978
O O5 0.345351 0.670197 0.041465
O O6 0.683817 0.586192 0.188214
O O7 0.322741 0.442128 0.157848
O O8 0.521300 0.403364 0.031224
O O9 0.367729 0.949124 0.124392
O O10 0.069652 0.873116 0.952201
O O11 0.700093 0.415457 0.706922
O O12 0.790444 0.369526 0.536748
O O13 0.947441 0.195326 0.703456
O O14 0.822639 0.672894 0.818638
O O15 0.853220 0.496695 0.374346
O O16 0.036213 0.412522 0.245225
#
# Coordination Sequence:
#
# PCOD8046104 Si02
#       8
#     2   2   2   2   2   2   2   2
#     4  10  22  41  63  91 124 168 208 254 310 368
#     4  11  24  43  65  95 120 171 206 256 316 376
#     4  11  25  42  66  92 130 161 209 262 313 373
#     4  10  22  41  62  93 127 167 204 260 308 362
#     4  12  24  42  65  97 125 167 211 254 316 377
#     4  11  22  42  65  91 129 163 212 254 311 370
#     4  11  25  41  64  96 127 163 209 262 312 371
#     4  10  20  44  62  91 130 164 205 262 308 359
#
# _framework density 20.834311
#
# number of rings (size 3 to 8) (size 9 to 14) (size 15 to 20)
#    0.750    0.500    1.250    4.500    0.000    8.000 
#    6.750    0.000    0.000    0.000    0.000    0.000 
#    0.000    0.000    0.000    0.000    0.000    0.000 
#
# Total GULP energy -198310.102530 kJ/mol
# GULP energy per Si atom -12394.381408 kJ/mol
# Density = 2.078689 g / cm^3
# Si number density = 20.834311 Si / 1000 Ang^3
#
#
#
# Elastic Constant Matrix: (Units=GPa)
#
#
# Indices 1 2 3 4 5 6 
#
# 1 65.7359 16.9684 28.5251 0.0000 -0.1831 0.0000
# 2 16.9684 96.0941 22.2919 0.0000 10.6886 0.0000
# 3 28.5251 22.2919 102.4218 0.0000 -2.1184 0.0000
# 4 0.0000 0.0000 0.0000 35.8117 0.0000 -4.1452
# 5 -0.1831 10.6886 -2.1184 0.0000 21.6549 0.0000
# 6 0.0000 0.0000 0.0000 -4.1452 0.0000 31.7115
#
#
#
# Elastic Compliance Matrix: (Units=1/GPa)
#
#
# Indices 1 2 3 4 5 6 
#
# 1 0.017705 -0.002185 -0.004439 0.000000 0.000794 0.000000
# 2 -0.002185 0.011967 -0.002123 0.000000 -0.006133 0.000000
# 3 -0.004439 -0.002123 0.011506 0.000000 0.002136 0.000000
# 4 0.000000 0.000000 0.000000 0.028353 0.000000 0.003706
# 5 0.000794 -0.006133 0.002136 0.000000 0.049422 0.000000
# 6 0.000000 0.000000 0.000000 0.003706 0.000000 0.032019
#
#
# Mechanical properties :
#
#
# Convention : Reuss Voigt Hill
#
# Bulk Modulus (GPa) = 42.22213 44.42472 43.32343
# Shear Modulus (GPa) = 28.35122 30.93339 29.64231
#
# Velocity S-wave (km/s) = 3.69290 3.85740 3.77605
# Velocity P-wave (km/s) = 6.20427 6.41939 6.31275
#
# Compressibility (1/GPa) = 0.02368426
#
# Stress axis : x y z
#
# Youngs Moduli (GPa) = 56.48193 83.56376 86.91092
#
# Poissons Ratio (x) = 0.18258 0.38579
# Poissons Ratio (y) = 0.12341 0.18450
# Poissons Ratio (z) = 0.25072 0.17740
#
# Static dielectric constant tensor:
#      x y z
#    x 3.508830 0.000000 -0.084820 
#    y 0.000000 3.828790 0.000000 
#    z -0.084820 0.000000 3.867840 
# 
# 
# High freq. dielectric constant tensor:
#      x y z
#    x 1.792340 0.000000 -0.005560 
#    y 0.000000 1.831230 0.000000 
#    z -0.005560 0.000000 1.825110 
# 
# From -- ./inp_files/10302.got.cif
#   From: 2010.03.12/outbox.cif.g09.slc.cpg/sg4_6_cif.got.tgz:10302.got - 2010.03.31 09:31:35.
