data_PCOD8046679
_publ_section_title
;
Structure prediction by ZEFSAII (Michael W. Deem and Ramdas Pophale) SiO2 
 PCOD8046679
Probable space group: P 21
;
_chemical_formula_sum "Si O2"
_cell_formula_units_Z 14
_cell_length_a 8.837430
_cell_length_b 9.648921
_cell_length_c 11.414175
_cell_angle_alpha 90.000000
_cell_angle_beta 138.849734
_cell_angle_gamma 90.000000
_cell_volume 640.470283
_symmetry_space_group_name_H-M "P 21"
_symmetry_group_IT_number 4
_symmetry_cell_setting 'monoclinic'
loop_
_space_group_symop_operation_xyz
x,y,z
-x,1/2+y,-z
loop_
_atom_site_type_symbol
_atom_site_label
_atom_site_fract_x
_atom_site_fract_y
_atom_site_fract_z
Si Si1 0.408106 0.943870 0.082120
Si Si2 0.813062 0.295078 0.428841
Si Si3 0.372591 0.450924 0.139241
Si Si4 0.896274 0.027559 0.792222
Si Si5 0.817212 0.977436 0.480645
Si Si6 0.454749 0.166834 0.926937
Si Si7 0.974161 0.800407 0.219709
O O1 0.397979 0.808219 0.992121
O O2 0.574372 0.918386 0.290046
O O3 0.525889 0.067948 0.076200
O O4 0.150455 0.973370 0.973598
O O5 0.545850 0.320638 0.239973
O O6 0.858040 0.131110 0.453792
O O7 0.977638 0.374899 0.435054
O O8 0.849595 0.361487 0.581456
O O9 0.281481 0.475181 0.215829
O O10 0.508128 0.586247 0.173767
O O11 0.160306 0.419182 0.928059
O O12 0.805835 0.974482 0.614465
O O13 0.902222 0.195748 0.798739
O O14 0.188336 0.204979 0.790415
#
# Coordination Sequence:
#
# PCOD8046679 Si02
#       7
#     2   2   2   2   2   2   2
#     4  11  23  43  69  97 130 168 220 272 315 383
#     4  11  22  41  69  95 127 165 222 270 314 383
#     4  12  24  41  66  96 131 173 208 268 332 388
#     4  10  26  42  62  95 136 170 209 265 329 397
#     4  11  24  43  68  98 127 171 216 271 323 376
#     4  11  21  42  70  96 123 167 224 266 317 374
#     4  10  22  44  64  95 126 168 221 270 312 377
#
# _framework density 21.858937000000001
#
# number of rings (size 3 to 8) (size 9 to 14) (size 15 to 20)
#    0.000    1.143    2.857    4.286    4.000    1.143 
#    2.571    0.000    0.000    0.000    0.000    0.000 
#    0.000    0.000    0.000    0.000    0.000    0.000 
#
# Total GULP energy -173573.370041 kJ/mol
# GULP energy per Si atom -12398.097860 kJ/mol
# Density = 2.180918 g / cm^3
# Si number density = 21.858937 Si / 1000 Ang^3
#
#
#
# Elastic Constant Matrix: (Units=GPa)
#
#
# Indices 1 2 3 4 5 6 
#
# 1 114.6028 31.9721 22.4483 0.0000 -10.7388 0.0000
# 2 31.9721 81.9258 4.9290 0.0000 -10.1943 0.0000
# 3 22.4483 4.9290 90.7156 0.0000 -5.1900 0.0000
# 4 0.0000 0.0000 0.0000 25.9571 0.0000 -2.4199
# 5 -10.7388 -10.1943 -5.1900 0.0000 22.0395 0.0000
# 6 0.0000 0.0000 0.0000 -2.4199 0.0000 21.3070
#
#
#
# Elastic Compliance Matrix: (Units=1/GPa)
#
#
# Indices 1 2 3 4 5 6 
#
# 1 0.010431 -0.003575 -0.002221 0.000000 0.002906 0.000000
# 2 -0.003575 0.014189 0.000395 0.000000 0.004914 0.000000
# 3 -0.002221 0.000395 0.011657 0.000000 0.001846 0.000000
# 4 0.000000 0.000000 0.000000 0.038937 0.000000 0.004422
# 5 0.002906 0.004914 0.001846 0.000000 0.049496 0.000000
# 6 0.000000 0.000000 0.000000 0.004422 0.000000 0.047435
#
#
# Mechanical properties :
#
#
# Convention : Reuss Voigt Hill
#
# Bulk Modulus (GPa) = 39.25471 45.10477 42.17974
# Shear Modulus (GPa) = 26.11792 29.05372 27.58582
#
# Velocity S-wave (km/s) = 3.46040 3.64970 3.55631
# Velocity P-wave (km/s) = 5.82778 6.19998 6.01675
#
# Compressibility (1/GPa) = 0.02547465
#
# Stress axis : x y z
#
# Youngs Moduli (GPa) = 95.87265 70.47603 85.78453
#
# Poissons Ratio (x) = 0.25198 0.19049
# Poissons Ratio (y) = 0.34279 -0.03388
# Poissons Ratio (z) = 0.21290 -0.02783
#
# Static dielectric constant tensor:
#      x y z
#    x 3.696080 0.000000 -0.080500 
#    y 0.000000 3.985410 0.000000 
#    z -0.080500 0.000000 4.045520 
# 
# 
# High freq. dielectric constant tensor:
#      x y z
#    x 1.836360 0.000000 -0.007690 
#    y 0.000000 1.857520 0.000000 
#    z -0.007690 0.000000 1.869890 
# 
# From -- ./inp_files/10827.got.cif
#   From: 2010.03.12/outbox.cif.g09.slc.cpg/sg4_6_cif.got.tgz:10827.got - 2010.03.31 09:31:35.
