data_PCOD8046068
_publ_section_title
;
Structure prediction by ZEFSAII (Michael W. Deem and Ramdas Pophale) SiO2 
 PCOD8046068
Probable space group: P 21
;
_chemical_formula_sum "Si O2"
_cell_formula_units_Z 16
_cell_length_a 7.451170
_cell_length_b 13.474212
_cell_length_c 8.124200
_cell_angle_alpha 90.000000
_cell_angle_beta 59.700107
_cell_angle_gamma 90.000000
_cell_volume 704.236831
_symmetry_space_group_name_H-M "P 21"
_symmetry_group_IT_number 4
_symmetry_cell_setting 'monoclinic'
loop_
_space_group_symop_operation_xyz
x,y,z
-x,1/2+y,-z
loop_
_atom_site_type_symbol
_atom_site_label
_atom_site_fract_x
_atom_site_fract_y
_atom_site_fract_z
Si Si1 0.283104 0.891730 0.983330
Si Si2 0.873124 0.854642 0.972129
Si Si3 0.428209 0.588811 0.599492
Si Si4 0.788481 0.198706 0.790548
Si Si5 0.452799 0.527908 0.948230
Si Si6 0.774386 0.713895 0.293521
Si Si7 0.452016 0.380041 0.454009
Si Si8 0.178535 0.760989 0.593545
O O1 0.470247 0.889491 0.766754
O O2 0.330374 0.985826 0.079054
O O3 0.310524 0.794795 0.080973
O O4 0.057804 0.898905 0.002652
O O5 0.752620 0.766615 0.124867
O O6 0.967160 0.808679 0.761009
O O7 0.715812 0.941236 0.999662
O O8 0.610354 0.625136 0.391422
O O9 0.356255 0.482050 0.567002
O O10 0.240892 0.668209 0.682647
O O11 0.504843 0.581643 0.752128
O O12 0.633189 0.106637 0.879577
O O13 0.848751 0.219595 0.575400
O O14 0.998383 0.168452 0.789122
O O15 0.731455 0.798649 0.452182
O O16 0.639882 0.343821 0.486232
#
# Coordination Sequence:
#
# PCOD8046068 Si02
#       8
#     2   2   2   2   2   2   2   2
#     4  10  24  44  67  97 138 171 223 278 332 396
#     4  10  23  46  68  94 133 183 218 277 338 392
#     4  11  22  41  68  97 129 176 227 266 343 401
#     4  11  24  43  64 103 131 174 229 277 333 402
#     4  12  24  45  71  99 135 179 226 275 336 404
#     4  10  22  41  65  95 135 166 220 288 323 395
#     4  10  20  41  67  95 129 178 215 274 338 397
#     4  10  23  43  64  92 138 171 222 277 331 397
#
# _framework density 22.719629999999999
#
# number of rings (size 3 to 8) (size 9 to 14) (size 15 to 20)
#    0.000    1.500    1.250    4.500    7.000    0.000 
#    2.250    0.000    0.000    0.000    0.000    0.000 
#    0.000    0.000    0.000    0.000    0.000    0.000 
#
# Total GULP energy -198419.245213 kJ/mol
# GULP energy per Si atom -12401.202826 kJ/mol
# Density = 2.266792 g / cm^3
# Si number density = 22.719630 Si / 1000 Ang^3
#
#
#
# Elastic Constant Matrix: (Units=GPa)
#
#
# Indices 1 2 3 4 5 6 
#
# 1 40.0655 19.1591 14.2386 0.0000 9.9880 0.0000
# 2 19.1591 91.2853 16.4290 0.0000 0.5082 0.0000
# 3 14.2386 16.4290 108.7036 0.0000 14.5957 0.0000
# 4 0.0000 0.0000 0.0000 40.3986 0.0000 2.4699
# 5 9.9880 0.5082 14.5957 0.0000 35.9994 0.0000
# 6 0.0000 0.0000 0.0000 2.4699 0.0000 37.9641
#
#
#
# Elastic Compliance Matrix: (Units=1/GPa)
#
#
# Indices 1 2 3 4 5 6 
#
# 1 0.030425 -0.005971 -0.002074 0.000000 -0.007516 0.000000
# 2 -0.005971 0.012443 -0.001372 0.000000 0.002037 0.000000
# 3 -0.002074 -0.001372 0.010151 0.000000 -0.003521 0.000000
# 4 0.000000 0.000000 0.000000 0.024852 0.000000 -0.001617
# 5 -0.007516 0.002037 -0.003521 0.000000 0.031262 0.000000
# 6 0.000000 0.000000 0.000000 -0.001617 0.000000 0.026446
#
#
# Mechanical properties :
#
#
# Convention : Reuss Voigt Hill
#
# Bulk Modulus (GPa) = 29.25111 37.74531 33.49821
# Shear Modulus (GPa) = 30.15534 35.55427 32.85480
#
# Velocity S-wave (km/s) = 3.64714 3.96019 3.80688
# Velocity P-wave (km/s) = 5.53518 6.12865 5.83946
#
# Compressibility (1/GPa) = 0.03418674
#
# Stress axis : x y z
#
# Youngs Moduli (GPa) = 32.86779 80.36393 98.51166
#
# Poissons Ratio (x) = 0.47982 0.20428
# Poissons Ratio (y) = 0.19624 0.13517
# Poissons Ratio (z) = 0.06816 0.11027
#
# Static dielectric constant tensor:
#      x y z
#    x 3.850370 0.000000 0.026990 
#    y 0.000000 4.151730 0.000000 
#    z 0.026990 0.000000 4.237910 
# 
# 
# High freq. dielectric constant tensor:
#      x y z
#    x 1.873410 0.000000 0.003360 
#    y 0.000000 1.900540 0.000000 
#    z 0.003360 0.000000 1.908220 
# 
# From -- ./inp_files/6402.got.cif
#   From: 2010.03.12/outbox.cif.g09.slc.cpg/sg4_4_cif.got.tgz:6402.got - 2010.03.31 09:31:35.
