data_PCOD8046814
_publ_section_title
;
Structure prediction by ZEFSAII (Michael W. Deem and Ramdas Pophale) SiO2 
 PCOD8046814
Probable space group: P 21
;
_chemical_formula_sum "Si O2"
_cell_formula_units_Z 16
_cell_length_a 11.428525
_cell_length_b 10.147515
_cell_length_c 8.428367
_cell_angle_alpha 90.000000
_cell_angle_beta 42.468574
_cell_angle_gamma 90.000000
_cell_volume 659.958414
_symmetry_space_group_name_H-M "P 21"
_symmetry_group_IT_number 4
_symmetry_cell_setting 'monoclinic'
loop_
_space_group_symop_operation_xyz
x,y,z
-x,1/2+y,-z
loop_
_atom_site_type_symbol
_atom_site_label
_atom_site_fract_x
_atom_site_fract_y
_atom_site_fract_z
Si Si1 0.622651 0.258300 0.898152
Si Si2 0.992765 0.283537 0.369761
Si Si3 0.504999 0.997161 0.155265
Si Si4 0.377563 0.575016 0.643288
Si Si5 0.129495 0.031082 0.678520
Si Si6 0.870212 0.802333 0.437825
Si Si7 0.992500 0.049831 0.144954
Si Si8 0.494776 0.836233 0.665532
O O1 0.494887 0.353292 0.924057
O O2 0.807923 0.247452 0.630754
O O3 0.644839 0.323192 0.051852
O O4 0.542015 0.110988 0.987031
O O5 0.132979 0.306761 0.367798
O O6 0.987449 0.413939 0.270258
O O7 0.057674 0.166934 0.191857
O O8 0.644541 0.010099 0.158725
O O9 0.322083 0.025665 0.420044
O O10 0.192282 0.585718 0.746552
O O11 0.458048 0.722374 0.571033
O O12 0.505421 0.480095 0.413506
O O13 0.040869 0.166901 0.709605
O O14 0.132553 0.025790 0.866628
O O15 0.677642 0.807875 0.564599
O O16 0.986988 0.919981 0.256280
#
# Coordination Sequence:
#
# PCOD8046814 Si02
#       8
#     2   2   2   2   2   2   2   2
#     4  10  23  41  66  96 132 170 218 267 329 393
#     4  11  26  43  69  99 131 178 220 276 328 392
#     4  10  23  42  64  98 132 173 216 272 324 395
#     4  10  23  41  66  96 132 170 218 267 329 393
#     4  11  23  45  66  98 135 173 226 269 328 392
#     4  11  23  45  66  98 135 173 226 269 328 392
#     4  11  26  43  69  99 131 178 220 276 328 392
#     4  10  23  42  64  98 132 173 216 272 324 395
#
# _framework density 24.243950000000002
#
# number of rings (size 3 to 8) (size 9 to 14) (size 15 to 20)
#    0.000    1.500    2.500    1.500   10.500    2.000 
#    0.000    1.250    0.000    0.000    0.000    0.000 
#    0.000    0.000    0.000    0.000    0.000    0.000 
#
# Total GULP energy -198417.026164 kJ/mol
# GULP energy per Si atom -12401.064135 kJ/mol
# Density = 2.418877 g / cm^3
# Si number density = 24.243950 Si / 1000 Ang^3
#
#
#
# Elastic Constant Matrix: (Units=GPa)
#
#
# Indices 1 2 3 4 5 6 
#
# 1 84.3414 45.4967 28.3561 0.0000 25.3229 0.0000
# 2 45.4967 127.3506 37.3398 0.0000 17.5872 0.0000
# 3 28.3561 37.3398 69.2004 0.0000 19.9356 0.0000
# 4 0.0000 0.0000 0.0000 26.9757 0.0000 30.8720
# 5 25.3229 17.5872 19.9356 0.0000 38.0030 0.0000
# 6 0.0000 0.0000 0.0000 30.8720 0.0000 36.3833
#
#
#
# Elastic Compliance Matrix: (Units=1/GPa)
#
#
# Indices 1 2 3 4 5 6 
#
# 1 0.017566 -0.004412 -0.002395 0.000000 -0.008406 0.000000
# 2 -0.004412 0.010564 -0.003924 0.000000 0.000110 0.000000
# 3 -0.002395 -0.003924 0.019516 0.000000 -0.006826 0.000000
# 4 0.000000 0.000000 0.000000 1.281887 0.000000 -1.087710
# 5 -0.008406 0.000110 -0.006826 0.000000 0.035445 0.000000
# 6 0.000000 0.000000 0.000000 -1.087710 0.000000 0.950431
#
#
# Mechanical properties :
#
#
# Convention : Reuss Voigt Hill
#
# Bulk Modulus (GPa) = 38.19271 55.91971 47.05621
# Shear Modulus (GPa) = 2.13165 31.58574 16.85869
#
# Velocity S-wave (km/s) = 0.93870 3.61339 2.63986
# Velocity P-wave (km/s) = 4.11857 6.36587 5.36129
#
# Compressibility (1/GPa) = 0.02618301
#
# Stress axis : x y z
#
# Youngs Moduli (GPa) = 56.92813 94.66123 51.24020
#
# Poissons Ratio (x) = 0.41767 0.12274
# Poissons Ratio (y) = 0.25118 0.20105
# Poissons Ratio (z) = 0.13637 0.37143
#
# Static dielectric constant tensor:
#      x y z
#    x 4.450030 0.000000 0.406940 
#    y 0.000000 4.703810 0.000000 
#    z 0.406940 0.000000 4.327080 
# 
# 
# High freq. dielectric constant tensor:
#      x y z
#    x 1.959710 0.000000 0.012040 
#    y 0.000000 1.975360 0.000000 
#    z 0.012040 0.000000 1.955990 
# 
# From -- ./inp_files/7952.got.cif
#   From: 2010.03.12/outbox.cif.g09.slc.cpg/sg4_4_cif.got.tgz:7952.got - 2010.03.31 09:31:35.
