data_PCOD8046849
_publ_section_title
;
Structure prediction by ZEFSAII (Michael W. Deem and Ramdas Pophale) SiO2 
 PCOD8046849
Probable space group: P 21
;
_chemical_formula_sum "Si O2"
_cell_formula_units_Z 16
_cell_length_a 6.930574
_cell_length_b 8.063531
_cell_length_c 16.840321
_cell_angle_alpha 90.000000
_cell_angle_beta 133.643809
_cell_angle_gamma 90.000000
_cell_volume 681.035909
_symmetry_space_group_name_H-M "P 21"
_symmetry_group_IT_number 4
_symmetry_cell_setting 'monoclinic'
loop_
_space_group_symop_operation_xyz
x,y,z
-x,1/2+y,-z
loop_
_atom_site_type_symbol
_atom_site_label
_atom_site_fract_x
_atom_site_fract_y
_atom_site_fract_z
Si Si1 0.547229 0.558750 0.727516
Si Si2 0.375964 0.098657 0.844815
Si Si3 0.788637 0.762342 0.358381
Si Si4 0.691415 0.744435 0.621554
Si Si5 0.938124 0.020308 0.030614
Si Si6 0.291793 0.733588 0.794450
Si Si7 0.228282 0.151263 0.973922
Si Si8 0.725875 0.516848 0.481983
O O1 0.479291 0.365099 0.698418
O O2 0.520830 0.630146 0.631890
O O3 0.836475 0.594229 0.847107
O O4 0.316977 0.641965 0.716670
O O5 0.235635 0.216283 0.741244
O O6 0.196909 0.105332 0.873035
O O7 0.404404 0.917559 0.814651
O O8 0.680904 0.143646 0.956439
O O9 0.785672 0.598892 0.413021
O O10 0.051307 0.875817 0.440603
O O11 0.709345 0.668535 0.538842
O O12 0.991506 0.749272 0.739482
O O13 0.560989 0.926959 0.589177
O O14 0.872240 0.836582 0.039860
O O15 0.054128 0.019700 0.973915
O O16 0.463017 0.635643 0.909694
#
# Coordination Sequence:
#
# PCOD8046849 Si02
#       8
#     2   2   2   2   2   2   2   2
#     4  11  23  45  74 103 149 188 241 300 381 439
#     4  11  25  42  72 105 145 192 243 295 373 447
#     4  12  27  49  75 106 150 195 247 325 375 438
#     4  12  26  47  73 104 133 195 249 305 371 449
#     4  10  23  42  69 106 147 183 236 289 366 445
#     4  10  24  44  69 103 147 186 239 301 371 437
#     4  10  23  42  68 105 146 190 233 294 360 451
#     4  12  29  47  78 104 149 191 264 315 381 434
#
# _framework density 23.49362
#
# number of rings (size 3 to 8) (size 9 to 14) (size 15 to 20)
#    0.000    1.000    1.250    3.750    5.250   11.000 
#    0.000    0.000    0.000    0.000    0.000    0.000 
#    0.000    0.000    0.000    0.000    0.000    0.000 
#
# Total GULP energy -198378.548788 kJ/mol
# GULP energy per Si atom -12398.659299 kJ/mol
# Density = 2.344015 g / cm^3
# Si number density = 23.493620 Si / 1000 Ang^3
#
#
#
# Elastic Constant Matrix: (Units=GPa)
#
#
# Indices 1 2 3 4 5 6 
#
# 1 106.6351 33.8353 52.7068 0.0000 -2.9129 0.0000
# 2 33.8353 73.3650 26.2655 0.0000 1.1072 0.0000
# 3 52.7068 26.2655 80.0285 0.0000 -9.4264 0.0000
# 4 0.0000 0.0000 0.0000 38.0241 0.0000 -0.0050
# 5 -2.9129 1.1072 -9.4264 0.0000 36.3918 0.0000
# 6 0.0000 0.0000 0.0000 -0.0050 0.0000 45.4611
#
#
#
# Elastic Compliance Matrix: (Units=1/GPa)
#
#
# Indices 1 2 3 4 5 6 
#
# 1 0.014802 -0.003720 -0.008639 0.000000 -0.000940 0.000000
# 2 -0.003720 0.016500 -0.003156 0.000000 -0.001617 0.000000
# 3 -0.008639 -0.003156 0.019753 0.000000 0.004521 0.000000
# 4 0.000000 0.000000 0.000000 0.026299 0.000000 0.000003
# 5 -0.000940 -0.001617 0.004521 0.000000 0.028624 0.000000
# 6 0.000000 0.000000 0.000000 0.000003 0.000000 0.021997
#
#
# Mechanical properties :
#
#
# Convention : Reuss Voigt Hill
#
# Bulk Modulus (GPa) = 49.93272 53.96043 51.94658
# Shear Modulus (GPa) = 30.17863 33.79013 31.98438
#
# Velocity S-wave (km/s) = 3.58794 3.79657 3.69373
# Velocity P-wave (km/s) = 6.20196 6.49896 6.35220
#
# Compressibility (1/GPa) = 0.02002695
#
# Stress axis : x y z
#
# Youngs Moduli (GPa) = 67.55745 60.60484 50.62443
#
# Poissons Ratio (x) = 0.22544 0.43732
# Poissons Ratio (y) = 0.25130 0.15978
# Poissons Ratio (z) = 0.58360 0.19127
#
# Static dielectric constant tensor:
#      x y z
#    x 4.239140 0.000000 0.204070 
#    y 0.000000 4.078870 0.000000 
#    z 0.204070 0.000000 4.356460 
# 
# 
# High freq. dielectric constant tensor:
#      x y z
#    x 1.935330 0.000000 0.003770 
#    y 0.000000 1.923440 0.000000 
#    z 0.003770 0.000000 1.935560 
# 
# From -- ./inp_files/13294.got.cif
#   From: 2010.03.12/outbox.cif.g09.slc.cpg/sg4_7_cif.got.tgz:13294.got - 2010.03.31 09:31:35.
