data_PCOD8046223
_publ_section_title
;
Structure prediction by ZEFSAII (Michael W. Deem and Ramdas Pophale) SiO2 
 PCOD8046223
Probable space group: P 21
;
_chemical_formula_sum "Si O2"
_cell_formula_units_Z 14
_cell_length_a 8.641867
_cell_length_b 5.104710
_cell_length_c 15.316634
_cell_angle_alpha 90.000000
_cell_angle_beta 103.273912
_cell_angle_gamma 90.000000
_cell_volume 657.629606
_symmetry_space_group_name_H-M "P 21"
_symmetry_group_IT_number 4
_symmetry_cell_setting 'monoclinic'
loop_
_space_group_symop_operation_xyz
x,y,z
-x,1/2+y,-z
loop_
_atom_site_type_symbol
_atom_site_label
_atom_site_fract_x
_atom_site_fract_y
_atom_site_fract_z
Si Si1 0.914280 0.754650 0.953366
Si Si2 0.772050 0.840325 0.219820
Si Si3 0.605399 0.809799 0.018735
Si Si4 0.205262 0.834608 0.686384
Si Si5 0.933894 0.661734 0.755961
Si Si6 0.690865 0.155759 0.479582
Si Si7 0.325951 0.149949 0.411824
O O1 0.923039 0.781410 0.850621
O O2 0.732109 0.799256 0.957128
O O3 0.969196 0.467044 0.989339
O O4 0.695184 0.747261 0.120182
O O5 0.726334 0.625307 0.288482
O O6 0.697377 0.114464 0.245094
O O7 0.963367 0.888466 0.230086
O O8 0.467716 0.598882 0.986561
O O9 0.194595 0.736604 0.585405
O O10 0.027392 0.857782 0.702892
O O11 0.757309 0.649187 0.693428
O O12 0.512749 0.177867 0.418695
O O13 0.719347 0.368248 0.557270
O O14 0.729919 0.873196 0.526217
#
# Coordination Sequence:
#
# PCOD8046223 Si02
#       7
#     2   2   2   2   2   2   2
#     4  12  24  45  70  96 136 180 220 280 340 390
#     4  10  22  41  60  94 127 163 216 274 316 387
#     4  12  25  43  66  99 135 176 224 277 339 401
#     4  10  21  39  66  87 127 165 209 268 325 378
#     4  10  25  39  68  93 126 168 226 267 319 401
#     4  10  22  42  61  91 130 168 202 272 329 391
#     4  10  23  39  63  92 127 164 217 260 330 390
#
# _framework density 21.28858
#
# number of rings (size 3 to 8) (size 9 to 14) (size 15 to 20)
#    0.857    0.571    1.429    3.429    2.000    3.429 
#    0.000    0.000    0.000    0.000    0.000    0.000 
#    0.000    0.000    0.000    0.000    0.000    0.000 
#
# Total GULP energy -173503.633653 kJ/mol
# GULP energy per Si atom -12393.116690 kJ/mol
# Density = 2.124013 g / cm^3
# Si number density = 21.288580 Si / 1000 Ang^3
#
#
#
# Elastic Constant Matrix: (Units=GPa)
#
#
# Indices 1 2 3 4 5 6 
#
# 1 78.6886 13.9842 36.8318 0.0000 -10.2239 0.0000
# 2 13.9842 90.8803 -2.2385 0.0000 11.0781 0.0000
# 3 36.8318 -2.2385 106.1575 0.0000 11.4347 0.0000
# 4 0.0000 0.0000 0.0000 22.3888 0.0000 -0.7091
# 5 -10.2239 11.0781 11.4347 0.0000 35.4469 0.0000
# 6 0.0000 0.0000 0.0000 -0.7091 0.0000 23.4933
#
#
#
# Elastic Compliance Matrix: (Units=1/GPa)
#
#
# Indices 1 2 3 4 5 6 
#
# 1 0.017961 -0.004012 -0.007262 0.000000 0.008777 0.000000
# 2 -0.004012 0.012379 0.002274 0.000000 -0.005759 0.000000
# 3 -0.007262 0.002274 0.012732 0.000000 -0.006912 0.000000
# 4 0.000000 0.000000 0.000000 0.044708 0.000000 0.001349
# 5 0.008777 -0.005759 -0.006912 0.000000 0.034772 0.000000
# 6 0.000000 0.000000 0.000000 0.001349 0.000000 0.042606
#
#
# Mechanical properties :
#
#
# Convention : Reuss Voigt Hill
#
# Bulk Modulus (GPa) = 39.88730 41.43127 40.65928
# Shear Modulus (GPa) = 26.10755 31.40909 28.75832
#
# Velocity S-wave (km/s) = 3.50575 3.84526 3.67942
# Velocity P-wave (km/s) = 5.92994 6.26248 6.09848
#
# Compressibility (1/GPa) = 0.02507064
#
# Stress axis : x y z
#
# Youngs Moduli (GPa) = 55.67726 80.78221 78.54309
#
# Poissons Ratio (x) = 0.32413 0.57034
# Poissons Ratio (y) = 0.22340 -0.17857
# Poissons Ratio (z) = 0.40430 -0.18366
#
# Static dielectric constant tensor:
#      x y z
#    x 3.714800 0.000000 -0.085060 
#    y 0.000000 3.879510 0.000000 
#    z -0.085060 0.000000 3.648400 
# 
# 
# High freq. dielectric constant tensor:
#      x y z
#    x 1.814280 0.000000 -0.007190 
#    y 0.000000 1.844870 0.000000 
#    z -0.007190 0.000000 1.835060 
# 
# From -- ./inp_files/13480.got.cif
#   From: 2010.03.12/outbox.cif.g09.slc.cpg/sg4_7_cif.got.tgz:13480.got - 2010.03.31 09:31:35.
