data_PCOD8046222
_publ_section_title
;
Structure prediction by ZEFSAII (Michael W. Deem and Ramdas Pophale) SiO2 
 PCOD8046222
Probable space group: P 21
;
_chemical_formula_sum "Si O2"
_cell_formula_units_Z 16
_cell_length_a 13.279580
_cell_length_b 9.831111
_cell_length_c 9.772991
_cell_angle_alpha 90.000000
_cell_angle_beta 147.412829
_cell_angle_gamma 90.000000
_cell_volume 687.173472
_symmetry_space_group_name_H-M "P 21"
_symmetry_group_IT_number 4
_symmetry_cell_setting 'monoclinic'
loop_
_space_group_symop_operation_xyz
x,y,z
-x,1/2+y,-z
loop_
_atom_site_type_symbol
_atom_site_label
_atom_site_fract_x
_atom_site_fract_y
_atom_site_fract_z
Si Si1 0.718377 0.990930 0.750806
Si Si2 0.673827 0.515398 0.802112
Si Si3 0.890231 0.257827 0.016217
Si Si4 0.314647 0.102492 0.880547
Si Si5 0.901161 0.148183 0.475892
Si Si6 0.436992 0.816357 0.981179
Si Si7 0.942860 0.744266 0.075696
Si Si8 0.228850 0.408363 0.488343
O O1 0.784122 0.993215 0.667084
O O2 0.497375 0.020824 0.499878
O O3 0.768532 0.849333 0.880925
O O4 0.822542 0.104497 0.960131
O O5 0.733747 0.359774 0.893461
O O6 0.626031 0.579563 0.894336
O O7 0.851090 0.596066 0.942549
O O8 0.082549 0.283469 0.318346
O O9 0.916601 0.284509 0.884040
O O10 0.091024 0.122792 0.608350
O O11 0.373729 0.968419 0.859776
O O12 0.427097 0.238436 0.969033
O O13 0.747955 0.223901 0.204286
O O14 0.945058 0.247500 0.653835
O O15 0.816110 0.006408 0.434752
O O16 0.565094 0.840646 0.263115
#
# Coordination Sequence:
#
# PCOD8046222 Si02
#       8
#     2   2   2   2   2   2   2   2
#     4  11  21  38  66 103 135 174 231 280 349 423
#     4  11  21  43  67  98 137 183 227 285 356 420
#     4  11  21  38  72  98 137 184 219 284 361 420
#     4  11  26  44  75 102 138 192 242 302 357 422
#     4  11  23  46  71  98 142 190 238 289 366 416
#     4  12  25  46  75 104 140 194 243 305 361 419
#     4  10  21  39  65  99 134 181 220 284 351 421
#     4  11  22  44  69 100 143 184 232 295 353 417
#
# _framework density 23.283785999999999
#
# number of rings (size 3 to 8) (size 9 to 14) (size 15 to 20)
#    0.000    1.000    6.250    1.500    1.750    1.000 
#    0.000    2.500    0.000    0.000    0.000    0.000 
#    0.000    0.000    0.000    0.000    0.000    0.000 
#
# Total GULP energy -198349.854139 kJ/mol
# GULP energy per Si atom -12396.865884 kJ/mol
# Density = 2.323079 g / cm^3
# Si number density = 23.283786 Si / 1000 Ang^3
#
#
#
# Elastic Constant Matrix: (Units=GPa)
#
#
# Indices 1 2 3 4 5 6 
#
# 1 51.0860 29.6082 12.2041 0.0000 16.9325 0.0000
# 2 29.6082 112.6861 51.7098 0.0000 1.0039 0.0000
# 3 12.2041 51.7098 158.9274 0.0000 19.9001 0.0000
# 4 0.0000 0.0000 0.0000 53.3260 0.0000 6.8072
# 5 16.9325 1.0039 19.9001 0.0000 28.3345 0.0000
# 6 0.0000 0.0000 0.0000 6.8072 0.0000 38.2269
#
#
#
# Elastic Compliance Matrix: (Units=1/GPa)
#
#
# Indices 1 2 3 4 5 6 
#
# 1 0.031106 -0.009492 0.003273 0.000000 -0.020551 0.000000
# 2 -0.009492 0.013456 -0.004714 0.000000 0.008507 0.000000
# 3 0.003273 -0.004714 0.008551 0.000000 -0.007794 0.000000
# 4 0.000000 0.000000 0.000000 0.019189 0.000000 -0.003417
# 5 -0.020551 0.008507 -0.007794 0.000000 0.052747 0.000000
# 6 0.000000 0.000000 0.000000 -0.003417 0.000000 0.026768
#
#
# Mechanical properties :
#
#
# Convention : Reuss Voigt Hill
#
# Bulk Modulus (GPa) = 32.00415 56.63821 44.32118
# Shear Modulus (GPa) = 27.15950 39.25596 33.20773
#
# Velocity S-wave (km/s) = 3.41905 4.11052 3.78063
# Velocity P-wave (km/s) = 5.41863 6.84883 6.17528
#
# Compressibility (1/GPa) = 0.03124595
#
# Stress axis : x y z
#
# Youngs Moduli (GPa) = 32.14819 74.31766 116.94956
#
# Poissons Ratio (x) = 0.70542 -0.38278
# Poissons Ratio (y) = 0.30515 0.55134
# Poissons Ratio (z) = -0.10522 0.35036
#
# Static dielectric constant tensor:
#      x y z
#    x 3.837090 0.000000 0.238020 
#    y 0.000000 4.342290 0.000000 
#    z 0.238020 0.000000 4.411360 
# 
# 
# High freq. dielectric constant tensor:
#      x y z
#    x 1.888730 0.000000 0.024060 
#    y 0.000000 1.923620 0.000000 
#    z 0.024060 0.000000 1.931490 
# 
# From -- ./inp_files/12551.got.cif
#   From: 2010.03.12/outbox.cif.g09.slc.cpg/sg4_7_cif.got.tgz:12551.got - 2010.03.31 09:31:35.
