data_PCOD8046016
_publ_section_title
;
Structure prediction by ZEFSAII (Michael W. Deem and Ramdas Pophale) SiO2 
 PCOD8046016
Probable space group: P 21
;
_chemical_formula_sum "Si O2"
_cell_formula_units_Z 14
_cell_length_a 9.463278
_cell_length_b 7.593651
_cell_length_c 10.963281
_cell_angle_alpha 90.000000
_cell_angle_beta 134.244759
_cell_angle_gamma 90.000000
_cell_volume 564.374786
_symmetry_space_group_name_H-M "P 21"
_symmetry_group_IT_number 4
_symmetry_cell_setting 'monoclinic'
loop_
_space_group_symop_operation_xyz
x,y,z
-x,1/2+y,-z
loop_
_atom_site_type_symbol
_atom_site_label
_atom_site_fract_x
_atom_site_fract_y
_atom_site_fract_z
Si Si1 0.876366 0.640750 0.566468
Si Si2 0.036184 0.667542 0.008169
Si Si3 0.608398 0.525031 0.190921
Si Si4 0.245257 0.761498 0.902052
Si Si5 0.636323 0.956514 0.514547
Si Si6 0.315323 0.359466 0.186111
Si Si7 0.735738 0.319539 0.643824
O O1 0.790009 0.603668 0.380222
O O2 0.808236 0.490437 0.617348
O O3 0.115344 0.650455 0.722456
O O4 0.809973 0.837751 0.566257
O O5 0.122063 0.475669 0.028174
O O6 0.092918 0.725438 0.178444
O O7 0.115689 0.793910 0.946001
O O8 0.793297 0.669886 0.859822
O O9 0.704318 0.449555 0.126464
O O10 0.489343 0.370128 0.191570
O O11 0.453439 0.673464 0.060498
O O12 0.658487 0.166179 0.500558
O O13 0.601232 0.941494 0.640213
O O14 0.426041 0.873650 0.349027
#
# Coordination Sequence:
#
# PCOD8046016 Si02
#       7
#     2   2   2   2   2   2   2
#     4  12  24  49  73 105 148 188 253 301 362 442
#     4  10  21  38  66 103 133 179 232 295 357 424
#     4  11  26  50  69 103 147 193 244 302 367 438
#     4  11  26  49  71  99 150 195 242 305 361 441
#     4  11  20  38  66 107 141 175 232 299 361 419
#     4  10  20  39  64  99 135 172 233 291 357 420
#     4  11  21  37  69 108 146 184 234 307 363 428
#
# _framework density 24.806211000000001
#
# number of rings (size 3 to 8) (size 9 to 14) (size 15 to 20)
#    0.000    1.143    4.286    3.429    0.000    2.286 
#   10.286    0.000    0.000    0.000    0.000    0.000 
#    0.000    0.000    0.000    0.000    0.000    0.000 
#
# Total GULP energy -173456.327391 kJ/mol
# GULP energy per Si atom -12389.737671 kJ/mol
# Density = 2.474975 g / cm^3
# Si number density = 24.806211 Si / 1000 Ang^3
#
#
#
# Elastic Constant Matrix: (Units=GPa)
#
#
# Indices 1 2 3 4 5 6 
#
# 1 35.4295 7.6868 -7.4704 0.0000 -12.1892 0.0000
# 2 7.6868 83.1248 4.3185 0.0000 -1.2709 0.0000
# 3 -7.4704 4.3185 97.9347 0.0000 5.7029 0.0000
# 4 0.0000 0.0000 0.0000 39.0717 0.0000 8.3926
# 5 -12.1892 -1.2709 5.7029 0.0000 29.2541 0.0000
# 6 0.0000 0.0000 0.0000 8.3926 0.0000 35.7531
#
#
#
# Elastic Compliance Matrix: (Units=1/GPa)
#
#
# Indices 1 2 3 4 5 6 
#
# 1 0.033988 -0.003035 0.001931 0.000000 0.013653 0.000000
# 2 -0.003035 0.012340 -0.000742 0.000000 -0.000584 0.000000
# 3 0.001931 -0.000742 0.010465 0.000000 -0.001268 0.000000
# 4 0.000000 0.000000 0.000000 0.026953 0.000000 -0.006327
# 5 0.013653 -0.000584 -0.001268 0.000000 0.040094 0.000000
# 6 0.000000 0.000000 0.000000 -0.006327 0.000000 0.029455
#
#
# Mechanical properties :
#
#
# Convention : Reuss Voigt Hill
#
# Bulk Modulus (GPa) = 18.83121 25.06207 21.94664
# Shear Modulus (GPa) = 28.62289 34.94605 31.78447
#
# Velocity S-wave (km/s) = 3.40054 3.75742 3.58342
# Velocity P-wave (km/s) = 4.79854 5.38046 5.09781
#
# Compressibility (1/GPa) = 0.05310333
#
# Stress axis : x y z
#
# Youngs Moduli (GPa) = 29.42219 81.03516 95.55913
#
# Poissons Ratio (x) = 0.24590 -0.18456
# Poissons Ratio (y) = 0.08928 0.07087
# Poissons Ratio (z) = -0.05682 0.06010
#
# Static dielectric constant tensor:
#      x y z
#    x 4.103350 0.000000 0.251670 
#    y 0.000000 4.499920 0.000000 
#    z 0.251670 0.000000 5.018350 
# 
# 
# High freq. dielectric constant tensor:
#      x y z
#    x 1.947420 0.000000 0.020910 
#    y 0.000000 1.980780 0.000000 
#    z 0.020910 0.000000 2.014440 
# 
# From -- ./inp_files/11066.got.cif
#   From: 2010.03.12/outbox.cif.g09.slc.cpg/sg4_6_cif.got.tgz:11066.got - 2010.03.31 09:31:35.
