data_PCOD8046162
_publ_section_title
;
Structure prediction by ZEFSAII (Michael W. Deem and Ramdas Pophale) SiO2 
 PCOD8046162
Probable space group: P 21
;
_chemical_formula_sum "Si O2"
_cell_formula_units_Z 16
_cell_length_a 6.090005
_cell_length_b 18.391775
_cell_length_c 9.055067
_cell_angle_alpha 90.000000
_cell_angle_beta 135.597229
_cell_angle_gamma 90.000000
_cell_volume 709.648892
_symmetry_space_group_name_H-M "P 21"
_symmetry_group_IT_number 4
_symmetry_cell_setting 'monoclinic'
loop_
_space_group_symop_operation_xyz
x,y,z
-x,1/2+y,-z
loop_
_atom_site_type_symbol
_atom_site_label
_atom_site_fract_x
_atom_site_fract_y
_atom_site_fract_z
Si Si1 0.249686 0.169660 0.999386
Si Si2 0.168624 0.123341 0.284793
Si Si3 0.914294 0.284984 0.663956
Si Si4 0.083899 0.746294 0.669778
Si Si5 0.576938 0.032269 0.081574
Si Si6 0.506518 0.487674 0.638710
Si Si7 0.825936 0.910308 0.031397
Si Si8 0.731452 0.860251 0.659389
O O1 0.160230 0.167414 0.127470
O O2 0.570912 0.215000 0.137003
O O3 0.278849 0.086727 0.949517
O O4 0.972748 0.209444 0.778105
O O5 0.175781 0.183859 0.417016
O O6 0.855935 0.078236 0.150276
O O7 0.457920 0.066124 0.426920
O O8 0.985015 0.272139 0.527489
O O9 0.559925 0.309208 0.523257
O O10 0.147341 0.347137 0.834288
O O11 0.040281 0.816576 0.755579
O O12 0.659146 0.000886 0.283462
O O13 0.546008 0.964070 0.953916
O O14 0.285424 0.437366 0.432693
O O15 0.846416 0.452266 0.830220
O O16 0.726254 0.873992 0.830782
#
# Coordination Sequence:
#
# PCOD8046162 Si02
#       8
#     2   2   2   2   2   2   2   2
#     4  10  22  41  63  89 123 159 202 249 300 360
#     4   9  19  39  62  87 122 158 198 253 303 355
#     4  11  23  38  59  88 122 161 204 249 298 359
#     4  11  22  37  60  89 120 161 205 248 303 358
#     4   9  19  39  64  87 118 159 198 248 306 358
#     4   9  20  39  60  86 119 157 202 251 303 358
#     4  10  21  38  59  86 121 158 203 253 302 357
#     4  11  24  39  61  90 123 161 202 249 299 357
#
# _framework density 22.546361999999998
#
# number of rings (size 3 to 8) (size 9 to 14) (size 15 to 20)
#    0.000    2.000    0.000    3.000    0.000    7.000 
#    0.000   13.750    0.000    0.000    0.000    0.000 
#    0.000    0.000    0.000    0.000    0.000    0.000 
#
# Total GULP energy -198340.234510 kJ/mol
# GULP energy per Si atom -12396.264657 kJ/mol
# Density = 2.249505 g / cm^3
# Si number density = 22.546362 Si / 1000 Ang^3
#
#
#
# Elastic Constant Matrix: (Units=GPa)
#
#
# Indices 1 2 3 4 5 6 
#
# 1 89.6685 34.9242 14.6613 0.0000 -23.6247 0.0000
# 2 34.9242 99.6761 29.5146 0.0000 -15.1601 0.0000
# 3 14.6613 29.5146 60.3567 0.0000 -14.5562 0.0000
# 4 0.0000 0.0000 0.0000 42.4977 0.0000 -11.9243
# 5 -23.6247 -15.1601 -14.5562 0.0000 23.9699 0.0000
# 6 0.0000 0.0000 0.0000 -11.9243 0.0000 56.9915
#
#
#
# Elastic Compliance Matrix: (Units=1/GPa)
#
#
# Indices 1 2 3 4 5 6 
#
# 1 0.016240 -0.003929 0.001450 0.000000 0.014401 0.000000
# 2 -0.003929 0.013133 -0.005153 0.000000 0.001305 0.000000
# 3 0.001450 -0.005153 0.021434 0.000000 0.011185 0.000000
# 4 0.000000 0.000000 0.000000 0.024998 0.000000 0.005230
# 5 0.014401 0.001305 0.011185 0.000000 0.063530 0.000000
# 6 0.000000 0.000000 0.000000 0.005230 0.000000 0.018641
#
#
# Mechanical properties :
#
#
# Convention : Reuss Voigt Hill
#
# Bulk Modulus (GPa) = 28.13610 45.32237 36.72924
# Shear Modulus (GPa) = 27.01410 36.06522 31.53966
#
# Velocity S-wave (km/s) = 3.46520 4.00384 3.74422
# Velocity P-wave (km/s) = 5.34008 6.44359 5.91761
#
# Compressibility (1/GPa) = 0.03554153
#
# Stress axis : x y z
#
# Youngs Moduli (GPa) = 61.57770 76.14155 46.65568
#
# Poissons Ratio (x) = 0.29915 -0.06763
# Poissons Ratio (y) = 0.24193 0.24043
# Poissons Ratio (z) = -0.08926 0.39238
#
# Static dielectric constant tensor:
#      x y z
#    x 4.201480 0.000000 -0.149870 
#    y 0.000000 4.838300 0.000000 
#    z -0.149870 0.000000 3.535720 
# 
# 
# High freq. dielectric constant tensor:
#      x y z
#    x 1.900650 0.000000 -0.016100 
#    y 0.000000 1.921390 0.000000 
#    z -0.016100 0.000000 1.842570 
# 
# From -- ./inp_files/461.got.cif
#   From: 2010.03.12/outbox.cif.g09.slc.cpg/sg4_1_cif.got.tgz:461.got - 2010.03.31 09:31:35.
