data_PCOD8046888
_publ_section_title
;
Structure prediction by ZEFSAII (Michael W. Deem and Ramdas Pophale) SiO2 
 PCOD8046888
Probable space group: P 21
;
_chemical_formula_sum "Si O2"
_cell_formula_units_Z 10
_cell_length_a 5.220931
_cell_length_b 7.538976
_cell_length_c 11.555187
_cell_angle_alpha 90.000000
_cell_angle_beta 103.546531
_cell_angle_gamma 90.000000
_cell_volume 442.164612
_symmetry_space_group_name_H-M "P 21"
_symmetry_group_IT_number 4
_symmetry_cell_setting 'monoclinic'
loop_
_space_group_symop_operation_xyz
x,y,z
-x,1/2+y,-z
loop_
_atom_site_type_symbol
_atom_site_label
_atom_site_fract_x
_atom_site_fract_y
_atom_site_fract_z
Si Si1 0.319006 0.924960 0.000495
Si Si2 0.781649 0.780754 0.935842
Si Si3 0.402394 0.982085 0.758236
Si Si4 0.737614 0.197050 0.436163
Si Si5 0.308413 0.286345 0.580343
O O1 0.607032 0.836469 0.031309
O O2 0.254551 0.005016 0.865281
O O3 0.089249 0.782107 0.000188
O O4 0.296173 0.076198 0.095728
O O5 0.696252 0.900779 0.816838
O O6 0.246243 0.834061 0.668105
O O7 0.431389 0.171777 0.698730
O O8 0.697168 0.994697 0.388957
O O9 0.491599 0.256061 0.488612
O O10 0.014933 0.210294 0.531695
#
# Coordination Sequence:
#
# PCOD8046888 Si02
#       5
#     2   2   2   2   2
#     4  10  23  43  68  93 132 168 223 277 327 389
#     4  10  23  43  68  93 132 168 223 277 327 389
#     4  10  26  42  72  96 138 172 232 254 352 384
#     4  12  24  43  69  98 137 176 218 274 324 397
#     4  12  24  43  69  98 137 176 218 274 324 397
#
# _framework density 22.616008999999998
#
# number of rings (size 3 to 8) (size 9 to 14) (size 15 to 20)
#    1.200    0.000    4.000    1.200    5.600    1.600 
#    0.000    0.000    0.000    0.000    0.000    0.000 
#    0.000    0.000    0.000    0.000    0.000    0.000 
#
# Total GULP energy -123885.448601 kJ/mol
# GULP energy per Si atom -12388.544860 kJ/mol
# Density = 2.256453 g / cm^3
# Si number density = 22.616009 Si / 1000 Ang^3
#
#
#
# Elastic Constant Matrix: (Units=GPa)
#
#
# Indices 1 2 3 4 5 6 
#
# 1 91.4334 1.4629 17.0224 0.0000 -9.3201 0.0000
# 2 1.4629 120.2037 14.5146 0.0000 -6.2095 0.0000
# 3 17.0224 14.5146 19.5121 0.0000 1.8176 0.0000
# 4 0.0000 0.0000 0.0000 42.3676 0.0000 1.7567
# 5 -9.3201 -6.2095 1.8176 0.0000 8.0261 0.0000
# 6 0.0000 0.0000 0.0000 1.7567 0.0000 36.0664
#
#
#
# Elastic Compliance Matrix: (Units=1/GPa)
#
#
# Indices 1 2 3 4 5 6 
#
# 1 0.017594 0.003738 -0.020740 0.000000 0.028019 0.000000
# 2 0.003738 0.010586 -0.012567 0.000000 0.015376 0.000000
# 3 -0.020740 -0.012567 0.083605 0.000000 -0.052740 0.000000
# 4 0.000000 0.000000 0.000000 0.023651 0.000000 -0.001152
# 5 0.028019 0.015376 -0.052740 0.000000 0.180969 0.000000
# 6 0.000000 0.000000 0.000000 -0.001152 0.000000 0.027783
#
#
# Mechanical properties :
#
#
# Convention : Reuss Voigt Hill
#
# Bulk Modulus (GPa) = 18.99484 33.01657 26.00570
# Shear Modulus (GPa) = 11.88001 30.50197 21.19099
#
# Velocity S-wave (km/s) = 2.29441 3.67643 3.06435
# Velocity P-wave (km/s) = 3.92889 5.71419 4.90348
#
# Compressibility (1/GPa) = 0.05264588
#
# Stress axis : x y z
#
# Youngs Moduli (GPa) = 56.83611 94.46856 11.96099
#
# Poissons Ratio (x) = -0.35309 0.24807
# Poissons Ratio (y) = -0.21243 0.15032
# Poissons Ratio (z) = 1.17877 1.18722
#
# Static dielectric constant tensor:
#      x y z
#    x 3.980400 0.000000 0.022990 
#    y 0.000000 4.143600 0.000000 
#    z 0.022990 0.000000 3.742640 
# 
# 
# High freq. dielectric constant tensor:
#      x y z
#    x 1.893860 0.000000 0.002320 
#    y 0.000000 1.907580 0.000000 
#    z 0.002320 0.000000 1.856900 
# 
# From -- ./inp_files/2335.got.cif
#   From: 2010.03.12/outbox.cif.g09.slc.cpg/sg4_2_cif.got.tgz:2335.got - 2010.03.31 09:31:35.
