data_PCOD8046101
_publ_section_title
;
Structure prediction by ZEFSAII (Michael W. Deem and Ramdas Pophale) SiO2 
 PCOD8046101
Probable space group: P 21
;
_chemical_formula_sum "Si O2"
_cell_formula_units_Z 12
_cell_length_a 7.962248
_cell_length_b 7.741107
_cell_length_c 8.112241
_cell_angle_alpha 90.000000
_cell_angle_beta 55.952301
_cell_angle_gamma 90.000000
_cell_volume 414.295045
_symmetry_space_group_name_H-M "P 21"
_symmetry_group_IT_number 4
_symmetry_cell_setting 'monoclinic'
loop_
_space_group_symop_operation_xyz
x,y,z
-x,1/2+y,-z
loop_
_atom_site_type_symbol
_atom_site_label
_atom_site_fract_x
_atom_site_fract_y
_atom_site_fract_z
Si Si1 0.515445 0.865210 0.315464
Si Si2 0.811147 0.537212 0.752433
Si Si3 0.439550 0.546217 0.151011
Si Si4 0.988001 0.909629 0.676857
Si Si5 0.388328 0.737625 0.724759
Si Si6 0.945110 0.979970 0.062329
O O1 0.466503 0.745349 0.186440
O O2 0.384780 0.782886 0.533799
O O3 0.462933 0.071671 0.331733
O O4 0.760529 0.846341 0.199645
O O5 0.845746 0.438191 0.559069
O O6 0.902108 0.452714 0.869458
O O7 0.910924 0.720550 0.683845
O O8 0.567175 0.536269 0.910871
O O9 0.204400 0.533703 0.239226
O O10 0.519278 0.403108 0.234462
O O11 0.065070 0.942127 0.823127
O O12 0.155919 0.674718 0.895004
#
# Coordination Sequence:
#
# PCOD8046101 Si02
#       6
#     2   2   2   2   2   2
#     4  10  20  43  73 119 158 205 279 324 403 489
#     4  12  29  54  83 120 167 217 274 349 409 498
#     4  12  26  50  78 117 168 211 274 342 410 488
#     4  12  30  54  80 127 161 218 280 336 425 488
#     4  10  21  40  76 116 155 214 265 332 403 484
#     4  10  26  49  74 115 167 207 274 333 408 487
#
# _framework density 28.964867000000002
#
# number of rings (size 3 to 8) (size 9 to 14) (size 15 to 20)
#    1.000    0.000    3.333    2.000    7.000    0.000 
#   12.000    1.667    0.000    0.000    0.000    0.000 
#    0.000    0.000    0.000    0.000    0.000    0.000 
#
# Total GULP energy -148742.276725 kJ/mol
# GULP energy per Si atom -12395.189727 kJ/mol
# Density = 2.889894 g / cm^3
# Si number density = 28.964867 Si / 1000 Ang^3
#
#
#
# Elastic Constant Matrix: (Units=GPa)
#
#
# Indices 1 2 3 4 5 6 
#
# 1 65.4727 15.2869 38.1106 0.0000 23.0755 0.0000
# 2 15.2869 145.3303 56.7646 0.0000 31.3717 0.0000
# 3 38.1106 56.7646 223.8458 0.0000 9.3964 0.0000
# 4 0.0000 0.0000 0.0000 25.6188 0.0000 6.2446
# 5 23.0755 31.3717 9.3964 0.0000 64.2135 0.0000
# 6 0.0000 0.0000 0.0000 6.2446 0.0000 47.9805
#
#
#
# Elastic Compliance Matrix: (Units=1/GPa)
#
#
# Indices 1 2 3 4 5 6 
#
# 1 0.019375 0.000680 -0.003184 0.000000 -0.006829 0.000000
# 2 0.000680 0.008515 -0.002103 0.000000 -0.004097 0.000000
# 3 -0.003184 -0.002103 0.005485 0.000000 0.001369 0.000000
# 4 0.000000 0.000000 0.000000 0.040313 0.000000 -0.005247
# 5 -0.006829 -0.004097 0.001369 0.000000 0.019828 0.000000
# 6 0.000000 0.000000 0.000000 -0.005247 0.000000 0.021525
#
#
# Mechanical properties :
#
#
# Convention : Reuss Voigt Hill
#
# Bulk Modulus (GPa) = 41.39023 72.77478 57.08251
# Shear Modulus (GPa) = 37.79005 49.19501 43.49253
#
# Velocity S-wave (km/s) = 3.61596 4.12568 3.87920
# Velocity P-wave (km/s) = 5.63510 6.91916 6.30988
#
# Compressibility (1/GPa) = 0.02416029
#
# Stress axis : x y z
#
# Youngs Moduli (GPa) = 51.61246 117.43778 182.30278
#
# Poissons Ratio (x) = -0.07984 0.58053
# Poissons Ratio (y) = -0.03509 0.38341
# Poissons Ratio (z) = 0.16436 0.24699
#
# Static dielectric constant tensor:
#      x y z
#    x 5.582250 0.000000 -0.110020 
#    y 0.000000 5.434020 0.000000 
#    z -0.110020 0.000000 5.656600 
# 
# 
# High freq. dielectric constant tensor:
#      x y z
#    x 2.201890 0.000000 0.002500 
#    y 0.000000 2.195730 0.000000 
#    z 0.002500 0.000000 2.192250 
# 
# From -- ./inp_files/5765.got.cif
#   From: 2010.03.12/outbox.cif.g09.slc.cpg/sg4_3_cif.got.tgz:5765.got - 2010.03.31 09:31:35.
