data_PCOD8046824
_publ_section_title
;
Structure prediction by ZEFSAII (Michael W. Deem and Ramdas Pophale) SiO2 
 PCOD8046824
Probable space group: P 21
;
_chemical_formula_sum "Si O2"
_cell_formula_units_Z 16
_cell_length_a 8.891378
_cell_length_b 16.018593
_cell_length_c 9.911066
_cell_angle_alpha 90.000000
_cell_angle_beta 149.318973
_cell_angle_gamma 90.000000
_cell_volume 720.283996
_symmetry_space_group_name_H-M "P 21"
_symmetry_group_IT_number 4
_symmetry_cell_setting 'monoclinic'
loop_
_space_group_symop_operation_xyz
x,y,z
-x,1/2+y,-z
loop_
_atom_site_type_symbol
_atom_site_label
_atom_site_fract_x
_atom_site_fract_y
_atom_site_fract_z
Si Si1 0.572565 0.591020 0.809486
Si Si2 0.478254 0.997366 0.496320
Si Si3 0.744980 0.033313 0.184396
Si Si4 0.036295 0.380319 0.803238
Si Si5 0.547789 0.270489 0.668718
Si Si6 0.096570 0.366640 0.146007
Si Si7 0.623127 0.610135 0.335636
Si Si8 0.107861 0.701201 0.308714
O O1 0.658104 0.535529 0.745417
O O2 0.419658 0.529855 0.800028
O O3 0.352298 0.664297 0.595879
O O4 0.851529 0.633351 0.095282
O O5 0.806642 0.958445 0.722861
O O6 0.273063 0.922235 0.390901
O O7 0.506019 0.069391 0.628133
O O8 0.040713 0.086160 0.427159
O O9 0.794939 0.938411 0.173126
O O10 0.552300 0.081269 0.928301
O O11 0.992299 0.289394 0.701406
O O12 0.213024 0.366179 0.079895
O O13 0.269306 0.298375 0.366366
O O14 0.420161 0.209927 0.685849
O O15 0.774338 0.219673 0.750070
O O16 0.744033 0.346780 0.884365
#
# Coordination Sequence:
#
# PCOD8046824 Si02
#       8
#     2   2   2   2   2   2   2   2
#     4  12  27  42  67 100 139 170 218 279 335 384
#     4  11  23  39  67 102 127 167 222 280 325 382
#     4  11  25  45  64  96 134 178 220 263 329 405
#     4  10  23  41  70  93 128 177 228 261 328 406
#     4  11  22  37  66 100 126 160 219 282 320 377
#     4  11  20  38  61 101 129 158 216 277 329 375
#     4  11  23  41  68  92 128 171 224 267 321 393
#     4  11  23  41  67  98 133 171 221 273 335 390
#
# _framework density 22.213460000000001
#
# number of rings (size 3 to 8) (size 9 to 14) (size 15 to 20)
#    0.000    1.000    5.000    3.000    5.250    0.000 
#    0.000    3.750    0.000    0.000    0.000    0.000 
#    0.000    0.000    0.000    0.000    0.000    0.000 
#
# Total GULP energy -198352.719307 kJ/mol
# GULP energy per Si atom -12397.044957 kJ/mol
# Density = 2.216290 g / cm^3
# Si number density = 22.213460 Si / 1000 Ang^3
#
#
#
# Elastic Constant Matrix: (Units=GPa)
#
#
# Indices 1 2 3 4 5 6 
#
# 1 39.6901 9.3214 11.4206 0.0000 -16.8364 0.0000
# 2 9.3214 69.7210 2.0599 0.0000 -1.5865 0.0000
# 3 11.4206 2.0599 100.4063 0.0000 7.5550 0.0000
# 4 0.0000 0.0000 0.0000 41.2361 0.0000 1.6605
# 5 -16.8364 -1.5865 7.5550 0.0000 21.3559 0.0000
# 6 0.0000 0.0000 0.0000 1.6605 0.0000 26.5163
#
#
#
# Elastic Compliance Matrix: (Units=1/GPa)
#
#
# Indices 1 2 3 4 5 6 
#
# 1 0.044453 -0.004862 -0.007773 0.000000 0.037434 0.000000
# 2 -0.004862 0.014913 0.000464 0.000000 -0.002889 0.000000
# 3 -0.007773 0.000464 0.011602 0.000000 -0.010198 0.000000
# 4 0.000000 0.000000 0.000000 0.024312 0.000000 -0.001522
# 5 0.037434 -0.002889 -0.010198 0.000000 0.079731 0.000000
# 6 0.000000 0.000000 0.000000 -0.001522 0.000000 0.037808
#
#
# Mechanical properties :
#
#
# Convention : Reuss Voigt Hill
#
# Bulk Modulus (GPa) = 21.44675 28.38011 24.91343
# Shear Modulus (GPa) = 19.78614 30.28937 25.03775
#
# Velocity S-wave (km/s) = 2.98774 3.69665 3.36094
# Velocity P-wave (km/s) = 4.64521 5.56993 5.12845
#
# Compressibility (1/GPa) = 0.04662710
#
# Stress axis : x y z
#
# Youngs Moduli (GPa) = 22.49552 67.05376 86.19563
#
# Poissons Ratio (x) = 0.32599 0.67002
# Poissons Ratio (y) = 0.10937 -0.04003
# Poissons Ratio (z) = 0.17486 -0.03114
#
# Static dielectric constant tensor:
#      x y z
#    x 3.667460 0.000000 -0.004290 
#    y 0.000000 4.330880 0.000000 
#    z -0.004290 0.000000 4.095300 
# 
# 
# High freq. dielectric constant tensor:
#      x y z
#    x 1.828690 0.000000 0.002050 
#    y 0.000000 1.887290 0.000000 
#    z 0.002050 0.000000 1.893700 
# 
# From -- ./inp_files/6942.got.cif
#   From: 2010.03.12/outbox.cif.g09.slc.cpg/sg4_4_cif.got.tgz:6942.got - 2010.03.31 09:31:35.
