data_PCOD8046530
_publ_section_title
;
Structure prediction by ZEFSAII (Michael W. Deem and Ramdas Pophale) SiO2 
 PCOD8046530
Probable space group: P 21
;
_chemical_formula_sum "Si O2"
_cell_formula_units_Z 14
_cell_length_a 16.289359
_cell_length_b 5.576776
_cell_length_c 17.545240
_cell_angle_alpha 90.000000
_cell_angle_beta 156.402832
_cell_angle_gamma 90.000000
_cell_volume 638.022735
_symmetry_space_group_name_H-M "P 21"
_symmetry_group_IT_number 4
_symmetry_cell_setting 'monoclinic'
loop_
_space_group_symop_operation_xyz
x,y,z
-x,1/2+y,-z
loop_
_atom_site_type_symbol
_atom_site_label
_atom_site_fract_x
_atom_site_fract_y
_atom_site_fract_z
Si Si1 0.733031 0.681340 0.180004
Si Si2 0.151003 0.797697 0.834333
Si Si3 0.504158 0.066370 0.459049
Si Si4 0.080506 0.206844 0.035029
Si Si5 0.530202 0.497906 0.146049
Si Si6 0.124704 0.918023 0.448914
Si Si7 0.918841 0.127985 0.739638
O O1 0.754380 0.426103 0.158310
O O2 0.681012 0.671520 0.225755
O O3 0.946986 0.818806 0.352810
O O4 0.539766 0.798670 0.973206
O O5 0.935811 0.689968 0.621455
O O6 0.325415 0.610807 0.008741
O O7 0.096586 0.949027 0.862567
O O8 0.553451 0.313542 0.548467
O O9 0.318018 0.137755 0.245495
O O10 0.707934 0.999938 0.585128
O O11 0.043146 0.460470 0.047291
O O12 0.021894 0.267802 0.897977
O O13 0.657423 0.391364 0.324684
O O14 0.138357 0.796465 0.378778
#
# Coordination Sequence:
#
# PCOD8046530 Si02
#       7
#     2   2   2   2   2   2   2
#     4  10  22  40  64  97 132 178 235 292 330 423
#     4  10  24  44  64  99 135 177 226 290 352 413
#     4  12  25  46  75 109 138 187 242 290 358 437
#     4  12  25  47  78 107 142 190 238 300 359 430
#     4  11  22  42  68  96 136 181 240 283 352 414
#     4  10  26  41  66  99 137 181 231 287 361 414
#     4  11  26  46  69 101 148 170 236 290 360 427
#
# _framework density 21.942793999999999
#
# number of rings (size 3 to 8) (size 9 to 14) (size 15 to 20)
#    0.000    1.143    4.286    0.000    6.000    6.857 
#    0.000    0.000    0.000    0.000    0.000    0.000 
#    0.000    0.000    0.000    0.000    0.000    0.000 
#
# Total GULP energy -173467.683348 kJ/mol
# GULP energy per Si atom -12390.548811 kJ/mol
# Density = 2.189285 g / cm^3
# Si number density = 21.942794 Si / 1000 Ang^3
#
#
#
# Elastic Constant Matrix: (Units=GPa)
#
#
# Indices 1 2 3 4 5 6 
#
# 1 112.9106 29.1275 41.4879 0.0000 -6.4383 0.0000
# 2 29.1275 98.1691 20.8297 0.0000 -8.5330 0.0000
# 3 41.4879 20.8297 144.0485 0.0000 -13.2461 0.0000
# 4 0.0000 0.0000 0.0000 26.2551 0.0000 -2.5932
# 5 -6.4383 -8.5330 -13.2461 0.0000 31.7239 0.0000
# 6 0.0000 0.0000 0.0000 -2.5932 0.0000 10.0681
#
#
#
# Elastic Compliance Matrix: (Units=1/GPa)
#
#
# Indices 1 2 3 4 5 6 
#
# 1 0.010493 -0.002526 -0.002624 0.000000 0.000354 0.000000
# 2 -0.002526 0.011278 -0.000698 0.000000 0.002229 0.000000
# 3 -0.002624 -0.000698 0.008041 0.000000 0.002637 0.000000
# 4 0.000000 0.000000 0.000000 0.039082 0.000000 0.010066
# 5 0.000354 0.002229 0.002637 0.000000 0.033295 0.000000
# 6 0.000000 0.000000 0.000000 0.010066 0.000000 0.101916
#
#
# Mechanical properties :
#
#
# Convention : Reuss Voigt Hill
#
# Bulk Modulus (GPa) = 55.20169 59.77982 57.49075
# Shear Modulus (GPa) = 22.53879 31.18829 26.86354
#
# Velocity S-wave (km/s) = 3.20841 3.77416 3.50273
# Velocity P-wave (km/s) = 6.23995 6.80405 6.52809
#
# Compressibility (1/GPa) = 0.01811539
#
# Stress axis : x y z
#
# Youngs Moduli (GPa) = 95.30583 88.66961 124.35638
#
# Poissons Ratio (x) = 0.22394 0.32634
# Poissons Ratio (y) = 0.24070 0.08685
# Poissons Ratio (z) = 0.25010 0.06193
#
# Static dielectric constant tensor:
#      x y z
#    x 4.223660 0.000000 0.242230 
#    y 0.000000 4.116950 0.000000 
#    z 0.242230 0.000000 3.977420 
# 
# 
# High freq. dielectric constant tensor:
#      x y z
#    x 1.862010 0.000000 0.012650 
#    y 0.000000 1.861680 0.000000 
#    z 0.012650 0.000000 1.868660 
# 
# From -- ./inp_files/14049.got.cif
#   From: 2010.03.12/outbox.cif.g09.slc.cpg/sg4_8_cif.got.tgz:14049.got - 2010.03.31 09:31:35.
