data_PCOD8046962
_publ_section_title
;
Structure prediction by ZEFSAII (Michael W. Deem and Ramdas Pophale) SiO2 
 PCOD8046962
Probable space group: P 21
;
_chemical_formula_sum "Si O2"
_cell_formula_units_Z 14
_cell_length_a 13.328211
_cell_length_b 7.589039
_cell_length_c 9.978548
_cell_angle_alpha 90.000000
_cell_angle_beta 33.717866
_cell_angle_gamma 90.000000
_cell_volume 560.273668
_symmetry_space_group_name_H-M "P 21"
_symmetry_group_IT_number 4
_symmetry_cell_setting 'monoclinic'
loop_
_space_group_symop_operation_xyz
x,y,z
-x,1/2+y,-z
loop_
_atom_site_type_symbol
_atom_site_label
_atom_site_fract_x
_atom_site_fract_y
_atom_site_fract_z
Si Si1 0.680183 0.644250 0.945369
Si Si2 0.402163 0.751710 0.051376
Si Si3 0.007160 0.009266 0.836211
Si Si4 0.530070 0.506965 0.365376
Si Si5 0.873896 0.896587 0.261429
Si Si6 0.379022 0.640729 0.792727
Si Si7 0.070053 0.687138 0.590385
O O1 0.657226 0.444839 0.924303
O O2 0.886877 0.705135 0.708029
O O3 0.570650 0.768138 0.965033
O O4 0.602787 0.661122 0.184705
O O5 0.235263 0.654137 0.307185
O O6 0.456301 0.639784 0.858348
O O7 0.116281 0.191916 0.708100
O O8 0.107652 0.864798 0.633417
O O9 0.803733 0.029992 0.007637
O O10 0.000749 0.933056 0.993133
O O11 0.332712 0.447438 0.535363
O O12 0.528823 0.569170 0.521028
O O13 0.665589 0.340854 0.205007
O O14 0.952336 0.016137 0.292520
#
# Coordination Sequence:
#
# PCOD8046962 Si02
#       7
#     2   2   2   2   2   2   2
#     4  11  27  48  75 107 154 196 254 315 376 458
#     4  11  27  51  72 113 150 203 254 313 384 458
#     4  11  25  44  75 112 150 204 249 316 380 449
#     4  10  23  45  72 109 147 197 250 321 373 450
#     4  11  22  46  74 112 156 192 258 316 375 449
#     4  10  25  45  71 109 146 192 256 309 378 449
#     4  12  27  49  79 110 155 204 255 316 382 455
#
# _framework density 24.987788999999999
#
# number of rings (size 3 to 8) (size 9 to 14) (size 15 to 20)
#    0.000    1.143    2.857    1.714    8.000    3.429 
#    0.000    0.000    0.000    0.000    0.000    0.000 
#    0.000    0.000    0.000    0.000    0.000    0.000 
#
# Total GULP energy -173672.068528 kJ/mol
# GULP energy per Si atom -12405.147752 kJ/mol
# Density = 2.493092 g / cm^3
# Si number density = 24.987789 Si / 1000 Ang^3
#
#
#
# Elastic Constant Matrix: (Units=GPa)
#
#
# Indices 1 2 3 4 5 6 
#
# 1 106.8600 41.7252 63.3308 0.0000 12.2941 0.0000
# 2 41.7252 95.8127 16.1010 0.0000 16.3015 0.0000
# 3 63.3308 16.1010 93.7376 0.0000 21.4688 0.0000
# 4 0.0000 0.0000 0.0000 33.7158 0.0000 1.6259
# 5 12.2941 16.3015 21.4688 0.0000 45.5011 0.0000
# 6 0.0000 0.0000 0.0000 1.6259 0.0000 43.0030
#
#
#
# Elastic Compliance Matrix: (Units=1/GPa)
#
#
# Indices 1 2 3 4 5 6 
#
# 1 0.018941 -0.006702 -0.012359 0.000000 0.003115 0.000000
# 2 -0.006702 0.013591 0.003244 0.000000 -0.004589 0.000000
# 3 -0.012359 0.003244 0.020139 0.000000 -0.007325 0.000000
# 4 0.000000 0.000000 0.000000 0.029714 0.000000 -0.001123
# 5 0.003115 -0.004589 -0.007325 0.000000 0.026236 0.000000
# 6 0.000000 0.000000 0.000000 -0.001123 0.000000 0.023297
#
#
# Mechanical properties :
#
#
# Convention : Reuss Voigt Hill
#
# Bulk Modulus (GPa) = 47.53356 59.85826 53.69591
# Shear Modulus (GPa) = 29.31465 36.12755 32.72110
#
# Velocity S-wave (km/s) = 3.42886 3.80650 3.62260
# Velocity P-wave (km/s) = 5.89407 6.58227 6.24766
#
# Compressibility (1/GPa) = 0.02103777
#
# Stress axis : x y z
#
# Youngs Moduli (GPa) = 52.79507 73.57753 49.65603
#
# Poissons Ratio (x) = 0.49309 0.61371
# Poissons Ratio (y) = 0.35381 -0.16110
# Poissons Ratio (z) = 0.65251 -0.23871
#
# Static dielectric constant tensor:
#      x y z
#    x 4.579430 0.000000 0.296610 
#    y 0.000000 4.455970 0.000000 
#    z 0.296610 0.000000 4.562400 
# 
# 
# High freq. dielectric constant tensor:
#      x y z
#    x 1.996010 0.000000 0.010090 
#    y 0.000000 1.996570 0.000000 
#    z 0.010090 0.000000 1.997690 
# 
# From -- ./inp_files/7605.got.cif
#   From: 2010.03.12/outbox.cif.g09.slc.cpg/sg4_4_cif.got.tgz:7605.got - 2010.03.31 09:31:35.
