data_PCOD8046914
_publ_section_title
;
Structure prediction by ZEFSAII (Michael W. Deem and Ramdas Pophale) SiO2 
 PCOD8046914
Probable space group: P 21
;
_chemical_formula_sum "Si O2"
_cell_formula_units_Z 16
_cell_length_a 22.341510
_cell_length_b 4.959279
_cell_length_c 11.984075
_cell_angle_alpha 90.000000
_cell_angle_beta 27.665056
_cell_angle_gamma 90.000000
_cell_volume 616.504296
_symmetry_space_group_name_H-M "P 21"
_symmetry_group_IT_number 4
_symmetry_cell_setting 'monoclinic'
loop_
_space_group_symop_operation_xyz
x,y,z
-x,1/2+y,-z
loop_
_atom_site_type_symbol
_atom_site_label
_atom_site_fract_x
_atom_site_fract_y
_atom_site_fract_z
Si Si1 0.215803 0.389930 0.448123
Si Si2 0.602148 0.912344 0.654211
Si Si3 0.120515 0.138049 0.202168
Si Si4 0.262732 0.165431 0.759807
Si Si5 0.001987 0.669751 0.920591
Si Si6 0.565887 0.909902 0.086799
Si Si7 0.489702 0.815107 0.441709
Si Si8 0.044829 0.131736 0.565753
O O1 0.303856 0.294061 0.405474
O O2 0.131050 0.642225 0.632133
O O3 0.116441 0.164533 0.566333
O O4 0.303300 0.448552 0.196981
O O5 0.680019 0.915464 0.407254
O O6 0.485165 0.710947 0.832987
O O7 0.539594 0.199715 0.791224
O O8 0.142008 0.175270 0.299385
O O9 0.004308 0.327578 0.352414
O O10 0.247830 0.220559 0.918879
O O11 0.076831 0.833088 0.246254
O O12 0.358991 0.910600 0.593981
O O13 0.122391 0.086203 0.946343
O O14 0.008802 0.472033 0.016205
O O15 0.594425 0.814876 0.167720
O O16 0.470917 0.516664 0.523034
#
# Coordination Sequence:
#
# PCOD8046914 Si02
#       8
#     2   2   2   2   2   2   2   2
#     4  12  26  46  76 103 150 183 247 298 361 443
#     4  11  26  46  73 102 142 193 240 303 357 431
#     4  10  23  44  64  97 144 181 233 274 372 415
#     4  11  25  47  76 104 148 190 239 311 357 443
#     4  12  29  46  73 115 149 193 241 299 380 444
#     4  11  27  49  70 106 141 193 248 295 370 419
#     4  11  26  48  73 104 142 193 247 300 359 422
#     4  10  24  42  63 101 138 188 223 292 346 441
#
# _framework density 25.952777999999999
#
# number of rings (size 3 to 8) (size 9 to 14) (size 15 to 20)
#    0.000    1.000    2.500    2.250    7.000    7.000 
#    4.500    0.000    0.000    0.000    0.000    0.000 
#    0.000    0.000    0.000    0.000    0.000    0.000 
#
# Total GULP energy -198308.635643 kJ/mol
# GULP energy per Si atom -12394.289728 kJ/mol
# Density = 2.589371 g / cm^3
# Si number density = 25.952778 Si / 1000 Ang^3
#
#
#
# Elastic Constant Matrix: (Units=GPa)
#
#
# Indices 1 2 3 4 5 6 
#
# 1 94.7753 -2.7784 -2.8851 0.0000 18.9360 0.0000
# 2 -2.7784 66.6323 16.1462 0.0000 9.0900 0.0000
# 3 -2.8851 16.1462 171.6155 0.0000 35.8560 0.0000
# 4 0.0000 0.0000 0.0000 14.7305 0.0000 5.8040
# 5 18.9360 9.0900 35.8560 0.0000 36.7878 0.0000
# 6 0.0000 0.0000 0.0000 5.8040 0.0000 23.1657
#
#
#
# Elastic Compliance Matrix: (Units=1/GPa)
#
#
# Indices 1 2 3 4 5 6 
#
# 1 0.012335 0.001218 0.001861 0.000000 -0.008464 0.000000
# 2 0.001218 0.015746 -0.000649 0.000000 -0.003885 0.000000
# 3 0.001861 -0.000649 0.007642 0.000000 -0.008246 0.000000
# 4 0.000000 0.000000 0.000000 0.075322 0.000000 -0.018871
# 5 -0.008464 -0.003885 -0.008246 0.000000 0.040537 0.000000
# 6 0.000000 0.000000 0.000000 -0.018871 0.000000 0.047895
#
#
# Mechanical properties :
#
#
# Convention : Reuss Voigt Hill
#
# Bulk Modulus (GPa) = 24.64103 39.33205 31.98654
# Shear Modulus (GPa) = 24.02169 36.43948 30.23058
#
# Velocity S-wave (km/s) = 3.04566 3.75116 3.41666
# Velocity P-wave (km/s) = 4.67795 5.82664 5.28360
#
# Compressibility (1/GPa) = 0.04058272
#
# Stress axis : x y z
#
# Youngs Moduli (GPa) = 81.07162 63.50891 130.85100
#
# Poissons Ratio (x) = -0.07735 -0.24354
# Poissons Ratio (y) = -0.09875 0.08496
# Poissons Ratio (z) = -0.15089 0.04124
#
# Static dielectric constant tensor:
#      x y z
#    x 4.788840 0.000000 0.338370 
#    y 0.000000 4.193030 0.000000 
#    z 0.338370 0.000000 5.099960 
# 
# 
# High freq. dielectric constant tensor:
#      x y z
#    x 2.048960 0.000000 0.017520 
#    y 0.000000 2.019430 0.000000 
#    z 0.017520 0.000000 2.052060 
# 
# From -- ./inp_files/13087.got.cif
#   From: 2010.03.12/outbox.cif.g09.slc.cpg/sg4_7_cif.got.tgz:13087.got - 2010.03.31 09:31:35.
