data_PCOD8046281
_publ_section_title
;
Structure prediction by ZEFSAII (Michael W. Deem and Ramdas Pophale) SiO2 
 PCOD8046281
Probable space group: P 21
;
_chemical_formula_sum "Si O2"
_cell_formula_units_Z 16
_cell_length_a 9.552833
_cell_length_b 11.637332
_cell_length_c 9.106995
_cell_angle_alpha 90.000000
_cell_angle_beta 134.763142
_cell_angle_gamma 90.000000
_cell_volume 718.842360
_symmetry_space_group_name_H-M "P 21"
_symmetry_group_IT_number 4
_symmetry_cell_setting 'monoclinic'
loop_
_space_group_symop_operation_xyz
x,y,z
-x,1/2+y,-z
loop_
_atom_site_type_symbol
_atom_site_label
_atom_site_fract_x
_atom_site_fract_y
_atom_site_fract_z
Si Si1 0.796163 0.613100 0.687861
Si Si2 0.379236 0.146143 0.758862
Si Si3 0.153787 0.861182 0.360449
Si Si4 0.487520 0.704514 0.685902
Si Si5 0.729115 0.830650 0.101076
Si Si6 0.155817 0.937875 0.694162
Si Si7 0.770502 0.040670 0.331160
Si Si8 0.818751 0.209296 0.131007
O O1 0.696776 0.642920 0.461393
O O2 0.806936 0.474493 0.708711
O O3 0.672389 0.665651 0.728181
O O4 0.010465 0.674152 0.857687
O O5 0.272963 0.252100 0.757155
O O6 0.324702 0.035112 0.818133
O O7 0.613025 0.161120 0.920278
O O8 0.323382 0.765221 0.459897
O O9 0.149270 0.884036 0.529234
O O10 0.933695 0.816205 0.161278
O O11 0.408710 0.587898 0.703256
O O12 0.552127 0.796437 0.859442
O O13 0.698421 0.958095 0.144562
O O14 0.198941 0.846224 0.854609
O O15 0.936167 0.988139 0.560951
O O16 0.872932 0.149351 0.326122
#
# Coordination Sequence:
#
# PCOD8046281 Si02
#       8
#     2   2   2   2   2   2   2   2
#     4  11  26  43  63  99 145 179 222 286 358 409
#     4  11  23  39  70  98 134 182 231 282 340 407
#     4  10  21  40  66  92 135 178 218 283 346 400
#     4  12  26  44  68 104 136 182 231 282 354 414
#     4  11  23  41  72  98 133 174 236 286 331 404
#     4  10  21  40  68 102 131 172 232 292 332 396
#     4  11  22  41  72 100 133 173 239 285 333 409
#     4  12  22  40  69 101 131 182 235 278 340 417
#
# _framework density 22.258006999999999
#
# number of rings (size 3 to 8) (size 9 to 14) (size 15 to 20)
#    0.000    1.000    6.250    2.250    5.250    3.000 
#    0.000    1.250    0.000    0.000    0.000    0.000 
#    0.000    0.000    0.000    0.000    0.000    0.000 
#
# Total GULP energy -198362.350316 kJ/mol
# GULP energy per Si atom -12397.646895 kJ/mol
# Density = 2.220735 g / cm^3
# Si number density = 22.258007 Si / 1000 Ang^3
#
#
#
# Elastic Constant Matrix: (Units=GPa)
#
#
# Indices 1 2 3 4 5 6 
#
# 1 139.1615 67.8747 28.1322 0.0000 22.4401 0.0000
# 2 67.8747 105.6837 42.0904 0.0000 20.5394 0.0000
# 3 28.1322 42.0904 76.4174 0.0000 29.3158 0.0000
# 4 0.0000 0.0000 0.0000 33.0182 0.0000 10.0864
# 5 22.4401 20.5394 29.3158 0.0000 34.3239 0.0000
# 6 0.0000 0.0000 0.0000 10.0864 0.0000 34.7403
#
#
#
# Elastic Compliance Matrix: (Units=1/GPa)
#
#
# Indices 1 2 3 4 5 6 
#
# 1 0.010856 -0.006668 0.001292 0.000000 -0.004210 0.000000
# 2 -0.006668 0.016341 -0.006644 0.000000 0.000256 0.000000
# 3 0.001292 -0.006644 0.022412 0.000000 -0.016011 0.000000
# 4 0.000000 0.000000 0.000000 0.033234 0.000000 -0.009649
# 5 -0.004210 0.000256 -0.016011 0.000000 0.045409 0.000000
# 6 0.000000 0.000000 0.000000 -0.009649 0.000000 0.031587
#
#
# Mechanical properties :
#
#
# Convention : Reuss Voigt Hill
#
# Bulk Modulus (GPa) = 39.11123 66.38415 52.74769
# Shear Modulus (GPa) = 25.98714 32.62750 29.30732
#
# Velocity S-wave (km/s) = 3.42064 3.83283 3.63259
# Velocity P-wave (km/s) = 5.76289 7.03399 6.42993
#
# Compressibility (1/GPa) = 0.02556810
#
# Stress axis : x y z
#
# Youngs Moduli (GPa) = 92.11339 61.19450 44.61870
#
# Poissons Ratio (x) = 0.40807 -0.05763
# Poissons Ratio (y) = 0.61425 0.29644
# Poissons Ratio (z) = -0.11897 0.40657
#
# Static dielectric constant tensor:
#      x y z
#    x 3.965160 0.000000 0.487960 
#    y 0.000000 4.420740 0.000000 
#    z 0.487960 0.000000 3.929340 
# 
# 
# High freq. dielectric constant tensor:
#      x y z
#    x 1.863030 0.000000 0.039150 
#    y 0.000000 1.886830 0.000000 
#    z 0.039150 0.000000 1.862220 
# 
# From -- ./inp_files/6481.got.cif
#   From: 2010.03.12/outbox.cif.g09.slc.cpg/sg4_4_cif.got.tgz:6481.got - 2010.03.31 09:31:35.
