data_PCOD8046352
_publ_section_title
;
Structure prediction by ZEFSAII (Michael W. Deem and Ramdas Pophale) SiO2 
 PCOD8046352
Probable space group: P 21
;
_chemical_formula_sum "Si O2"
_cell_formula_units_Z 12
_cell_length_a 11.572023
_cell_length_b 9.641570
_cell_length_c 9.374696
_cell_angle_alpha 90.000000
_cell_angle_beta 33.103826
_cell_angle_gamma 90.000000
_cell_volume 571.258217
_symmetry_space_group_name_H-M "P 21"
_symmetry_group_IT_number 4
_symmetry_cell_setting 'monoclinic'
loop_
_space_group_symop_operation_xyz
x,y,z
-x,1/2+y,-z
loop_
_atom_site_type_symbol
_atom_site_label
_atom_site_fract_x
_atom_site_fract_y
_atom_site_fract_z
Si Si1 0.217509 0.371730 0.064262
Si Si2 0.867528 0.155462 0.421848
Si Si3 0.357383 0.654781 0.857158
Si Si4 0.247615 0.955121 0.030150
Si Si5 0.497593 0.661483 0.401679
Si Si6 0.457389 0.530617 0.027250
O O1 0.191125 0.524937 0.019821
O O2 0.355641 0.281288 0.813258
O O3 0.994571 0.297109 0.324532
O O4 0.338038 0.390825 0.092559
O O5 0.743955 0.178442 0.401303
O O6 0.019869 0.023689 0.248183
O O7 0.700608 0.126203 0.718179
O O8 0.500390 0.668871 0.569179
O O9 0.222961 0.792486 0.027643
O O10 0.517246 0.622501 0.824947
O O11 0.411860 0.013436 0.743113
O O12 0.335860 0.989491 0.097476
#
# Coordination Sequence:
#
# PCOD8046352 Si02
#       6
#     2   2   2   2   2   2
#     4   9  22  38  63  87 120 159 199 246 298 353
#     4  10  22  39  61  87 125 157 198 250 297 355
#     4  10  22  38  64  89 120 163 202 243 308 351
#     4  10  22  40  64  89 120 159 205 247 298 358
#     4  10  21  42  60  88 126 160 197 249 296 362
#     4   9  23  37  62  86 119 156 201 247 297 349
#
# _framework density 21.006264000000002
#
# number of rings (size 3 to 8) (size 9 to 14) (size 15 to 20)
#    1.000    1.333    0.000    1.000    9.333    1.333 
#    0.000    8.333    0.000    0.000    0.000    0.000 
#    0.000    0.000    0.000    0.000    0.000    0.000 
#
# Total GULP energy -148717.363355 kJ/mol
# GULP energy per Si atom -12393.113613 kJ/mol
# Density = 2.095845 g / cm^3
# Si number density = 21.006264 Si / 1000 Ang^3
#
#
#
# Elastic Constant Matrix: (Units=GPa)
#
#
# Indices 1 2 3 4 5 6 
#
# 1 96.1043 29.7672 58.7018 0.0000 15.7199 0.0000
# 2 29.7672 149.4767 30.2742 0.0000 1.9813 0.0000
# 3 58.7018 30.2742 68.7650 0.0000 12.7359 0.0000
# 4 0.0000 0.0000 0.0000 22.6673 0.0000 8.4083
# 5 15.7199 1.9813 12.7359 0.0000 38.9397 0.0000
# 6 0.0000 0.0000 0.0000 8.4083 0.0000 17.7399
#
#
#
# Elastic Compliance Matrix: (Units=1/GPa)
#
#
# Indices 1 2 3 4 5 6 
#
# 1 0.022120 -0.000717 -0.018011 0.000000 -0.003003 0.000000
# 2 -0.000717 0.007388 -0.002793 0.000000 0.000827 0.000000
# 3 -0.018011 -0.002793 0.031694 0.000000 -0.002953 0.000000
# 4 0.000000 0.000000 0.000000 0.053528 0.000000 -0.025371
# 5 -0.003003 0.000827 -0.002953 0.000000 0.027817 0.000000
# 6 0.000000 0.000000 0.000000 -0.025371 0.000000 0.068395
#
#
# Mechanical properties :
#
#
# Convention : Reuss Voigt Hill
#
# Bulk Modulus (GPa) = 55.07058 61.31473 58.19266
# Shear Modulus (GPa) = 19.22796 28.90957 24.06876
#
# Velocity S-wave (km/s) = 3.02875 3.71379 3.38862
# Velocity P-wave (km/s) = 6.20518 6.90230 6.56300
#
# Compressibility (1/GPa) = 0.01815851
#
# Stress axis : x y z
#
# Youngs Moduli (GPa) = 45.20772 135.36122 31.55143
#
# Poissons Ratio (x) = 0.09711 0.56828
# Poissons Ratio (y) = 0.03243 0.08813
# Poissons Ratio (z) = 0.81424 0.37810
#
# Static dielectric constant tensor:
#      x y z
#    x 3.784090 0.000000 0.130400 
#    y 0.000000 3.910410 0.000000 
#    z 0.130400 0.000000 3.503780 
# 
# 
# High freq. dielectric constant tensor:
#      x y z
#    x 1.809960 0.000000 0.016970 
#    y 0.000000 1.834650 0.000000 
#    z 0.016970 0.000000 1.802700 
# 
# From -- ./inp_files/8105.got.cif
#   From: 2010.03.12/outbox.cif.g09.slc.cpg/sg4_5_cif.got.tgz:8105.got - 2010.03.31 09:31:35.
