data_PCOD8046245
_publ_section_title
;
Structure prediction by ZEFSAII (Michael W. Deem and Ramdas Pophale) SiO2 
 PCOD8046245
Probable space group: P 21
;
_chemical_formula_sum "Si O2"
_cell_formula_units_Z 14
_cell_length_a 11.985283
_cell_length_b 13.533641
_cell_length_c 7.361440
_cell_angle_alpha 90.000000
_cell_angle_beta 144.616107
_cell_angle_gamma 90.000000
_cell_volume 691.422150
_symmetry_space_group_name_H-M "P 21"
_symmetry_group_IT_number 4
_symmetry_cell_setting 'monoclinic'
loop_
_space_group_symop_operation_xyz
x,y,z
-x,1/2+y,-z
loop_
_atom_site_type_symbol
_atom_site_label
_atom_site_fract_x
_atom_site_fract_y
_atom_site_fract_z
Si Si1 0.365499 0.472290 0.845051
Si Si2 0.712087 0.367107 0.131351
Si Si3 0.523064 0.677902 0.155099
Si Si4 0.850655 0.325061 0.701402
Si Si5 0.813855 0.680303 0.862637
Si Si6 0.948609 0.469661 0.135609
Si Si7 0.418971 0.283081 0.134602
O O1 0.171118 0.487302 0.474986
O O2 0.534826 0.442087 0.930049
O O3 0.417414 0.572984 0.016497
O O4 0.336441 0.388261 0.958652
O O5 0.845245 0.360451 0.486128
O O6 0.845535 0.401520 0.146301
O O7 0.628440 0.258967 0.973947
O O8 0.706747 0.673682 0.528915
O O9 0.596288 0.704640 0.050116
O O10 0.638927 0.296040 0.490220
O O11 0.938391 0.416041 0.928958
O O12 0.978844 0.227858 0.897903
O O13 0.699339 0.748576 0.850275
O O14 0.837655 0.572833 0.980257
#
# Coordination Sequence:
#
# PCOD8046245 Si02
#       7
#     2   2   2   2   2   2   2
#     4  10  21  40  60  85 122 156 190 241 293 341
#     4  10  22  41  61  84 121 155 191 242 293 344
#     4  10  21  40  60  85 122 156 190 241 293 341
#     4  10  22  40  60  90 118 148 198 244 284 344
#     4  12  23  38  63  88 115 155 198 238 289 348
#     4  12  23  38  63  88 115 155 198 238 289 348
#     4  10  22  41  61  84 121 155 191 242 293 344
#
# _framework density 20.248121999999999
#
# number of rings (size 3 to 8) (size 9 to 14) (size 15 to 20)
#    0.000    1.714    0.000    7.714    0.000    0.000 
#    0.000   14.286    0.000    0.000    0.000    0.000 
#    0.000    0.000    0.000    0.000    0.000    0.000 
#
# Total GULP energy -173663.375267 kJ/mol
# GULP energy per Si atom -12404.526805 kJ/mol
# Density = 2.020204 g / cm^3
# Si number density = 20.248122 Si / 1000 Ang^3
#
#
#
# Elastic Constant Matrix: (Units=GPa)
#
#
# Indices 1 2 3 4 5 6 
#
# 1 31.1687 27.1091 36.2939 0.0000 -1.4048 0.0000
# 2 27.1091 114.1963 18.3391 0.0000 -5.5688 0.0000
# 3 36.2939 18.3391 111.2985 0.0000 -9.6429 0.0000
# 4 0.0000 0.0000 0.0000 36.0259 0.0000 -0.5090
# 5 -1.4048 -5.5688 -9.6429 0.0000 18.5776 0.0000
# 6 0.0000 0.0000 0.0000 -0.5090 0.0000 24.0453
#
#
#
# Elastic Compliance Matrix: (Units=1/GPa)
#
#
# Indices 1 2 3 4 5 6 
#
# 1 0.066827 -0.013040 -0.020465 0.000000 -0.009478 0.000000
# 2 -0.013040 0.011612 0.002675 0.000000 0.003883 0.000000
# 3 -0.020465 0.002675 0.015866 0.000000 0.007490 0.000000
# 4 0.000000 0.000000 0.000000 0.027766 0.000000 0.000588
# 5 -0.009478 0.003883 0.007490 0.000000 0.058164 0.000000
# 6 0.000000 0.000000 0.000000 0.000588 0.000000 0.041601
#
#
# Mechanical properties :
#
#
# Convention : Reuss Voigt Hill
#
# Bulk Modulus (GPa) = 30.63014 46.68307 38.65660
# Shear Modulus (GPa) = 16.98501 27.39118 22.18809
#
# Velocity S-wave (km/s) = 2.89942 3.68200 3.31389
# Velocity P-wave (km/s) = 5.13509 6.41730 5.81166
#
# Compressibility (1/GPa) = 0.03264758
#
# Stress axis : x y z
#
# Youngs Moduli (GPa) = 14.96391 86.11676 63.02642
#
# Poissons Ratio (x) = 1.12296 1.28981
# Poissons Ratio (y) = 0.19513 -0.16862
# Poissons Ratio (z) = 0.30623 -0.23039
#
# Static dielectric constant tensor:
#      x y z
#    x 3.361800 0.000000 -0.022340 
#    y 0.000000 3.765350 0.000000 
#    z -0.022340 0.000000 3.866880 
# 
# 
# High freq. dielectric constant tensor:
#      x y z
#    x 1.774340 0.000000 -0.001650 
#    y 0.000000 1.801830 0.000000 
#    z -0.001650 0.000000 1.810430 
# 
# From -- ./inp_files/9308.got.cif
#   From: 2010.03.12/outbox.cif.g09.slc.cpg/sg4_5_cif.got.tgz:9308.got - 2010.03.31 09:31:35.
