data_PCOD8046661
_publ_section_title
;
Structure prediction by ZEFSAII (Michael W. Deem and Ramdas Pophale) SiO2 
 PCOD8046661
Probable space group: P 21
;
_chemical_formula_sum "Si O2"
_cell_formula_units_Z 14
_cell_length_a 5.047863
_cell_length_b 13.424501
_cell_length_c 8.963040
_cell_angle_alpha 90.000000
_cell_angle_beta 58.860969
_cell_angle_gamma 90.000000
_cell_volume 519.866329
_symmetry_space_group_name_H-M "P 21"
_symmetry_group_IT_number 4
_symmetry_cell_setting 'monoclinic'
loop_
_space_group_symop_operation_xyz
x,y,z
-x,1/2+y,-z
loop_
_atom_site_type_symbol
_atom_site_label
_atom_site_fract_x
_atom_site_fract_y
_atom_site_fract_z
Si Si1 0.053850 0.354390 0.521559
Si Si2 0.651514 0.012196 0.380768
Si Si3 0.587043 0.386983 0.904406
Si Si4 0.169261 0.139664 0.389874
Si Si5 0.947419 0.391408 0.217391
Si Si6 0.092897 0.038547 0.006160
Si Si7 0.254147 0.730511 0.910982
O O1 0.345911 0.410329 0.520576
O O2 0.072914 0.235625 0.515817
O O3 0.042784 0.399639 0.359700
O O4 0.732210 0.388476 0.695451
O O5 0.308991 0.058508 0.466184
O O6 0.780655 0.991053 0.175318
O O7 0.875346 0.095128 0.390423
O O8 0.632182 0.497570 0.966890
O O9 0.231949 0.358773 0.025640
O O10 0.780296 0.300924 0.935477
O O11 0.423496 0.169430 0.189948
O O12 0.715287 0.300187 0.247896
O O13 0.841006 0.497911 0.181093
O O14 0.045350 0.157273 0.008565
#
# Coordination Sequence:
#
# PCOD8046661 Si02
#       7
#     2   2   2   2   2   2   2
#     4  11  24  45  74 104 147 185 236 304 347 427
#     4  10  25  43  73 107 142 191 239 291 361 416
#     4  10  23  42  65 103 132 186 235 285 357 415
#     4  11  23  46  72 107 143 191 237 295 357 417
#     4  11  23  45  69 103 138 188 234 288 362 411
#     4   9  22  40  66  98 135 185 228 290 341 423
#     4  10  22  43  69  96 143 184 235 291 353 419
#
# _framework density 26.930002999999999
#
# number of rings (size 3 to 8) (size 9 to 14) (size 15 to 20)
#    0.000    1.714    1.429    1.714    8.000    3.429 
#   12.857    0.000    0.000    0.000    0.000    0.000 
#    0.000    0.000    0.000    0.000    0.000    0.000 
#
# Total GULP energy -173511.160653 kJ/mol
# GULP energy per Si atom -12393.654332 kJ/mol
# Density = 2.686871 g / cm^3
# Si number density = 26.930003 Si / 1000 Ang^3
#
#
#
# Elastic Constant Matrix: (Units=GPa)
#
#
# Indices 1 2 3 4 5 6 
#
# 1 47.5817 1.6716 20.8919 0.0000 10.2326 0.0000
# 2 1.6716 125.7578 26.9915 0.0000 6.1437 0.0000
# 3 20.8919 26.9915 91.2438 0.0000 31.7298 0.0000
# 4 0.0000 0.0000 0.0000 41.7953 0.0000 -1.2885
# 5 10.2326 6.1437 31.7298 0.0000 31.3883 0.0000
# 6 0.0000 0.0000 0.0000 -1.2885 0.0000 39.9019
#
#
#
# Elastic Compliance Matrix: (Units=1/GPa)
#
#
# Indices 1 2 3 4 5 6 
#
# 1 0.023682 0.000815 -0.004508 0.000000 -0.003323 0.000000
# 2 0.000815 0.008556 -0.003150 0.000000 0.001244 0.000000
# 3 -0.004508 -0.003150 0.018811 0.000000 -0.016929 0.000000
# 4 0.000000 0.000000 0.000000 0.023950 0.000000 0.000773
# 5 -0.003323 0.001244 -0.016929 0.000000 0.049812 0.000000
# 6 0.000000 0.000000 0.000000 0.000773 0.000000 0.025086
#
#
# Mechanical properties :
#
#
# Convention : Reuss Voigt Hill
#
# Bulk Modulus (GPa) = 26.76485 40.41035 33.58760
# Shear Modulus (GPa) = 28.40288 36.95232 32.67760
#
# Velocity S-wave (km/s) = 3.25113 3.70829 3.48721
# Velocity P-wave (km/s) = 4.90442 5.77698 5.35849
#
# Compressibility (1/GPa) = 0.03736244
#
# Stress axis : x y z
#
# Youngs Moduli (GPa) = 42.22655 116.87225 53.16059
#
# Poissons Ratio (x) = -0.09526 0.23965
# Poissons Ratio (y) = -0.03442 0.16748
# Poissons Ratio (z) = 0.19036 0.36820
#
# Static dielectric constant tensor:
#      x y z
#    x 4.846000 0.000000 0.020830 
#    y 0.000000 5.175470 0.000000 
#    z 0.020830 0.000000 4.746070 
# 
# 
# High freq. dielectric constant tensor:
#      x y z
#    x 2.087030 0.000000 0.008570 
#    y 0.000000 2.097300 0.000000 
#    z 0.008570 0.000000 2.063490 
# 
# From -- ./inp_files/1867.got.cif
#   From: 2010.03.12/outbox.cif.g09.slc.cpg/sg4_1_cif.got.tgz:1867.got - 2010.03.31 09:31:35.
