data_PCOD8046798
_publ_section_title
;
Structure prediction by ZEFSAII (Michael W. Deem and Ramdas Pophale) SiO2 
 PCOD8046798
Probable space group: P 21
;
_chemical_formula_sum "Si O2"
_cell_formula_units_Z 14
_cell_length_a 10.805541
_cell_length_b 12.033779
_cell_length_c 4.943612
_cell_angle_alpha 90.000000
_cell_angle_beta 111.866142
_cell_angle_gamma 90.000000
_cell_volume 596.578150
_symmetry_space_group_name_H-M "P 21"
_symmetry_group_IT_number 4
_symmetry_cell_setting 'monoclinic'
loop_
_space_group_symop_operation_xyz
x,y,z
-x,1/2+y,-z
loop_
_atom_site_type_symbol
_atom_site_label
_atom_site_fract_x
_atom_site_fract_y
_atom_site_fract_z
Si Si1 0.312450 0.001990 0.590595
Si Si2 0.684749 0.756634 0.402982
Si Si3 0.085015 0.652665 0.234587
Si Si4 0.861160 0.477317 0.046455
Si Si5 0.195060 0.548310 0.826206
Si Si6 0.036720 0.341722 0.555385
Si Si7 0.586429 0.886886 0.836593
O O1 0.349013 0.129699 0.550249
O O2 0.265574 0.993794 0.860810
O O3 0.436515 0.920469 0.644977
O O4 0.194666 0.957298 0.300175
O O5 0.840231 0.767799 0.450389
O O6 0.658100 0.835432 0.635560
O O7 0.590804 0.796626 0.080561
O O8 0.193054 0.595213 0.521585
O O9 0.944326 0.590499 0.122840
O O10 0.056296 0.776893 0.308173
O O11 0.151520 0.647539 0.992463
O O12 0.951464 0.374559 0.220992
O O13 0.086841 0.448922 0.763628
O O14 0.339855 0.500203 0.010786
#
# Coordination Sequence:
#
# PCOD8046798 Si02
#       7
#     2   2   2   2   2   2   2
#     4  12  25  45  69  98 137 174 227 278 328 400
#     4  11  24  45  74  95 127 190 222 265 349 403
#     4  11  22  40  67  96 134 168 216 274 339 399
#     4  11  23  41  65 103 131 168 220 280 330 396
#     4  10  23  40  63  98 125 175 224 271 328 400
#     4  10  23  43  70  98 139 174 221 279 346 409
#     4  11  24  46  68  94 133 179 230 273 320 403
#
# _framework density 23.467168999999998
#
# number of rings (size 3 to 8) (size 9 to 14) (size 15 to 20)
#    0.000    1.143    1.429    6.000    2.000    4.571 
#    7.714    0.000    0.000    0.000    0.000    0.000 
#    0.000    0.000    0.000    0.000    0.000    0.000 
#
# Total GULP energy -173677.406590 kJ/mol
# GULP energy per Si atom -12405.529042 kJ/mol
# Density = 2.341376 g / cm^3
# Si number density = 23.467169 Si / 1000 Ang^3
#
#
#
# Elastic Constant Matrix: (Units=GPa)
#
#
# Indices 1 2 3 4 5 6 
#
# 1 45.5930 4.6621 18.7843 0.0000 5.7566 0.0000
# 2 4.6621 69.9503 26.7704 0.0000 15.2526 0.0000
# 3 18.7843 26.7704 123.5592 0.0000 4.9865 0.0000
# 4 0.0000 0.0000 0.0000 26.2923 0.0000 -7.9737
# 5 5.7566 15.2526 4.9865 0.0000 40.7964 0.0000
# 6 0.0000 0.0000 0.0000 -7.9737 0.0000 33.7275
#
#
#
# Elastic Compliance Matrix: (Units=1/GPa)
#
#
# Indices 1 2 3 4 5 6 
#
# 1 0.023753 0.000462 -0.003587 0.000000 -0.003086 0.000000
# 2 0.000462 0.016900 -0.003492 0.000000 -0.005957 0.000000
# 3 -0.003587 -0.003492 0.009368 0.000000 0.000666 0.000000
# 4 0.000000 0.000000 0.000000 0.040971 0.000000 0.009686
# 5 -0.003086 -0.005957 0.000666 0.000000 0.027093 0.000000
# 6 0.000000 0.000000 0.000000 0.009686 0.000000 0.031939
#
#
# Mechanical properties :
#
#
# Convention : Reuss Voigt Hill
#
# Bulk Modulus (GPa) = 27.18128 37.72624 32.45376
# Shear Modulus (GPa) = 28.48668 32.75563 30.62116
#
# Velocity S-wave (km/s) = 3.48788 3.74010 3.61619
# Velocity P-wave (km/s) = 5.27525 5.89595 5.59421
#
# Compressibility (1/GPa) = 0.03679003
#
# Stress axis : x y z
#
# Youngs Moduli (GPa) = 42.09938 59.17100 106.74468
#
# Poissons Ratio (x) = -0.02737 0.38287
# Poissons Ratio (y) = -0.01947 0.37270
# Poissons Ratio (z) = 0.15100 0.20660
#
# Static dielectric constant tensor:
#      x y z
#    x 3.868220 0.000000 -0.048000 
#    y 0.000000 4.075720 0.000000 
#    z -0.048000 0.000000 4.395310 
# 
# 
# High freq. dielectric constant tensor:
#      x y z
#    x 1.910540 0.000000 -0.009440 
#    y 0.000000 1.926740 0.000000 
#    z -0.009440 0.000000 1.943060 
# 
# From -- ./inp_files/3100.got.cif
#   From: 2010.03.12/outbox.cif.g09.slc.cpg/sg4_2_cif.got.tgz:3100.got - 2010.03.31 09:31:35.
