data_PCOD8046483
_publ_section_title
;
Structure prediction by ZEFSAII (Michael W. Deem and Ramdas Pophale) SiO2 
 PCOD8046483
Probable space group: P 21
;
_chemical_formula_sum "Si O2"
_cell_formula_units_Z 16
_cell_length_a 16.035606
_cell_length_b 8.982261
_cell_length_c 5.194053
_cell_angle_alpha 90.000000
_cell_angle_beta 62.532004
_cell_angle_gamma 90.000000
_cell_volume 663.792811
_symmetry_space_group_name_H-M "P 21"
_symmetry_group_IT_number 4
_symmetry_cell_setting 'monoclinic'
loop_
_space_group_symop_operation_xyz
x,y,z
-x,1/2+y,-z
loop_
_atom_site_type_symbol
_atom_site_label
_atom_site_fract_x
_atom_site_fract_y
_atom_site_fract_z
Si Si1 0.949468 0.334640 0.796979
Si Si2 0.141820 0.327471 0.229982
Si Si3 0.326273 0.473484 0.048392
Si Si4 0.320178 0.987018 0.483908
Si Si5 0.402204 0.314642 0.433839
Si Si6 0.967028 0.029957 0.936794
Si Si7 0.380045 0.812986 0.897549
Si Si8 0.149523 0.021685 0.389412
O O1 0.923171 0.195960 0.023057
O O2 0.854491 0.365599 0.764823
O O3 0.048453 0.302420 0.523843
O O4 0.968056 0.489512 0.917622
O O5 0.113321 0.402857 0.996518
O O6 0.186980 0.160540 0.158744
O O7 0.216288 0.438315 0.260786
O O8 0.352125 0.387224 0.750151
O O9 0.339644 0.648281 0.991539
O O10 0.386726 0.415587 0.203193
O O11 0.325760 0.898937 0.745283
O O12 0.210767 0.003557 0.559517
O O13 0.365295 0.148820 0.444038
O O14 0.371337 0.901072 0.177835
O O15 0.511982 0.305115 0.338607
O O16 0.037544 0.038216 0.595221
#
# Coordination Sequence:
#
# PCOD8046483 Si02
#       8
#     2   2   2   2   2   2   2   2
#     4  10  22  41  67  97 141 183 236 292 355 421
#     4  10  23  43  63 101 134 187 236 290 349 431
#     4  12  27  46  77 107 146 192 240 307 364 445
#     4  12  27  46  78 106 146 192 243 305 364 447
#     4  12  25  49  76 104 143 195 241 300 377 441
#     4  10  22  38  69  93 141 183 230 295 348 422
#     4  12  27  48  71 111 146 184 243 311 372 437
#     4  10  23  43  63  99 135 186 239 286 353 428
#
# _framework density 24.103908000000001
#
# number of rings (size 3 to 8) (size 9 to 14) (size 15 to 20)
#    0.000    1.000    1.250    4.500    5.250    1.000 
#    0.000    0.000    0.000    0.000    0.000    0.000 
#    0.000    0.000    0.000    0.000    0.000    0.000 
#
# Total GULP energy -198230.038565 kJ/mol
# GULP energy per Si atom -12389.377410 kJ/mol
# Density = 2.404905 g / cm^3
# Si number density = 24.103908 Si / 1000 Ang^3
#
#
#
# Elastic Constant Matrix: (Units=GPa)
#
#
# Indices 1 2 3 4 5 6 
#
# 1 123.7139 51.1141 3.5684 0.0000 15.8464 0.0000
# 2 51.1141 169.1341 33.0407 0.0000 25.3161 0.0000
# 3 3.5684 33.0407 62.0556 0.0000 25.9029 0.0000
# 4 0.0000 0.0000 0.0000 34.4213 0.0000 8.5287
# 5 15.8464 25.3161 25.9029 0.0000 34.7215 0.0000
# 6 0.0000 0.0000 0.0000 8.5287 0.0000 38.9044
#
#
#
# Elastic Compliance Matrix: (Units=1/GPa)
#
#
# Indices 1 2 3 4 5 6 
#
# 1 0.009743 -0.002823 0.002817 0.000000 -0.004490 0.000000
# 2 -0.002823 0.007668 -0.003085 0.000000 -0.002001 0.000000
# 3 0.002817 -0.003085 0.024968 0.000000 -0.017663 0.000000
# 4 0.000000 0.000000 0.000000 0.030720 0.000000 -0.006735
# 5 -0.004490 -0.002001 -0.017663 0.000000 0.045485 0.000000
# 6 0.000000 0.000000 0.000000 -0.006735 0.000000 0.027180
#
#
# Mechanical properties :
#
#
# Convention : Reuss Voigt Hill
#
# Bulk Modulus (GPa) = 27.62659 58.92777 43.27718
# Shear Modulus (GPa) = 30.48546 39.42147 34.95347
#
# Velocity S-wave (km/s) = 3.56019 4.04849 3.81217
# Velocity P-wave (km/s) = 5.32788 6.80839 6.11312
#
# Compressibility (1/GPa) = 0.03619702
#
# Stress axis : x y z
#
# Youngs Moduli (GPa) = 102.63474 130.41734 40.05151
#
# Poissons Ratio (x) = 0.36813 -0.11282
# Poissons Ratio (y) = 0.28971 0.12356
# Poissons Ratio (z) = -0.28911 0.40234
#
# Static dielectric constant tensor:
#      x y z
#    x 4.507530 0.000000 0.041610 
#    y 0.000000 4.822490 0.000000 
#    z 0.041610 0.000000 4.205130 
# 
# 
# High freq. dielectric constant tensor:
#      x y z
#    x 1.968470 0.000000 0.006220 
#    y 0.000000 1.978570 0.000000 
#    z 0.006220 0.000000 1.941130 
# 
# From -- ./inp_files/3551.got.cif
#   From: 2010.03.12/outbox.cif.g09.slc.cpg/sg4_2_cif.got.tgz:3551.got - 2010.03.31 09:31:35.
