data_PCOD8046066
_publ_section_title
;
Structure prediction by ZEFSAII (Michael W. Deem and Ramdas Pophale) SiO2 
 PCOD8046066
Probable space group: P 21
;
_chemical_formula_sum "Si O2"
_cell_formula_units_Z 16
_cell_length_a 8.731223
_cell_length_b 11.096655
_cell_length_c 11.345810
_cell_angle_alpha 90.000000
_cell_angle_beta 138.598506
_cell_angle_gamma 90.000000
_cell_volume 726.978941
_symmetry_space_group_name_H-M "P 21"
_symmetry_group_IT_number 4
_symmetry_cell_setting 'monoclinic'
loop_
_space_group_symop_operation_xyz
x,y,z
-x,1/2+y,-z
loop_
_atom_site_type_symbol
_atom_site_label
_atom_site_fract_x
_atom_site_fract_y
_atom_site_fract_z
Si Si1 0.289573 0.049720 0.153960
Si Si2 0.915868 0.836219 0.609183
Si Si3 0.811264 0.332549 0.472484
Si Si4 0.739521 0.088772 0.550929
Si Si5 0.918855 0.436163 0.763202
Si Si6 0.282358 0.310591 0.105298
Si Si7 0.408384 0.732175 0.321300
Si Si8 0.124966 0.809851 0.960001
O O1 0.552861 0.050807 0.347010
O O2 0.246736 0.169723 0.052719
O O3 0.126415 0.053493 0.180224
O O4 0.256103 0.937833 0.048040
O O5 0.678671 0.761577 0.465622
O O6 0.024977 0.838174 0.544200
O O7 0.091785 0.771731 0.803974
O O8 0.903316 0.972597 0.653262
O O9 0.865114 0.209027 0.574342
O O10 0.877909 0.444946 0.598721
O O11 0.545180 0.347266 0.281703
O O12 0.628655 0.116279 0.615862
O O13 0.720622 0.347216 0.699046
O O14 0.178789 0.386947 0.936914
O O15 0.132714 0.331789 0.136745
O O16 0.282928 0.710577 0.121361
#
# Coordination Sequence:
#
# PCOD8046066 Si02
#       8
#     2   2   2   2   2   2   2   2
#     4   9  17  34  63  87 109 150 211 246 294 348
#     4  12  22  39  62  90 129 160 197 248 307 368
#     4  10  23  38  56  88 127 163 196 234 309 372
#     4  10  20  41  65  84 120 166 200 252 302 352
#     4   9  18  37  60  85 118 154 198 258 292 342
#     4   9  19  37  58  85 115 157 195 254 296 350
#     4   9  20  40  60  93 110 151 212 258 289 348
#     4  10  21  34  62  90 114 149 207 258 293 342
#
# _framework density 22.008889
#
# number of rings (size 3 to 8) (size 9 to 14) (size 15 to 20)
#    0.000    2.500    2.500    2.250    5.250    1.000 
#    4.500    0.000    0.000    0.000    0.000    0.000 
#    0.000    0.000    0.000    0.000    0.000    0.000 
#
# Total GULP energy -198246.830482 kJ/mol
# GULP energy per Si atom -12390.426905 kJ/mol
# Density = 2.195880 g / cm^3
# Si number density = 22.008889 Si / 1000 Ang^3
#
#
#
# Elastic Constant Matrix: (Units=GPa)
#
#
# Indices 1 2 3 4 5 6 
#
# 1 90.6896 14.1694 60.9478 0.0000 -17.1338 0.0000
# 2 14.1694 30.3558 13.3331 0.0000 7.9319 0.0000
# 3 60.9478 13.3331 131.2050 0.0000 -7.0497 0.0000
# 4 0.0000 0.0000 0.0000 14.8382 0.0000 -0.3273
# 5 -17.1338 7.9319 -7.0497 0.0000 24.4678 0.0000
# 6 0.0000 0.0000 0.0000 -0.3273 0.0000 21.3815
#
#
#
# Elastic Compliance Matrix: (Units=1/GPa)
#
#
# Indices 1 2 3 4 5 6 
#
# 1 0.020865 -0.010435 -0.007786 0.000000 0.015751 0.000000
# 2 -0.010435 0.043835 -0.000775 0.000000 -0.021741 0.000000
# 3 -0.007786 -0.000775 0.011211 0.000000 -0.001970 0.000000
# 4 0.000000 0.000000 0.000000 0.067416 0.000000 0.001032
# 5 0.015751 -0.021741 -0.001970 0.000000 0.058380 0.000000
# 6 0.000000 0.000000 0.000000 0.001032 0.000000 0.046785
#
#
# Mechanical properties :
#
#
# Convention : Reuss Voigt Hill
#
# Bulk Modulus (GPa) = 26.37201 47.68344 37.02772
# Shear Modulus (GPa) = 16.71541 23.05749 19.88645
#
# Velocity S-wave (km/s) = 2.75886 3.24024 3.00920
# Velocity P-wave (km/s) = 4.70711 5.97591 5.37905
#
# Compressibility (1/GPa) = 0.03791900
#
# Stress axis : x y z
#
# Youngs Moduli (GPa) = 47.92689 22.81275 89.19691
#
# Poissons Ratio (x) = 0.23806 0.69445
# Poissons Ratio (y) = 0.50013 0.06915
# Poissons Ratio (z) = 0.37314 0.01769
#
# Static dielectric constant tensor:
#      x y z
#    x 3.585070 0.000000 -0.197160 
#    y 0.000000 4.158780 0.000000 
#    z -0.197160 0.000000 4.402330 
# 
# 
# High freq. dielectric constant tensor:
#      x y z
#    x 1.814640 0.000000 -0.004780 
#    y 0.000000 1.851010 0.000000 
#    z -0.004780 0.000000 1.886130 
# 
# From -- ./inp_files/8320.got.cif
#   From: 2010.03.12/outbox.cif.g09.slc.cpg/sg4_5_cif.got.tgz:8320.got - 2010.03.31 09:31:35.
