data_PCOD8046842
_publ_section_title
;
Structure prediction by ZEFSAII (Michael W. Deem and Ramdas Pophale) SiO2 
 PCOD8046842
Probable space group: P 21
;
_chemical_formula_sum "Si O2"
_cell_formula_units_Z 14
_cell_length_a 10.430788
_cell_length_b 8.749775
_cell_length_c 7.775786
_cell_angle_alpha 90.000000
_cell_angle_beta 133.175647
_cell_angle_gamma 90.000000
_cell_volume 517.535818
_symmetry_space_group_name_H-M "P 21"
_symmetry_group_IT_number 4
_symmetry_cell_setting 'monoclinic'
loop_
_space_group_symop_operation_xyz
x,y,z
-x,1/2+y,-z
loop_
_atom_site_type_symbol
_atom_site_label
_atom_site_fract_x
_atom_site_fract_y
_atom_site_fract_z
Si Si1 0.375531 0.362760 0.967425
Si Si2 0.829403 0.460915 0.685535
Si Si3 0.303177 0.675708 0.811823
Si Si4 0.092072 0.166465 0.564579
Si Si5 0.473433 0.277095 0.412181
Si Si6 0.957282 0.655522 0.097194
Si Si7 0.689116 0.019210 0.547258
O O1 0.360606 0.543183 0.998272
O O2 0.226999 0.310165 0.691943
O O3 0.566447 0.319713 0.062881
O O4 0.343376 0.278569 0.123589
O O5 0.856706 0.536741 0.523790
O O6 0.646419 0.371917 0.510813
O O7 0.985460 0.334780 0.856537
O O8 0.822101 0.596887 0.824094
O O9 0.327165 0.579015 0.659714
O O10 0.103753 0.731562 0.657616
O O11 0.099512 0.099240 0.764783
O O12 0.539998 0.109579 0.522688
O O13 0.368591 0.343228 0.480042
O O14 0.123245 0.549967 0.198303
#
# Coordination Sequence:
#
# PCOD8046842 Si02
#       7
#     2   2   2   2   2   2   2
#     4  11  24  44  72 103 143 187 239 304 364 434
#     4  11  25  46  71 108 146 188 246 301 368 439
#     4  10  24  44  68 106 138 186 241 296 365 433
#     4  11  25  46  72 103 148 192 244 298 357 441
#     4  10  23  42  67 100 140 184 234 300 360 435
#     4  10  25  44  71 105 142 188 242 299 366 434
#     4   9  22  42  61  97 139 175 236 292 352 432
#
# _framework density 27.051268
#
# number of rings (size 3 to 8) (size 9 to 14) (size 15 to 20)
#    0.000    1.714    0.000    2.571    8.000    6.857 
#    2.571    0.000    0.000    0.000    0.000    0.000 
#    0.000    0.000    0.000    0.000    0.000    0.000 
#
# Total GULP energy -173509.976220 kJ/mol
# GULP energy per Si atom -12393.569730 kJ/mol
# Density = 2.698970 g / cm^3
# Si number density = 27.051268 Si / 1000 Ang^3
#
#
#
# Elastic Constant Matrix: (Units=GPa)
#
#
# Indices 1 2 3 4 5 6 
#
# 1 44.9143 9.9861 15.4542 0.0000 -5.7361 0.0000
# 2 9.9861 57.6494 21.9677 0.0000 -18.9279 0.0000
# 3 15.4542 21.9677 108.5738 0.0000 7.4612 0.0000
# 4 0.0000 0.0000 0.0000 45.2628 0.0000 0.8250
# 5 -5.7361 -18.9279 7.4612 0.0000 43.7502 0.0000
# 6 0.0000 0.0000 0.0000 0.8250 0.0000 39.7534
#
#
#
# Elastic Compliance Matrix: (Units=1/GPa)
#
#
# Indices 1 2 3 4 5 6 
#
# 1 0.024189 -0.002025 -0.003229 0.000000 0.002846 0.000000
# 2 -0.002025 0.023135 -0.005122 0.000000 0.010617 0.000000
# 3 -0.003229 -0.005122 0.011017 0.000000 -0.004518 0.000000
# 4 0.000000 0.000000 0.000000 0.022102 0.000000 -0.000459
# 5 0.002846 0.010617 -0.004518 0.000000 0.028594 0.000000
# 6 0.000000 0.000000 0.000000 -0.000459 0.000000 0.025165
#
#
# Mechanical properties :
#
#
# Convention : Reuss Voigt Hill
#
# Bulk Modulus (GPa) = 26.60413 33.99484 30.29949
# Shear Modulus (GPa) = 29.85375 36.66855 33.26115
#
# Velocity S-wave (km/s) = 3.32565 3.68573 3.51031
# Velocity P-wave (km/s) = 4.96011 5.54138 5.25878
#
# Compressibility (1/GPa) = 0.03758814
#
# Stress axis : x y z
#
# Youngs Moduli (GPa) = 41.34044 43.22504 90.77075
#
# Poissons Ratio (x) = 0.08755 0.29309
# Poissons Ratio (y) = 0.08373 0.46494
# Poissons Ratio (z) = 0.13348 0.22141
#
# Static dielectric constant tensor:
#      x y z
#    x 5.012940 0.000000 0.337840 
#    y 0.000000 5.045590 0.000000 
#    z 0.337840 0.000000 4.981630 
# 
# 
# High freq. dielectric constant tensor:
#      x y z
#    x 2.094540 0.000000 0.020900 
#    y 0.000000 2.086900 0.000000 
#    z 0.020900 0.000000 2.091670 
# 
# From -- ./inp_files/7595.got.cif
#   From: 2010.03.12/outbox.cif.g09.slc.cpg/sg4_4_cif.got.tgz:7595.got - 2010.03.31 09:31:35.
