data_PCOD8046880
_publ_section_title
;
Structure prediction by ZEFSAII (Michael W. Deem and Ramdas Pophale) SiO2 
 PCOD8046880
Probable space group: P 21
;
_chemical_formula_sum "Si O2"
_cell_formula_units_Z 14
_cell_length_a 14.463458
_cell_length_b 5.107358
_cell_length_c 19.194399
_cell_angle_alpha 90.000000
_cell_angle_beta 156.778904
_cell_angle_gamma 90.000000
_cell_volume 559.046638
_symmetry_space_group_name_H-M "P 21"
_symmetry_group_IT_number 4
_symmetry_cell_setting 'monoclinic'
loop_
_space_group_symop_operation_xyz
x,y,z
-x,1/2+y,-z
loop_
_atom_site_type_symbol
_atom_site_label
_atom_site_fract_x
_atom_site_fract_y
_atom_site_fract_z
Si Si1 0.011624 0.963810 0.868150
Si Si2 0.595614 0.441170 0.033925
Si Si3 0.681131 0.741456 0.275956
Si Si4 0.308747 0.449372 0.090701
Si Si5 0.379888 0.559735 0.297687
Si Si6 0.665104 0.085052 0.506608
Si Si7 0.961310 0.028832 0.585628
O O1 0.873759 0.049842 0.842303
O O2 0.847469 0.974166 0.687712
O O3 0.115956 0.674150 0.944532
O O4 0.219268 0.170777 0.002869
O O5 0.861215 0.362755 0.241049
O O6 0.567881 0.744260 0.035324
O O7 0.527334 0.411405 0.905356
O O8 0.547192 0.482647 0.209954
O O9 0.788350 0.855795 0.420089
O O10 0.890336 0.705403 0.365353
O O11 0.365968 0.442036 0.211328
O O12 0.476217 0.854710 0.362880
O O13 0.543681 0.348801 0.452497
O O14 0.792672 0.177099 0.523072
#
# Coordination Sequence:
#
# PCOD8046880 Si02
#       7
#     2   2   2   2   2   2   2
#     4  12  26  48  75 104 143 192 234 309 371 419
#     4  10  23  43  66  98 138 188 241 289 345 421
#     4  11  25  43  72 104 147 190 240 294 358 428
#     4  12  26  45  72 107 142 188 247 290 363 441
#     4  12  25  48  72 107 144 186 241 303 362 437
#     4  12  26  45  74 108 145 186 247 293 361 445
#     4  11  25  44  71 106 145 194 236 294 362 423
#
# _framework density 25.042635000000001
#
# number of rings (size 3 to 8) (size 9 to 14) (size 15 to 20)
#    0.000    0.571    1.429    6.000    2.000    9.143 
#    0.000    0.000    0.000    0.000    0.000    0.000 
#    0.000    0.000    0.000    0.000    0.000    0.000 
#
# Total GULP energy -173530.517609 kJ/mol
# GULP energy per Si atom -12395.036972 kJ/mol
# Density = 2.498564 g / cm^3
# Si number density = 25.042635 Si / 1000 Ang^3
#
#
#
# Elastic Constant Matrix: (Units=GPa)
#
#
# Indices 1 2 3 4 5 6 
#
# 1 149.0377 -33.4566 0.3014 0.0000 -52.5333 0.0000
# 2 -33.4566 103.5646 23.3274 0.0000 55.0725 0.0000
# 3 0.3014 23.3274 121.9606 0.0000 -4.9958 0.0000
# 4 0.0000 0.0000 0.0000 74.4371 0.0000 18.6432
# 5 -52.5333 55.0725 -4.9958 0.0000 124.5950 0.0000
# 6 0.0000 0.0000 0.0000 18.6432 0.0000 36.8917
#
#
#
# Elastic Compliance Matrix: (Units=1/GPa)
#
#
# Indices 1 2 3 4 5 6 
#
# 1 0.007965 0.001063 -0.000105 0.000000 0.002884 0.000000
# 2 0.001063 0.013680 -0.002853 0.000000 -0.005713 0.000000
# 3 -0.000105 -0.002853 0.008810 0.000000 0.001570 0.000000
# 4 0.000000 0.000000 0.000000 0.015381 0.000000 -0.007773
# 5 0.002884 -0.005713 0.001570 0.000000 0.011830 0.000000
# 6 0.000000 0.000000 0.000000 -0.007773 0.000000 0.031034
#
#
# Mechanical properties :
#
#
# Convention : Reuss Voigt Hill
#
# Bulk Modulus (GPa) = 37.50290 39.43415 38.46852
# Shear Modulus (GPa) = 49.32015 72.81080 61.06548
#
# Velocity S-wave (km/s) = 4.44266 5.39795 4.94343
# Velocity P-wave (km/s) = 6.42841 7.39131 6.92661
#
# Compressibility (1/GPa) = 0.02666461
#
# Stress axis : x y z
#
# Youngs Moduli (GPa) = 125.54566 73.10059 113.51161
#
# Poissons Ratio (x) = -0.07770 0.01190
# Poissons Ratio (y) = -0.13345 0.32387
# Poissons Ratio (z) = 0.01316 0.20857
#
# Static dielectric constant tensor:
#      x y z
#    x 4.679100 0.000000 -0.207940 
#    y 0.000000 4.084180 0.000000 
#    z -0.207940 0.000000 4.805430 
# 
# 
# High freq. dielectric constant tensor:
#      x y z
#    x 2.014010 0.000000 -0.005010 
#    y 0.000000 1.980660 0.000000 
#    z -0.005010 0.000000 2.021610 
# 
# From -- ./inp_files/15749.got.cif
#   From: 2010.03.12/outbox.cif.g09.slc.cpg/sg4_8_cif.got.tgz:15749.got - 2010.03.31 09:31:35.
