data_PCOD8046371
_publ_section_title
;
Structure prediction by ZEFSAII (Michael W. Deem and Ramdas Pophale) SiO2 
 PCOD8046371
Probable space group: P 21
;
_chemical_formula_sum "Si O2"
_cell_formula_units_Z 14
_cell_length_a 9.403912
_cell_length_b 9.282078
_cell_length_c 11.297689
_cell_angle_alpha 90.000000
_cell_angle_beta 38.085337
_cell_angle_gamma 90.000000
_cell_volume 608.291876
_symmetry_space_group_name_H-M "P 21"
_symmetry_group_IT_number 4
_symmetry_cell_setting 'monoclinic'
loop_
_space_group_symop_operation_xyz
x,y,z
-x,1/2+y,-z
loop_
_atom_site_type_symbol
_atom_site_label
_atom_site_fract_x
_atom_site_fract_y
_atom_site_fract_z
Si Si1 0.253044 0.488680 0.293012
Si Si2 0.961951 0.276064 0.645368
Si Si3 0.121419 0.375131 0.911257
Si Si4 0.397028 0.865964 0.493993
Si Si5 0.912610 0.801756 0.798795
Si Si6 0.774739 0.490093 0.954659
Si Si7 0.735215 0.660094 0.357067
O O1 0.083927 0.396197 0.485650
O O2 0.250132 0.412566 0.165561
O O3 0.181098 0.657434 0.335262
O O4 0.512816 0.485445 0.173937
O O5 0.151892 0.181756 0.588986
O O6 0.803749 0.360315 0.842780
O O7 0.394182 0.421720 0.728056
O O8 0.104970 0.219456 0.855109
O O9 0.953500 0.481577 0.947409
O O10 0.052778 0.362734 0.091535
O O11 0.490555 0.742930 0.519964
O O12 0.172052 0.804684 0.571648
O O13 0.313881 0.994329 0.633139
O O14 0.812200 0.641395 0.861950
#
# Coordination Sequence:
#
# PCOD8046371 Si02
#       7
#     2   2   2   2   2   2   2
#     4  12  27  47  74 100 144 191 234 295 351 433
#     4  11  25  49  68 102 141 187 243 282 356 418
#     4   9  25  39  71 102 138 177 230 293 345 412
#     4  10  21  42  68  99 138 181 226 289 344 408
#     4  12  25  43  71 106 139 184 233 291 361 414
#     4  11  26  47  70 107 139 188 236 294 351 430
#     4   9  21  43  64 100 135 176 228 282 342 409
#
# _framework density 23.015267999999999
#
# number of rings (size 3 to 8) (size 9 to 14) (size 15 to 20)
#    0.857    0.571    1.429    2.571    4.000    3.429 
#    5.143    0.000    0.000    0.000    0.000    0.000 
#    0.000    0.000    0.000    0.000    0.000    0.000 
#
# Total GULP energy -173475.811423 kJ/mol
# GULP energy per Si atom -12391.129387 kJ/mol
# Density = 2.296288 g / cm^3
# Si number density = 23.015268 Si / 1000 Ang^3
#
#
#
# Elastic Constant Matrix: (Units=GPa)
#
#
# Indices 1 2 3 4 5 6 
#
# 1 62.6865 -5.2937 39.3538 0.0000 -11.4466 0.0000
# 2 -5.2937 85.6944 25.8394 0.0000 -7.2929 0.0000
# 3 39.3538 25.8394 89.1038 0.0000 -18.2588 0.0000
# 4 0.0000 0.0000 0.0000 33.4089 0.0000 -5.4937
# 5 -11.4466 -7.2929 -18.2588 0.0000 45.7981 0.0000
# 6 0.0000 0.0000 0.0000 -5.4937 0.0000 35.0286
#
#
#
# Elastic Compliance Matrix: (Units=1/GPa)
#
#
# Indices 1 2 3 4 5 6 
#
# 1 0.024160 0.005217 -0.011734 0.000000 0.002191 0.000000
# 2 0.005217 0.013930 -0.006122 0.000000 0.001081 0.000000
# 3 -0.011734 -0.006122 0.018926 0.000000 0.003638 0.000000
# 4 0.000000 0.000000 0.000000 0.030725 0.000000 0.004819
# 5 0.002191 0.001081 0.003638 0.000000 0.024005 0.000000
# 6 0.000000 0.000000 0.000000 0.004819 0.000000 0.029304
#
#
# Mechanical properties :
#
#
# Convention : Reuss Voigt Hill
#
# Bulk Modulus (GPa) = 31.50896 39.69817 35.60356
# Shear Modulus (GPa) = 28.26342 34.68612 31.47477
#
# Velocity S-wave (km/s) = 3.50813 3.88634 3.70207
# Velocity P-wave (km/s) = 5.48903 6.11754 5.81179
#
# Compressibility (1/GPa) = 0.03173701
#
# Stress axis : x y z
#
# Youngs Moduli (GPa) = 41.39113 71.78902 52.83643
#
# Poissons Ratio (x) = -0.37454 0.62001
# Poissons Ratio (y) = -0.21595 0.32347
# Poissons Ratio (z) = 0.48570 0.43950
#
# Static dielectric constant tensor:
#      x y z
#    x 4.054520 0.000000 -0.251800 
#    y 0.000000 4.100050 0.000000 
#    z -0.251800 0.000000 3.977510 
# 
# 
# High freq. dielectric constant tensor:
#      x y z
#    x 1.901860 0.000000 -0.014820 
#    y 0.000000 1.917970 0.000000 
#    z -0.014820 0.000000 1.899730 
# 
# From -- ./inp_files/10777.got.cif
#   From: 2010.03.12/outbox.cif.g09.slc.cpg/sg4_6_cif.got.tgz:10777.got - 2010.03.31 09:31:35.
