data_PCOD8046918
_publ_section_title
;
Structure prediction by ZEFSAII (Michael W. Deem and Ramdas Pophale) SiO2 
 PCOD8046918
Probable space group: P 21
;
_chemical_formula_sum "Si O2"
_cell_formula_units_Z 16
_cell_length_a 9.355323
_cell_length_b 8.330183
_cell_length_c 18.230600
_cell_angle_alpha 90.000000
_cell_angle_beta 30.148136
_cell_angle_gamma 90.000000
_cell_volume 713.548245
_symmetry_space_group_name_H-M "P 21"
_symmetry_group_IT_number 4
_symmetry_cell_setting 'monoclinic'
loop_
_space_group_symop_operation_xyz
x,y,z
-x,1/2+y,-z
loop_
_atom_site_type_symbol
_atom_site_label
_atom_site_fract_x
_atom_site_fract_y
_atom_site_fract_z
Si Si1 0.591402 0.160760 0.153992
Si Si2 0.664019 0.196378 0.709099
Si Si3 0.717530 0.763067 0.850280
Si Si4 0.699150 0.142838 0.857462
Si Si5 0.055620 0.014161 0.440487
Si Si6 0.230208 0.304756 0.694406
Si Si7 0.751118 0.082527 0.429028
Si Si8 0.869147 0.849586 0.093105
O O1 0.483386 0.169970 0.118473
O O2 0.303848 0.153614 0.331503
O O3 0.774839 0.000242 0.085929
O O4 0.801557 0.311733 0.074182
O O5 0.740674 0.216446 0.759307
O O6 0.790580 0.348068 0.608324
O O7 0.324905 0.196135 0.845411
O O8 0.819439 0.040130 0.607858
O O9 0.045881 0.715346 0.697570
O O10 0.698385 0.952606 0.851593
O O11 0.607000 0.702639 0.977991
O O12 0.940778 0.216033 0.801487
O O13 0.906667 0.998889 0.427999
O O14 0.472225 0.169454 0.583733
O O15 0.319962 0.448600 0.600284
O O16 0.180126 0.376720 0.797981
#
# Coordination Sequence:
#
# PCOD8046918 Si02
#       8
#     2   2   2   2   2   2   2   2
#     4  10  25  44  69  99 141 179 230 286 345 409
#     4  11  25  43  72  98 138 181 227 278 348 413
#     4  11  26  45  70 101 141 185 235 284 349 420
#     4  12  26  44  74 102 137 186 232 287 349 417
#     4  10  23  44  66 101 137 180 224 280 340 416
#     4  12  24  46  70 107 141 181 231 289 349 413
#     4  11  24  46  68 100 141 178 229 288 343 412
#     4  11  25  44  67 104 140 178 226 290 345 414
#
# _framework density 22.423152000000002
#
# number of rings (size 3 to 8) (size 9 to 14) (size 15 to 20)
#    0.000    1.000    3.750    1.500    8.750    2.000 
#    0.000    0.000    0.000    0.000    0.000    0.000 
#    0.000    0.000    0.000    0.000    0.000    0.000 
#
# Total GULP energy -198372.958737 kJ/mol
# GULP energy per Si atom -12398.309921 kJ/mol
# Density = 2.237212 g / cm^3
# Si number density = 22.423152 Si / 1000 Ang^3
#
#
#
# Elastic Constant Matrix: (Units=GPa)
#
#
# Indices 1 2 3 4 5 6 
#
# 1 72.1637 32.6831 3.4094 0.0000 1.7355 0.0000
# 2 32.6831 51.4437 2.1260 0.0000 4.4415 0.0000
# 3 3.4094 2.1260 46.2327 0.0000 4.6206 0.0000
# 4 0.0000 0.0000 0.0000 36.7875 0.0000 -3.9256
# 5 1.7355 4.4415 4.6206 0.0000 27.4759 0.0000
# 6 0.0000 0.0000 0.0000 -3.9256 0.0000 29.4858
#
#
#
# Elastic Compliance Matrix: (Units=1/GPa)
#
#
# Indices 1 2 3 4 5 6 
#
# 1 0.019514 -0.012439 -0.000961 0.000000 0.000940 0.000000
# 2 -0.012439 0.027659 0.000014 0.000000 -0.003688 0.000000
# 3 -0.000961 0.000014 0.022065 0.000000 -0.003652 0.000000
# 4 0.000000 0.000000 0.000000 0.027575 0.000000 0.003671
# 5 0.000940 -0.003688 -0.003652 0.000000 0.037547 0.000000
# 6 0.000000 0.000000 0.000000 0.003671 0.000000 0.034403
#
#
# Mechanical properties :
#
#
# Convention : Reuss Voigt Hill
#
# Bulk Modulus (GPa) = 23.54816 27.36412 25.45614
# Shear Modulus (GPa) = 23.84473 27.52460 25.68467
#
# Velocity S-wave (km/s) = 3.26452 3.50738 3.38813
# Velocity P-wave (km/s) = 4.97332 5.35092 5.16557
#
# Compressibility (1/GPa) = 0.04246616
#
# Stress axis : x y z
#
# Youngs Moduli (GPa) = 51.24583 36.15437 45.32076
#
# Poissons Ratio (x) = 0.44972 0.04355
# Poissons Ratio (y) = 0.63744 -0.00063
# Poissons Ratio (z) = 0.04924 -0.00050
#
# Static dielectric constant tensor:
#      x y z
#    x 3.994770 0.000000 -0.116360 
#    y 0.000000 3.874350 0.000000 
#    z -0.116360 0.000000 4.326320 
# 
# 
# High freq. dielectric constant tensor:
#      x y z
#    x 1.881060 0.000000 -0.007720 
#    y 0.000000 1.878360 0.000000 
#    z -0.007720 0.000000 1.898370 
# 
# From -- ./inp_files/5398.got.cif
#   From: 2010.03.12/outbox.cif.g09.slc.cpg/sg4_3_cif.got.tgz:5398.got - 2010.03.31 09:31:35.
