data_PCOD8046682
_publ_section_title
;
Structure prediction by ZEFSAII (Michael W. Deem and Ramdas Pophale) SiO2 
 PCOD8046682
Probable space group: P 21
;
_chemical_formula_sum "Si O2"
_cell_formula_units_Z 16
_cell_length_a 9.589786
_cell_length_b 8.973359
_cell_length_c 11.444849
_cell_angle_alpha 90.000000
_cell_angle_beta 47.893070
_cell_angle_gamma 90.000000
_cell_volume 730.661664
_symmetry_space_group_name_H-M "P 21"
_symmetry_group_IT_number 4
_symmetry_cell_setting 'monoclinic'
loop_
_space_group_symop_operation_xyz
x,y,z
-x,1/2+y,-z
loop_
_atom_site_type_symbol
_atom_site_label
_atom_site_fract_x
_atom_site_fract_y
_atom_site_fract_z
Si Si1 0.900109 0.574100 0.206441
Si Si2 0.941988 0.887998 0.681376
Si Si3 0.521708 0.835116 0.917995
Si Si4 0.984953 0.572093 0.571716
Si Si5 0.195400 0.391801 0.641790
Si Si6 0.562877 0.519826 0.827525
Si Si7 0.748406 0.073876 0.160152
Si Si8 0.424065 0.893339 0.716737
O O1 0.855450 0.721193 0.305445
O O2 0.719885 0.525522 0.232446
O O3 0.939251 0.440419 0.274697
O O4 0.076621 0.601733 0.023592
O O5 0.736400 0.842806 0.840087
O O6 0.043769 0.742338 0.567926
O O7 0.913615 0.019256 0.602926
O O8 0.459599 0.664116 0.941407
O O9 0.487200 0.920153 0.815217
O O10 0.400474 0.899625 0.092413
O O11 0.036852 0.461825 0.647658
O O12 0.763837 0.565622 0.663455
O O13 0.183028 0.481485 0.768423
O O14 0.398154 0.405493 0.468269
O O15 0.418744 0.474309 0.805434
O O16 0.670414 0.232501 0.246412
#
# Coordination Sequence:
#
# PCOD8046682 Si02
#       8
#     2   2   2   2   2   2   2   2
#     4  12  26  43  72  97 134 182 222 282 337 399
#     4  11  23  44  67  99 135 171 224 272 333 396
#     4  10  22  44  65  96 133 167 221 272 333 393
#     4  11  25  42  69 100 134 176 220 275 329 405
#     4  12  26  45  69  99 135 180 225 277 341 398
#     4  10  24  40  69  96 133 172 215 277 328 398
#     4  11  25  46  67  99 135 175 229 277 334 404
#     4  11  25  46  68  96 137 177 224 282 331 405
#
# _framework density 21.897960000000001
#
# number of rings (size 3 to 8) (size 9 to 14) (size 15 to 20)
#    0.000    1.000    2.500    3.000   10.500    2.000 
#    0.000    0.000    0.000    0.000    0.000    0.000 
#    0.000    0.000    0.000    0.000    0.000    0.000 
#
# Total GULP energy -198449.936057 kJ/mol
# GULP energy per Si atom -12403.121004 kJ/mol
# Density = 2.184812 g / cm^3
# Si number density = 21.897960 Si / 1000 Ang^3
#
#
#
# Elastic Constant Matrix: (Units=GPa)
#
#
# Indices 1 2 3 4 5 6 
#
# 1 99.9508 10.4331 9.1161 0.0000 -3.8710 0.0000
# 2 10.4331 66.1901 0.1462 0.0000 -2.4830 0.0000
# 3 9.1161 0.1462 56.6158 0.0000 -6.3503 0.0000
# 4 0.0000 0.0000 0.0000 39.3945 0.0000 5.4785
# 5 -3.8710 -2.4830 -6.3503 0.0000 34.9977 0.0000
# 6 0.0000 0.0000 0.0000 5.4785 0.0000 36.7364
#
#
#
# Elastic Compliance Matrix: (Units=1/GPa)
#
#
# Indices 1 2 3 4 5 6 
#
# 1 0.010345 -0.001599 -0.001578 0.000000 0.000744 0.000000
# 2 -0.001599 0.015396 0.000327 0.000000 0.000975 0.000000
# 3 -0.001578 0.000327 0.018271 0.000000 0.003164 0.000000
# 4 0.000000 0.000000 0.000000 0.025922 0.000000 -0.003866
# 5 0.000744 0.000975 0.003164 0.000000 0.029299 0.000000
# 6 0.000000 0.000000 0.000000 -0.003866 0.000000 0.027797
#
#
# Mechanical properties :
#
#
# Convention : Reuss Voigt Hill
#
# Bulk Modulus (GPa) = 26.10193 29.12750 27.61472
# Shear Modulus (GPa) = 34.36418 35.76315 35.06366
#
# Velocity S-wave (km/s) = 3.96572 4.04564 4.00588
# Velocity P-wave (km/s) = 5.73715 5.92902 5.83387
#
# Compressibility (1/GPa) = 0.03831134
#
# Stress axis : x y z
#
# Youngs Moduli (GPa) = 96.66879 64.95233 54.73142
#
# Poissons Ratio (x) = 0.10387 0.08637
# Poissons Ratio (y) = 0.15459 -0.01790
# Poissons Ratio (z) = 0.15255 -0.02124
#
# Static dielectric constant tensor:
#      x y z
#    x 4.076630 0.000000 0.041830 
#    y 0.000000 3.994680 0.000000 
#    z 0.041830 0.000000 3.812170 
# 
# 
# High freq. dielectric constant tensor:
#      x y z
#    x 1.874640 0.000000 0.001020 
#    y 0.000000 1.858790 0.000000 
#    z 0.001020 0.000000 1.859800 
# 
# From -- ./inp_files/5383.got.cif
#   From: 2010.03.12/outbox.cif.g09.slc.cpg/sg4_3_cif.got.tgz:5383.got - 2010.03.31 09:31:35.
