data_PCOD8046446
_publ_section_title
;
Structure prediction by ZEFSAII (Michael W. Deem and Ramdas Pophale) SiO2 
 PCOD8046446
Probable space group: P 21
;
_chemical_formula_sum "Si O2"
_cell_formula_units_Z 16
_cell_length_a 11.162169
_cell_length_b 8.392537
_cell_length_c 12.355019
_cell_angle_alpha 90.000000
_cell_angle_beta 36.689137
_cell_angle_gamma 90.000000
_cell_volume 691.518256
_symmetry_space_group_name_H-M "P 21"
_symmetry_group_IT_number 4
_symmetry_cell_setting 'monoclinic'
loop_
_space_group_symop_operation_xyz
x,y,z
-x,1/2+y,-z
loop_
_atom_site_type_symbol
_atom_site_label
_atom_site_fract_x
_atom_site_fract_y
_atom_site_fract_z
Si Si1 0.035126 0.279750 0.699822
Si Si2 0.315333 0.412682 0.169427
Si Si3 0.875840 0.430373 0.451777
Si Si4 0.584963 0.823350 0.673077
Si Si5 0.528138 0.510319 0.577583
Si Si6 0.886222 0.838357 0.114637
Si Si7 0.306114 0.788515 0.203125
Si Si8 0.733247 0.521751 0.202749
O O1 0.101552 0.118986 0.587427
O O2 0.215650 0.396273 0.530481
O O3 0.028875 0.268831 0.833273
O O4 0.816082 0.331248 0.818186
O O5 0.369058 0.301314 0.233143
O O6 0.320502 0.597039 0.205044
O O7 0.100690 0.361274 0.272423
O O8 0.477256 0.372308 0.959962
O O9 0.689871 0.379013 0.507593
O O10 0.814056 0.376705 0.615709
O O11 0.513524 0.660245 0.668318
O O12 0.405210 0.947844 0.788948
O O13 0.302133 0.452147 0.729178
O O14 0.609778 0.558838 0.401070
O O15 0.810672 0.689317 0.098504
O O16 0.067624 0.917651 0.917674
#
# Coordination Sequence:
#
# PCOD8046446 Si02
#       8
#     2   2   2   2   2   2   2   2
#     4  10  21  46  72  92 135 188 225 284 351 402
#     4  11  26  44  70 105 142 183 232 288 349 417
#     4  10  23  44  71  98 137 185 230 279 346 417
#     4  11  22  46  71  96 138 183 230 291 346 407
#     4  11  24  46  72  94 134 189 232 285 353 409
#     4  12  25  44  70 104 138 181 233 290 350 419
#     4  11  25  43  71 106 139 184 234 283 351 421
#     4  12  24  43  69 103 137 179 234 286 352 418
#
# _framework density 23.137495000000001
#
# number of rings (size 3 to 8) (size 9 to 14) (size 15 to 20)
#    0.000    1.000    5.000    1.500    5.250    1.000 
#    0.000    0.000    0.000    0.000    0.000    0.000 
#    0.000    0.000    0.000    0.000    0.000    0.000 
#
# Total GULP energy -198235.452144 kJ/mol
# GULP energy per Si atom -12389.715759 kJ/mol
# Density = 2.308483 g / cm^3
# Si number density = 23.137495 Si / 1000 Ang^3
#
#
#
# Elastic Constant Matrix: (Units=GPa)
#
#
# Indices 1 2 3 4 5 6 
#
# 1 83.6179 2.8855 14.9288 0.0000 -17.0803 0.0000
# 2 2.8855 63.0247 25.2811 0.0000 -0.5290 0.0000
# 3 14.9288 25.2811 91.4446 0.0000 -29.9717 0.0000
# 4 0.0000 0.0000 0.0000 31.6513 0.0000 -0.5167
# 5 -17.0803 -0.5290 -29.9717 0.0000 37.1038 0.0000
# 6 0.0000 0.0000 0.0000 -0.5167 0.0000 28.9322
#
#
#
# Elastic Compliance Matrix: (Units=1/GPa)
#
#
# Indices 1 2 3 4 5 6 
#
# 1 0.013220 -0.000546 -0.000021 0.000000 0.006061 0.000000
# 2 -0.000546 0.018600 -0.006866 0.000000 -0.005533 0.000000
# 3 -0.000021 -0.006866 0.017412 0.000000 0.013958 0.000000
# 4 0.000000 0.000000 0.000000 0.031604 0.000000 0.000564
# 5 0.006061 -0.005533 0.013958 0.000000 0.040937 0.000000
# 6 0.000000 0.000000 0.000000 0.000564 0.000000 0.034574
#
#
# Mechanical properties :
#
#
# Convention : Reuss Voigt Hill
#
# Bulk Modulus (GPa) = 29.09922 36.03090 32.56506
# Shear Modulus (GPa) = 27.37217 32.53691 29.95454
#
# Velocity S-wave (km/s) = 3.44324 3.75406 3.60200
# Velocity P-wave (km/s) = 5.33027 5.86489 5.60396
#
# Compressibility (1/GPa) = 0.03436518
#
# Stress axis : x y z
#
# Youngs Moduli (GPa) = 75.64428 53.76438 57.43170
#
# Poissons Ratio (x) = 0.02936 0.00119
# Poissons Ratio (y) = 0.04131 0.39435
# Poissons Ratio (z) = 0.00156 0.36917
#
# Static dielectric constant tensor:
#      x y z
#    x 4.625150 0.000000 -0.524130 
#    y 0.000000 3.976780 0.000000 
#    z -0.524130 0.000000 4.170370 
# 
# 
# High freq. dielectric constant tensor:
#      x y z
#    x 1.928460 0.000000 -0.028160 
#    y 0.000000 1.885960 0.000000 
#    z -0.028160 0.000000 1.921020 
# 
# From -- ./inp_files/12110.got.cif
#   From: 2010.03.12/outbox.cif.g09.slc.cpg/sg4_7_cif.got.tgz:12110.got - 2010.03.31 09:31:35.
