data_PCOD8046930
_publ_section_title
;
Structure prediction by ZEFSAII (Michael W. Deem and Ramdas Pophale) SiO2 
 PCOD8046930
Probable space group: P 21
;
_chemical_formula_sum "Si O2"
_cell_formula_units_Z 16
_cell_length_a 11.670451
_cell_length_b 8.645394
_cell_length_c 11.740475
_cell_angle_alpha 90.000000
_cell_angle_beta 141.567255
_cell_angle_gamma 90.000000
_cell_volume 736.318998
_symmetry_space_group_name_H-M "P 21"
_symmetry_group_IT_number 4
_symmetry_cell_setting 'monoclinic'
loop_
_space_group_symop_operation_xyz
x,y,z
-x,1/2+y,-z
loop_
_atom_site_type_symbol
_atom_site_label
_atom_site_fract_x
_atom_site_fract_y
_atom_site_fract_z
Si Si1 0.768480 0.092390 0.529404
Si Si2 0.238324 0.198572 0.716446
Si Si3 0.144346 0.723075 0.880973
Si Si4 0.589402 0.765257 0.734275
Si Si5 0.867679 0.055686 0.360329
Si Si6 0.262788 0.264276 0.392943
Si Si7 0.480035 0.596937 0.247530
Si Si8 0.174434 0.087798 0.903705
O O1 0.599401 0.184126 0.452509
O O2 0.766524 0.126690 0.392357
O O3 0.961915 0.147880 0.735932
O O4 0.737814 0.910610 0.524225
O O5 0.166819 0.373360 0.665548
O O6 0.419844 0.172041 0.783541
O O7 0.286039 0.149836 0.881981
O O8 0.085357 0.086441 0.542145
O O9 0.203577 0.637624 0.809815
O O10 0.935400 0.680948 0.752542
O O11 0.173620 0.904566 0.893723
O O12 0.272390 0.662123 0.082939
O O13 0.697009 0.816608 0.704481
O O14 0.537155 0.911878 0.770779
O O15 0.722079 0.646410 0.903732
O O16 0.417999 0.144856 0.556663
#
# Coordination Sequence:
#
# PCOD8046930 Si02
#       8
#     2   2   2   2   2   2   2   2
#     4  10  23  44  69  96 137 180 233 288 343 412
#     4  11  23  40  70 100 145 172 232 284 355 422
#     4  11  25  43  72  99 141 181 229 289 350 412
#     4  12  27  42  71  99 141 184 241 283 351 414
#     4  11  21  42  69 100 142 180 222 290 354 417
#     4  11  24  50  66  99 140 188 234 288 343 423
#     4  12  26  42  70 106 133 185 234 288 352 415
#     4  10  25  43  65 105 135 182 227 288 348 411
#
# _framework density 21.729713
#
# number of rings (size 3 to 8) (size 9 to 14) (size 15 to 20)
#    0.000    1.000    2.500    3.750    7.000    4.000 
#    0.000    0.000    0.000    0.000    0.000    0.000 
#    0.000    0.000    0.000    0.000    0.000    0.000 
#
# Total GULP energy -198444.702128 kJ/mol
# GULP energy per Si atom -12402.793883 kJ/mol
# Density = 2.168026 g / cm^3
# Si number density = 21.729713 Si / 1000 Ang^3
#
#
#
# Elastic Constant Matrix: (Units=GPa)
#
#
# Indices 1 2 3 4 5 6 
#
# 1 93.1016 40.0591 53.2808 0.0000 1.7803 0.0000
# 2 40.0591 109.2323 54.0243 0.0000 11.1440 0.0000
# 3 53.2808 54.0243 129.9233 0.0000 10.4759 0.0000
# 4 0.0000 0.0000 0.0000 30.0562 0.0000 5.1402
# 5 1.7803 11.1440 10.4759 0.0000 26.6711 0.0000
# 6 0.0000 0.0000 0.0000 5.1402 0.0000 27.0005
#
#
#
# Elastic Compliance Matrix: (Units=1/GPa)
#
#
# Indices 1 2 3 4 5 6 
#
# 1 0.014936 -0.003263 -0.004955 0.000000 0.002313 0.000000
# 2 -0.003263 0.012480 -0.003561 0.000000 -0.003598 0.000000
# 3 -0.004955 -0.003561 0.011425 0.000000 -0.002669 0.000000
# 4 0.000000 0.000000 0.000000 0.034391 0.000000 -0.006547
# 5 0.002313 -0.003598 -0.002669 0.000000 0.039891 0.000000
# 6 0.000000 0.000000 0.000000 -0.006547 0.000000 0.038283
#
#
# Mechanical properties :
#
#
# Convention : Reuss Voigt Hill
#
# Bulk Modulus (GPa) = 65.43264 69.66506 67.54885
# Shear Modulus (GPa) = 27.76892 29.07179 28.42035
#
# Velocity S-wave (km/s) = 3.57868 3.66167 3.62042
# Velocity P-wave (km/s) = 6.87411 7.07153 6.97352
#
# Compressibility (1/GPa) = 0.01528289
#
# Stress axis : x y z
#
# Youngs Moduli (GPa) = 66.95067 80.12992 87.52885
#
# Poissons Ratio (x) = 0.26146 0.43371
# Poissons Ratio (y) = 0.21846 0.31170
# Poissons Ratio (z) = 0.33174 0.28535
#
# Static dielectric constant tensor:
#      x y z
#    x 3.885230 0.000000 0.136440 
#    y 0.000000 3.805080 0.000000 
#    z 0.136440 0.000000 4.077080 
# 
# 
# High freq. dielectric constant tensor:
#      x y z
#    x 1.850640 0.000000 0.005230 
#    y 0.000000 1.852870 0.000000 
#    z 0.005230 0.000000 1.860730 
# 
# From -- ./inp_files/11906.got.cif
#   From: 2010.03.12/outbox.cif.g09.slc.cpg/sg4_6_cif.got.tgz:11906.got - 2010.03.31 09:31:35.
