data_PCOD8046173
_publ_section_title
;
Structure prediction by ZEFSAII (Michael W. Deem and Ramdas Pophale) SiO2 
 PCOD8046173
Probable space group: P 21
;
_chemical_formula_sum "Si O2"
_cell_formula_units_Z 16
_cell_length_a 10.912128
_cell_length_b 5.269150
_cell_length_c 12.863739
_cell_angle_alpha 90.000000
_cell_angle_beta 93.293534
_cell_angle_gamma 90.000000
_cell_volume 738.412975
_symmetry_space_group_name_H-M "P 21"
_symmetry_group_IT_number 4
_symmetry_cell_setting 'monoclinic'
loop_
_space_group_symop_operation_xyz
x,y,z
-x,1/2+y,-z
loop_
_atom_site_type_symbol
_atom_site_label
_atom_site_fract_x
_atom_site_fract_y
_atom_site_fract_z
Si Si1 0.396888 0.771260 0.605242
Si Si2 0.782110 0.453187 0.237785
Si Si3 0.080201 0.446747 0.696782
Si Si4 0.876521 0.934795 0.902704
Si Si5 0.802709 0.938145 0.500980
Si Si6 0.157696 0.932259 0.978475
Si Si7 0.168307 0.720682 0.296771
Si Si8 0.643131 0.544149 0.604397
O O1 0.336533 0.942667 0.693101
O O2 0.309272 0.532376 0.577957
O O3 0.532737 0.698435 0.653174
O O4 0.419112 0.911378 0.497592
O O5 0.837806 0.734216 0.244190
O O6 0.747437 0.425240 0.114106
O O7 0.878576 0.232827 0.275113
O O8 0.086145 0.385098 0.573245
O O9 0.942043 0.416804 0.734867
O O10 0.835183 0.978754 0.780815
O O11 0.818445 0.175174 0.958661
O O12 0.022649 0.939303 0.921025
O O13 0.820654 0.672832 0.944410
O O14 0.758811 0.699712 0.565786
O O15 0.852884 0.140981 0.584892
O O16 0.301799 0.857615 0.304088
#
# Coordination Sequence:
#
# PCOD8046173 Si02
#       8
#     2   2   2   2   2   2   2   2
#     4  10  21  39  61  90 126 166 226 265 310 375
#     4  11  22  40  66  94 124 170 211 276 317 379
#     4  11  24  38  60  93 137 167 209 251 326 401
#     4  10  22  38  60  89 127 162 207 258 316 398
#     4  10  23  37  57  87 125 171 207 259 312 376
#     4  10  21  38  62  89 123 162 208 263 319 376
#     4  11  26  36  60  91 134 174 208 262 331 395
#     4  11  21  38  60  89 128 174 216 266 311 380
#
# _framework density 21.668092000000001
#
# number of rings (size 3 to 8) (size 9 to 14) (size 15 to 20)
#    0.000    1.500    3.750    0.750    8.750    0.000 
#    0.000    0.000    0.000    0.000    3.250    0.000 
#    0.000    0.000    0.000    0.000    0.000    0.000 
#
# Total GULP energy -198312.295579 kJ/mol
# GULP energy per Si atom -12394.518474 kJ/mol
# Density = 2.161877 g / cm^3
# Si number density = 21.668092 Si / 1000 Ang^3
#
#
#
# Elastic Constant Matrix: (Units=GPa)
#
#
# Indices 1 2 3 4 5 6 
#
# 1 67.1605 7.3005 25.1524 0.0000 -4.1273 0.0000
# 2 7.3005 68.0670 -1.0198 0.0000 0.3153 0.0000
# 3 25.1524 -1.0198 70.1896 0.0000 -10.8875 0.0000
# 4 0.0000 0.0000 0.0000 34.4506 0.0000 -4.3772
# 5 -4.1273 0.3153 -10.8875 0.0000 14.1390 0.0000
# 6 0.0000 0.0000 0.0000 -4.3772 0.0000 23.1752
#
#
#
# Elastic Compliance Matrix: (Units=1/GPa)
#
#
# Indices 1 2 3 4 5 6 
#
# 1 0.017458 -0.001967 -0.006232 0.000000 0.000341 0.000000
# 2 -0.001967 0.014917 0.000887 0.000000 -0.000224 0.000000
# 3 -0.006232 0.000887 0.018407 0.000000 0.012335 0.000000
# 4 0.000000 0.000000 0.000000 0.029741 0.000000 0.005617
# 5 0.000341 -0.000224 0.012335 0.000000 0.080329 0.000000
# 6 0.000000 0.000000 0.000000 0.005617 0.000000 0.044211
#
#
# Mechanical properties :
#
#
# Convention : Reuss Voigt Hill
#
# Bulk Modulus (GPa) = 27.65705 29.80926 28.73315
# Shear Modulus (GPa) = 21.57596 25.95188 23.76392
#
# Velocity S-wave (km/s) = 3.15897 3.46454 3.31528
# Velocity P-wave (km/s) = 5.10853 5.45812 5.28622
#
# Compressibility (1/GPa) = 0.03615715
#
# Stress axis : x y z
#
# Youngs Moduli (GPa) = 57.27888 67.03876 54.32859
#
# Poissons Ratio (x) = 0.13190 0.33857
# Poissons Ratio (y) = 0.11269 -0.04819
# Poissons Ratio (z) = 0.35695 -0.05947
#
# Static dielectric constant tensor:
#      x y z
#    x 3.591830 0.000000 -0.235750 
#    y 0.000000 4.033090 0.000000 
#    z -0.235750 0.000000 4.006610 
# 
# 
# High freq. dielectric constant tensor:
#      x y z
#    x 1.809320 0.000000 -0.017340 
#    y 0.000000 1.862480 0.000000 
#    z -0.017340 0.000000 1.842720 
# 
# From -- ./inp_files/11693.got.cif
#   From: 2010.03.12/outbox.cif.g09.slc.cpg/sg4_6_cif.got.tgz:11693.got - 2010.03.31 09:31:35.
