data_PCOD8046251
_publ_section_title
;
Structure prediction by ZEFSAII (Michael W. Deem and Ramdas Pophale) SiO2 
 PCOD8046251
Probable space group: P 21
;
_chemical_formula_sum "Si O2"
_cell_formula_units_Z 16
_cell_length_a 22.610799
_cell_length_b 7.119142
_cell_length_c 9.013095
_cell_angle_alpha 90.000000
_cell_angle_beta 148.750712
_cell_angle_gamma 90.000000
_cell_volume 752.638102
_symmetry_space_group_name_H-M "P 21"
_symmetry_group_IT_number 4
_symmetry_cell_setting 'monoclinic'
loop_
_space_group_symop_operation_xyz
x,y,z
-x,1/2+y,-z
loop_
_atom_site_type_symbol
_atom_site_label
_atom_site_fract_x
_atom_site_fract_y
_atom_site_fract_z
Si Si1 0.420533 0.022060 0.652345
Si Si2 0.256359 0.004292 0.549250
Si Si3 0.732637 0.235798 0.828981
Si Si4 0.877425 0.851169 0.700068
Si Si5 0.654671 0.956311 0.046342
Si Si6 0.405566 0.369741 0.394328
Si Si7 0.662175 0.382501 0.969258
Si Si8 0.107491 0.710878 0.081224
O O1 0.372657 0.067984 0.714372
O O2 0.398415 0.193302 0.490019
O O3 0.350773 0.839148 0.460876
O O4 0.551215 0.952009 0.943712
O O5 0.158965 0.156284 0.301308
O O6 0.205719 0.803823 0.394156
O O7 0.282928 0.006514 0.782301
O O8 0.742446 0.371759 0.995103
O O9 0.855694 0.214893 0.012909
O O10 0.682649 0.028794 0.744871
O O11 0.774884 0.912079 0.374796
O O12 0.905325 0.998150 0.889408
O O13 0.988934 0.821482 0.838839
O O14 0.630599 0.816922 0.853407
O O15 0.651664 0.167667 0.988314
O O16 0.533850 0.454523 0.659191
#
# Coordination Sequence:
#
# PCOD8046251 Si02
#       8
#     2   2   2   2   2   2   2   2
#     4  10  22  38  60  99 129 167 214 261 323 401
#     4  11  24  39  67  94 129 169 216 270 327 391
#     4  10  22  39  66  89 133 171 215 263 319 388
#     4  12  24  43  69  89 130 179 217 277 332 378
#     4  10  22  37  65  96 132 170 216 263 329 400
#     4  10  21  40  61  95 139 173 203 263 331 398
#     4  10  21  40  63  99 136 168 206 264 333 398
#     4  11  24  46  63  93 124 173 229 273 318 382
#
# _framework density 21.258557
#
# number of rings (size 3 to 8) (size 9 to 14) (size 15 to 20)
#    0.000    1.500    3.750    0.750    3.500    3.000 
#    0.000    2.500    0.000    0.000    0.000    0.000 
#    0.000    0.000    0.000    0.000    0.000    0.000 
#
# Total GULP energy -198286.217875 kJ/mol
# GULP energy per Si atom -12392.888617 kJ/mol
# Density = 2.121017 g / cm^3
# Si number density = 21.258557 Si / 1000 Ang^3
#
#
#
# Elastic Constant Matrix: (Units=GPa)
#
#
# Indices 1 2 3 4 5 6 
#
# 1 190.4163 37.2290 67.7986 0.0000 29.4582 0.0000
# 2 37.2290 43.2459 22.1882 0.0000 3.6601 0.0000
# 3 67.7986 22.1882 91.5330 0.0000 15.6536 0.0000
# 4 0.0000 0.0000 0.0000 31.0352 0.0000 2.6720
# 5 29.4582 3.6601 15.6536 0.0000 34.8267 0.0000
# 6 0.0000 0.0000 0.0000 2.6720 0.0000 30.5964
#
#
#
# Elastic Compliance Matrix: (Units=1/GPa)
#
#
# Indices 1 2 3 4 5 6 
#
# 1 0.008420 -0.004640 -0.004308 0.000000 -0.004698 0.000000
# 2 -0.004640 0.028966 -0.004046 0.000000 0.002699 0.000000
# 3 -0.004308 -0.004046 0.015600 0.000000 -0.002942 0.000000
# 4 0.000000 0.000000 0.000000 0.032466 0.000000 -0.002835
# 5 -0.004698 0.002699 -0.002942 0.000000 0.033726 0.000000
# 6 0.000000 0.000000 0.000000 -0.002835 0.000000 0.032931
#
#
# Mechanical properties :
#
#
# Convention : Reuss Voigt Hill
#
# Bulk Modulus (GPa) = 37.04203 64.40297 50.72250
# Shear Modulus (GPa) = 26.72428 32.49029 29.60728
#
# Velocity S-wave (km/s) = 3.54942 3.91364 3.73597
# Velocity P-wave (km/s) = 5.85322 7.12622 6.52086
#
# Compressibility (1/GPa) = 0.02699636
#
# Stress axis : x y z
#
# Youngs Moduli (GPa) = 118.77101 34.52368 64.10199
#
# Poissons Ratio (x) = 0.16019 0.27617
# Poissons Ratio (y) = 0.55111 0.25937
# Poissons Ratio (z) = 0.51169 0.13969
#
# Static dielectric constant tensor:
#      x y z
#    x 4.578770 0.000000 0.066520 
#    y 0.000000 4.034960 0.000000 
#    z 0.066520 0.000000 3.621250 
# 
# 
# High freq. dielectric constant tensor:
#      x y z
#    x 1.839930 0.000000 0.006710 
#    y 0.000000 1.848330 0.000000 
#    z 0.006710 0.000000 1.805130 
# 
# From -- ./inp_files/9943.got.cif
#   From: 2010.03.12/outbox.cif.g09.slc.cpg/sg4_5_cif.got.tgz:9943.got - 2010.03.31 09:31:35.
