data_PCOD8046112
_publ_section_title
;
Structure prediction by ZEFSAII (Michael W. Deem and Ramdas Pophale) SiO2 
 PCOD8046112
Probable space group: P 21
;
_chemical_formula_sum "Si O2"
_cell_formula_units_Z 16
_cell_length_a 10.143409
_cell_length_b 5.116405
_cell_length_c 14.694786
_cell_angle_alpha 90.000000
_cell_angle_beta 113.228197
_cell_angle_gamma 90.000000
_cell_volume 700.809395
_symmetry_space_group_name_H-M "P 21"
_symmetry_group_IT_number 4
_symmetry_cell_setting 'monoclinic'
loop_
_space_group_symop_operation_xyz
x,y,z
-x,1/2+y,-z
loop_
_atom_site_type_symbol
_atom_site_label
_atom_site_fract_x
_atom_site_fract_y
_atom_site_fract_z
Si Si1 0.027842 0.555190 0.065422
Si Si2 0.424761 0.985978 0.089735
Si Si3 0.080615 0.129329 0.315315
Si Si4 0.600733 0.489766 0.128150
Si Si5 0.333891 0.204545 0.512613
Si Si6 0.466918 0.712843 0.608656
Si Si7 0.265696 0.213257 0.198402
Si Si8 0.086816 0.136321 0.774725
O O1 0.186869 0.484512 0.148852
O O2 0.925936 0.656143 0.119185
O O3 0.963820 0.283172 0.007330
O O4 0.548850 0.202386 0.143006
O O5 0.282247 0.037156 0.111923
O O6 0.483500 0.699552 0.129510
O O7 0.375765 0.008380 0.973188
O O8 0.173772 0.154878 0.432232
O O9 0.175930 0.061233 0.251595
O O10 0.015838 0.413070 0.289001
O O11 0.960011 0.905363 0.287696
O O12 0.752983 0.565084 0.213366
O O13 0.360348 0.463267 0.580570
O O14 0.440960 0.213918 0.457382
O O15 0.365872 0.963833 0.587148
O O16 0.571331 0.745723 0.722983
#
# Coordination Sequence:
#
# PCOD8046112 Si02
#       8
#     2   2   2   2   2   2   2   2
#     4  11  23  35  52  80 116 150 175 222 281 328
#     4  10  22  37  55  75 106 142 183 232 261 306
#     4  10  21  34  57  85 113 139 171 223 276 335
#     4  10  22  38  54  75 102 146 190 222 264 302
#     4   9  17  32  49  78 110 139 167 203 275 333
#     4   9  18  30  51  75 110 141 167 213 261 334
#     4  10  22  36  55  85 112 141 183 222 276 324
#     4  11  21  36  55  79 107 142 188 223 260 328
#
# _framework density 22.830746999999999
#
# number of rings (size 3 to 8) (size 9 to 14) (size 15 to 20)
#    0.000    2.000    0.000    3.750    0.000   14.000 
#    0.000    0.000    0.000    0.000    0.000   17.500 
#    0.000    0.000    0.000    0.000    0.000    0.000 
#
# Total GULP energy -198355.766133 kJ/mol
# GULP energy per Si atom -12397.235383 kJ/mol
# Density = 2.277878 g / cm^3
# Si number density = 22.830747 Si / 1000 Ang^3
#
#
#
# Elastic Constant Matrix: (Units=GPa)
#
#
# Indices 1 2 3 4 5 6 
#
# 1 31.9276 -18.1363 10.2366 0.0000 9.6958 0.0000
# 2 -18.1363 108.7484 40.8727 0.0000 11.3081 0.0000
# 3 10.2366 40.8727 69.2242 0.0000 29.0528 0.0000
# 4 0.0000 0.0000 0.0000 23.5456 0.0000 7.2767
# 5 9.6958 11.3081 29.0528 0.0000 28.6703 0.0000
# 6 0.0000 0.0000 0.0000 7.2767 0.0000 12.7277
#
#
#
# Elastic Compliance Matrix: (Units=1/GPa)
#
#
# Indices 1 2 3 4 5 6 
#
# 1 0.044172 0.011915 -0.009266 0.000000 -0.010248 0.000000
# 2 0.011915 0.015329 -0.011457 0.000000 0.001534 0.000000
# 3 -0.009266 -0.011457 0.033702 0.000000 -0.026499 0.000000
# 4 0.000000 0.000000 0.000000 0.051585 0.000000 -0.029492
# 5 -0.010248 0.001534 -0.026499 0.000000 0.064593 0.000000
# 6 0.000000 0.000000 0.000000 -0.029492 0.000000 0.095430
#
#
# Mechanical properties :
#
#
# Convention : Reuss Voigt Hill
#
# Bulk Modulus (GPa) = 13.22964 30.64958 21.93961
# Shear Modulus (GPa) = 14.38344 24.78387 19.58365
#
# Velocity S-wave (km/s) = 2.51271 3.29834 2.93196
# Velocity P-wave (km/s) = 3.77167 5.28765 4.59264
#
# Compressibility (1/GPa) = 0.07558787
#
# Stress axis : x y z
#
# Youngs Moduli (GPa) = 22.63874 65.23565 29.67185
#
# Poissons Ratio (x) = -0.77728 0.27494
# Poissons Ratio (y) = -0.26974 0.33994
# Poissons Ratio (z) = 0.20977 0.74738
#
# Static dielectric constant tensor:
#      x y z
#    x 3.842060 0.000000 0.170270 
#    y 0.000000 4.120050 0.000000 
#    z 0.170270 0.000000 4.157760 
# 
# 
# High freq. dielectric constant tensor:
#      x y z
#    x 1.872930 0.000000 0.022320 
#    y 0.000000 1.905870 0.000000 
#    z 0.022320 0.000000 1.895190 
# 
# From -- ./inp_files/13601.got.cif
#   From: 2010.03.12/outbox.cif.g09.slc.cpg/sg4_7_cif.got.tgz:13601.got - 2010.03.31 09:31:35.
