data_PCOD8046236
_publ_section_title
;
Structure prediction by ZEFSAII (Michael W. Deem and Ramdas Pophale) SiO2 
 PCOD8046236
Probable space group: P 21
;
_chemical_formula_sum "Si O2"
_cell_formula_units_Z 16
_cell_length_a 13.231267
_cell_length_b 9.184351
_cell_length_c 16.485714
_cell_angle_alpha 90.000000
_cell_angle_beta 158.084184
_cell_angle_gamma 90.000000
_cell_volume 747.739587
_symmetry_space_group_name_H-M "P 21"
_symmetry_group_IT_number 4
_symmetry_cell_setting 'monoclinic'
loop_
_space_group_symop_operation_xyz
x,y,z
-x,1/2+y,-z
loop_
_atom_site_type_symbol
_atom_site_label
_atom_site_fract_x
_atom_site_fract_y
_atom_site_fract_z
Si Si1 0.313973 0.983580 0.590314
Si Si2 0.737662 0.390144 0.630424
Si Si3 0.706033 0.185273 0.354490
Si Si4 0.121149 0.401651 0.178494
Si Si5 0.897047 0.089679 0.995914
Si Si6 0.254050 0.209483 0.832632
Si Si7 0.243028 0.545728 0.782184
Si Si8 0.139317 0.140687 0.929577
O O1 0.273949 0.899409 0.475358
O O2 0.296841 0.863030 0.649506
O O3 0.055930 0.092019 0.407952
O O4 0.593831 0.070812 0.805351
O O5 0.431227 0.369991 0.433342
O O6 0.878612 0.531118 0.774222
O O7 0.911874 0.252766 0.791356
O O8 0.728368 0.103218 0.286706
O O9 0.973585 0.131538 0.600046
O O10 0.424563 0.143093 0.192585
O O11 0.957589 0.259332 0.031153
O O12 0.984514 0.478608 0.155596
O O13 0.086743 0.515067 0.079371
O O14 0.276480 0.372772 0.816122
O O15 0.252447 0.197298 0.928200
O O16 0.511659 0.123432 0.986007
#
# Coordination Sequence:
#
# PCOD8046236 Si02
#       8
#     2   2   2   2   2   2   2   2
#     4  10  22  43  66  98 130 175 217 264 337 381
#     4  11  21  41  72  92 130 178 216 270 328 383
#     4  10  21  39  69  94 126 176 213 267 329 387
#     4  11  26  41  67 103 129 174 222 267 329 386
#     4  11  24  44  68  96 136 170 219 275 318 398
#     4  10  23  44  67  97 132 172 217 273 323 395
#     4  10  22  42  68  98 125 173 222 263 335 387
#     4  11  21  42  67  98 132 174 218 263 335 383
#
# _framework density 21.397822999999999
#
# number of rings (size 3 to 8) (size 9 to 14) (size 15 to 20)
#    0.000    1.500    3.750    1.500    1.750    7.000 
#   15.750    0.000    0.000    0.000    0.000    0.000 
#    0.000    0.000    0.000    0.000    0.000    0.000 
#
# Total GULP energy -198248.926048 kJ/mol
# GULP energy per Si atom -12390.557878 kJ/mol
# Density = 2.134912 g / cm^3
# Si number density = 21.397823 Si / 1000 Ang^3
#
#
#
# Elastic Constant Matrix: (Units=GPa)
#
#
# Indices 1 2 3 4 5 6 
#
# 1 62.6441 50.5554 43.7700 0.0000 18.0549 0.0000
# 2 50.5554 119.7488 69.2021 0.0000 18.5279 0.0000
# 3 43.7700 69.2021 178.4998 0.0000 47.3598 0.0000
# 4 0.0000 0.0000 0.0000 36.8246 0.0000 1.2891
# 5 18.0549 18.5279 47.3598 0.0000 43.1711 0.0000
# 6 0.0000 0.0000 0.0000 1.2891 0.0000 37.9441
#
#
#
# Elastic Compliance Matrix: (Units=1/GPa)
#
#
# Indices 1 2 3 4 5 6 
#
# 1 0.026014 -0.009393 -0.001298 0.000000 -0.005424 0.000000
# 2 -0.009393 0.014154 -0.003688 0.000000 0.001900 0.000000
# 3 -0.001298 -0.003688 0.009573 0.000000 -0.008376 0.000000
# 4 0.000000 0.000000 0.000000 0.027188 0.000000 -0.000924
# 5 -0.005424 0.001900 -0.008376 0.000000 0.033805 0.000000
# 6 0.000000 0.000000 0.000000 -0.000924 0.000000 0.026386
#
#
# Mechanical properties :
#
#
# Convention : Reuss Voigt Hill
#
# Bulk Modulus (GPa) = 47.66041 76.43866 62.04953
# Shear Modulus (GPa) = 28.92316 36.74565 32.83441
#
# Velocity S-wave (km/s) = 3.68052 4.14848 3.92149
# Velocity P-wave (km/s) = 6.35480 7.66464 7.04025
#
# Compressibility (1/GPa) = 0.02098178
#
# Stress axis : x y z
#
# Youngs Moduli (GPa) = 38.44083 70.65297 104.46490
#
# Poissons Ratio (x) = 0.66365 0.13562
# Poissons Ratio (y) = 0.36108 0.38526
# Poissons Ratio (z) = 0.04990 0.26057
#
# Static dielectric constant tensor:
#      x y z
#    x 3.722510 0.000000 0.460060 
#    y 0.000000 3.717740 0.000000 
#    z 0.460060 0.000000 5.003600 
# 
# 
# High freq. dielectric constant tensor:
#      x y z
#    x 1.819430 0.000000 0.020250 
#    y 0.000000 1.819220 0.000000 
#    z 0.020250 0.000000 1.876250 
# 
# From -- ./inp_files/15234.got.cif
#   From: 2010.03.12/outbox.cif.g09.slc.cpg/sg4_8_cif.got.tgz:15234.got - 2010.03.31 09:31:35.
