data_PCOD8046512
_publ_section_title
;
Structure prediction by ZEFSAII (Michael W. Deem and Ramdas Pophale) SiO2 
 PCOD8046512
Probable space group: P 21
;
_chemical_formula_sum "Si O2"
_cell_formula_units_Z 14
_cell_length_a 13.207252
_cell_length_b 8.853058
_cell_length_c 5.182285
_cell_angle_alpha 90.000000
_cell_angle_beta 114.718647
_cell_angle_gamma 90.000000
_cell_volume 550.415772
_symmetry_space_group_name_H-M "P 21"
_symmetry_group_IT_number 4
_symmetry_cell_setting 'monoclinic'
loop_
_space_group_symop_operation_xyz
x,y,z
-x,1/2+y,-z
loop_
_atom_site_type_symbol
_atom_site_label
_atom_site_fract_x
_atom_site_fract_y
_atom_site_fract_z
Si Si1 0.988378 0.307810 0.474362
Si Si2 0.802920 0.937364 0.590310
Si Si3 0.570740 0.056460 0.313416
Si Si4 0.984342 0.039219 0.131974
Si Si5 0.780259 0.618598 0.715850
Si Si6 0.242559 0.939969 0.835114
Si Si7 0.442004 0.746274 0.173187
O O1 0.109842 0.368974 0.519754
O O2 0.986516 0.361452 0.773016
O O3 0.975458 0.130032 0.399788
O O4 0.883596 0.390616 0.229067
O O5 0.744725 0.793108 0.665651
O O6 0.701373 0.035263 0.371123
O O7 0.869763 0.048820 0.854649
O O8 0.562303 0.152470 0.566885
O O9 0.516722 0.893198 0.297253
O O10 0.510368 0.140283 0.007974
O O11 0.086295 0.113490 0.086741
O O12 0.746809 0.522445 0.428402
O O13 0.716478 0.553729 0.896221
O O14 0.320692 0.794177 0.936448
#
# Coordination Sequence:
#
# PCOD8046512 Si02
#       7
#     2   2   2   2   2   2   2
#     4  10  23  39  65 102 142 192 230 305 353 460
#     4  11  25  41  71 103 148 190 254 297 379 439
#     4  12  30  51  83 112 148 202 255 323 379 450
#     4  10  22  40  62 102 147 188 243 289 373 433
#     4  10  24  40  69 108 141 199 228 312 353 453
#     4  11  23  45  71 102 149 188 242 289 386 428
#     4  12  29  54  81 113 151 197 258 319 381 449
#
# _framework density 25.435314999999999
#
# number of rings (size 3 to 8) (size 9 to 14) (size 15 to 20)
#    0.000    1.143    1.429    2.571   14.000    0.000 
#    0.000    0.000    0.000    0.000    0.000    0.000 
#    0.000    0.000    0.000    0.000    0.000    0.000 
#
# Total GULP energy -173481.420472 kJ/mol
# GULP energy per Si atom -12391.530034 kJ/mol
# Density = 2.537742 g / cm^3
# Si number density = 25.435315 Si / 1000 Ang^3
#
#
#
# Elastic Constant Matrix: (Units=GPa)
#
#
# Indices 1 2 3 4 5 6 
#
# 1 58.6901 24.1028 39.9052 0.0000 5.0283 0.0000
# 2 24.1028 110.2282 43.1523 0.0000 5.4840 0.0000
# 3 39.9052 43.1523 107.2767 0.0000 -0.2634 0.0000
# 4 0.0000 0.0000 0.0000 50.7442 0.0000 -5.2978
# 5 5.0283 5.4840 -0.2634 0.0000 38.8672 0.0000
# 6 0.0000 0.0000 0.0000 -5.2978 0.0000 38.1508
#
#
#
# Elastic Compliance Matrix: (Units=1/GPa)
#
#
# Indices 1 2 3 4 5 6 
#
# 1 0.023480 -0.001865 -0.007991 0.000000 -0.002829 0.000000
# 2 -0.001865 0.011010 -0.003738 0.000000 -0.001337 0.000000
# 3 -0.007991 -0.003738 0.013802 0.000000 0.001655 0.000000
# 4 0.000000 0.000000 0.000000 0.019997 0.000000 0.002777
# 5 -0.002829 -0.001337 0.001655 0.000000 0.026294 0.000000
# 6 0.000000 0.000000 0.000000 0.002777 0.000000 0.026597
#
#
# Mechanical properties :
#
#
# Convention : Reuss Voigt Hill
#
# Bulk Modulus (GPa) = 47.38572 54.50175 50.94373
# Shear Modulus (GPa) = 32.17421 36.82141 34.49781
#
# Velocity S-wave (km/s) = 3.56046 3.80893 3.68679
# Velocity P-wave (km/s) = 5.96430 6.38890 6.18024
#
# Compressibility (1/GPa) = 0.02110341
#
# Stress axis : x y z
#
# Youngs Moduli (GPa) = 42.58886 90.82713 72.45344
#
# Poissons Ratio (x) = 0.16941 0.57897
# Poissons Ratio (y) = 0.07944 0.27085
# Poissons Ratio (z) = 0.34033 0.33953
#
# Static dielectric constant tensor:
#      x y z
#    x 4.429320 0.000000 0.168640 
#    y 0.000000 4.852930 0.000000 
#    z 0.168640 0.000000 4.437280 
# 
# 
# High freq. dielectric constant tensor:
#      x y z
#    x 1.999440 0.000000 0.006260 
#    y 0.000000 2.033700 0.000000 
#    z 0.006260 0.000000 2.015710 
# 
# From -- ./inp_files/2659.got.cif
#   From: 2010.03.12/outbox.cif.g09.slc.cpg/sg4_2_cif.got.tgz:2659.got - 2010.03.31 09:31:35.
