data_PCOD8046025
_publ_section_title
;
Structure prediction by ZEFSAII (Michael W. Deem and Ramdas Pophale) SiO2 
 PCOD8046025
Probable space group: P 21
;
_chemical_formula_sum "Si O2"
_cell_formula_units_Z 16
_cell_length_a 8.712004
_cell_length_b 13.412214
_cell_length_c 11.543443
_cell_angle_alpha 90.000000
_cell_angle_beta 35.862521
_cell_angle_gamma 90.000000
_cell_volume 790.195718
_symmetry_space_group_name_H-M "P 21"
_symmetry_group_IT_number 4
_symmetry_cell_setting 'monoclinic'
loop_
_space_group_symop_operation_xyz
x,y,z
-x,1/2+y,-z
loop_
_atom_site_type_symbol
_atom_site_label
_atom_site_fract_x
_atom_site_fract_y
_atom_site_fract_z
Si Si1 0.597314 0.317110 0.797033
Si Si2 0.647561 0.311000 0.200866
Si Si3 0.911590 0.705497 0.914748
Si Si4 0.204480 0.706765 0.101448
Si Si5 0.700364 0.822751 0.379434
Si Si6 0.163067 0.826858 0.585831
Si Si7 0.810458 0.982240 0.924708
Si Si8 0.995993 0.483975 0.934586
O O1 0.744109 0.268148 0.814493
O O2 0.819591 0.337385 0.563595
O O3 0.379703 0.242570 0.876976
O O4 0.458138 0.419667 0.922858
O O5 0.381472 0.322602 0.435593
O O6 0.885477 0.266841 0.131180
O O7 0.592563 0.240138 0.123799
O O8 0.729821 0.421036 0.108510
O O9 0.926689 0.588747 0.921015
O O10 0.973746 0.735811 0.742410
O O11 0.229696 0.589546 0.110258
O O12 0.914990 0.735614 0.230551
O O13 0.452439 0.799809 0.452231
O O14 0.810481 0.930030 0.273987
O O15 0.051962 0.928725 0.711292
O O16 0.868705 0.998736 0.024251
#
# Coordination Sequence:
#
# PCOD8046025 Si02
#       8
#     2   2   2   2   2   2   2   2
#     4  11  23  44  59  86 132 166 195 249 306 371
#     4  10  20  40  60  92 119 153 203 263 294 348
#     4  10  21  37  64  88 116 159 206 250 302 355
#     4  11  25  38  64  92 125 163 203 247 305 371
#     4  10  21  37  60  94 120 150 202 259 297 350
#     4  10  21  40  63  88 120 159 203 254 304 355
#     4  11  22  40  65  90 118 165 208 248 308 361
#     4  11  19  36  63  94 118 153 206 258 300 351
#
# _framework density 20.248148
#
# number of rings (size 3 to 8) (size 9 to 14) (size 15 to 20)
#    0.000    1.500    6.250    0.750    0.000    8.000 
#    0.000    2.500    0.000    0.000    0.000    0.000 
#    0.000    0.000    0.000    0.000    0.000    0.000 
#
# Total GULP energy -198374.679721 kJ/mol
# GULP energy per Si atom -12398.417483 kJ/mol
# Density = 2.020206 g / cm^3
# Si number density = 20.248148 Si / 1000 Ang^3
#
#
#
# Elastic Constant Matrix: (Units=GPa)
#
#
# Indices 1 2 3 4 5 6 
#
# 1 65.2676 29.7884 29.9227 0.0000 23.1173 0.0000
# 2 29.7884 126.1627 37.7688 0.0000 4.6789 0.0000
# 3 29.9227 37.7688 120.6147 0.0000 34.2769 0.0000
# 4 0.0000 0.0000 0.0000 18.3176 0.0000 3.0222
# 5 23.1173 4.6789 34.2769 0.0000 27.6306 0.0000
# 6 0.0000 0.0000 0.0000 3.0222 0.0000 24.3163
#
#
#
# Elastic Compliance Matrix: (Units=1/GPa)
#
#
# Indices 1 2 3 4 5 6 
#
# 1 0.024890 -0.005622 0.001905 0.000000 -0.022235 0.000000
# 2 -0.005622 0.010176 -0.004075 0.000000 0.008036 0.000000
# 3 0.001905 -0.004075 0.014443 0.000000 -0.018820 0.000000
# 4 0.000000 0.000000 0.000000 0.055735 0.000000 -0.006927
# 5 -0.022235 0.008036 -0.018820 0.000000 0.076781 0.000000
# 6 0.000000 0.000000 0.000000 -0.006927 0.000000 0.041986
#
#
# Mechanical properties :
#
#
# Convention : Reuss Voigt Hill
#
# Bulk Modulus (GPa) = 29.47930 56.33387 42.90659
# Shear Modulus (GPa) = 19.92793 28.35724 24.14258
#
# Velocity S-wave (km/s) = 3.14058 3.74637 3.45677
# Velocity P-wave (km/s) = 5.26703 6.82611 6.09661
#
# Compressibility (1/GPa) = 0.03392211
#
# Stress axis : x y z
#
# Youngs Moduli (GPa) = 40.17715 98.27278 69.23757
#
# Poissons Ratio (x) = 0.55252 -0.13186
# Poissons Ratio (y) = 0.22589 0.28217
# Poissons Ratio (z) = -0.07652 0.40050
#
# Static dielectric constant tensor:
#      x y z
#    x 3.522700 0.000000 0.324920 
#    y 0.000000 3.688070 0.000000 
#    z 0.324920 0.000000 4.078750 
# 
# 
# High freq. dielectric constant tensor:
#      x y z
#    x 1.771560 0.000000 0.017560 
#    y 0.000000 1.782620 0.000000 
#    z 0.017560 0.000000 1.800700 
# 
# From -- ./inp_files/11415.got.cif
#   From: 2010.03.12/outbox.cif.g09.slc.cpg/sg4_6_cif.got.tgz:11415.got - 2010.03.31 09:31:35.
