data_PCOD8046994
_publ_section_title
;
Structure prediction by ZEFSAII (Michael W. Deem and Ramdas Pophale) SiO2 
 PCOD8046994
Probable space group: P 21
;
_chemical_formula_sum "Si O2"
_cell_formula_units_Z 10
_cell_length_a 5.151543
_cell_length_b 12.965104
_cell_length_c 6.910461
_cell_angle_alpha 90.000000
_cell_angle_beta 69.055382
_cell_angle_gamma 90.000000
_cell_volume 431.055312
_symmetry_space_group_name_H-M "P 21"
_symmetry_group_IT_number 4
_symmetry_cell_setting 'monoclinic'
loop_
_space_group_symop_operation_xyz
x,y,z
-x,1/2+y,-z
loop_
_atom_site_type_symbol
_atom_site_label
_atom_site_fract_x
_atom_site_fract_y
_atom_site_fract_z
Si Si1 0.897024 0.855860 0.061436
Si Si2 0.739863 0.103591 0.575261
Si Si3 0.777933 0.726664 0.424776
Si Si4 0.457432 0.975690 0.935257
Si Si5 0.835985 0.665145 0.820359
O O1 0.939156 0.742617 0.957383
O O2 0.841654 0.836989 0.305729
O O3 0.172665 0.921030 0.951488
O O4 0.628021 0.910372 0.044261
O O5 0.481110 0.178776 0.616885
O O6 0.950810 0.153887 0.675501
O O7 0.906006 0.093199 0.326074
O O8 0.635522 0.994326 0.690475
O O9 0.719836 0.736019 0.671836
O O10 0.400596 0.088714 0.040344
#
# Coordination Sequence:
#
# PCOD8046994 Si02
#       5
#     2   2   2   2   2
#     4  12  27  46  75 109 143 188 243 294 354 426
#     4  10  23  46  73  98 139 192 234 280 364 416
#     4  10  23  46  73  98 139 192 234 280 364 416
#     4  12  27  46  75 109 143 188 243 294 354 426
#     4  10  28  48  76  96 156 190 226 306 360 406
#
# _framework density 23.198878000000001
#
# number of rings (size 3 to 8) (size 9 to 14) (size 15 to 20)
#    1.200    0.000    2.000    2.400    5.600    1.600 
#    0.000    0.000    0.000    0.000    0.000    0.000 
#    0.000    0.000    0.000    0.000    0.000    0.000 
#
# Total GULP energy -123942.988494 kJ/mol
# GULP energy per Si atom -12394.298849 kJ/mol
# Density = 2.314608 g / cm^3
# Si number density = 23.198878 Si / 1000 Ang^3
#
#
#
# Elastic Constant Matrix: (Units=GPa)
#
#
# Indices 1 2 3 4 5 6 
#
# 1 112.3003 20.1930 19.5380 0.0000 -15.7279 0.0000
# 2 20.1930 59.8098 30.6401 0.0000 1.0245 0.0000
# 3 19.5380 30.6401 94.3609 0.0000 3.3386 0.0000
# 4 0.0000 0.0000 0.0000 21.4437 0.0000 -1.1674
# 5 -15.7279 1.0245 3.3386 0.0000 23.6262 0.0000
# 6 0.0000 0.0000 0.0000 -1.1674 0.0000 47.9918
#
#
#
# Elastic Compliance Matrix: (Units=1/GPa)
#
#
# Indices 1 2 3 4 5 6 
#
# 1 0.010757 -0.002979 -0.001526 0.000000 0.007506 0.000000
# 2 -0.002979 0.020881 -0.006092 0.000000 -0.002028 0.000000
# 3 -0.001526 -0.006092 0.012983 0.000000 -0.002586 0.000000
# 4 0.000000 0.000000 0.000000 0.046696 0.000000 0.001136
# 5 0.007506 -0.002028 -0.002586 0.000000 0.047776 0.000000
# 6 0.000000 0.000000 0.000000 0.001136 0.000000 0.020865
#
#
# Mechanical properties :
#
#
# Convention : Reuss Voigt Hill
#
# Bulk Modulus (GPa) = 42.68288 45.24590 43.96439
# Shear Modulus (GPa) = 26.46083 31.68565 29.07324
#
# Velocity S-wave (km/s) = 3.38095 3.69972 3.54392
# Velocity P-wave (km/s) = 5.80343 6.14788 5.97813
#
# Compressibility (1/GPa) = 0.02342860
#
# Stress axis : x y z
#
# Youngs Moduli (GPa) = 92.96338 47.89078 77.02353
#
# Poissons Ratio (x) = 0.14266 0.11751
# Poissons Ratio (y) = 0.27692 0.46921
# Poissons Ratio (z) = 0.14182 0.29174
#
# Static dielectric constant tensor:
#      x y z
#    x 4.032920 0.000000 -0.091340 
#    y 0.000000 3.906830 0.000000 
#    z -0.091340 0.000000 4.413320 
# 
# 
# High freq. dielectric constant tensor:
#      x y z
#    x 1.922370 0.000000 -0.003940 
#    y 0.000000 1.896610 0.000000 
#    z -0.003940 0.000000 1.924170 
# 
# From -- ./inp_files/4515.got.cif
#   From: 2010.03.12/outbox.cif.g09.slc.cpg/sg4_3_cif.got.tgz:4515.got - 2010.03.31 09:31:35.
