data_PCOD8046910
_publ_section_title
;
Structure prediction by ZEFSAII (Michael W. Deem and Ramdas Pophale) SiO2 
 PCOD8046910
Probable space group: P 21
;
_chemical_formula_sum "Si O2"
_cell_formula_units_Z 14
_cell_length_a 16.263209
_cell_length_b 6.786538
_cell_length_c 7.005199
_cell_angle_alpha 90.000000
_cell_angle_beta 66.491800
_cell_angle_gamma 90.000000
_cell_volume 708.999225
_symmetry_space_group_name_H-M "P 21"
_symmetry_group_IT_number 4
_symmetry_cell_setting 'monoclinic'
loop_
_space_group_symop_operation_xyz
x,y,z
-x,1/2+y,-z
loop_
_atom_site_type_symbol
_atom_site_label
_atom_site_fract_x
_atom_site_fract_y
_atom_site_fract_z
Si Si1 0.705114 0.551850 0.701805
Si Si2 0.121577 0.676114 0.774475
Si Si3 0.395176 0.785113 0.927794
Si Si4 0.905763 0.498508 0.500852
Si Si5 0.006336 0.841790 0.209527
Si Si6 0.591918 0.945152 0.800220
Si Si7 0.675087 0.231108 0.422735
O O1 0.810063 0.604229 0.614757
O O2 0.652436 0.753869 0.757292
O O3 0.681345 0.437452 0.528935
O O4 0.682214 0.416662 0.904889
O O5 0.226824 0.643576 0.713532
O O6 0.075070 0.463470 0.808481
O O7 0.106748 0.787820 0.588113
O O8 0.082267 0.805865 0.982244
O O9 0.488768 0.890352 0.879880
O O10 0.378823 0.770332 0.719424
O O11 0.393961 0.567082 0.018466
O O12 0.949756 0.470737 0.665424
O O13 0.970138 0.634028 0.315733
O O14 0.618785 0.072703 0.592718
#
# Coordination Sequence:
#
# PCOD8046910 Si02
#       7
#     2   2   2   2   2   2   2
#     4  10  23  44  62  91 125 160 204 256 303 365
#     4  11  23  42  60  95 125 156 213 255 302 361
#     4  11  23  42  65  93 125 160 202 253 307 364
#     4  11  23  40  65  91 124 162 206 251 311 361
#     4  12  22  40  66  89 124 168 200 257 304 360
#     4  11  23  41  64  93 125 159 203 253 303 370
#     4  10  25  41  64  90 124 163 204 255 302 367
#
# _framework density 19.746144999999999
#
# number of rings (size 3 to 8) (size 9 to 14) (size 15 to 20)
#    0.000    1.143    4.286    1.714    2.000    1.143 
#    5.143    0.000    0.000    0.000    0.000    0.000 
#    0.000    0.000    0.000    0.000    0.000    0.000 
#
# Total GULP energy -173699.169204 kJ/mol
# GULP energy per Si atom -12407.083515 kJ/mol
# Density = 1.970120 g / cm^3
# Si number density = 19.746145 Si / 1000 Ang^3
#
#
#
# Elastic Constant Matrix: (Units=GPa)
#
#
# Indices 1 2 3 4 5 6 
#
# 1 60.7659 19.5111 23.4357 0.0000 -9.9680 0.0000
# 2 19.5111 76.0695 33.7525 0.0000 8.6631 0.0000
# 3 23.4357 33.7525 79.0840 0.0000 -7.4169 0.0000
# 4 0.0000 0.0000 0.0000 29.6038 0.0000 -6.4255
# 5 -9.9680 8.6631 -7.4169 0.0000 30.2645 0.0000
# 6 0.0000 0.0000 0.0000 -6.4255 0.0000 28.3155
#
#
#
# Elastic Compliance Matrix: (Units=1/GPa)
#
#
# Indices 1 2 3 4 5 6 
#
# 1 0.020415 -0.004524 -0.003446 0.000000 0.007175 0.000000
# 2 -0.004524 0.018567 -0.007392 0.000000 -0.008617 0.000000
# 3 -0.003446 -0.007392 0.017311 0.000000 0.005223 0.000000
# 4 0.000000 0.000000 0.000000 0.035529 0.000000 0.008062
# 5 0.007175 -0.008617 0.005223 0.000000 0.039152 0.000000
# 6 0.000000 0.000000 0.000000 0.008062 0.000000 0.037146
#
#
# Mechanical properties :
#
#
# Convention : Reuss Voigt Hill
#
# Bulk Modulus (GPa) = 39.11000 41.03533 40.07267
# Shear Modulus (GPa) = 24.11180 26.91811 25.51496
#
# Velocity S-wave (km/s) = 3.49820 3.69617 3.59855
# Velocity P-wave (km/s) = 6.01381 6.24837 6.13221
#
# Compressibility (1/GPa) = 0.02556891
#
# Stress axis : x y z
#
# Youngs Moduli (GPa) = 48.98303 53.85786 57.76818
#
# Poissons Ratio (x) = 0.24367 0.19907
# Poissons Ratio (y) = 0.22162 0.42701
# Poissons Ratio (z) = 0.16879 0.39811
#
# Static dielectric constant tensor:
#      x y z
#    x 3.714680 0.000000 -0.159120 
#    y 0.000000 3.603960 0.000000 
#    z -0.159120 0.000000 3.680210 
# 
# 
# High freq. dielectric constant tensor:
#      x y z
#    x 1.778240 0.000000 -0.011720 
#    y 0.000000 1.772380 0.000000 
#    z -0.011720 0.000000 1.779920 
# 
# From -- ./inp_files/3340.got.cif
#   From: 2010.03.12/outbox.cif.g09.slc.cpg/sg4_2_cif.got.tgz:3340.got - 2010.03.31 09:31:35.
