data_PCOD8046947
_publ_section_title
;
Structure prediction by ZEFSAII (Michael W. Deem and Ramdas Pophale) SiO2 
 PCOD8046947
Probable space group: P 21
;
_chemical_formula_sum "Si O2"
_cell_formula_units_Z 14
_cell_length_a 10.517723
_cell_length_b 8.917708
_cell_length_c 11.790889
_cell_angle_alpha 90.000000
_cell_angle_beta 37.277558
_cell_angle_gamma 90.000000
_cell_volume 669.826692
_symmetry_space_group_name_H-M "P 21"
_symmetry_group_IT_number 4
_symmetry_cell_setting 'monoclinic'
loop_
_space_group_symop_operation_xyz
x,y,z
-x,1/2+y,-z
loop_
_atom_site_type_symbol
_atom_site_label
_atom_site_fract_x
_atom_site_fract_y
_atom_site_fract_z
Si Si1 0.869687 0.754610 0.340458
Si Si2 0.641302 0.050168 0.427167
Si Si3 0.681309 0.234033 0.940482
Si Si4 0.370009 0.407435 0.000661
Si Si5 0.829939 0.549910 0.166941
Si Si6 0.504368 0.607083 0.718992
Si Si7 0.002894 0.751989 0.854550
O O1 0.936919 0.642738 0.192125
O O2 0.740452 0.660189 0.525418
O O3 0.727583 0.886302 0.392406
O O4 0.090329 0.812686 0.235491
O O5 0.421127 0.065588 0.646622
O O6 0.623417 0.073581 0.304646
O O7 0.801155 0.180771 0.354962
O O8 0.605804 0.237452 0.126436
O O9 0.700621 0.060527 0.886017
O O10 0.514579 0.315085 0.981272
O O11 0.501355 0.451813 0.793448
O O12 0.164286 0.311631 0.116962
O O13 0.912027 0.380190 0.120868
O O14 0.899882 0.615020 0.997112
#
# Coordination Sequence:
#
# PCOD8046947 Si02
#       7
#     2   2   2   2   2   2   2
#     4  11  21  41  68  93 131 171 208 272 331 382
#     4  11  24  38  67 100 133 168 207 265 336 408
#     4  10  23  46  64  92 130 175 226 268 314 379
#     4  10  23  45  66  89 130 176 220 274 307 383
#     4  11  22  40  64  99 134 169 206 272 334 391
#     4   9  22  43  60  96 133 161 214 272 315 388
#     4  12  23  41  63  99 133 172 217 265 333 385
#
# _framework density 20.900928
#
# number of rings (size 3 to 8) (size 9 to 14) (size 15 to 20)
#    0.857    0.571    1.429    5.143    2.000    2.286 
#    2.571    0.000    0.000    0.000    0.000    0.000 
#    0.000    0.000    0.000    0.000    0.000    0.000 
#
# Total GULP energy -173555.488775 kJ/mol
# GULP energy per Si atom -12396.820627 kJ/mol
# Density = 2.085336 g / cm^3
# Si number density = 20.900928 Si / 1000 Ang^3
#
#
#
# Elastic Constant Matrix: (Units=GPa)
#
#
# Indices 1 2 3 4 5 6 
#
# 1 96.2922 30.1201 60.8301 0.0000 -27.0847 0.0000
# 2 30.1201 70.7072 23.0560 0.0000 -8.5631 0.0000
# 3 60.8301 23.0560 100.8613 0.0000 -25.8028 0.0000
# 4 0.0000 0.0000 0.0000 36.4608 0.0000 -6.1494
# 5 -27.0847 -8.5631 -25.8028 0.0000 26.5354 0.0000
# 6 0.0000 0.0000 0.0000 -6.1494 0.0000 38.0635
#
#
#
# Elastic Compliance Matrix: (Units=1/GPa)
#
#
# Indices 1 2 3 4 5 6 
#
# 1 0.020147 -0.004543 -0.008288 0.000000 0.011038 0.000000
# 2 -0.004543 0.016390 -0.001118 0.000000 -0.000435 0.000000
# 3 -0.008288 -0.001118 0.017188 0.000000 0.007893 0.000000
# 4 0.000000 0.000000 0.000000 0.028195 0.000000 0.004555
# 5 0.011038 -0.000435 0.007893 0.000000 0.056487 0.000000
# 6 0.000000 0.000000 0.000000 0.004555 0.000000 0.027008
#
#
# Mechanical properties :
#
#
# Convention : Reuss Voigt Hill
#
# Bulk Modulus (GPa) = 38.71998 55.09701 46.90849
# Shear Modulus (GPa) = 24.76206 30.46890 27.61548
#
# Velocity S-wave (km/s) = 3.44573 3.82223 3.63885
# Velocity P-wave (km/s) = 5.86485 6.77477 6.33616
#
# Compressibility (1/GPa) = 0.02582646
#
# Stress axis : x y z
#
# Youngs Moduli (GPa) = 49.63577 61.01328 58.17963
#
# Poissons Ratio (x) = 0.27717 0.48221
# Poissons Ratio (y) = 0.22548 0.06505
# Poissons Ratio (z) = 0.41140 0.06822
#
# Static dielectric constant tensor:
#      x y z
#    x 3.451660 0.000000 -0.143930 
#    y 0.000000 3.815920 0.000000 
#    z -0.143930 0.000000 3.841040 
# 
# 
# High freq. dielectric constant tensor:
#      x y z
#    x 1.791500 0.000000 -0.020870 
#    y 0.000000 1.821440 0.000000 
#    z -0.020870 0.000000 1.825240 
# 
# From -- ./inp_files/13885.got.cif
#   From: 2010.03.12/outbox.cif.g09.slc.cpg/sg4_7_cif.got.tgz:13885.got - 2010.03.31 09:31:35.
