data_PCOD8046403
_publ_section_title
;
Structure prediction by ZEFSAII (Michael W. Deem and Ramdas Pophale) SiO2 
 PCOD8046403
Probable space group: P 21
;
_chemical_formula_sum "Si O2"
_cell_formula_units_Z 14
_cell_length_a 7.402039
_cell_length_b 8.511834
_cell_length_c 7.426941
_cell_angle_alpha 90.000000
_cell_angle_beta 74.742605
_cell_angle_gamma 90.000000
_cell_volume 451.440784
_symmetry_space_group_name_H-M "P 21"
_symmetry_group_IT_number 4
_symmetry_cell_setting 'monoclinic'
loop_
_space_group_symop_operation_xyz
x,y,z
-x,1/2+y,-z
loop_
_atom_site_type_symbol
_atom_site_label
_atom_site_fract_x
_atom_site_fract_y
_atom_site_fract_z
Si Si1 0.460959 0.370810 0.505528
Si Si2 0.989539 0.352258 0.089809
Si Si3 0.833677 0.561411 0.427758
Si Si4 0.342562 0.624634 0.766018
Si Si5 0.370839 0.688854 0.233911
Si Si6 0.609417 0.879645 0.932855
Si Si7 0.005604 0.370717 0.676241
O O1 0.636379 0.482683 0.510681
O O2 0.299436 0.505229 0.599624
O O3 0.496113 0.264786 0.311154
O O4 0.478482 0.239986 0.658334
O O5 0.924078 0.505681 0.216455
O O6 0.854957 0.205486 0.148155
O O7 0.010204 0.418104 0.882618
O O8 0.191035 0.292510 0.109740
O O9 0.970557 0.517173 0.556902
O O10 0.813584 0.756367 0.429474
O O11 0.405065 0.514556 0.910073
O O12 0.436207 0.761851 0.019003
O O13 0.157514 0.739449 0.317858
O O14 0.397925 0.496747 0.240880
#
# Coordination Sequence:
#
# PCOD8046403 Si02
#       7
#     2   2   2   2   2   2   2
#     4   9  22  40  67 101 143 185 235 299 365 437
#     4  11  22  44  75 102 146 189 249 296 361 441
#     4  10  23  43  70 105 143 194 235 301 370 424
#     4  10  21  43  69 103 142 183 242 295 368 434
#     4  10  22  45  65  99 145 181 237 295 362 435
#     4  11  23  45  70 105 140 190 240 297 371 432
#     4  11  23  46  70 105 147 184 246 301 357 445
#
# _framework density 31.011818000000002
#
# number of rings (size 3 to 8) (size 9 to 14) (size 15 to 20)
#    0.000    1.714    2.857    0.000    0.000    8.000 
#   12.857    0.000    0.000    0.000    0.000    0.000 
#    0.000    0.000    0.000    0.000    0.000    0.000 
#
# Total GULP energy -173610.792636 kJ/mol
# GULP energy per Si atom -12400.770903 kJ/mol
# Density = 3.094123 g / cm^3
# Si number density = 31.011818 Si / 1000 Ang^3
#
#
#
# Elastic Constant Matrix: (Units=GPa)
#
#
# Indices 1 2 3 4 5 6 
#
# 1 93.4864 16.7610 18.7890 0.0000 0.0100 0.0000
# 2 16.7610 154.7877 22.3878 0.0000 -5.5337 0.0000
# 3 18.7890 22.3878 126.0123 0.0000 -21.6979 0.0000
# 4 0.0000 0.0000 0.0000 41.0951 0.0000 -1.5891
# 5 0.0100 -5.5337 -21.6979 0.0000 29.0520 0.0000
# 6 0.0000 0.0000 0.0000 -1.5891 0.0000 52.6442
#
#
#
# Elastic Compliance Matrix: (Units=1/GPa)
#
#
# Indices 1 2 3 4 5 6 
#
# 1 0.011232 -0.001016 -0.001754 0.000000 -0.001507 0.000000
# 2 -0.001016 0.006728 -0.000944 0.000000 0.000576 0.000000
# 3 -0.001754 -0.000944 0.009564 0.000000 0.006964 0.000000
# 4 0.000000 0.000000 0.000000 0.024362 0.000000 0.000735
# 5 -0.001507 0.000576 0.006964 0.000000 0.039732 0.000000
# 6 0.000000 0.000000 0.000000 0.000735 0.000000 0.019018
#
#
# Mechanical properties :
#
#
# Convention : Reuss Voigt Hill
#
# Bulk Modulus (GPa) = 49.76520 54.46246 52.11383
# Shear Modulus (GPa) = 40.07604 45.64816 42.86210
#
# Velocity S-wave (km/s) = 3.59873 3.84078 3.72172
# Velocity P-wave (km/s) = 5.77493 6.10481 5.94216
#
# Compressibility (1/GPa) = 0.02009436
#
# Stress axis : x y z
#
# Youngs Moduli (GPa) = 89.03465 148.63838 104.55775
#
# Poissons Ratio (x) = 0.15108 0.18335
# Poissons Ratio (y) = 0.09050 0.09875
# Poissons Ratio (z) = 0.15613 0.14038
#
# Static dielectric constant tensor:
#      x y z
#    x 6.250190 0.000000 -0.305250 
#    y 0.000000 6.800950 0.000000 
#    z -0.305250 0.000000 6.663420 
# 
# 
# High freq. dielectric constant tensor:
#      x y z
#    x 2.292660 0.000000 -0.002590 
#    y 0.000000 2.321140 0.000000 
#    z -0.002590 0.000000 2.302910 
# 
# From -- ./inp_files/5344.got.cif
#   From: 2010.03.12/outbox.cif.g09.slc.cpg/sg4_3_cif.got.tgz:5344.got - 2010.03.31 09:31:35.
