data_PCOD8046005
_publ_section_title
;
Structure prediction by ZEFSAII (Michael W. Deem and Ramdas Pophale) SiO2 
 PCOD8046005
Probable space group: P 21
;
_chemical_formula_sum "Si O2"
_cell_formula_units_Z 16
_cell_length_a 8.327639
_cell_length_b 8.631151
_cell_length_c 11.577766
_cell_angle_alpha 90.000000
_cell_angle_beta 74.348020
_cell_angle_gamma 90.000000
_cell_volume 801.317760
_symmetry_space_group_name_H-M "P 21"
_symmetry_group_IT_number 4
_symmetry_cell_setting 'monoclinic'
loop_
_space_group_symop_operation_xyz
x,y,z
-x,1/2+y,-z
loop_
_atom_site_type_symbol
_atom_site_label
_atom_site_fract_x
_atom_site_fract_y
_atom_site_fract_z
Si Si1 0.001878 0.353850 0.904993
Si Si2 0.762596 0.126095 0.059978
Si Si3 0.270895 0.942588 0.205964
Si Si4 0.525976 0.460714 0.408216
Si Si5 0.580401 0.283139 0.621955
Si Si6 0.451596 0.233839 0.238876
Si Si7 0.703323 0.648796 0.201675
Si Si8 0.499807 0.492052 0.047749
O O1 0.913889 0.430972 0.811034
O O2 0.116518 0.481414 0.942230
O O3 0.107538 0.203404 0.845898
O O4 0.864789 0.286272 0.021078
O O5 0.633892 0.152511 0.190664
O O6 0.657736 0.092924 0.963607
O O7 0.302129 0.111065 0.256667
O O8 0.280834 0.816241 0.307402
O O9 0.408562 0.915382 0.079608
O O10 0.585906 0.416265 0.524000
O O11 0.399672 0.609387 0.435476
O O12 0.433956 0.313722 0.367742
O O13 0.685026 0.504460 0.295428
O O14 0.403376 0.292273 0.724415
O O15 0.427170 0.357984 0.142139
O O16 0.630296 0.600881 0.090972
#
# Coordination Sequence:
#
# PCOD8046005 Si02
#       8
#     2   2   2   2   2   2   2   2
#     4  12  24  38  55  96 132 170 194 257 330 374
#     4  11  25  34  62  85 139 163 208 246 314 383
#     4  11  22  35  61  90 130 161 207 247 315 377
#     4   9  21  38  71  89 116 153 229 261 305 354
#     4  10  20  39  65  91 114 166 214 270 295 363
#     4  10  21  38  62  91 119 165 214 255 298 366
#     4   9  21  37  63  86 125 153 205 260 315 366
#     4  10  20  39  61  94 117 169 209 252 296 377
#
# _framework density 19.967109000000001
#
# number of rings (size 3 to 8) (size 9 to 14) (size 15 to 20)
#    0.750    1.000    1.250    3.750    8.750    0.000 
#    0.000    0.000    5.500    0.000    0.000    0.000 
#    0.000    0.000    0.000    0.000    0.000    0.000 
#
# Total GULP energy -198294.033978 kJ/mol
# GULP energy per Si atom -12393.377124 kJ/mol
# Density = 1.992166 g / cm^3
# Si number density = 19.967109 Si / 1000 Ang^3
#
#
#
# Elastic Constant Matrix: (Units=GPa)
#
#
# Indices 1 2 3 4 5 6 
#
# 1 97.2002 46.2791 32.0490 0.0000 23.1558 0.0000
# 2 46.2791 100.4398 31.1476 0.0000 13.0007 0.0000
# 3 32.0490 31.1476 99.9520 0.0000 26.2576 0.0000
# 4 0.0000 0.0000 0.0000 39.8600 0.0000 4.5809
# 5 23.1558 13.0007 26.2576 0.0000 16.5099 0.0000
# 6 0.0000 0.0000 0.0000 4.5809 0.0000 44.2139
#
#
#
# Elastic Compliance Matrix: (Units=1/GPa)
#
#
# Indices 1 2 3 4 5 6 
#
# 1 0.018225 -0.005965 0.002570 0.000000 -0.024951 0.000000
# 2 -0.005965 0.013275 -0.002878 0.000000 0.002490 0.000000
# 3 0.002570 -0.002878 0.017914 0.000000 -0.029828 0.000000
# 4 0.000000 0.000000 0.000000 0.025390 0.000000 -0.002631
# 5 -0.024951 0.002490 -0.029828 0.000000 0.141042 0.000000
# 6 0.000000 0.000000 0.000000 -0.002631 0.000000 0.022890
#
#
# Mechanical properties :
#
#
# Convention : Reuss Voigt Hill
#
# Bulk Modulus (GPa) = 27.12487 57.39371 42.25929
# Shear Modulus (GPa) = 18.97026 32.65785 25.81406
#
# Velocity S-wave (km/s) = 3.08567 4.04862 3.59949
# Velocity P-wave (km/s) = 5.12927 7.11770 6.20367
#
# Compressibility (1/GPa) = 0.03686653
#
# Stress axis : x y z
#
# Youngs Moduli (GPa) = 54.87089 75.33081 55.82347
#
# Poissons Ratio (x) = 0.44932 -0.14345
# Poissons Ratio (y) = 0.32728 0.16069
# Poissons Ratio (z) = -0.14101 0.21684
#
# Static dielectric constant tensor:
#      x y z
#    x 3.401150 0.000000 0.162110 
#    y 0.000000 3.794650 0.000000 
#    z 0.162110 0.000000 3.525450 
# 
# 
# High freq. dielectric constant tensor:
#      x y z
#    x 1.738600 0.000000 0.020890 
#    y 0.000000 1.797120 0.000000 
#    z 0.020890 0.000000 1.766140 
# 
# From -- ./inp_files/10872.got.cif
#   From: 2010.03.12/outbox.cif.g09.slc.cpg/sg4_6_cif.got.tgz:10872.got - 2010.03.31 09:31:35.
