data_PCOD8046180
_publ_section_title
;
Structure prediction by ZEFSAII (Michael W. Deem and Ramdas Pophale) SiO2 
 PCOD8046180
Probable space group: P 21
;
_chemical_formula_sum "Si O2"
_cell_formula_units_Z 16
_cell_length_a 8.892514
_cell_length_b 9.294511
_cell_length_c 11.458040
_cell_angle_alpha 90.000000
_cell_angle_beta 58.622550
_cell_angle_gamma 90.000000
_cell_volume 808.528061
_symmetry_space_group_name_H-M "P 21"
_symmetry_group_IT_number 4
_symmetry_cell_setting 'monoclinic'
loop_
_space_group_symop_operation_xyz
x,y,z
-x,1/2+y,-z
loop_
_atom_site_type_symbol
_atom_site_label
_atom_site_fract_x
_atom_site_fract_y
_atom_site_fract_z
Si Si1 0.495041 0.414280 0.905916
Si Si2 0.769024 0.532178 0.222747
Si Si3 0.354740 0.159309 0.293587
Si Si4 0.165469 0.449805 0.337921
Si Si5 0.229323 0.944313 0.517792
Si Si6 0.160937 0.574450 0.084998
Si Si7 0.574430 0.189734 0.684928
Si Si8 0.355683 0.831159 0.921215
O O1 0.640754 0.531384 0.804922
O O2 0.534101 0.262627 0.826902
O O3 0.295425 0.469912 0.958511
O O4 0.508014 0.402237 0.041545
O O5 0.772142 0.440905 0.341224
O O6 0.614738 0.650684 0.295237
O O7 0.743393 0.447239 0.113674
O O8 0.963628 0.589916 0.117250
O O9 0.211373 0.280554 0.320369
O O10 0.543845 0.235715 0.215710
O O11 0.326709 0.088363 0.431969
O O12 0.158388 0.519805 0.215801
O O13 0.304570 0.545531 0.356075
O O14 0.963983 0.452431 0.464750
O O15 0.329753 0.800866 0.438746
O O16 0.225195 0.738419 0.053125
#
# Coordination Sequence:
#
# PCOD8046180 Si02
#       8
#     2   2   2   2   2   2   2   2
#     4  10  21  39  65  92 119 156 206 254 300 367
#     4  11  25  38  63  87 127 169 194 254 308 377
#     4  10  21  38  65  88 118 156 201 257 300 350
#     4  11  19  40  66  92 116 157 206 262 295 356
#     4  10  25  41  59  90 125 157 212 249 301 363
#     4  10  22  38  60  94 127 150 205 251 308 364
#     4  11  22  40  66  86 120 167 204 249 312 358
#     4  11  21  40  64  89 122 160 204 252 308 365
#
# _framework density 19.789047
#
# number of rings (size 3 to 8) (size 9 to 14) (size 15 to 20)
#    0.000    1.500    3.750    0.750    5.250    0.000 
#    2.250    0.000    2.750    0.000    0.000    0.000 
#    0.000    0.000    0.000    0.000    0.000    0.000 
#
# Total GULP energy -198257.394289 kJ/mol
# GULP energy per Si atom -12391.087143 kJ/mol
# Density = 1.974401 g / cm^3
# Si number density = 19.789047 Si / 1000 Ang^3
#
#
#
# Elastic Constant Matrix: (Units=GPa)
#
#
# Indices 1 2 3 4 5 6 
#
# 1 122.1831 48.8844 33.0184 0.0000 -13.9875 0.0000
# 2 48.8844 102.0241 36.8922 0.0000 -18.6431 0.0000
# 3 33.0184 36.8922 63.2565 0.0000 0.6849 0.0000
# 4 0.0000 0.0000 0.0000 27.2546 0.0000 0.1705
# 5 -13.9875 -18.6431 0.6849 0.0000 21.6243 0.0000
# 6 0.0000 0.0000 0.0000 0.1705 0.0000 22.1199
#
#
#
# Elastic Compliance Matrix: (Units=1/GPa)
#
#
# Indices 1 2 3 4 5 6 
#
# 1 0.011001 -0.002933 -0.004083 0.000000 0.004717 0.000000
# 2 -0.002933 0.016472 -0.008212 0.000000 0.012564 0.000000
# 3 -0.004083 -0.008212 0.022842 0.000000 -0.010444 0.000000
# 4 0.000000 0.000000 0.000000 0.036693 0.000000 -0.000283
# 5 0.004717 0.012564 -0.010444 0.000000 0.060458 0.000000
# 6 0.000000 0.000000 0.000000 -0.000283 0.000000 0.045210
#
#
# Mechanical properties :
#
#
# Convention : Reuss Voigt Hill
#
# Bulk Modulus (GPa) = 50.35220 58.33930 54.34575
# Shear Modulus (GPa) = 21.76251 25.44434 23.60342
#
# Velocity S-wave (km/s) = 3.31981 3.58967 3.45737
# Velocity P-wave (km/s) = 6.33992 6.83561 6.59242
#
# Compressibility (1/GPa) = 0.01986011
#
# Stress axis : x y z
#
# Youngs Moduli (GPa) = 90.89929 60.70801 43.77838
#
# Poissons Ratio (x) = 0.17805 0.17874
# Poissons Ratio (y) = 0.26659 0.35951
# Poissons Ratio (z) = 0.37114 0.49854
#
# Static dielectric constant tensor:
#      x y z
#    x 3.773980 0.000000 -0.389470 
#    y 0.000000 3.711100 0.000000 
#    z -0.389470 0.000000 3.683900 
# 
# 
# High freq. dielectric constant tensor:
#      x y z
#    x 1.758460 0.000000 -0.020940 
#    y 0.000000 1.775380 0.000000 
#    z -0.020940 0.000000 1.776130 
# 
# From -- ./inp_files/7643.got.cif
#   From: 2010.03.12/outbox.cif.g09.slc.cpg/sg4_4_cif.got.tgz:7643.got - 2010.03.31 09:31:35.
