data_PCOD8046550
_publ_section_title
;
Structure prediction by ZEFSAII (Michael W. Deem and Ramdas Pophale) SiO2 
 PCOD8046550
Probable space group: P 21
;
_chemical_formula_sum "Si O2"
_cell_formula_units_Z 14
_cell_length_a 8.750337
_cell_length_b 9.336493
_cell_length_c 9.430512
_cell_angle_alpha 90.000000
_cell_angle_beta 120.852414
_cell_angle_gamma 90.000000
_cell_volume 661.423522
_symmetry_space_group_name_H-M "P 21"
_symmetry_group_IT_number 4
_symmetry_cell_setting 'monoclinic'
loop_
_space_group_symop_operation_xyz
x,y,z
-x,1/2+y,-z
loop_
_atom_site_type_symbol
_atom_site_label
_atom_site_fract_x
_atom_site_fract_y
_atom_site_fract_z
Si Si1 0.796044 0.710010 0.425133
Si Si2 0.640532 0.706803 0.826220
Si Si3 0.084617 0.291756 0.821392
Si Si4 0.503936 0.432794 0.675761
Si Si5 0.215382 0.691469 0.134315
Si Si6 0.508092 0.484197 0.353829
Si Si7 0.032455 0.120327 0.217909
O O1 0.899400 0.733369 0.329145
O O2 0.684081 0.853808 0.402433
O O3 0.670445 0.569402 0.357896
O O4 0.945796 0.688141 0.616215
O O5 0.519527 0.564691 0.795102
O O6 0.790621 0.657224 0.786095
O O7 0.499214 0.818455 0.692818
O O8 0.724429 0.772827 0.009403
O O9 0.945373 0.187635 0.830856
O O10 0.006229 0.451302 0.790820
O O11 0.662339 0.327285 0.788072
O O12 0.530866 0.498911 0.532693
O O13 0.320446 0.545949 0.212358
O O14 0.137082 0.693963 0.937731
#
# Coordination Sequence:
#
# PCOD8046550 Si02
#       7
#     2   2   2   2   2   2   2
#     4  11  25  41  66  97 135 166 221 283 331 380
#     4  11  21  40  71  92 129 176 222 270 318 400
#     4  11  24  41  64 103 134 166 217 281 338 383
#     4  11  21  42  68  96 125 176 232 258 323 405
#     4  10  22  40  70  89 129 177 219 266 320 407
#     4  11  20  41  70  95 124 177 227 266 319 401
#     4  11  21  43  65  96 134 172 222 266 329 406
#
# _framework density 21.166468999999999
#
# number of rings (size 3 to 8) (size 9 to 14) (size 15 to 20)
#    0.000    1.143    5.714    0.857    0.000    2.286 
#    2.571    0.000    0.000    0.000    0.000    0.000 
#    0.000    0.000    0.000    0.000    0.000    0.000 
#
# Total GULP energy -173599.168840 kJ/mol
# GULP energy per Si atom -12399.940631 kJ/mol
# Density = 2.111829 g / cm^3
# Si number density = 21.166469 Si / 1000 Ang^3
#
#
#
# Elastic Constant Matrix: (Units=GPa)
#
#
# Indices 1 2 3 4 5 6 
#
# 1 55.5798 28.5745 43.0700 0.0000 -5.7874 0.0000
# 2 28.5745 114.7197 48.8634 0.0000 6.0450 0.0000
# 3 43.0700 48.8634 165.7993 0.0000 3.9895 0.0000
# 4 0.0000 0.0000 0.0000 42.0184 0.0000 4.9132
# 5 -5.7874 6.0450 3.9895 0.0000 33.8661 0.0000
# 6 0.0000 0.0000 0.0000 4.9132 0.0000 22.7332
#
#
#
# Elastic Compliance Matrix: (Units=1/GPa)
#
#
# Indices 1 2 3 4 5 6 
#
# 1 0.024902 -0.004216 -0.005362 0.000000 0.005640 0.000000
# 2 -0.004216 0.010752 -0.002016 0.000000 -0.002402 0.000000
# 3 -0.005362 -0.002016 0.008055 0.000000 -0.001505 0.000000
# 4 0.000000 0.000000 0.000000 0.024416 0.000000 -0.005277
# 5 0.005640 -0.002402 -0.001505 0.000000 0.031098 0.000000
# 6 0.000000 0.000000 0.000000 -0.005277 0.000000 0.045129
#
#
# Mechanical properties :
#
#
# Convention : Reuss Voigt Hill
#
# Bulk Modulus (GPa) = 48.73000 64.12385 56.42692
# Shear Modulus (GPa) = 28.67299 34.09625 31.38462
#
# Velocity S-wave (km/s) = 3.68454 4.01791 3.85483
# Velocity P-wave (km/s) = 6.41665 7.20316 6.82125
#
# Compressibility (1/GPa) = 0.02052124
#
# Stress axis : x y z
#
# Youngs Moduli (GPa) = 40.15729 93.00414 124.15227
#
# Poissons Ratio (x) = 0.39210 0.66571
# Poissons Ratio (y) = 0.16930 0.25027
# Poissons Ratio (z) = 0.21533 0.18748
#
# Static dielectric constant tensor:
#      x y z
#    x 3.545210 0.000000 0.206980 
#    y 0.000000 3.976180 0.000000 
#    z 0.206980 0.000000 4.061450 
# 
# 
# High freq. dielectric constant tensor:
#      x y z
#    x 1.797790 0.000000 0.019300 
#    y 0.000000 1.841770 0.000000 
#    z 0.019300 0.000000 1.845640 
# 
# From -- ./inp_files/5226.got.cif
#   From: 2010.03.12/outbox.cif.g09.slc.cpg/sg4_3_cif.got.tgz:5226.got - 2010.03.31 09:31:35.
