data_PCOD8046388
_publ_section_title
;
Structure prediction by ZEFSAII (Michael W. Deem and Ramdas Pophale) SiO2 
 PCOD8046388
Probable space group: P 21
;
_chemical_formula_sum "Si O2"
_cell_formula_units_Z 16
_cell_length_a 6.301216
_cell_length_b 14.662918
_cell_length_c 11.285751
_cell_angle_alpha 90.000000
_cell_angle_beta 130.752981
_cell_angle_gamma 90.000000
_cell_volume 789.906448
_symmetry_space_group_name_H-M "P 21"
_symmetry_group_IT_number 4
_symmetry_cell_setting 'monoclinic'
loop_
_space_group_symop_operation_xyz
x,y,z
-x,1/2+y,-z
loop_
_atom_site_type_symbol
_atom_site_label
_atom_site_fract_x
_atom_site_fract_y
_atom_site_fract_z
Si Si1 0.479758 0.454230 0.222989
Si Si2 0.879602 0.603229 0.299729
Si Si3 0.946330 0.351499 0.018898
Si Si4 0.160728 0.246156 0.905794
Si Si5 0.243253 0.798774 0.807007
Si Si6 0.777559 0.702472 0.503212
Si Si7 0.533960 0.025767 0.523205
Si Si8 0.344514 0.862572 0.306329
O O1 0.598994 0.542337 0.198662
O O2 0.679876 0.368318 0.269055
O O3 0.475484 0.468133 0.360920
O O4 0.168499 0.431094 0.064306
O O5 0.900482 0.649898 0.178300
O O6 0.858902 0.675746 0.398881
O O7 0.153696 0.540984 0.412926
O O8 0.930331 0.350343 0.153958
O O9 0.661271 0.373154 0.840958
O O10 0.065723 0.253296 0.010430
O O11 0.962356 0.321876 0.767090
O O12 0.492856 0.261548 0.021810
O O13 0.060891 0.719455 0.680782
O O14 0.616233 0.622541 0.513318
O O15 0.591348 0.794024 0.435071
O O16 0.378142 0.963173 0.370808
#
# Coordination Sequence:
#
# PCOD8046388 Si02
#       8
#     2   2   2   2   2   2   2   2
#     4  10  22  37  62  92 126 164 212 256 325 373
#     4  11  22  41  63  93 126 165 215 266 318 379
#     4   9  20  39  60  90 123 169 207 255 317 372
#     4   9  22  39  63  87 124 169 208 253 321 376
#     4  11  22  42  64  95 127 171 211 259 317 387
#     4  11  24  39  66  97 125 166 216 265 319 376
#     4  11  23  42  63  97 126 167 212 268 320 374
#     4  10  21  43  65  89 131 169 209 266 313 383
#
# _framework density 20.255562999999999
#
# number of rings (size 3 to 8) (size 9 to 14) (size 15 to 20)
#    0.750    1.000    1.250    3.000    1.750    3.000 
#    4.500    2.500    0.000    0.000    0.000    0.000 
#    0.000    0.000    0.000    0.000    0.000    0.000 
#
# Total GULP energy -198226.152642 kJ/mol
# GULP energy per Si atom -12389.134540 kJ/mol
# Density = 2.020946 g / cm^3
# Si number density = 20.255563 Si / 1000 Ang^3
#
#
#
# Elastic Constant Matrix: (Units=GPa)
#
#
# Indices 1 2 3 4 5 6 
#
# 1 78.8485 29.0386 32.9024 0.0000 6.5720 0.0000
# 2 29.0386 78.6163 48.8622 0.0000 2.3601 0.0000
# 3 32.9024 48.8622 98.1387 0.0000 14.5918 0.0000
# 4 0.0000 0.0000 0.0000 35.5076 0.0000 -1.0573
# 5 6.5720 2.3601 14.5918 0.0000 31.6780 0.0000
# 6 0.0000 0.0000 0.0000 -1.0573 0.0000 29.1896
#
#
#
# Elastic Compliance Matrix: (Units=1/GPa)
#
#
# Indices 1 2 3 4 5 6 
#
# 1 0.015482 -0.003745 -0.003102 0.000000 -0.001504 0.000000
# 2 -0.003745 0.019607 -0.009023 0.000000 0.003472 0.000000
# 3 -0.003102 -0.009023 0.016668 0.000000 -0.006362 0.000000
# 4 0.000000 0.000000 0.000000 0.028193 0.000000 0.001021
# 5 -0.001504 0.003472 -0.006362 0.000000 0.034551 0.000000
# 6 0.000000 0.000000 0.000000 0.001021 0.000000 0.034296
#
#
# Mechanical properties :
#
#
# Convention : Reuss Voigt Hill
#
# Bulk Modulus (GPa) = 49.95913 53.02333 51.49123
# Shear Modulus (GPa) = 26.70799 28.92838 27.81818
#
# Velocity S-wave (km/s) = 3.63512 3.78321 3.70991
# Velocity P-wave (km/s) = 6.50667 6.73183 6.62021
#
# Compressibility (1/GPa) = 0.02001636
#
# Stress axis : x y z
#
# Youngs Moduli (GPa) = 64.59239 51.00198 59.99528
#
# Poissons Ratio (x) = 0.19102 0.18611
# Poissons Ratio (y) = 0.24192 0.54132
# Poissons Ratio (z) = 0.20037 0.46018
#
# Static dielectric constant tensor:
#      x y z
#    x 3.730170 0.000000 0.102000 
#    y 0.000000 3.503430 0.000000 
#    z 0.102000 0.000000 3.635240 
# 
# 
# High freq. dielectric constant tensor:
#      x y z
#    x 1.793320 0.000000 0.007820 
#    y 0.000000 1.777210 0.000000 
#    z 0.007820 0.000000 1.789040 
# 
# From -- ./inp_files/3162.got.cif
#   From: 2010.03.12/outbox.cif.g09.slc.cpg/sg4_2_cif.got.tgz:3162.got - 2010.03.31 09:31:35.
