data_PCOD8046194
_publ_section_title
;
Structure prediction by ZEFSAII (Michael W. Deem and Ramdas Pophale) SiO2 
 PCOD8046194
Probable space group: P 21
;
_chemical_formula_sum "Si O2"
_cell_formula_units_Z 14
_cell_length_a 11.420239
_cell_length_b 9.458030
_cell_length_c 6.185656
_cell_angle_alpha 90.000000
_cell_angle_beta 71.468081
_cell_angle_gamma 90.000000
_cell_volume 633.486261
_symmetry_space_group_name_H-M "P 21"
_symmetry_group_IT_number 4
_symmetry_cell_setting 'monoclinic'
loop_
_space_group_symop_operation_xyz
x,y,z
-x,1/2+y,-z
loop_
_atom_site_type_symbol
_atom_site_label
_atom_site_fract_x
_atom_site_fract_y
_atom_site_fract_z
Si Si1 0.445383 0.654930 0.411094
Si Si2 0.645121 0.881415 0.295717
Si Si3 0.978758 0.784502 0.784434
Si Si4 0.069648 0.008231 0.016314
Si Si5 0.707056 0.064101 0.877509
Si Si6 0.125263 0.413904 0.544916
Si Si7 0.234805 0.779337 0.788526
O O1 0.578917 0.728808 0.344920
O O2 0.436762 0.506903 0.546272
O O3 0.411017 0.628762 0.180381
O O4 0.356580 0.773190 0.573271
O O5 0.776594 0.861781 0.335725
O O6 0.667108 0.922337 0.031421
O O7 0.909151 0.677233 0.993513
O O8 0.914931 0.783309 0.587941
O O9 0.121235 0.729307 0.700219
O O10 0.977692 0.945027 0.884027
O O11 0.003336 0.971397 0.282979
O O12 0.204322 0.934551 0.906864
O O13 0.810274 0.032810 0.638691
O O14 0.760602 0.174652 0.013850
#
# Coordination Sequence:
#
# PCOD8046194 Si02
#       7
#     2   2   2   2   2   2   2
#     4  10  22  45  69  88 126 166 212 268 323 367
#     4  10  23  44  66  95 121 166 216 265 313 388
#     4  10  21  39  60  95 129 169 209 256 312 373
#     4  10  23  37  63  93 132 163 217 256 303 385
#     4  10  21  41  67  91 127 170 212 256 326 374
#     4  11  22  38  67  90 131 172 204 255 328 369
#     4   9  22  38  64  94 126 166 214 256 309 380
#
# _framework density 22.099928999999999
#
# number of rings (size 3 to 8) (size 9 to 14) (size 15 to 20)
#    0.857    1.143    0.000    4.286    4.000    4.571 
#    7.714    0.000    0.000    0.000    0.000    0.000 
#    0.000    0.000    0.000    0.000    0.000    0.000 
#
# Total GULP energy -173433.618602 kJ/mol
# GULP energy per Si atom -12388.115614 kJ/mol
# Density = 2.204963 g / cm^3
# Si number density = 22.099929 Si / 1000 Ang^3
#
#
#
# Elastic Constant Matrix: (Units=GPa)
#
#
# Indices 1 2 3 4 5 6 
#
# 1 69.5616 17.1749 33.4571 0.0000 29.2029 0.0000
# 2 17.1749 55.9319 13.0998 0.0000 18.3598 0.0000
# 3 33.4571 13.0998 92.0429 0.0000 17.7872 0.0000
# 4 0.0000 0.0000 0.0000 32.2212 0.0000 0.2487
# 5 29.2029 18.3598 17.7872 0.0000 21.7050 0.0000
# 6 0.0000 0.0000 0.0000 0.2487 0.0000 37.3350
#
#
#
# Elastic Compliance Matrix: (Units=1/GPa)
#
#
# Indices 1 2 3 4 5 6 
#
# 1 0.035993 0.006501 -0.004262 0.000000 -0.050432 0.000000
# 2 0.006501 0.025955 -0.000147 0.000000 -0.030581 0.000000
# 3 -0.004262 -0.000147 0.013429 0.000000 -0.005146 0.000000
# 4 0.000000 0.000000 0.000000 0.031037 0.000000 -0.000207
# 5 -0.050432 -0.030581 -0.005146 0.000000 0.144011 0.000000
# 6 0.000000 0.000000 0.000000 -0.000207 0.000000 0.026786
#
#
# Mechanical properties :
#
#
# Convention : Reuss Voigt Hill
#
# Bulk Modulus (GPa) = 12.56924 38.33333 25.45129
# Shear Modulus (GPa) = 16.69172 28.50587 22.59879
#
# Velocity S-wave (km/s) = 2.75122 3.59536 3.20124
# Velocity P-wave (km/s) = 3.97393 5.88376 5.02049
#
# Compressibility (1/GPa) = 0.07955930
#
# Stress axis : x y z
#
# Youngs Moduli (GPa) = 27.78318 38.52753 74.46434
#
# Poissons Ratio (x) = -0.25045 0.31740
# Poissons Ratio (y) = -0.18061 0.01097
# Poissons Ratio (z) = 0.11843 0.00567
#
# Static dielectric constant tensor:
#      x y z
#    x 3.797750 0.000000 0.115020 
#    y 0.000000 3.898140 0.000000 
#    z 0.115020 0.000000 4.058000 
# 
# 
# High freq. dielectric constant tensor:
#      x y z
#    x 1.850340 0.000000 0.004250 
#    y 0.000000 1.857050 0.000000 
#    z 0.004250 0.000000 1.871580 
# 
# From -- ./inp_files/2700.got.cif
#   From: 2010.03.12/outbox.cif.g09.slc.cpg/sg4_2_cif.got.tgz:2700.got - 2010.03.31 09:31:35.
