data_PCOD8046415
_publ_section_title
;
Structure prediction by ZEFSAII (Michael W. Deem and Ramdas Pophale) SiO2 
 PCOD8046415
Probable space group: P 21
;
_chemical_formula_sum "Si O2"
_cell_formula_units_Z 16
_cell_length_a 10.935164
_cell_length_b 9.229899
_cell_length_c 8.165422
_cell_angle_alpha 90.000000
_cell_angle_beta 112.645089
_cell_angle_gamma 90.000000
_cell_volume 760.604803
_symmetry_space_group_name_H-M "P 21"
_symmetry_group_IT_number 4
_symmetry_cell_setting 'monoclinic'
loop_
_space_group_symop_operation_xyz
x,y,z
-x,1/2+y,-z
loop_
_atom_site_type_symbol
_atom_site_label
_atom_site_fract_x
_atom_site_fract_y
_atom_site_fract_z
Si Si1 0.281046 0.192370 0.671636
Si Si2 0.685245 0.925256 0.078984
Si Si3 0.963719 0.980557 0.133845
Si Si4 0.447832 0.915178 0.732813
Si Si5 0.331846 0.399354 0.416786
Si Si6 0.995075 0.302268 0.513975
Si Si7 0.722676 0.141980 0.386908
Si Si8 0.952106 0.813107 0.816155
O O1 0.314218 0.254541 0.870538
O O2 0.358641 0.292514 0.582034
O O3 0.122603 0.196898 0.569634
O O4 0.328115 0.028967 0.666155
O O5 0.805247 0.969272 0.020768
O O6 0.716253 0.012225 0.257827
O O7 0.543922 0.962351 0.929521
O O8 0.999141 0.912676 0.330114
O O9 0.023773 0.893379 0.007484
O O10 0.015626 0.143182 0.154793
O O11 0.532819 0.902931 0.613417
O O12 0.382556 0.759908 0.725474
O O13 0.307532 0.567194 0.454724
O O14 0.206351 0.336020 0.252758
O O15 0.992908 0.377383 0.330404
O O16 0.869102 0.202977 0.472280
#
# Coordination Sequence:
#
# PCOD8046415 Si02
#       8
#     2   2   2   2   2   2   2   2
#     4   9  22  39  65  91 128 176 218 277 342 403
#     4  10  21  44  59  92 137 171 218 286 342 407
#     4  11  24  43  68 102 140 182 233 285 359 408
#     4  12  22  39  68  95 127 175 230 273 352 423
#     4  10  23  42  60  91 138 173 219 284 342 403
#     4  10  24  43  70  99 138 178 235 289 345 413
#     4  11  24  41  68  94 135 181 226 288 350 417
#     4  11  24  43  70 100 139 186 227 292 350 412
#
# _framework density 21.035893000000002
#
# number of rings (size 3 to 8) (size 9 to 14) (size 15 to 20)
#    0.000    1.500    2.500    2.250    5.250    0.000 
#    2.250    0.000    0.000    0.000    0.000    0.000 
#    0.000    0.000    0.000    0.000    0.000    0.000 
#
# Total GULP energy -198285.334604 kJ/mol
# GULP energy per Si atom -12392.833413 kJ/mol
# Density = 2.098801 g / cm^3
# Si number density = 21.035893 Si / 1000 Ang^3
#
#
#
# Elastic Constant Matrix: (Units=GPa)
#
#
# Indices 1 2 3 4 5 6 
#
# 1 57.0514 19.3937 17.7515 0.0000 2.6385 0.0000
# 2 19.3937 100.7531 39.3129 0.0000 -1.7258 0.0000
# 3 17.7515 39.3129 99.5132 0.0000 -12.9731 0.0000
# 4 0.0000 0.0000 0.0000 26.8890 0.0000 3.1950
# 5 2.6385 -1.7258 -12.9731 0.0000 33.2898 0.0000
# 6 0.0000 0.0000 0.0000 3.1950 0.0000 33.3530
#
#
#
# Elastic Compliance Matrix: (Units=1/GPa)
#
#
# Indices 1 2 3 4 5 6 
#
# 1 0.019435 -0.002714 -0.002754 0.000000 -0.002754 0.000000
# 2 -0.002714 0.012163 -0.004436 0.000000 -0.000883 0.000000
# 3 -0.002754 -0.004436 0.012949 0.000000 0.005035 0.000000
# 4 0.000000 0.000000 0.000000 0.037618 0.000000 -0.003604
# 5 -0.002754 -0.000883 0.005035 0.000000 0.032174 0.000000
# 6 0.000000 0.000000 0.000000 -0.003604 0.000000 0.030328
#
#
# Mechanical properties :
#
#
# Convention : Reuss Voigt Hill
#
# Bulk Modulus (GPa) = 40.42075 45.58154 43.00114
# Shear Modulus (GPa) = 28.94849 30.76367 29.85608
#
# Velocity S-wave (km/s) = 3.71367 3.82833 3.77144
# Velocity P-wave (km/s) = 6.13558 6.42316 6.28102
#
# Compressibility (1/GPa) = 0.02473977
#
# Stress axis : x y z
#
# Youngs Moduli (GPa) = 51.45426 82.21358 77.22569
#
# Poissons Ratio (x) = 0.22309 0.21267
# Poissons Ratio (y) = 0.13963 0.34259
# Poissons Ratio (z) = 0.14170 0.36472
#
# Static dielectric constant tensor:
#      x y z
#    x 3.907310 0.000000 -0.227200 
#    y 0.000000 3.762170 0.000000 
#    z -0.227200 0.000000 3.997630 
# 
# 
# High freq. dielectric constant tensor:
#      x y z
#    x 1.823540 0.000000 -0.008210 
#    y 0.000000 1.821130 0.000000 
#    z -0.008210 0.000000 1.827470 
# 
# From -- ./inp_files/7791.got.cif
#   From: 2010.03.12/outbox.cif.g09.slc.cpg/sg4_4_cif.got.tgz:7791.got - 2010.03.31 09:31:35.
