data_PCOD8046334
_publ_section_title
;
Structure prediction by ZEFSAII (Michael W. Deem and Ramdas Pophale) SiO2 
 PCOD8046334
Probable space group: P 21
;
_chemical_formula_sum "Si O2"
_cell_formula_units_Z 16
_cell_length_a 11.643617
_cell_length_b 9.150632
_cell_length_c 16.489992
_cell_angle_alpha 90.000000
_cell_angle_beta 27.422898
_cell_angle_gamma 90.000000
_cell_volume 809.171416
_symmetry_space_group_name_H-M "P 21"
_symmetry_group_IT_number 4
_symmetry_cell_setting 'monoclinic'
loop_
_space_group_symop_operation_xyz
x,y,z
-x,1/2+y,-z
loop_
_atom_site_type_symbol
_atom_site_label
_atom_site_fract_x
_atom_site_fract_y
_atom_site_fract_z
Si Si1 0.894388 0.481670 0.621483
Si Si2 0.059720 0.961688 0.685942
Si Si3 0.236139 0.146196 0.882218
Si Si4 0.605849 0.019009 0.760755
Si Si5 0.969741 0.931686 0.931270
Si Si6 0.764486 0.217654 0.801806
Si Si7 0.303296 0.268388 0.188109
Si Si8 0.439950 0.910799 0.321237
O O1 0.932164 0.338102 0.652235
O O2 0.723367 0.597251 0.776378
O O3 0.776307 0.431283 0.609719
O O4 0.160032 0.561152 0.443320
O O5 0.051236 0.930840 0.786734
O O6 0.920780 0.830938 0.726059
O O7 0.338800 0.971213 0.471459
O O8 0.938296 0.119460 0.749167
O O9 0.485836 0.241624 0.707381
O O10 0.331906 0.036702 0.892882
O O11 0.017173 0.260677 0.046792
O O12 0.156775 0.042730 0.858320
O O13 0.666524 0.851547 0.745422
O O14 0.606234 0.120679 0.838914
O O15 0.689055 0.989843 0.128330
O O16 0.561207 0.301513 0.981657
#
# Coordination Sequence:
#
# PCOD8046334 Si02
#       8
#     2   2   2   2   2   2   2   2
#     4  12  20  38  63  97 132 163 207 269 326 406
#     4  11  22  42  64  93 131 170 211 272 324 387
#     4  10  23  46  66  88 130 170 227 264 323 386
#     4  11  21  37  63  92 126 167 208 258 337 389
#     4  10  24  45  68  89 128 175 223 270 317 376
#     4  11  21  36  57  97 130 162 204 265 331 391
#     4  11  22  33  63  96 132 164 206 258 340 388
#     4  10  21  41  68  88 131 165 214 270 320 385
#
# _framework density 19.773312000000001
#
# number of rings (size 3 to 8) (size 9 to 14) (size 15 to 20)
#    0.750    0.500    3.750    5.250    0.000    2.000 
#    2.250    0.000    0.000    0.000    0.000    0.000 
#    0.000    0.000    0.000    0.000    0.000    0.000 
#
# Total GULP energy -198246.090611 kJ/mol
# GULP energy per Si atom -12390.380663 kJ/mol
# Density = 1.972831 g / cm^3
# Si number density = 19.773312 Si / 1000 Ang^3
#
#
#
# Elastic Constant Matrix: (Units=GPa)
#
#
# Indices 1 2 3 4 5 6 
#
# 1 111.4606 55.0916 30.9703 0.0000 12.1957 0.0000
# 2 55.0916 99.1794 11.7398 0.0000 -0.0479 0.0000
# 3 30.9703 11.7398 88.4109 0.0000 18.7223 0.0000
# 4 0.0000 0.0000 0.0000 26.8280 0.0000 -5.9140
# 5 12.1957 -0.0479 18.7223 0.0000 29.5781 0.0000
# 6 0.0000 0.0000 0.0000 -5.9140 0.0000 21.9978
#
#
#
# Elastic Compliance Matrix: (Units=1/GPa)
#
#
# Indices 1 2 3 4 5 6 
#
# 1 0.013871 -0.007342 -0.003084 0.000000 -0.003779 0.000000
# 2 -0.007342 0.014156 0.000053 0.000000 0.003016 0.000000
# 3 -0.003084 0.000053 0.013990 0.000000 -0.007584 0.000000
# 4 0.000000 0.000000 0.000000 0.039623 0.000000 0.010652
# 5 -0.003779 0.003016 -0.007584 0.000000 0.040172 0.000000
# 6 0.000000 0.000000 0.000000 0.010652 0.000000 0.048323
#
#
# Mechanical properties :
#
#
# Convention : Reuss Voigt Hill
#
# Bulk Modulus (GPa) = 47.00902 54.96159 50.98530
# Shear Modulus (GPa) = 25.25631 29.09739 27.17685
#
# Velocity S-wave (km/s) = 3.57780 3.84024 3.71134
# Velocity P-wave (km/s) = 6.39477 6.89343 6.64878
#
# Compressibility (1/GPa) = 0.02127251
#
# Stress axis : x y z
#
# Youngs Moduli (GPa) = 72.09316 70.64132 71.47976
#
# Poissons Ratio (x) = 0.51863 0.22043
# Poissons Ratio (y) = 0.52929 -0.00381
# Poissons Ratio (z) = 0.22232 -0.00377
#
# Static dielectric constant tensor:
#      x y z
#    x 3.350240 0.000000 0.133580 
#    y 0.000000 3.567360 0.000000 
#    z 0.133580 0.000000 3.555190 
# 
# 
# High freq. dielectric constant tensor:
#      x y z
#    x 1.743040 0.000000 0.015380 
#    y 0.000000 1.774390 0.000000 
#    z 0.015380 0.000000 1.770380 
# 
# From -- ./inp_files/15158.got.cif
#   From: 2010.03.12/outbox.cif.g09.slc.cpg/sg4_8_cif.got.tgz:15158.got - 2010.03.31 09:31:35.
