data_PCOD8046396
_publ_section_title
;
Structure prediction by ZEFSAII (Michael W. Deem and Ramdas Pophale) SiO2 
 PCOD8046396
Probable space group: P 21
;
_chemical_formula_sum "Si O2"
_cell_formula_units_Z 14
_cell_length_a 7.146288
_cell_length_b 9.745005
_cell_length_c 13.095375
_cell_angle_alpha 90.000000
_cell_angle_beta 131.188982
_cell_angle_gamma 90.000000
_cell_volume 686.295277
_symmetry_space_group_name_H-M "P 21"
_symmetry_group_IT_number 4
_symmetry_cell_setting 'monoclinic'
loop_
_space_group_symop_operation_xyz
x,y,z
-x,1/2+y,-z
loop_
_atom_site_type_symbol
_atom_site_label
_atom_site_fract_x
_atom_site_fract_y
_atom_site_fract_z
Si Si1 0.017817 0.267310 0.415887
Si Si2 0.204857 0.394536 0.287158
Si Si3 0.122137 0.131243 0.126457
Si Si4 0.103027 0.138755 0.894296
Si Si5 0.420035 0.597557 0.826370
Si Si6 0.028300 0.419621 0.765316
Si Si7 0.239305 0.980012 0.526454
O O1 0.207635 0.338908 0.404435
O O2 0.126745 0.277640 0.180718
O O3 0.782270 0.216266 0.265006
O O4 0.929816 0.376280 0.468447
O O5 0.991447 0.508043 0.201472
O O6 0.469446 0.458150 0.348514
O O7 0.844116 0.637528 0.480435
O O8 0.407769 0.080241 0.212347
O O9 0.976533 0.020969 0.140187
O O10 0.986003 0.144641 0.967007
O O11 0.014730 0.265408 0.795989
O O12 0.404397 0.137609 0.013713
O O13 0.285391 0.452450 0.798382
O O14 0.799892 0.448493 0.607421
#
# Coordination Sequence:
#
# PCOD8046396 Si02
#       7
#     2   2   2   2   2   2   2
#     4  11  25  45  68  94 131 178 216 274 327 386
#     4  12  24  45  68  97 135 175 212 278 333 384
#     4  10  21  43  67  92 133 168 218 271 329 378
#     4  10  25  39  67 101 128 170 225 263 329 402
#     4   9  22  41  67  92 130 170 214 273 321 380
#     4  11  23  43  64  99 131 177 215 272 333 382
#     4  11  26  44  67  95 134 172 224 267 326 400
#
# _framework density 20.399381999999999
#
# number of rings (size 3 to 8) (size 9 to 14) (size 15 to 20)
#    0.857    0.571    4.286    0.857    6.000    2.286 
#    0.000    0.000    0.000    0.000    0.000    0.000 
#    0.000    0.000    0.000    0.000    0.000    0.000 
#
# Total GULP energy -173546.994868 kJ/mol
# GULP energy per Si atom -12396.213919 kJ/mol
# Density = 2.035295 g / cm^3
# Si number density = 20.399382 Si / 1000 Ang^3
#
#
#
# Elastic Constant Matrix: (Units=GPa)
#
#
# Indices 1 2 3 4 5 6 
#
# 1 76.4183 52.7775 6.7884 0.0000 -3.8875 0.0000
# 2 52.7775 145.5902 25.6772 0.0000 -2.1526 0.0000
# 3 6.7884 25.6772 39.8876 0.0000 3.0315 0.0000
# 4 0.0000 0.0000 0.0000 23.7227 0.0000 -9.3127
# 5 -3.8875 -2.1526 3.0315 0.0000 33.4465 0.0000
# 6 0.0000 0.0000 0.0000 -9.3127 0.0000 36.1716
#
#
#
# Elastic Compliance Matrix: (Units=1/GPa)
#
#
# Indices 1 2 3 4 5 6 
#
# 1 0.017587 -0.006548 0.001106 0.000000 0.001522 0.000000
# 2 -0.006548 0.010217 -0.005493 0.000000 0.000394 0.000000
# 3 0.001106 -0.005493 0.028632 0.000000 -0.002820 0.000000
# 4 0.000000 0.000000 0.000000 0.046893 0.000000 0.012073
# 5 0.001522 0.000394 -0.002820 0.000000 0.030356 0.000000
# 6 0.000000 0.000000 0.000000 0.012073 0.000000 0.030754
#
#
# Mechanical properties :
#
#
# Convention : Reuss Voigt Hill
#
# Bulk Modulus (GPa) = 28.92850 48.04248 38.48549
# Shear Modulus (GPa) = 25.27400 30.44503 27.85952
#
# Velocity S-wave (km/s) = 3.52370 3.86741 3.69955
# Velocity P-wave (km/s) = 5.54682 6.59883 6.09556
#
# Compressibility (1/GPa) = 0.03456798
#
# Stress axis : x y z
#
# Youngs Moduli (GPa) = 56.85861 97.87708 34.92565
#
# Poissons Ratio (x) = 0.64092 -0.03864
# Poissons Ratio (y) = 0.37232 0.19183
# Poissons Ratio (z) = -0.06291 0.53759
#
# Static dielectric constant tensor:
#      x y z
#    x 3.748660 0.000000 -0.038710 
#    y 0.000000 3.721820 0.000000 
#    z -0.038710 0.000000 3.557720 
# 
# 
# High freq. dielectric constant tensor:
#      x y z
#    x 1.796140 0.000000 -0.002410 
#    y 0.000000 1.799110 0.000000 
#    z -0.002410 0.000000 1.786930 
# 
# From -- ./inp_files/13415.got.cif
#   From: 2010.03.12/outbox.cif.g09.slc.cpg/sg4_7_cif.got.tgz:13415.got - 2010.03.31 09:31:35.
