data_PCOD8046711
_publ_section_title
;
Structure prediction by ZEFSAII (Michael W. Deem and Ramdas Pophale) SiO2 
 PCOD8046711
Probable space group: P 21
;
_chemical_formula_sum "Si O2"
_cell_formula_units_Z 16
_cell_length_a 9.417547
_cell_length_b 5.408337
_cell_length_c 26.499253
_cell_angle_alpha 90.000000
_cell_angle_beta 151.495474
_cell_angle_gamma 90.000000
_cell_volume 644.111797
_symmetry_space_group_name_H-M "P 21"
_symmetry_group_IT_number 4
_symmetry_cell_setting 'monoclinic'
loop_
_space_group_symop_operation_xyz
x,y,z
-x,1/2+y,-z
loop_
_atom_site_type_symbol
_atom_site_label
_atom_site_fract_x
_atom_site_fract_y
_atom_site_fract_z
Si Si1 0.139521 0.150020 0.425688
Si Si2 0.202845 0.989856 0.745288
Si Si3 0.729528 0.387331 0.630876
Si Si4 0.762952 0.029147 0.047719
Si Si5 0.837354 0.171729 0.962509
Si Si6 0.104448 0.382248 0.559714
Si Si7 0.879224 0.362004 0.172145
Si Si8 0.218874 0.806085 0.245693
O O1 0.398930 0.280391 0.538568
O O2 0.865732 0.335320 0.326976
O O3 0.289783 0.096312 0.417987
O O4 0.017871 0.921863 0.421215
O O5 0.204097 0.807052 0.795204
O O6 0.522739 0.116866 0.838075
O O7 0.959126 0.195939 0.678424
O O8 0.825040 0.487331 0.716557
O O9 0.919430 0.134678 0.147612
O O10 0.810983 0.198973 0.014374
O O11 0.990895 0.797208 0.125342
O O12 0.417303 0.981954 0.946397
O O13 0.949409 0.436349 0.979151
O O14 0.454082 0.333665 0.674161
O O15 0.048894 0.638650 0.511740
O O16 0.164222 0.541956 0.256453
#
# Coordination Sequence:
#
# PCOD8046711 Si02
#       8
#     2   2   2   2   2   2   2   2
#     4  12  25  45  76 105 151 193 250 305 374 439
#     4  10  25  45  74 106 144 194 244 315 363 439
#     4  11  24  44  74 109 142 190 255 303 370 441
#     4  11  23  42  75 103 146 190 242 313 365 437
#     4  11  29  50  71 107 153 198 248 297 366 450
#     4  12  31  51  73 110 155 199 250 304 366 449
#     4  10  22  44  72 111 140 182 256 304 374 436
#     4  11  25  45  73 107 145 198 237 307 374 437
#
# _framework density 24.840406000000002
#
# number of rings (size 3 to 8) (size 9 to 14) (size 15 to 20)
#    0.000    1.000    3.750    0.750   10.500    0.000 
#    0.000    0.000    0.000    0.000    0.000    0.000 
#    0.000    0.000    0.000    0.000    0.000    0.000 
#
# Total GULP energy -198218.304574 kJ/mol
# GULP energy per Si atom -12388.644036 kJ/mol
# Density = 2.478387 g / cm^3
# Si number density = 24.840406 Si / 1000 Ang^3
#
#
#
# Elastic Constant Matrix: (Units=GPa)
#
#
# Indices 1 2 3 4 5 6 
#
# 1 68.5344 5.0261 43.0052 -0.0003 4.0547 0.0000
# 2 5.0261 38.4258 13.0620 0.0006 1.9951 0.0000
# 3 43.0052 13.0620 141.2720 0.0057 3.8131 0.0003
# 4 -0.0003 0.0006 0.0057 66.2118 0.0003 4.5068
# 5 4.0547 1.9951 3.8131 0.0003 36.5745 0.0001
# 6 0.0000 0.0000 0.0003 4.5068 0.0001 41.7540
#
#
#
# Elastic Compliance Matrix: (Units=1/GPa)
#
#
# Indices 1 2 3 4 5 6 
#
# 1 0.018119 -0.000449 -0.005436 0.000001 -0.001417 0.000000
# 2 -0.000449 0.026933 -0.002322 0.000000 -0.001177 0.000000
# 3 -0.005436 -0.002322 0.008954 -0.000001 -0.000204 0.000000
# 4 0.000001 0.000000 -0.000001 0.015215 0.000000 -0.001642
# 5 -0.001417 -0.001177 -0.000204 0.000000 0.027584 0.000000
# 6 0.000000 0.000000 0.000000 -0.001642 0.000000 0.024127
#
#
# Mechanical properties :
#
#
# Convention : Reuss Voigt Hill
#
# Bulk Modulus (GPa) = 26.60074 41.15764 33.87919
# Shear Modulus (GPa) = 33.36099 41.38398 37.37248
#
# Velocity S-wave (km/s) = 3.66869 4.08609 3.88300
# Velocity P-wave (km/s) = 5.35515 6.23428 5.81136
#
# Compressibility (1/GPa) = 0.03759293
#
# Stress axis : x y z
#
# Youngs Moduli (GPa) = 55.19065 37.12881 111.68793
#
# Poissons Ratio (x) = 0.01665 0.60713
# Poissons Ratio (y) = 0.02476 0.25933
# Poissons Ratio (z) = 0.30001 0.08621
#
# Static dielectric constant tensor:
#      x y z
#    x 4.497420 0.000000 -0.222360 
#    y 0.000000 4.302440 0.000000 
#    z -0.222360 0.000000 4.079740 
# 
# 
# High freq. dielectric constant tensor:
#      x y z
#    x 1.987870 0.000000 -0.016830 
#    y 0.000000 1.975640 0.000000 
#    z -0.016830 0.000000 2.020020 
# 
# From -- ./inp_files/9521.got.cif
#   From: 2010.03.12/outbox.cif.g09.slc.cpg/sg4_5_cif.got.tgz:9521.got - 2010.03.31 09:31:35.
