data_PCOD8046062
_publ_section_title
;
Structure prediction by ZEFSAII (Michael W. Deem and Ramdas Pophale) SiO2 
 PCOD8046062
Probable space group: P 21
;
_chemical_formula_sum "Si O2"
_cell_formula_units_Z 14
_cell_length_a 8.746423
_cell_length_b 8.638655
_cell_length_c 9.227759
_cell_angle_alpha 90.000000
_cell_angle_beta 100.251484
_cell_angle_gamma 90.000000
_cell_volume 686.094403
_symmetry_space_group_name_H-M "P 21"
_symmetry_group_IT_number 4
_symmetry_cell_setting 'monoclinic'
loop_
_space_group_symop_operation_xyz
x,y,z
-x,1/2+y,-z
loop_
_atom_site_type_symbol
_atom_site_label
_atom_site_fract_x
_atom_site_fract_y
_atom_site_fract_z
Si Si1 0.218744 0.182580 0.796074
Si Si2 0.125321 0.581687 0.259986
Si Si3 0.632081 0.162907 0.467670
Si Si4 0.316186 0.722860 0.066289
Si Si5 0.366312 0.868228 0.790605
Si Si6 0.446644 0.347290 0.672874
Si Si7 0.294426 0.380025 0.081133
O O1 0.265360 0.309708 0.682083
O O2 0.055272 0.100785 0.736951
O O3 0.350941 0.052823 0.790250
O O4 0.220133 0.258744 0.956199
O O5 0.220270 0.591333 0.424930
O O6 0.178043 0.723509 0.162727
O O7 0.168109 0.417632 0.187862
O O8 0.698424 0.290678 0.367105
O O9 0.509918 0.238333 0.556727
O O10 0.540815 0.025657 0.370166
O O11 0.463247 0.812594 0.160715
O O12 0.347411 0.545103 0.021213
O O13 0.267349 0.810823 0.912508
O O14 0.546088 0.811249 0.826992
#
# Coordination Sequence:
#
# PCOD8046062 Si02
#       7
#     2   2   2   2   2   2   2
#     4  12  23  37  70  91 129 173 218 261 340 384
#     4   9  24  42  58  92 135 165 212 269 329 393
#     4  11  24  42  65  92 138 165 219 276 327 394
#     4   9  21  39  61  92 126 157 216 270 318 371
#     4  12  21  38  67  98 121 172 219 269 322 383
#     4  11  21  41  63  95 120 178 212 276 322 388
#     4  10  20  41  60  94 125 160 218 281 298 387
#
# _framework density 20.405356000000001
#
# number of rings (size 3 to 8) (size 9 to 14) (size 15 to 20)
#    0.857    0.571    2.857    2.571    4.000    1.143 
#    0.000    0.000    0.000    0.000    0.000    0.000 
#    0.000    0.000    0.000    0.000    0.000    0.000 
#
# Total GULP energy -173483.069701 kJ/mol
# GULP energy per Si atom -12391.647836 kJ/mol
# Density = 2.035891 g / cm^3
# Si number density = 20.405356 Si / 1000 Ang^3
#
#
#
# Elastic Constant Matrix: (Units=GPa)
#
#
# Indices 1 2 3 4 5 6 
#
# 1 79.1880 14.6439 24.4555 0.0000 -0.9247 0.0000
# 2 14.6439 91.0941 44.3130 0.0000 -1.9707 0.0000
# 3 24.4555 44.3130 113.4075 0.0000 -12.5625 0.0000
# 4 0.0000 0.0000 0.0000 44.1586 0.0000 -10.6508
# 5 -0.9247 -1.9707 -12.5625 0.0000 25.3417 0.0000
# 6 0.0000 0.0000 0.0000 -10.6508 0.0000 25.6543
#
#
#
# Elastic Compliance Matrix: (Units=1/GPa)
#
#
# Indices 1 2 3 4 5 6 
#
# 1 0.013613 -0.000903 -0.002683 0.000000 -0.000903 0.000000
# 2 -0.000903 0.013680 -0.005329 0.000000 -0.001611 0.000000
# 3 -0.002683 -0.005329 0.012086 0.000000 0.005479 0.000000
# 4 0.000000 0.000000 0.000000 0.025166 0.000000 0.010448
# 5 -0.000903 -0.001611 0.005479 0.000000 0.042018 0.000000
# 6 0.000000 0.000000 0.000000 0.010448 0.000000 0.043317
#
#
# Mechanical properties :
#
#
# Convention : Reuss Voigt Hill
#
# Bulk Modulus (GPa) = 46.40553 50.05715 48.23134
# Shear Modulus (GPa) = 28.58886 32.38276 30.48581
#
# Velocity S-wave (km/s) = 3.74712 3.98801 3.86944
# Velocity P-wave (km/s) = 6.44301 6.76685 6.60691
#
# Compressibility (1/GPa) = 0.02154915
#
# Stress axis : x y z
#
# Youngs Moduli (GPa) = 73.45846 73.09740 82.74339
#
# Poissons Ratio (x) = 0.06600 0.22199
# Poissons Ratio (y) = 0.06632 0.44096
# Poissons Ratio (z) = 0.19708 0.38955
#
# Static dielectric constant tensor:
#      x y z
#    x 3.366500 0.000000 -0.156010 
#    y 0.000000 3.549760 0.000000 
#    z -0.156010 0.000000 3.657350 
# 
# 
# High freq. dielectric constant tensor:
#      x y z
#    x 1.774540 0.000000 -0.016720 
#    y 0.000000 1.792280 0.000000 
#    z -0.016720 0.000000 1.793280 
# 
# From -- ./inp_files/5373.got.cif
#   From: 2010.03.12/outbox.cif.g09.slc.cpg/sg4_3_cif.got.tgz:5373.got - 2010.03.31 09:31:35.
