data_PCOD8046227
_publ_section_title
;
Structure prediction by ZEFSAII (Michael W. Deem and Ramdas Pophale) SiO2 
 PCOD8046227
Probable space group: P 21
;
_chemical_formula_sum "Si O2"
_cell_formula_units_Z 14
_cell_length_a 9.565554
_cell_length_b 7.321978
_cell_length_c 9.760068
_cell_angle_alpha 90.000000
_cell_angle_beta 73.719219
_cell_angle_gamma 90.000000
_cell_volume 656.171107
_symmetry_space_group_name_H-M "P 21"
_symmetry_group_IT_number 4
_symmetry_cell_setting 'monoclinic'
loop_
_space_group_symop_operation_xyz
x,y,z
-x,1/2+y,-z
loop_
_atom_site_type_symbol
_atom_site_label
_atom_site_fract_x
_atom_site_fract_y
_atom_site_fract_z
Si Si1 0.666393 0.805930 0.824456
Si Si2 0.057911 0.181174 0.122780
Si Si3 0.337509 0.862094 0.580303
Si Si4 0.211440 0.508274 0.710240
Si Si5 0.345110 0.243350 0.476764
Si Si6 0.631711 0.113038 0.059301
Si Si7 0.803476 0.432306 0.110439
O O1 0.826499 0.719178 0.790698
O O2 0.658761 0.850085 0.665785
O O3 0.659681 0.984768 0.921461
O O4 0.538713 0.663758 0.897189
O O5 0.954929 0.009000 0.190404
O O6 0.159024 0.128257 0.964057
O O7 0.957874 0.355364 0.121518
O O8 0.228263 0.688958 0.607335
O O9 0.494492 0.776253 0.508175
O O10 0.310836 0.024918 0.477170
O O11 0.316032 0.956360 0.736419
O O12 0.231253 0.328732 0.615081
O O13 0.325368 0.519041 0.806633
O O14 0.732414 0.294228 0.017658
#
# Coordination Sequence:
#
# PCOD8046227 Si02
#       7
#     2   2   2   2   2   2   2
#     4  12  23  40  60 101 129 157 208 279 320 368
#     4  10  22  40  63  91 129 157 211 256 318 378
#     4  10  21  39  67  89 122 164 220 253 301 393
#     4  10  23  46  64  91 123 177 215 250 313 408
#     4  12  22  41  66  94 126 169 211 266 323 369
#     4  10  22  40  64  92 129 160 217 259 319 371
#     4  10  21  42  64  94 118 174 212 253 310 395
#
# _framework density 21.335899000000001
#
# number of rings (size 3 to 8) (size 9 to 14) (size 15 to 20)
#    0.000    1.714    4.286    2.571    4.000    0.000 
#   10.286    0.000    0.000    0.000    0.000    0.000 
#    0.000    0.000    0.000    0.000    0.000    0.000 
#
# Total GULP energy -173475.261996 kJ/mol
# GULP energy per Si atom -12391.090143 kJ/mol
# Density = 2.128734 g / cm^3
# Si number density = 21.335899 Si / 1000 Ang^3
#
#
#
# Elastic Constant Matrix: (Units=GPa)
#
#
# Indices 1 2 3 4 5 6 
#
# 1 103.2094 6.4550 5.0668 0.0000 6.5804 0.0000
# 2 6.4550 55.3781 17.4003 0.0000 10.3167 0.0000
# 3 5.0668 17.4003 62.5567 0.0000 1.0497 0.0000
# 4 0.0000 0.0000 0.0000 44.6252 0.0000 -10.0321
# 5 6.5804 10.3167 1.0497 0.0000 27.2310 0.0000
# 6 0.0000 0.0000 0.0000 -10.0321 0.0000 26.9587
#
#
#
# Elastic Compliance Matrix: (Units=1/GPa)
#
#
# Indices 1 2 3 4 5 6 
#
# 1 0.009891 -0.000560 -0.000609 0.000000 -0.002155 0.000000
# 2 -0.000560 0.021379 -0.005771 0.000000 -0.007742 0.000000
# 3 -0.000609 -0.005771 0.017612 0.000000 0.001655 0.000000
# 4 0.000000 0.000000 0.000000 0.024455 0.000000 0.009100
# 5 -0.002155 -0.007742 0.001655 0.000000 0.040113 0.000000
# 6 0.000000 0.000000 0.000000 0.009100 0.000000 0.040480
#
#
# Mechanical properties :
#
#
# Convention : Reuss Voigt Hill
#
# Bulk Modulus (GPa) = 28.57052 30.99872 29.78462
# Shear Modulus (GPa) = 27.85853 32.57778 30.21816
#
# Velocity S-wave (km/s) = 3.61738 3.91180 3.76747
# Velocity P-wave (km/s) = 5.55582 5.91298 5.73718
#
# Compressibility (1/GPa) = 0.03500111
#
# Stress axis : x y z
#
# Youngs Moduli (GPa) = 101.09838 46.77572 56.77831
#
# Poissons Ratio (x) = 0.02620 0.03459
# Poissons Ratio (y) = 0.05663 0.32768
# Poissons Ratio (z) = 0.06159 0.26995
#
# Static dielectric constant tensor:
#      x y z
#    x 3.920080 0.000000 -0.242500 
#    y 0.000000 3.807450 0.000000 
#    z -0.242500 0.000000 3.784690 
# 
# 
# High freq. dielectric constant tensor:
#      x y z
#    x 1.835230 0.000000 -0.024600 
#    y 0.000000 1.827250 0.000000 
#    z -0.024600 0.000000 1.818850 
# 
# From -- ./inp_files/5474.got.cif
#   From: 2010.03.12/outbox.cif.g09.slc.cpg/sg4_3_cif.got.tgz:5474.got - 2010.03.31 09:31:35.
