data_PCOD8046476
_publ_section_title
;
Structure prediction by ZEFSAII (Michael W. Deem and Ramdas Pophale) SiO2 
 PCOD8046476
Probable space group: P 21
;
_chemical_formula_sum "Si O2"
_cell_formula_units_Z 12
_cell_length_a 9.064988
_cell_length_b 7.737270
_cell_length_c 12.842784
_cell_angle_alpha 90.000000
_cell_angle_beta 146.125134
_cell_angle_gamma 90.000000
_cell_volume 502.072331
_symmetry_space_group_name_H-M "P 21"
_symmetry_group_IT_number 4
_symmetry_cell_setting 'monoclinic'
loop_
_space_group_symop_operation_xyz
x,y,z
-x,1/2+y,-z
loop_
_atom_site_type_symbol
_atom_site_label
_atom_site_fract_x
_atom_site_fract_y
_atom_site_fract_z
Si Si1 0.526692 0.542140 0.067906
Si Si2 0.678899 0.381751 0.610305
Si Si3 0.482565 0.633210 0.650179
Si Si4 0.993397 0.103931 0.332431
Si Si5 0.941201 0.752198 0.424561
Si Si6 0.242824 0.209959 0.980766
O O1 0.678155 0.642329 0.247695
O O2 0.457621 0.351224 0.067700
O O3 0.251540 0.643777 0.886285
O O4 0.704974 0.546791 0.065787
O O5 0.530917 0.443039 0.628547
O O6 0.481802 0.272391 0.422080
O O7 0.753518 0.554725 0.588367
O O8 0.942385 0.272829 0.792144
O O9 0.704810 0.663570 0.868615
O O10 0.191768 0.647537 0.526937
O O11 0.042946 0.264292 0.439862
O O12 0.914879 0.939895 0.359964
#
# Coordination Sequence:
#
# PCOD8046476 Si02
#       6
#     2   2   2   2   2   2
#     4  11  19  40  65  94 131 157 215 274 313 375
#     4  10  24  45  61  93 134 171 214 260 317 391
#     4  11  23  44  65  91 135 171 215 258 322 388
#     4  10  22  38  62  95 122 167 213 261 322 370
#     4  11  21  38  65  91 127 163 214 266 312 379
#     4  11  23  43  66  98 131 169 217 265 326 381
#
# _framework density 23.900939000000001
#
# number of rings (size 3 to 8) (size 9 to 14) (size 15 to 20)
#    0.000    1.333    6.667    2.000    0.000    2.667 
#    3.000    3.333    0.000    0.000    0.000    0.000 
#    0.000    0.000    0.000    0.000    0.000    0.000 
#
# Total GULP energy -148737.778864 kJ/mol
# GULP energy per Si atom -12394.814905 kJ/mol
# Density = 2.384654 g / cm^3
# Si number density = 23.900939 Si / 1000 Ang^3
#
#
#
# Elastic Constant Matrix: (Units=GPa)
#
#
# Indices 1 2 3 4 5 6 
#
# 1 68.5513 26.9334 22.3532 0.0000 -16.0347 0.0000
# 2 26.9334 27.7674 -3.6242 0.0000 -5.1791 0.0000
# 3 22.3532 -3.6242 86.5026 0.0000 -31.7325 0.0000
# 4 0.0000 0.0000 0.0000 28.8482 0.0000 -13.5686
# 5 -16.0347 -5.1791 -31.7325 0.0000 36.5237 0.0000
# 6 0.0000 0.0000 0.0000 -13.5686 0.0000 56.2410
#
#
#
# Elastic Compliance Matrix: (Units=1/GPa)
#
#
# Indices 1 2 3 4 5 6 
#
# 1 0.028919 -0.028816 -0.008105 0.000000 0.001568 0.000000
# 2 -0.028816 0.067303 0.013396 0.000000 0.008532 0.000000
# 3 -0.008105 0.013396 0.019973 0.000000 0.015695 0.000000
# 4 0.000000 0.000000 0.000000 0.039101 0.000000 0.009433
# 5 0.001568 0.008532 0.015695 0.000000 0.042914 0.000000
# 6 0.000000 0.000000 0.000000 0.009433 0.000000 0.020057
#
#
# Mechanical properties :
#
#
# Convention : Reuss Voigt Hill
#
# Bulk Modulus (GPa) = 14.46216 30.46068 22.46142
# Shear Modulus (GPa) = 17.33915 33.46649 25.40282
#
# Velocity S-wave (km/s) = 2.69636 3.74601 3.26366
# Velocity P-wave (km/s) = 3.96961 5.61091 4.86005
#
# Compressibility (1/GPa) = 0.06914594
#
# Stress axis : x y z
#
# Youngs Moduli (GPa) = 34.57968 14.85811 50.06668
#
# Poissons Ratio (x) = 0.42814 0.40579
# Poissons Ratio (y) = 0.99643 -0.67068
# Poissons Ratio (z) = 0.28026 -0.19904
#
# Static dielectric constant tensor:
#      x y z
#    x 4.275170 0.000000 -0.352060 
#    y 0.000000 4.159620 0.000000 
#    z -0.352060 0.000000 4.615750 
# 
# 
# High freq. dielectric constant tensor:
#      x y z
#    x 1.931640 0.000000 -0.010890 
#    y 0.000000 1.931160 0.000000 
#    z -0.010890 0.000000 1.963140 
# 
# From -- ./inp_files/7455.got.cif
#   From: 2010.03.12/outbox.cif.g09.slc.cpg/sg4_4_cif.got.tgz:7455.got - 2010.03.31 09:31:35.
