data_PCOD8046812
_publ_section_title
;
Structure prediction by ZEFSAII (Michael W. Deem and Ramdas Pophale) SiO2 
 PCOD8046812
Probable space group: P 21
;
_chemical_formula_sum "Si O2"
_cell_formula_units_Z 12
_cell_length_a 7.050588
_cell_length_b 7.178726
_cell_length_c 16.528548
_cell_angle_alpha 90.000000
_cell_angle_beta 42.691075
_cell_angle_gamma 90.000000
_cell_volume 567.238962
_symmetry_space_group_name_H-M "P 21"
_symmetry_group_IT_number 4
_symmetry_cell_setting 'monoclinic'
loop_
_space_group_symop_operation_xyz
x,y,z
-x,1/2+y,-z
loop_
_atom_site_type_symbol
_atom_site_label
_atom_site_fract_x
_atom_site_fract_y
_atom_site_fract_z
Si Si1 0.242126 0.805110 0.011785
Si Si2 0.689469 0.134685 0.624119
Si Si3 0.808902 0.687440 0.910997
Si Si4 0.326235 0.828785 0.651845
Si Si5 0.731130 0.618842 0.109964
Si Si6 0.724018 0.491487 0.504652
O O1 0.006028 0.646982 0.079478
O O2 0.131998 0.964188 0.108801
O O3 0.528434 0.713121 0.948348
O O4 0.293060 0.901788 0.907884
O O5 0.542203 0.180946 0.755436
O O6 0.648120 0.310674 0.579848
O O7 0.552067 0.953948 0.626872
O O8 0.013193 0.096725 0.539214
O O9 0.061998 0.801780 0.793332
O O10 0.754773 0.747918 0.021639
O O11 0.460887 0.630280 0.587923
O O12 0.214776 0.929675 0.606268
#
# Coordination Sequence:
#
# PCOD8046812 Si02
#       6
#     2   2   2   2   2   2
#     4  10  23  41  66 102 137 168 228 266 355 401
#     4  12  25  46  73  98 143 178 238 284 339 410
#     4  10  25  43  67 102 133 176 220 283 342 402
#     4  12  25  48  71 100 144 179 233 286 338 412
#     4  10  24  43  68 100 131 183 217 285 338 404
#     4  12  26  47  69 106 132 190 230 284 342 401
#
# _framework density 21.155104000000001
#
# number of rings (size 3 to 8) (size 9 to 14) (size 15 to 20)
#    1.000    0.000    3.333    3.000    4.667    0.000 
#    6.000    0.000    0.000    0.000    0.000    0.000 
#    0.000    0.000    0.000    0.000    0.000    0.000 
#
# Total GULP energy -148780.757369 kJ/mol
# GULP energy per Si atom -12398.396447 kJ/mol
# Density = 2.110695 g / cm^3
# Si number density = 21.155104 Si / 1000 Ang^3
#
#
#
# Elastic Constant Matrix: (Units=GPa)
#
#
# Indices 1 2 3 4 5 6 
#
# 1 101.9963 36.8732 17.6525 0.0000 -4.3185 0.0000
# 2 36.8732 75.9106 26.5799 0.0000 10.4084 0.0000
# 3 17.6525 26.5799 108.0343 0.0000 15.0431 0.0000
# 4 0.0000 0.0000 0.0000 26.3270 0.0000 0.4419
# 5 -4.3185 10.4084 15.0431 0.0000 34.4012 0.0000
# 6 0.0000 0.0000 0.0000 0.4419 0.0000 40.5973
#
#
#
# Elastic Compliance Matrix: (Units=1/GPa)
#
#
# Indices 1 2 3 4 5 6 
#
# 1 0.012384 -0.006183 -0.001043 0.000000 0.003881 0.000000
# 2 -0.006183 0.017797 -0.002673 0.000000 -0.004992 0.000000
# 3 -0.001043 -0.002673 0.010638 0.000000 -0.003974 0.000000
# 4 0.000000 0.000000 0.000000 0.037991 0.000000 -0.000414
# 5 0.003881 -0.004992 -0.003974 0.000000 0.032804 0.000000
# 6 0.000000 0.000000 0.000000 -0.000414 0.000000 0.024637
#
#
# Mechanical properties :
#
#
# Convention : Reuss Voigt Hill
#
# Bulk Modulus (GPa) = 47.57050 49.79470 48.68260
# Shear Modulus (GPa) = 30.66444 33.92078 32.29261
#
# Velocity S-wave (km/s) = 3.81137 4.00863 3.91124
# Velocity P-wave (km/s) = 6.47333 6.70929 6.59237
#
# Compressibility (1/GPa) = 0.02102143
#
# Stress axis : x y z
#
# Youngs Moduli (GPa) = 80.74809 56.18905 94.00459
#
# Poissons Ratio (x) = 0.34739 0.09804
# Poissons Ratio (y) = 0.49923 0.25131
# Poissons Ratio (z) = 0.08421 0.15021
#
# Static dielectric constant tensor:
#      x y z
#    x 3.794780 0.000000 0.123050 
#    y 0.000000 3.813310 0.000000 
#    z 0.123050 0.000000 3.746790 
# 
# 
# High freq. dielectric constant tensor:
#      x y z
#    x 1.841220 0.000000 0.001370 
#    y 0.000000 1.831130 0.000000 
#    z 0.001370 0.000000 1.821140 
# 
# From -- ./inp_files/2511.got.cif
#   From: 2010.03.12/outbox.cif.g09.slc.cpg/sg4_2_cif.got.tgz:2511.got - 2010.03.31 09:31:35.
