data_PCOD8046691
_publ_section_title
;
Structure prediction by ZEFSAII (Michael W. Deem and Ramdas Pophale) SiO2 
 PCOD8046691
Probable space group: P 21
;
_chemical_formula_sum "Si O2"
_cell_formula_units_Z 16
_cell_length_a 28.142008
_cell_length_b 5.083078
_cell_length_c 15.376014
_cell_angle_alpha 90.000000
_cell_angle_beta 159.037642
_cell_angle_gamma 90.000000
_cell_volume 786.884092
_symmetry_space_group_name_H-M "P 21"
_symmetry_group_IT_number 4
_symmetry_cell_setting 'monoclinic'
loop_
_space_group_symop_operation_xyz
x,y,z
-x,1/2+y,-z
loop_
_atom_site_type_symbol
_atom_site_label
_atom_site_fract_x
_atom_site_fract_y
_atom_site_fract_z
Si Si1 0.576269 0.732650 0.104726
Si Si2 0.980746 0.958462 0.351883
Si Si3 0.861126 0.957458 0.335076
Si Si4 0.851996 0.956320 0.949880
Si Si5 0.429748 0.374173 0.102805
Si Si6 0.791071 0.763424 0.605436
Si Si7 0.936947 0.470158 0.992817
Si Si8 0.599991 0.884712 0.421838
O O1 0.716593 0.670266 0.390850
O O2 0.498672 0.456828 0.967382
O O3 0.601293 0.846615 0.052122
O O4 0.080480 0.713944 0.518924
O O5 0.890438 0.954739 0.282947
O O6 0.879361 0.959339 0.098835
O O7 0.072997 0.212786 0.503944
O O8 0.703486 0.949942 0.074899
O O9 0.941813 0.734363 0.058352
O O10 0.889065 0.232817 0.970370
O O11 0.695198 0.893974 0.669403
O O12 0.537884 0.596904 0.305534
O O13 0.485245 0.100666 0.235054
O O14 0.693208 0.942329 0.497311
O O15 0.916624 0.938634 0.795069
O O16 0.836192 0.509917 0.739328
#
# Coordination Sequence:
#
# PCOD8046691 Si02
#       8
#     2   2   2   2   2   2   2   2
#     4  12  25  39  60  86 123 170 206 251 293 367
#     4  10  22  44  67  96 125 154 201 258 328 361
#     4  10  23  42  69  93 127 160 193 264 314 381
#     4  11  24  41  64  94 120 165 210 261 306 377
#     4  12  23  42  59  92 119 166 206 247 305 369
#     4  11  23  43  57  88 125 166 212 250 308 351
#     4  11  25  39  64  90 125 167 211 261 305 358
#     4  11  23  40  60  81 130 162 203 250 305 352
#
# _framework density 20.333362999999999
#
# number of rings (size 3 to 8) (size 9 to 14) (size 15 to 20)
#    0.000    1.000    2.500    4.500    3.500    3.000 
#    0.000    1.250    0.000    0.000    0.000    0.000 
#    0.000    0.000    0.000    0.000    0.000    0.000 
#
# Total GULP energy -198464.374036 kJ/mol
# GULP energy per Si atom -12404.023377 kJ/mol
# Density = 2.028708 g / cm^3
# Si number density = 20.333363 Si / 1000 Ang^3
#
#
#
# Elastic Constant Matrix: (Units=GPa)
#
#
# Indices 1 2 3 4 5 6 
#
# 1 69.8226 23.9403 63.6014 0.0000 -13.7444 0.0000
# 2 23.9403 112.0946 44.8885 0.0000 -13.9542 0.0000
# 3 63.6014 44.8885 147.3458 0.0000 -18.8324 0.0000
# 4 0.0000 0.0000 0.0000 28.6866 0.0000 7.1820
# 5 -13.7444 -13.9542 -18.8324 0.0000 44.5322 0.0000
# 6 0.0000 0.0000 0.0000 7.1820 0.0000 57.4219
#
#
#
# Elastic Compliance Matrix: (Units=1/GPa)
#
#
# Indices 1 2 3 4 5 6 
#
# 1 0.024098 -0.000863 -0.009750 0.000000 0.003044 0.000000
# 2 -0.000863 0.010360 -0.002540 0.000000 0.001906 0.000000
# 3 -0.009750 -0.002540 0.011927 0.000000 0.001239 0.000000
# 4 0.000000 0.000000 0.000000 0.035986 0.000000 -0.004501
# 5 0.003044 0.001906 0.001239 0.000000 0.024516 0.000000
# 6 0.000000 0.000000 0.000000 -0.004501 0.000000 0.017978
#
#
# Mechanical properties :
#
#
# Convention : Reuss Voigt Hill
#
# Bulk Modulus (GPa) = 49.80267 66.01370 57.90818
# Shear Modulus (GPa) = 31.67255 39.25034 35.46145
#
# Velocity S-wave (km/s) = 3.95101 4.39833 4.18066
# Velocity P-wave (km/s) = 6.73500 7.63740 7.20035
#
# Compressibility (1/GPa) = 0.02007925
#
# Stress axis : x y z
#
# Youngs Moduli (GPa) = 41.49645 96.52755 83.84076
#
# Poissons Ratio (x) = 0.08335 0.81744
# Poissons Ratio (y) = 0.03583 0.21294
# Poissons Ratio (z) = 0.40459 0.24516
#
# Static dielectric constant tensor:
#      x y z
#    x 3.445920 0.000000 -0.127630 
#    y 0.000000 3.802300 0.000000 
#    z -0.127630 0.000000 3.848460 
# 
# 
# High freq. dielectric constant tensor:
#      x y z
#    x 1.772840 0.000000 -0.007890 
#    y 0.000000 1.809910 0.000000 
#    z -0.007890 0.000000 1.806440 
# 
# From -- ./inp_files/14615.got.cif
#   From: 2010.03.12/outbox.cif.g09.slc.cpg/sg4_8_cif.got.tgz:14615.got - 2010.03.31 09:31:35.
