data_PCOD8046578
_publ_section_title
;
Structure prediction by ZEFSAII (Michael W. Deem and Ramdas Pophale) SiO2 
 PCOD8046578
Probable space group: P 21
;
_chemical_formula_sum "Si O2"
_cell_formula_units_Z 16
_cell_length_a 11.876614
_cell_length_b 11.698898
_cell_length_c 9.522087
_cell_angle_alpha 90.000000
_cell_angle_beta 36.680703
_cell_angle_gamma 90.000000
_cell_volume 790.318779
_symmetry_space_group_name_H-M "P 21"
_symmetry_group_IT_number 4
_symmetry_cell_setting 'monoclinic'
loop_
_space_group_symop_operation_xyz
x,y,z
-x,1/2+y,-z
loop_
_atom_site_type_symbol
_atom_site_label
_atom_site_fract_x
_atom_site_fract_y
_atom_site_fract_z
Si Si1 0.266320 0.878020 0.403287
Si Si2 0.643736 0.166174 0.852977
Si Si3 0.265682 0.867813 0.850319
Si Si4 0.968773 0.928461 0.920311
Si Si5 0.618897 0.589835 0.107411
Si Si6 0.568692 0.811070 0.318018
Si Si7 0.253011 0.131635 0.304091
Si Si8 0.091181 0.654497 0.179689
O O1 0.254285 0.782832 0.294967
O O2 0.462869 0.865959 0.290828
O O3 0.082947 0.861481 0.685200
O O4 0.264732 0.000099 0.335453
O O5 0.582257 0.090877 0.777653
O O6 0.782844 0.099549 0.820155
O O7 0.452688 0.194434 0.132637
O O8 0.436545 0.821576 0.585321
O O9 0.091843 0.921528 0.938218
O O10 0.346169 0.963854 0.872222
O O11 0.191751 0.763574 0.015838
O O12 0.945898 0.061849 0.903863
O O13 0.765003 0.874463 0.149764
O O14 0.610573 0.677518 0.246194
O O15 0.781031 0.630082 0.832411
O O16 0.100294 0.195784 0.551767
#
# Coordination Sequence:
#
# PCOD8046578 Si02
#       8
#     2   2   2   2   2   2   2   2
#     4   9  18  38  63  91 126 157 215 259 317 378
#     4   9  20  37  66  91 124 164 199 268 319 380
#     4  11  25  43  65  96 131 163 219 267 297 399
#     4  10  24  40  64  90 125 174 209 263 315 375
#     4   9  22  43  61  95 127 161 208 270 316 363
#     4  10  22  41  66  87 125 176 204 262 323 373
#     4   9  20  39  63  95 127 159 201 276 312 380
#     4  11  23  41  66  97 123 170 217 257 329 374
#
# _framework density 20.244996
#
# number of rings (size 3 to 8) (size 9 to 14) (size 15 to 20)
#    0.750    1.500    0.000    1.500    5.250    1.000 
#    2.250    0.000    0.000    0.000    0.000    0.000 
#    0.000    0.000    0.000    0.000    0.000    0.000 
#
# Total GULP energy -198274.109824 kJ/mol
# GULP energy per Si atom -12392.131864 kJ/mol
# Density = 2.019892 g / cm^3
# Si number density = 20.244996 Si / 1000 Ang^3
#
#
#
# Elastic Constant Matrix: (Units=GPa)
#
#
# Indices 1 2 3 4 5 6 
#
# 1 87.7918 36.7070 25.9004 0.0000 -5.1378 0.0000
# 2 36.7070 85.2734 43.4866 0.0000 -0.4383 0.0000
# 3 25.9004 43.4866 117.3978 0.0000 -7.5736 0.0000
# 4 0.0000 0.0000 0.0000 29.1719 0.0000 -3.1947
# 5 -5.1378 -0.4383 -7.5736 0.0000 27.9527 0.0000
# 6 0.0000 0.0000 0.0000 -3.1947 0.0000 22.7587
#
#
#
# Elastic Compliance Matrix: (Units=1/GPa)
#
#
# Indices 1 2 3 4 5 6 
#
# 1 0.014135 -0.005619 -0.000891 0.000000 0.002269 0.000000
# 2 -0.005619 0.016734 -0.005098 0.000000 -0.002152 0.000000
# 3 -0.000891 -0.005098 0.010776 0.000000 0.002676 0.000000
# 4 0.000000 0.000000 0.000000 0.034815 0.000000 0.004887
# 5 0.002269 -0.002152 0.002676 0.000000 0.036883 0.000000
# 6 0.000000 0.000000 0.000000 0.004887 0.000000 0.044625
#
#
# Mechanical properties :
#
#
# Convention : Reuss Voigt Hill
#
# Bulk Modulus (GPa) = 54.25882 55.85010 55.05446
# Shear Modulus (GPa) = 26.69126 28.26793 27.47960
#
# Velocity S-wave (km/s) = 3.63493 3.74075 3.68822
# Velocity P-wave (km/s) = 6.66905 6.80475 6.73724
#
# Compressibility (1/GPa) = 0.01843018
#
# Stress axis : x y z
#
# Youngs Moduli (GPa) = 70.74395 59.75722 92.80217
#
# Poissons Ratio (x) = 0.33576 0.08268
# Poissons Ratio (y) = 0.39750 0.47310
# Poissons Ratio (z) = 0.06303 0.30464
#
# Static dielectric constant tensor:
#      x y z
#    x 3.669570 0.000000 -0.005990 
#    y 0.000000 3.384870 0.000000 
#    z -0.005990 0.000000 3.925000 
# 
# 
# High freq. dielectric constant tensor:
#      x y z
#    x 1.789740 0.000000 0.001440 
#    y 0.000000 1.773050 0.000000 
#    z 0.001440 0.000000 1.799030 
# 
# From -- ./inp_files/8302.got.cif
#   From: 2010.03.12/outbox.cif.g09.slc.cpg/sg4_5_cif.got.tgz:8302.got - 2010.03.31 09:31:35.
