data_PCOD8046329
_publ_section_title
;
Structure prediction by ZEFSAII (Michael W. Deem and Ramdas Pophale) SiO2 
 PCOD8046329
Probable space group: P 21
;
_chemical_formula_sum "Si O2"
_cell_formula_units_Z 14
_cell_length_a 12.947317
_cell_length_b 9.681497
_cell_length_c 9.208693
_cell_angle_alpha 90.000000
_cell_angle_beta 35.341180
_cell_angle_gamma 90.000000
_cell_volume 667.700426
_symmetry_space_group_name_H-M "P 21"
_symmetry_group_IT_number 4
_symmetry_cell_setting 'monoclinic'
loop_
_space_group_symop_operation_xyz
x,y,z
-x,1/2+y,-z
loop_
_atom_site_type_symbol
_atom_site_label
_atom_site_fract_x
_atom_site_fract_y
_atom_site_fract_z
Si Si1 0.149941 0.279370 0.738578
Si Si2 0.542967 0.229445 0.682050
Si Si3 0.792421 0.607673 0.049489
Si Si4 0.836975 0.039271 0.457293
Si Si5 0.749217 0.296241 0.156751
Si Si6 0.577051 0.946356 0.960996
Si Si7 0.500523 0.231440 0.176370
O O1 0.188454 0.236349 0.860644
O O2 0.166838 0.444111 0.685447
O O3 0.302817 0.207916 0.467710
O O4 0.948260 0.229153 0.931029
O O5 0.377604 0.125775 0.857696
O O6 0.693317 0.161735 0.609619
O O7 0.626285 0.253146 0.429971
O O8 0.457447 0.367810 0.848775
O O9 0.768472 0.460407 0.153600
O O10 0.968048 0.604550 0.746284
O O11 0.784121 0.952536 0.664054
O O12 0.654047 0.240323 0.121481
O O13 0.473571 0.870251 0.948219
O O14 0.516683 0.102965 0.050179
#
# Coordination Sequence:
#
# PCOD8046329 Si02
#       7
#     2   2   2   2   2   2   2
#     4  10  21  41  67  97 134 169 218 284 332 383
#     4  12  23  41  71  96 129 180 221 273 339 401
#     4  11  22  41  66  99 133 173 219 280 339 386
#     4  10  23  44  62  96 140 168 224 278 324 411
#     4  11  24  40  69  99 132 173 225 283 326 399
#     4  11  24  45  70  95 137 182 221 271 349 397
#     4  11  23  46  67  98 137 177 224 281 333 403
#
# _framework density 20.967487999999999
#
# number of rings (size 3 to 8) (size 9 to 14) (size 15 to 20)
#    0.000    1.143    4.286    2.571    0.000    0.000 
#    7.714    1.429    0.000    0.000    0.000    0.000 
#    0.000    0.000    0.000    0.000    0.000    0.000 
#
# Total GULP energy -173466.097354 kJ/mol
# GULP energy per Si atom -12390.435525 kJ/mol
# Density = 2.091977 g / cm^3
# Si number density = 20.967488 Si / 1000 Ang^3
#
#
#
# Elastic Constant Matrix: (Units=GPa)
#
#
# Indices 1 2 3 4 5 6 
#
# 1 76.5982 17.0374 55.2300 0.0000 -12.9495 0.0000
# 2 17.0374 73.3897 45.4594 0.0000 -3.7585 0.0000
# 3 55.2300 45.4594 147.5057 0.0000 -15.9661 0.0000
# 4 0.0000 0.0000 0.0000 38.5297 0.0000 5.2869
# 5 -12.9495 -3.7585 -15.9661 0.0000 39.4272 0.0000
# 6 0.0000 0.0000 0.0000 5.2869 0.0000 29.6148
#
#
#
# Elastic Compliance Matrix: (Units=1/GPa)
#
#
# Indices 1 2 3 4 5 6 
#
# 1 0.018305 -0.000071 -0.006465 0.000000 0.003387 0.000000
# 2 -0.000071 0.016851 -0.005224 0.000000 -0.000533 0.000000
# 3 -0.006465 -0.005224 0.011009 0.000000 0.001837 0.000000
# 4 0.000000 0.000000 0.000000 0.026606 0.000000 -0.004750
# 5 0.003387 -0.000533 0.001837 0.000000 0.027169 0.000000
# 6 0.000000 0.000000 0.000000 -0.004750 0.000000 0.034615
#
#
# Mechanical properties :
#
#
# Convention : Reuss Voigt Hill
#
# Bulk Modulus (GPa) = 44.16237 59.21637 51.68937
# Shear Modulus (GPa) = 30.18870 33.49880 31.84375
#
# Velocity S-wave (km/s) = 3.79857 4.00140 3.90130
# Velocity P-wave (km/s) = 6.35192 7.04639 6.70815
#
# Compressibility (1/GPa) = 0.02264371
#
# Stress axis : x y z
#
# Youngs Moduli (GPa) = 54.62864 59.34287 90.83412
#
# Poissons Ratio (x) = 0.00423 0.58728
# Poissons Ratio (y) = 0.00389 0.47454
# Poissons Ratio (z) = 0.35320 0.31002
#
# Static dielectric constant tensor:
#      x y z
#    x 3.548540 0.000000 -0.074680 
#    y 0.000000 3.762570 0.000000 
#    z -0.074680 0.000000 4.296570 
# 
# 
# High freq. dielectric constant tensor:
#      x y z
#    x 1.793540 0.000000 -0.002410 
#    y 0.000000 1.816830 0.000000 
#    z -0.002410 0.000000 1.849600 
# 
# From -- ./inp_files/7485.got.cif
#   From: 2010.03.12/outbox.cif.g09.slc.cpg/sg4_4_cif.got.tgz:7485.got - 2010.03.31 09:31:35.
