data_PCOD8046913
_publ_section_title
;
Structure prediction by ZEFSAII (Michael W. Deem and Ramdas Pophale) SiO2 
 PCOD8046913
Probable space group: P 21
;
_chemical_formula_sum "Si O2"
_cell_formula_units_Z 16
_cell_length_a 6.239087
_cell_length_b 8.863074
_cell_length_c 12.951295
_cell_angle_alpha 90.000000
_cell_angle_beta 70.663118
_cell_angle_gamma 90.000000
_cell_volume 675.773289
_symmetry_space_group_name_H-M "P 21"
_symmetry_group_IT_number 4
_symmetry_cell_setting 'monoclinic'
loop_
_space_group_symop_operation_xyz
x,y,z
-x,1/2+y,-z
loop_
_atom_site_type_symbol
_atom_site_label
_atom_site_fract_x
_atom_site_fract_y
_atom_site_fract_z
Si Si1 0.886285 0.768350 0.079953
Si Si2 0.502419 0.489546 0.813598
Si Si3 0.906848 0.552815 0.250980
Si Si4 0.183316 0.465967 0.397435
Si Si5 0.577183 0.329123 0.216586
Si Si6 0.524884 0.671848 0.444525
Si Si7 0.715586 0.456089 0.566834
Si Si8 0.711710 0.488930 0.004610
O O1 0.696572 0.868955 0.166332
O O2 0.003126 0.648612 0.139727
O O3 0.775950 0.665544 0.006910
O O4 0.075617 0.879254 0.005820
O O5 0.393610 0.655234 0.819492
O O6 0.688741 0.457126 0.694628
O O7 0.620233 0.467613 0.904768
O O8 0.810964 0.386875 0.233903
O O9 0.688614 0.646724 0.322232
O O10 0.097503 0.546096 0.306858
O O11 0.365097 0.341722 0.330017
O O12 0.289259 0.587941 0.457411
O O13 0.968249 0.399892 0.495342
O O14 0.532391 0.434407 0.121496
O O15 0.648803 0.619395 0.530442
O O16 0.465170 0.847856 0.462948
#
# Coordination Sequence:
#
# PCOD8046913 Si02
#       8
#     2   2   2   2   2   2   2   2
#     4  11  24  44  68 101 137 175 226 284 340 404
#     4  12  26  43  70 102 137 179 232 278 337 415
#     4   9  21  43  68  94 133 179 220 280 338 394
#     4  10  24  41  72  95 135 182 227 274 344 401
#     4  10  24  44  67  99 138 175 229 282 338 400
#     4  10  23  44  64  97 140 177 224 280 335 397
#     4  11  26  42  71 102 139 180 228 280 340 401
#     4  11  26  45  72 100 137 181 226 284 346 400
#
# _framework density 23.676579
#
# number of rings (size 3 to 8) (size 9 to 14) (size 15 to 20)
#    0.000    1.500    1.250    1.500    8.750    8.000 
#    0.000    0.000    0.000    0.000    0.000    0.000 
#    0.000    0.000    0.000    0.000    0.000    0.000 
#
# Total GULP energy -198362.172374 kJ/mol
# GULP energy per Si atom -12397.635773 kJ/mol
# Density = 2.362269 g / cm^3
# Si number density = 23.676579 Si / 1000 Ang^3
#
#
#
# Elastic Constant Matrix: (Units=GPa)
#
#
# Indices 1 2 3 4 5 6 
#
# 1 57.5987 20.2800 22.2821 0.0000 5.9261 0.0000
# 2 20.2800 113.3271 22.2573 0.0000 -8.0060 0.0000
# 3 22.2821 22.2573 116.2887 0.0000 4.8444 0.0000
# 4 0.0000 0.0000 0.0000 36.1635 0.0000 2.3562
# 5 5.9261 -8.0060 4.8444 0.0000 33.7447 0.0000
# 6 0.0000 0.0000 0.0000 2.3562 0.0000 24.9629
#
#
#
# Elastic Compliance Matrix: (Units=1/GPa)
#
#
# Indices 1 2 3 4 5 6 
#
# 1 0.020095 -0.003267 -0.003064 0.000000 -0.003864 0.000000
# 2 -0.003267 0.009904 -0.001400 0.000000 0.003125 0.000000
# 3 -0.003064 -0.001400 0.009503 0.000000 -0.001158 0.000000
# 4 0.000000 0.000000 0.000000 0.027823 0.000000 -0.002626
# 5 -0.003864 0.003125 -0.001158 0.000000 0.031221 0.000000
# 6 0.000000 0.000000 0.000000 -0.002626 0.000000 0.040307
#
#
# Mechanical properties :
#
#
# Convention : Reuss Voigt Hill
#
# Bulk Modulus (GPa) = 41.59808 46.31704 43.95756
# Shear Modulus (GPa) = 30.80179 33.80054 32.30117
#
# Velocity S-wave (km/s) = 3.61077 3.78245 3.69761
# Velocity P-wave (km/s) = 5.91532 6.21939 6.06926
#
# Compressibility (1/GPa) = 0.02403957
#
# Stress axis : x y z
#
# Youngs Moduli (GPa) = 49.76420 100.96584 105.23486
#
# Poissons Ratio (x) = 0.32988 0.32245
# Poissons Ratio (y) = 0.16259 0.14731
# Poissons Ratio (z) = 0.15248 0.14133
#
# Static dielectric constant tensor:
#      x y z
#    x 3.977940 0.000000 -0.072000 
#    y 0.000000 4.186340 0.000000 
#    z -0.072000 0.000000 4.348270 
# 
# 
# High freq. dielectric constant tensor:
#      x y z
#    x 1.919790 0.000000 0.002500 
#    y 0.000000 1.940410 0.000000 
#    z 0.002500 0.000000 1.950680 
# 
# From -- ./inp_files/3511.got.cif
#   From: 2010.03.12/outbox.cif.g09.slc.cpg/sg4_2_cif.got.tgz:3511.got - 2010.03.31 09:31:35.
