data_PCOD8046012
_publ_section_title
;
Structure prediction by ZEFSAII (Michael W. Deem and Ramdas Pophale) SiO2 
 PCOD8046012
Probable space group: P 21
;
_chemical_formula_sum "Si O2"
_cell_formula_units_Z 16
_cell_length_a 9.335536
_cell_length_b 12.291365
_cell_length_c 11.872134
_cell_angle_alpha 90.000000
_cell_angle_beta 34.695219
_cell_angle_gamma 90.000000
_cell_volume 775.427833
_symmetry_space_group_name_H-M "P 21"
_symmetry_group_IT_number 4
_symmetry_cell_setting 'monoclinic'
loop_
_space_group_symop_operation_xyz
x,y,z
-x,1/2+y,-z
loop_
_atom_site_type_symbol
_atom_site_label
_atom_site_fract_x
_atom_site_fract_y
_atom_site_fract_z
Si Si1 0.713515 0.297890 0.190334
Si Si2 0.173410 0.508991 0.097191
Si Si3 0.879938 0.704272 0.923851
Si Si4 0.623035 0.741303 0.399742
Si Si5 0.194223 0.040549 0.853496
Si Si6 0.831254 0.249490 0.875974
Si Si7 0.182547 0.831603 0.563720
Si Si8 0.595852 0.340912 0.812086
O O1 0.528514 0.224988 0.385779
O O2 0.659736 0.426586 0.237680
O O3 0.999569 0.273960 0.049494
O O4 0.657292 0.263851 0.098634
O O5 0.185360 0.624160 0.154592
O O6 0.075242 0.530806 0.034225
O O7 0.971206 0.434675 0.292430
O O8 0.448870 0.455587 0.912798
O O9 0.045705 0.722099 0.702678
O O10 0.860503 0.580564 0.982182
O O11 0.598559 0.743726 0.082349
O O12 0.635076 0.627435 0.324718
O O13 0.470122 0.830385 0.423796
O O14 0.893848 0.787182 0.260192
O O15 0.740730 0.327424 0.835495
O O16 0.191874 0.837226 0.422726
#
# Coordination Sequence:
#
# PCOD8046012 Si02
#       8
#     2   2   2   2   2   2   2   2
#     4  11  21  41  63  94 126 162 213 270 307 370
#     4  10  22  40  67  90 121 175 209 259 323 369
#     4  10  20  39  63  95 120 160 215 261 304 369
#     4  10  21  38  62  96 123 158 211 267 304 370
#     4  11  19  39  66  96 126 158 211 270 321 358
#     4  11  25  42  61  95 134 163 210 263 315 382
#     4  10  20  41  65  93 120 166 214 256 315 370
#     4  11  22  42  65  85 134 172 205 254 317 388
#
# _framework density 20.633772
#
# number of rings (size 3 to 8) (size 9 to 14) (size 15 to 20)
#    0.000    1.500    7.500    0.000    0.000    5.000 
#    4.500    1.250    0.000    0.000    0.000    0.000 
#    0.000    0.000    0.000    0.000    0.000    0.000 
#
# Total GULP energy -198314.364527 kJ/mol
# GULP energy per Si atom -12394.647783 kJ/mol
# Density = 2.058681 g / cm^3
# Si number density = 20.633772 Si / 1000 Ang^3
#
#
#
# Elastic Constant Matrix: (Units=GPa)
#
#
# Indices 1 2 3 4 5 6 
#
# 1 82.2791 17.9951 45.6711 0.0000 19.6911 0.0000
# 2 17.9951 85.4788 39.0398 0.0000 0.6929 0.0000
# 3 45.6711 39.0398 100.9492 0.0000 18.9760 0.0000
# 4 0.0000 0.0000 0.0000 26.1563 0.0000 -1.2821
# 5 19.6911 0.6929 18.9760 0.0000 29.8127 0.0000
# 6 0.0000 0.0000 0.0000 -1.2821 0.0000 29.4658
#
#
#
# Elastic Compliance Matrix: (Units=1/GPa)
#
#
# Indices 1 2 3 4 5 6 
#
# 1 0.017614 -0.000806 -0.006218 0.000000 -0.007658 0.000000
# 2 -0.000806 0.014593 -0.006038 0.000000 0.004036 0.000000
# 3 -0.006218 -0.006038 0.016193 0.000000 -0.006060 0.000000
# 4 0.000000 0.000000 0.000000 0.038313 0.000000 0.001667
# 5 -0.007658 0.004036 -0.006060 0.000000 0.042364 0.000000
# 6 0.000000 0.000000 0.000000 0.001667 0.000000 0.034010
#
#
# Mechanical properties :
#
#
# Convention : Reuss Voigt Hill
#
# Bulk Modulus (GPa) = 44.88889 52.67991 48.78440
# Shear Modulus (GPa) = 25.42762 28.15370 26.79066
#
# Velocity S-wave (km/s) = 3.51426 3.69785 3.60723
# Velocity P-wave (km/s) = 6.18620 6.61955 6.40654
#
# Compressibility (1/GPa) = 0.02227723
#
# Stress axis : x y z
#
# Youngs Moduli (GPa) = 56.77312 68.52451 61.75531
#
# Poissons Ratio (x) = 0.05525 0.38397
# Poissons Ratio (y) = 0.04578 0.37285
# Poissons Ratio (z) = 0.35299 0.41372
#
# Static dielectric constant tensor:
#      x y z
#    x 3.566980 0.000000 0.122170 
#    y 0.000000 3.715740 0.000000 
#    z 0.122170 0.000000 3.803880 
# 
# 
# High freq. dielectric constant tensor:
#      x y z
#    x 1.788770 0.000000 0.009310 
#    y 0.000000 1.791680 0.000000 
#    z 0.009310 0.000000 1.805230 
# 
# From -- ./inp_files/11137.got.cif
#   From: 2010.03.12/outbox.cif.g09.slc.cpg/sg4_6_cif.got.tgz:11137.got - 2010.03.31 09:31:35.
