data_PCOD8046796
_publ_section_title
;
Structure prediction by ZEFSAII (Michael W. Deem and Ramdas Pophale) SiO2 
 PCOD8046796
Probable space group: P 21
;
_chemical_formula_sum "Si O2"
_cell_formula_units_Z 16
_cell_length_a 10.054807
_cell_length_b 8.240225
_cell_length_c 8.873387
_cell_angle_alpha 90.000000
_cell_angle_beta 91.685746
_cell_angle_gamma 90.000000
_cell_volume 734.876286
_symmetry_space_group_name_H-M "P 21"
_symmetry_group_IT_number 4
_symmetry_cell_setting 'monoclinic'
loop_
_space_group_symop_operation_xyz
x,y,z
-x,1/2+y,-z
loop_
_atom_site_type_symbol
_atom_site_label
_atom_site_fract_x
_atom_site_fract_y
_atom_site_fract_z
Si Si1 0.911345 0.024850 0.106445
Si Si2 0.587051 0.527151 0.891351
Si Si3 0.657569 0.030567 0.614585
Si Si4 0.162069 0.895255 0.949664
Si Si5 0.339110 0.396099 0.053005
Si Si6 0.914752 0.082573 0.445968
Si Si7 0.584589 0.401476 0.562628
Si Si8 0.839725 0.449398 0.389804
O O1 0.872850 0.207630 0.065110
O O2 0.913924 0.992787 0.285139
O O3 0.805986 0.903531 0.027388
O O4 0.057364 0.988806 0.049518
O O5 0.622867 0.710099 0.931402
O O6 0.584268 0.508776 0.712289
O O7 0.693979 0.405840 0.968130
O O8 0.441719 0.488699 0.949191
O O9 0.664776 0.984399 0.787974
O O10 0.556798 0.912978 0.524153
O O11 0.802411 0.003235 0.547456
O O12 0.610171 0.215018 0.600528
O O13 0.167810 0.982929 0.788178
O O14 0.890580 0.270599 0.423516
O O15 0.057400 0.072365 0.530595
O O16 0.694688 0.476285 0.455018
#
# Coordination Sequence:
#
# PCOD8046796 Si02
#       8
#     2   2   2   2   2   2   2   2
#     4  11  23  41  63  92 126 163 207 256 309 372
#     4  12  25  42  64  92 124 163 208 259 315 375
#     4  11  23  41  64  92 124 162 206 256 310 371
#     4  11  23  41  63  92 126 163 207 256 309 372
#     4  12  25  42  64  92 124 163 208 259 315 375
#     4  10  23  40  61  88 121 158 201 249 301 362
#     4  11  23  41  64  92 124 162 206 256 310 371
#     4  10  23  40  61  88 121 158 201 249 301 362
#
# _framework density 21.772373000000002
#
# number of rings (size 3 to 8) (size 9 to 14) (size 15 to 20)
#    0.000    1.000    0.000    6.750    0.000   10.000 
#    0.000    0.000    0.000    0.000    0.000    0.000 
#    0.000    0.000    0.000    0.000    0.000    0.000 
#
# Total GULP energy -198542.243627 kJ/mol
# GULP energy per Si atom -12408.890227 kJ/mol
# Density = 2.172282 g / cm^3
# Si number density = 21.772373 Si / 1000 Ang^3
#
#
#
# Elastic Constant Matrix: (Units=GPa)
#
#
# Indices 1 2 3 4 5 6 
#
# 1 71.5108 8.2876 9.3133 0.0000 1.2393 0.0000
# 2 8.2876 39.0537 23.2621 0.0000 -22.3842 0.0000
# 3 9.3133 23.2621 107.1197 0.0000 -6.3431 0.0000
# 4 0.0000 0.0000 0.0000 26.2548 0.0000 17.5572
# 5 1.2393 -22.3842 -6.3431 0.0000 35.4362 0.0000
# 6 0.0000 0.0000 0.0000 17.5572 0.0000 -9.2075
#
#
#
# Elastic Compliance Matrix: (Units=1/GPa)
#
#
# Indices 1 2 3 4 5 6 
#
# 1 0.014685 -0.005032 -0.000407 0.000000 -0.003765 0.000000
# 2 -0.005032 0.048419 -0.008344 0.000000 0.029267 0.000000
# 3 -0.000407 -0.008344 0.010988 0.000000 -0.003290 0.000000
# 4 0.000000 0.000000 0.000000 0.016741 0.000000 0.031922
# 5 -0.003765 0.029267 -0.003290 0.000000 0.046250 0.000000
# 6 0.000000 0.000000 0.000000 0.031922 0.000000 -0.047736
#
#
# Mechanical properties :
#
#
# Convention : Reuss Voigt Hill
#
# Bulk Modulus (GPa) = 21.49330 33.26778 27.38054
# Shear Modulus (GPa) = 37.75822 22.28478 30.02150
#
# Velocity S-wave (km/s) = 4.16892 3.20274 3.71736
# Velocity P-wave (km/s) = 5.75035 5.38421 5.57029
#
# Compressibility (1/GPa) = 0.04652613
#
# Stress axis : x y z
#
# Youngs Moduli (GPa) = 68.09518 20.65314 91.00894
#
# Poissons Ratio (x) = 0.10392 0.03704
# Poissons Ratio (y) = 0.34265 0.75938
# Poissons Ratio (z) = 0.02771 0.17233
#
# Static dielectric constant tensor:
#      x y z
#    x 4.218340 0.000000 -0.039900 
#    y 0.000000 3.802160 0.000000 
#    z -0.039900 0.000000 4.219340 
# 
# 
# High freq. dielectric constant tensor:
#      x y z
#    x 1.869970 0.000000 -0.002700 
#    y 0.000000 1.856930 0.000000 
#    z -0.002700 0.000000 1.873540 
# 
# From -- ./inp_files/5665.got.cif
#   From: 2010.03.12/outbox.cif.g09.slc.cpg/sg4_3_cif.got.tgz:5665.got - 2010.03.31 09:31:35.
