data_PCOD8046648
_publ_section_title
;
Structure prediction by ZEFSAII (Michael W. Deem and Ramdas Pophale) SiO2 
 PCOD8046648
Probable space group: P 21
;
_chemical_formula_sum "Si O2"
_cell_formula_units_Z 16
_cell_length_a 5.297880
_cell_length_b 8.347631
_cell_length_c 18.175954
_cell_angle_alpha 90.000000
_cell_angle_beta 120.891729
_cell_angle_gamma 90.000000
_cell_volume 689.795299
_symmetry_space_group_name_H-M "P 21"
_symmetry_group_IT_number 4
_symmetry_cell_setting 'monoclinic'
loop_
_space_group_symop_operation_xyz
x,y,z
-x,1/2+y,-z
loop_
_atom_site_type_symbol
_atom_site_label
_atom_site_fract_x
_atom_site_fract_y
_atom_site_fract_z
Si Si1 0.845928 0.679580 0.324780
Si Si2 0.123043 0.100010 0.263649
Si Si3 0.313531 0.749584 0.038481
Si Si4 0.120515 0.051890 0.928426
Si Si5 0.342962 0.100852 0.561471
Si Si6 0.643682 0.407590 0.581036
Si Si7 0.120733 0.475816 0.259658
Si Si8 0.492010 0.438046 0.791938
O O1 0.920602 0.613004 0.418579
O O2 0.104785 0.800838 0.344982
O O3 0.838243 0.534254 0.265212
O O4 0.556357 0.789289 0.272247
O O5 0.124440 0.287942 0.256717
O O6 0.230566 0.033445 0.200500
O O7 0.796370 0.048296 0.239511
O O8 0.374548 0.052228 0.362581
O O9 0.574934 0.643761 0.043100
O O10 0.053738 0.636818 0.030937
O O11 0.431073 0.870411 0.117411
O O12 0.185722 0.865932 0.956259
O O13 0.907657 0.052750 0.825371
O O14 0.372852 0.283136 0.534362
O O15 0.280386 0.976609 0.487950
O O16 0.597902 0.042333 0.654972
#
# Coordination Sequence:
#
# PCOD8046648 Si02
#       8
#     2   2   2   2   2   2   2   2
#     4  10  22  43  66  94 132 191 230 292 356 419
#     4  11  25  42  70 105 138 184 239 290 348 424
#     4  12  27  48  75 107 145 188 237 299 364 432
#     4  12  28  47  76 106 148 184 244 293 369 429
#     4  11  22  43  67  91 143 182 236 296 356 419
#     4  10  23  39  63  99 133 182 235 287 356 411
#     4  11  26  43  69 102 136 186 244 291 358 428
#     4  11  23  45  72  94 141 185 231 284 361 422
#
# _framework density 23.195288000000001
#
# number of rings (size 3 to 8) (size 9 to 14) (size 15 to 20)
#    0.000    1.000    2.500    3.000    7.000    3.000 
#    2.250    0.000    0.000    0.000    0.000    0.000 
#    0.000    0.000    0.000    0.000    0.000    0.000 
#
# Total GULP energy -198232.906746 kJ/mol
# GULP energy per Si atom -12389.556672 kJ/mol
# Density = 2.314249 g / cm^3
# Si number density = 23.195288 Si / 1000 Ang^3
#
#
#
# Elastic Constant Matrix: (Units=GPa)
#
#
# Indices 1 2 3 4 5 6 
#
# 1 111.6907 50.4866 10.4883 0.0000 -18.7425 0.0000
# 2 50.4866 121.8415 20.5806 0.0000 -13.3050 0.0000
# 3 10.4883 20.5806 70.3345 0.0000 -16.2026 0.0000
# 4 0.0000 0.0000 0.0000 42.0281 0.0000 -13.3858
# 5 -18.7425 -13.3050 -16.2026 0.0000 30.8288 0.0000
# 6 0.0000 0.0000 0.0000 -13.3858 0.0000 31.5115
#
#
#
# Elastic Compliance Matrix: (Units=1/GPa)
#
#
# Indices 1 2 3 4 5 6 
#
# 1 0.011834 -0.004421 0.000850 0.000000 0.005733 0.000000
# 2 -0.004421 0.010492 -0.002261 0.000000 0.000652 0.000000
# 3 0.000850 -0.002261 0.016664 0.000000 0.008299 0.000000
# 4 0.000000 0.000000 0.000000 0.027516 0.000000 0.011689
# 5 0.005733 0.000652 0.008299 0.000000 0.040566 0.000000
# 6 0.000000 0.000000 0.000000 0.011689 0.000000 0.036700
#
#
# Mechanical properties :
#
#
# Convention : Reuss Voigt Hill
#
# Bulk Modulus (GPa) = 36.59425 51.88642 44.24034
# Shear Modulus (GPa) = 30.38670 35.69443 33.04057
#
# Velocity S-wave (km/s) = 3.62337 3.92709 3.77829
# Velocity P-wave (km/s) = 5.77200 6.55597 6.17643
#
# Compressibility (1/GPa) = 0.02732670
#
# Stress axis : x y z
#
# Youngs Moduli (GPa) = 84.50263 95.30725 60.00824
#
# Poissons Ratio (x) = 0.42136 -0.05099
# Poissons Ratio (y) = 0.37359 0.13566
# Poissons Ratio (z) = -0.07180 0.21545
#
# Static dielectric constant tensor:
#      x y z
#    x 4.617580 0.000000 -0.216670 
#    y 0.000000 4.466450 0.000000 
#    z -0.216670 0.000000 4.189600 
# 
# 
# High freq. dielectric constant tensor:
#      x y z
#    x 1.914520 0.000000 -0.018560 
#    y 0.000000 1.931310 0.000000 
#    z -0.018560 0.000000 1.914560 
# 
# From -- ./inp_files/3452.got.cif
#   From: 2010.03.12/outbox.cif.g09.slc.cpg/sg4_2_cif.got.tgz:3452.got - 2010.03.31 09:31:35.
