data_PCOD8046384
_publ_section_title
;
Structure prediction by ZEFSAII (Michael W. Deem and Ramdas Pophale) SiO2 
 PCOD8046384
Probable space group: P 21
;
_chemical_formula_sum "Si O2"
_cell_formula_units_Z 16
_cell_length_a 8.155077
_cell_length_b 9.054056
_cell_length_c 11.240619
_cell_angle_alpha 90.000000
_cell_angle_beta 67.628030
_cell_angle_gamma 90.000000
_cell_volume 767.498473
_symmetry_space_group_name_H-M "P 21"
_symmetry_group_IT_number 4
_symmetry_cell_setting 'monoclinic'
loop_
_space_group_symop_operation_xyz
x,y,z
-x,1/2+y,-z
loop_
_atom_site_type_symbol
_atom_site_label
_atom_site_fract_x
_atom_site_fract_y
_atom_site_fract_z
Si Si1 0.761868 0.588270 0.377459
Si Si2 0.579262 0.579341 0.678131
Si Si3 0.318480 0.840523 0.767226
Si Si4 0.765843 0.510956 0.856558
Si Si5 0.111351 0.671969 0.182979
Si Si6 0.638395 0.796477 0.203635
Si Si7 0.031375 0.228188 0.019990
Si Si8 0.475838 0.544116 0.116366
O O1 0.686216 0.605954 0.528912
O O2 0.725746 0.420410 0.344660
O O3 0.671847 0.700095 0.311096
O O4 0.970428 0.627867 0.323595
O O5 0.410264 0.685423 0.723424
O O6 0.726159 0.593195 0.742299
O O7 0.482748 0.424676 0.714189
O O8 0.132464 0.825422 0.888344
O O9 0.464761 0.932258 0.798588
O O10 0.845964 0.347138 0.817572
O O11 0.893944 0.615698 0.900419
O O12 0.572018 0.495077 0.968861
O O13 0.266472 0.551782 0.156175
O O14 0.034994 0.631650 0.073885
O O15 0.525796 0.709733 0.137244
O O16 0.819022 0.836567 0.080814
#
# Coordination Sequence:
#
# PCOD8046384 Si02
#       8
#     2   2   2   2   2   2   2   2
#     4  10  25  45  62  95 135 184 226 263 331 394
#     4  12  24  43  66  97 133 182 229 265 321 410
#     4  11  24  42  68  99 132 169 222 279 338 394
#     4  11  24  41  66 103 125 171 222 271 342 395
#     4  11  22  44  69  92 138 171 214 279 337 391
#     4   9  21  41  72  92 135 173 214 277 335 389
#     4  10  23  41  67 103 130 161 221 284 341 388
#     4  10  21  43  64 101 130 161 212 280 345 389
#
# _framework density 20.846945000000002
#
# number of rings (size 3 to 8) (size 9 to 14) (size 15 to 20)
#    0.000    1.500    2.500    2.250    3.500    2.000 
#    4.500    0.000    0.000    0.000    0.000    0.000 
#    0.000    0.000    0.000    0.000    0.000    0.000 
#
# Total GULP energy -198282.802885 kJ/mol
# GULP energy per Si atom -12392.675180 kJ/mol
# Density = 2.079950 g / cm^3
# Si number density = 20.846945 Si / 1000 Ang^3
#
#
#
# Elastic Constant Matrix: (Units=GPa)
#
#
# Indices 1 2 3 4 5 6 
#
# 1 114.6866 19.9614 47.5368 0.0000 -13.2150 0.0000
# 2 19.9614 64.5376 23.0439 0.0000 -6.8050 0.0000
# 3 47.5368 23.0439 128.0778 0.0000 -3.8965 0.0000
# 4 0.0000 0.0000 0.0000 26.8523 0.0000 -7.1980
# 5 -13.2150 -6.8050 -3.8965 0.0000 28.1894 0.0000
# 6 0.0000 0.0000 0.0000 -7.1980 0.0000 30.7217
#
#
#
# Elastic Compliance Matrix: (Units=1/GPa)
#
#
# Indices 1 2 3 4 5 6 
#
# 1 0.011015 -0.001650 -0.003662 0.000000 0.004259 0.000000
# 2 -0.001650 0.017178 -0.002386 0.000000 0.003043 0.000000
# 3 -0.003662 -0.002386 0.009567 0.000000 -0.000970 0.000000
# 4 0.000000 0.000000 0.000000 0.039736 0.000000 0.009310
# 5 0.004259 0.003043 -0.000970 0.000000 0.038072 0.000000
# 6 0.000000 0.000000 0.000000 0.009310 0.000000 0.034732
#
#
# Mechanical properties :
#
#
# Convention : Reuss Voigt Hill
#
# Bulk Modulus (GPa) = 44.71422 54.26511 49.48966
# Shear Modulus (GPa) = 28.87674 31.60336 30.24005
#
# Velocity S-wave (km/s) = 3.72584 3.89777 3.81277
# Velocity P-wave (km/s) = 6.32491 6.80761 6.57070
#
# Compressibility (1/GPa) = 0.02236425
#
# Stress axis : x y z
#
# Youngs Moduli (GPa) = 90.78310 58.21403 104.53070
#
# Poissons Ratio (x) = 0.09608 0.38278
# Poissons Ratio (y) = 0.14983 0.24936
# Poissons Ratio (z) = 0.33243 0.13887
#
# Static dielectric constant tensor:
#      x y z
#    x 4.113390 0.000000 -0.039060 
#    y 0.000000 3.762040 0.000000 
#    z -0.039060 0.000000 3.682340 
# 
# 
# High freq. dielectric constant tensor:
#      x y z
#    x 1.831100 0.000000 -0.002950 
#    y 0.000000 1.817120 0.000000 
#    z -0.002950 0.000000 1.802940 
# 
# From -- ./inp_files/7659.got.cif
#   From: 2010.03.12/outbox.cif.g09.slc.cpg/sg4_4_cif.got.tgz:7659.got - 2010.03.31 09:31:35.
