data_PCOD8046357
_publ_section_title
;
Structure prediction by ZEFSAII (Michael W. Deem and Ramdas Pophale) SiO2 
 PCOD8046357
Probable space group: P 21
;
_chemical_formula_sum "Si O2"
_cell_formula_units_Z 16
_cell_length_a 6.715499
_cell_length_b 13.431743
_cell_length_c 11.987484
_cell_angle_alpha 90.000000
_cell_angle_beta 40.655723
_cell_angle_gamma 90.000000
_cell_volume 704.468126
_symmetry_space_group_name_H-M "P 21"
_symmetry_group_IT_number 4
_symmetry_cell_setting 'monoclinic'
loop_
_space_group_symop_operation_xyz
x,y,z
-x,1/2+y,-z
loop_
_atom_site_type_symbol
_atom_site_label
_atom_site_fract_x
_atom_site_fract_y
_atom_site_fract_z
Si Si1 0.283672 0.137810 0.492737
Si Si2 0.567241 0.965527 0.484034
Si Si3 0.961431 0.683065 0.161778
Si Si4 0.373911 0.226895 0.912613
Si Si5 0.199727 0.780018 0.706718
Si Si6 0.488044 0.062654 0.042076
Si Si7 0.940693 0.132333 0.422007
Si Si8 0.201597 0.863204 0.158031
O O1 0.184148 0.180089 0.654325
O O2 0.559657 0.207672 0.333047
O O3 0.000470 0.148587 0.527781
O O4 0.401642 0.022973 0.451129
O O5 0.325113 0.891918 0.643056
O O6 0.863859 0.905413 0.320498
O O7 0.660678 0.054122 0.529786
O O8 0.174343 0.585711 0.050992
O O9 0.176222 0.782706 0.067886
O O10 0.693961 0.693770 0.184901
O O11 0.092744 0.284304 0.089862
O O12 0.443109 0.127095 0.950755
O O13 0.660952 0.303307 0.793013
O O14 0.128264 0.735066 0.613763
O O15 0.243049 0.082743 0.242139
O O16 0.445309 0.948467 0.021606
#
# Coordination Sequence:
#
# PCOD8046357 Si02
#       8
#     2   2   2   2   2   2   2   2
#     4  11  23  40  65  94 131 166 214 268 320 378
#     4  10  22  40  62 100 127 161 218 263 321 380
#     4  11  23  41  63  98 128 168 214 263 318 383
#     4  10  23  41  68  89 129 172 209 263 318 381
#     4  10  21  42  64  94 127 164 220 261 316 381
#     4   9  21  41  62  89 124 164 219 255 320 375
#     4   9  21  41  65  89 125 173 206 266 322 374
#     4  10  22  42  63  95 129 168 214 263 321 382
#
# _framework density 22.71217
#
# number of rings (size 3 to 8) (size 9 to 14) (size 15 to 20)
#    0.000    2.000    1.250    1.500    1.750    8.000 
#    2.250    0.000    0.000    0.000    0.000    0.000 
#    0.000    0.000    0.000    0.000    0.000    0.000 
#
# Total GULP energy -198343.954508 kJ/mol
# GULP energy per Si atom -12396.497157 kJ/mol
# Density = 2.266048 g / cm^3
# Si number density = 22.712170 Si / 1000 Ang^3
#
#
#
# Elastic Constant Matrix: (Units=GPa)
#
#
# Indices 1 2 3 4 5 6 
#
# 1 149.0383 33.2129 11.4710 0.0000 11.3535 0.0000
# 2 33.2129 106.4873 13.8745 0.0000 1.6920 0.0000
# 3 11.4710 13.8745 35.8144 0.0000 9.3743 0.0000
# 4 0.0000 0.0000 0.0000 32.5745 0.0000 -16.7227
# 5 11.3535 1.6920 9.3743 0.0000 32.6751 0.0000
# 6 0.0000 0.0000 0.0000 -16.7227 0.0000 35.7677
#
#
#
# Elastic Compliance Matrix: (Units=1/GPa)
#
#
# Indices 1 2 3 4 5 6 
#
# 1 0.007432 -0.002157 -0.000971 0.000000 -0.002192 0.000000
# 2 -0.002157 0.010528 -0.003721 0.000000 0.001272 0.000000
# 3 -0.000971 -0.003721 0.031933 0.000000 -0.008631 0.000000
# 4 0.000000 0.000000 0.000000 0.040394 0.000000 0.018886
# 5 -0.002192 0.001272 -0.008631 0.000000 0.033777 0.000000
# 6 0.000000 0.000000 0.000000 0.018886 0.000000 0.036788
#
#
# Mechanical properties :
#
#
# Convention : Reuss Voigt Hill
#
# Bulk Modulus (GPa) = 27.62692 45.38407 36.50550
# Shear Modulus (GPa) = 26.79320 35.72223 31.25772
#
# Velocity S-wave (km/s) = 3.43838 3.97019 3.71381
# Velocity P-wave (km/s) = 5.28712 6.40642 5.87349
#
# Compressibility (1/GPa) = 0.03619658
#
# Stress axis : x y z
#
# Youngs Moduli (GPa) = 134.55277 94.98472 31.31516
#
# Poissons Ratio (x) = 0.20485 0.03041
# Poissons Ratio (y) = 0.29018 0.11651
# Poissons Ratio (z) = 0.13067 0.35341
#
# Static dielectric constant tensor:
#      x y z
#    x 4.278010 0.000000 -0.446270 
#    y 0.000000 4.386070 0.000000 
#    z -0.446270 0.000000 3.819670 
# 
# 
# High freq. dielectric constant tensor:
#      x y z
#    x 1.896970 0.000000 -0.031900 
#    y 0.000000 1.902500 0.000000 
#    z -0.031900 0.000000 1.877640 
# 
# From -- ./inp_files/8271.got.cif
#   From: 2010.03.12/outbox.cif.g09.slc.cpg/sg4_5_cif.got.tgz:8271.got - 2010.03.31 09:31:35.
