data_PCOD8046248
_publ_section_title
;
Structure prediction by ZEFSAII (Michael W. Deem and Ramdas Pophale) SiO2 
 PCOD8046248
Probable space group: P 21
;
_chemical_formula_sum "Si O2"
_cell_formula_units_Z 16
_cell_length_a 10.732687
_cell_length_b 5.194272
_cell_length_c 14.929177
_cell_angle_alpha 90.000000
_cell_angle_beta 123.077047
_cell_angle_gamma 90.000000
_cell_volume 697.397851
_symmetry_space_group_name_H-M "P 21"
_symmetry_group_IT_number 4
_symmetry_cell_setting 'monoclinic'
loop_
_space_group_symop_operation_xyz
x,y,z
-x,1/2+y,-z
loop_
_atom_site_type_symbol
_atom_site_label
_atom_site_fract_x
_atom_site_fract_y
_atom_site_fract_z
Si Si1 0.697098 0.321730 0.512515
Si Si2 0.476848 0.061231 0.108556
Si Si3 0.655352 0.057701 0.997899
Si Si4 0.963994 0.937725 0.098029
Si Si5 0.868566 0.934838 0.856708
Si Si6 0.594699 0.114607 0.651617
Si Si7 0.093353 0.105517 0.517893
Si Si8 0.358541 0.424259 0.656909
O O1 0.704858 0.209748 0.615498
O O2 0.531265 0.433808 0.439491
O O3 0.834062 0.524739 0.550930
O O4 0.723584 0.114315 0.444251
O O5 0.363299 0.818792 0.068022
O O6 0.603376 0.054426 0.233949
O O7 0.384857 0.322736 0.084849
O O8 0.548799 0.065668 0.039945
O O9 0.821384 0.012208 0.102368
O O10 0.030831 0.660412 0.148770
O O11 0.892226 0.958076 0.971231
O O12 0.088257 0.153784 0.162259
O O13 0.696676 0.964625 0.762547
O O14 0.513917 0.342670 0.672869
O O15 0.241219 0.192347 0.631913
O O16 0.984163 0.354347 0.466833
#
# Coordination Sequence:
#
# PCOD8046248 Si02
#       8
#     2   2   2   2   2   2   2   2
#     4  11  24  43  70 102 139 177 236 295 334 406
#     4  10  23  38  68  95 122 169 219 272 336 391
#     4  10  21  42  62  93 131 163 213 279 331 391
#     4  10  21  40  60  92 128 169 210 268 320 418
#     4  10  23  38  62  90 128 170 217 256 341 394
#     4  11  24  42  67 102 136 178 230 291 344 397
#     4  11  24  47  68  95 135 181 222 279 347 408
#     4  11  24  42  71 101 131 177 233 284 337 409
#
# _framework density 22.942430000000002
#
# number of rings (size 3 to 8) (size 9 to 14) (size 15 to 20)
#    0.000    1.500    2.500    1.500    7.000    1.000 
#    2.250    1.250    0.000    0.000    0.000    0.000 
#    0.000    0.000    0.000    0.000    0.000    0.000 
#
# Total GULP energy -198310.058071 kJ/mol
# GULP energy per Si atom -12394.378629 kJ/mol
# Density = 2.289021 g / cm^3
# Si number density = 22.942430 Si / 1000 Ang^3
#
#
#
# Elastic Constant Matrix: (Units=GPa)
#
#
# Indices 1 2 3 4 5 6 
#
# 1 85.4061 34.8366 20.7371 0.0000 18.8536 0.0000
# 2 34.8366 110.2811 21.8335 0.0000 -10.4421 0.0000
# 3 20.7371 21.8335 72.3654 0.0000 -0.8733 0.0000
# 4 0.0000 0.0000 0.0000 27.6220 0.0000 12.3303
# 5 18.8536 -10.4421 -0.8733 0.0000 17.1637 0.0000
# 6 0.0000 0.0000 0.0000 12.3303 0.0000 41.5921
#
#
#
# Elastic Compliance Matrix: (Units=1/GPa)
#
#
# Indices 1 2 3 4 5 6 
#
# 1 0.023883 -0.009762 -0.004289 0.000000 -0.032391 0.000000
# 2 -0.009762 0.014230 -0.001263 0.000000 0.019316 0.000000
# 3 -0.004289 -0.001263 0.015486 0.000000 0.004731 0.000000
# 4 0.000000 0.000000 0.000000 0.041725 0.000000 -0.012370
# 5 -0.032391 0.019316 0.004731 0.000000 0.105835 0.000000
# 6 0.000000 0.000000 0.000000 -0.012370 0.000000 0.027710
#
#
# Mechanical properties :
#
#
# Convention : Reuss Voigt Hill
#
# Bulk Modulus (GPa) = 43.53438 46.98521 45.25980
# Shear Modulus (GPa) = 18.71574 29.98527 24.35050
#
# Velocity S-wave (km/s) = 2.85927 3.61914 3.26141
# Velocity P-wave (km/s) = 5.46966 6.16346 5.82690
#
# Compressibility (1/GPa) = 0.02297035
#
# Stress axis : x y z
#
# Youngs Moduli (GPa) = 41.87155 70.27161 64.57415
#
# Poissons Ratio (x) = 0.68599 0.27698
# Poissons Ratio (y) = 0.40875 0.08156
# Poissons Ratio (z) = 0.17960 0.08875
#
# Static dielectric constant tensor:
#      x y z
#    x 4.217370 0.000000 0.172140 
#    y 0.000000 4.545230 0.000000 
#    z 0.172140 0.000000 3.770360 
# 
# 
# High freq. dielectric constant tensor:
#      x y z
#    x 1.912190 0.000000 0.015680 
#    y 0.000000 1.919990 0.000000 
#    z 0.015680 0.000000 1.873780 
# 
# From -- ./inp_files/12383.got.cif
#   From: 2010.03.12/outbox.cif.g09.slc.cpg/sg4_7_cif.got.tgz:12383.got - 2010.03.31 09:31:35.
