data_PCOD8046653
_publ_section_title
;
Structure prediction by ZEFSAII (Michael W. Deem and Ramdas Pophale) SiO2 
 PCOD8046653
Probable space group: P 21
;
_chemical_formula_sum "Si O2"
_cell_formula_units_Z 16
_cell_length_a 9.336922
_cell_length_b 8.140306
_cell_length_c 19.044943
_cell_angle_alpha 90.000000
_cell_angle_beta 152.401855
_cell_angle_gamma 90.000000
_cell_volume 670.588074
_symmetry_space_group_name_H-M "P 21"
_symmetry_group_IT_number 4
_symmetry_cell_setting 'monoclinic'
loop_
_space_group_symop_operation_xyz
x,y,z
-x,1/2+y,-z
loop_
_atom_site_type_symbol
_atom_site_label
_atom_site_fract_x
_atom_site_fract_y
_atom_site_fract_z
Si Si1 0.745004 0.951300 0.111948
Si Si2 0.158983 0.151343 0.663226
Si Si3 0.950984 0.294203 0.882677
Si Si4 0.306019 0.749786 0.004728
Si Si5 0.775967 0.651774 0.862050
Si Si6 0.101488 0.786187 0.581555
Si Si7 0.289479 0.826368 0.436745
Si Si8 0.420618 0.144864 0.560949
O O1 0.448831 0.913826 0.033137
O O2 0.793451 0.829773 0.066336
O O3 0.051544 0.942823 0.291842
O O4 0.692299 0.132327 0.061682
O O5 0.489373 0.178433 0.842421
O O6 0.109487 0.285257 0.580251
O O7 0.887079 0.175598 0.602156
O O8 0.154863 0.971251 0.628600
O O9 0.829098 0.463240 0.863875
O O10 0.662375 0.195401 0.725811
O O11 0.112230 0.179168 0.010049
O O12 0.964922 0.768980 0.889387
O O13 0.418568 0.695445 0.700074
O O14 0.927739 0.684655 0.566516
O O15 0.533826 0.745906 0.490876
O O16 0.458917 0.948961 0.564857
#
# Coordination Sequence:
#
# PCOD8046653 Si02
#       8
#     2   2   2   2   2   2   2   2
#     4   9  21  41  65  96 129 165 215 270 328 393
#     4  11  24  44  67  97 133 173 222 276 337 401
#     4  10  23  44  66  97 135 175 223 278 333 397
#     4  10  22  43  67  94 131 170 216 270 327 393
#     4  11  24  42  67  99 135 177 225 277 334 399
#     4  12  24  41  66  97 134 178 224 276 335 400
#     4  10  23  42  68 100 132 171 221 278 338 400
#     4  11  23  43  68  96 135 177 222 277 334 401
#
# _framework density 23.859655
#
# number of rings (size 3 to 8) (size 9 to 14) (size 15 to 20)
#    0.000    1.500    0.000    4.500    0.000    8.000 
#    0.000    5.000    0.000    0.000    0.000    0.000 
#    0.000    0.000    0.000    0.000    0.000    0.000 
#
# Total GULP energy -198431.476248 kJ/mol
# GULP energy per Si atom -12401.967266 kJ/mol
# Density = 2.380535 g / cm^3
# Si number density = 23.859655 Si / 1000 Ang^3
#
#
#
# Elastic Constant Matrix: (Units=GPa)
#
#
# Indices 1 2 3 4 5 6 
#
# 1 121.3922 9.4229 37.2803 0.0000 15.7120 0.0000
# 2 9.4229 45.5867 21.4582 0.0000 -6.6402 0.0000
# 3 37.2803 21.4582 55.6378 0.0000 4.3998 0.0000
# 4 0.0000 0.0000 0.0000 32.5090 0.0000 -16.6459
# 5 15.7120 -6.6402 4.3998 0.0000 45.7033 0.0000
# 6 0.0000 0.0000 0.0000 -16.6459 0.0000 49.6965
#
#
#
# Elastic Compliance Matrix: (Units=1/GPa)
#
#
# Indices 1 2 3 4 5 6 
#
# 1 0.010796 0.000787 -0.007308 0.000000 -0.002893 0.000000
# 2 0.000787 0.028007 -0.011719 0.000000 0.004927 0.000000
# 3 -0.007308 -0.011719 0.027536 0.000000 -0.001841 0.000000
# 4 0.000000 0.000000 0.000000 0.037129 0.000000 0.012436
# 5 -0.002893 0.004927 -0.001841 0.000000 0.023768 0.000000
# 6 0.000000 0.000000 0.000000 0.012436 0.000000 0.024288
#
#
# Mechanical properties :
#
#
# Convention : Reuss Voigt Hill
#
# Bulk Modulus (GPa) = 33.49128 39.88216 36.68672
# Shear Modulus (GPa) = 25.25812 35.87877 30.56845
#
# Velocity S-wave (km/s) = 3.25716 3.88202 3.58324
# Velocity P-wave (km/s) = 5.31157 6.07001 5.70341
#
# Compressibility (1/GPa) = 0.02985852
#
# Stress axis : x y z
#
# Youngs Moduli (GPa) = 92.63006 35.70484 36.31639
#
# Poissons Ratio (x) = -0.02811 0.26542
# Poissons Ratio (y) = -0.07292 0.42559
# Poissons Ratio (z) = 0.67698 0.41842
#
# Static dielectric constant tensor:
#      x y z
#    x 4.672940 0.000000 -0.073430 
#    y 0.000000 4.037590 0.000000 
#    z -0.073430 0.000000 4.251370 
# 
# 
# High freq. dielectric constant tensor:
#      x y z
#    x 1.972840 0.000000 -0.004740 
#    y 0.000000 1.934630 0.000000 
#    z -0.004740 0.000000 1.941190 
# 
# From -- ./inp_files/5756.got.cif
#   From: 2010.03.12/outbox.cif.g09.slc.cpg/sg4_3_cif.got.tgz:5756.got - 2010.03.31 09:31:35.
